REMARK  Name = 
REMARK  8 active torsions:
REMARK  status: ('A' for Active; 'I' for Inactive)
REMARK    1  A    between atoms: C_2  and  C_4
REMARK    2  A    between atoms: C_4  and  C_5
REMARK    3  A    between atoms: C_4  and  N_12
REMARK    4  A    between atoms: C_5  and  C_6
REMARK    5  A    between atoms: N_12  and  C_13
REMARK    6  A    between atoms: C_13  and  C_14
REMARK    7  A    between atoms: C_18  and  N_19
REMARK    8  A    between atoms: C_23  and  C_25
REMARK                            x       y       z     vdW  Elec       q    Type
REMARK                         _______ _______ _______ _____ _____    ______ ____
ROOT
ATOM      1  N   UNL     1       2.055   0.127  -2.505  0.00  0.00    -0.285 N 
ATOM      2  C   UNL     1       0.772   0.467  -2.923  0.00  0.00    +0.249 C 
ATOM      3  O   UNL     1      -0.219   0.553  -2.203  0.00  0.00    -0.270 OA
ENDROOT
BRANCH   2   4
ATOM      4  C   UNL     1       0.553   0.662  -4.363  0.00  0.00    +0.055 A 
ATOM      5  C   UNL     1       0.333  -0.494  -5.127  0.00  0.00    +0.016 A 
ATOM      6  C   UNL     1       0.115  -0.389  -6.500  0.00  0.00    +0.021 A 
ATOM      7  C   UNL     1       0.102   0.871  -7.097  0.00  0.00    +0.042 A 
ATOM      8 CL   UNL     1      -0.150   1.004  -8.794  0.00  0.00    -0.083 Cl
ATOM      9  C   UNL     1       0.294   2.025  -6.335  0.00  0.00    +0.040 A 
ATOM     10  C   UNL     1       0.512   1.923  -4.958  0.00  0.00    +0.054 A 
ATOM     11 CL   UNL     1       0.752   3.380  -4.065  0.00  0.00    -0.083 Cl
ENDBRANCH   2   4
BRANCH   1  12
ATOM     12  C   UNL     1       2.209  -0.572  -1.190  0.00  0.00    +0.127 C 
BRANCH  12  14
ATOM     13  O   UNL     1       1.232  -2.366   0.092  0.00  0.00    -0.548 OA
ATOM     14  C   UNL     1       1.459  -1.950  -1.081  0.00  0.00    +0.062 C 
ATOM     15  O   UNL     1       1.269  -2.557  -2.181  0.00  0.00    -0.548 OA
ENDBRANCH  12  14
BRANCH  12  16
ATOM     16  C   UNL     1       1.899   0.330   0.019  0.00  0.00    +0.063 C 
BRANCH  16  17
ATOM     17  C   UNL     1       2.734   1.596   0.050  0.00  0.00    -0.045 A 
ATOM     18  C   UNL     1       4.056   1.567   0.515  0.00  0.00    +0.004 A 
ATOM     19  C   UNL     1       4.831   2.727   0.511  0.00  0.00    +0.000 A 
ATOM     20  C   UNL     1       4.293   3.925   0.042  0.00  0.00    +0.000 A 
ATOM     21  C   UNL     1       2.979   3.964  -0.422  0.00  0.00    +0.000 A 
ATOM     22  C   UNL     1       2.203   2.805  -0.416  0.00  0.00    +0.004 A 
ENDBRANCH  16  17
ENDBRANCH  12  16
ENDBRANCH   1  12
BRANCH   1  23
ATOM     23  C   UNL     1       3.273   0.494  -3.226  0.00  0.00    +0.144 C 
BRANCH  23  24
ATOM     24  C   UNL     1       3.607  -0.362  -4.428  0.00  0.00    -0.024 A 
ATOM     25  C   UNL     1       3.656  -1.760  -4.337  0.00  0.00    +0.005 A 
ATOM     26  C   UNL     1       3.955  -2.547  -5.452  0.00  0.00    +0.007 A 
ATOM     27  C   UNL     1       4.225  -1.947  -6.680  0.00  0.00    +0.084 A 
ATOM     28  C   UNL     1       4.198  -0.552  -6.779  0.00  0.00    +0.273 A 
ATOM     29  C   UNL     1       3.902   0.242  -5.661  0.00  0.00    +0.089 A 
BRANCH  28  30
ATOM     30  N   UNL     1       4.475   0.089  -8.070  0.00  0.00    +0.080 N 
ATOM     31  O   UNL     1       4.809  -0.637  -9.018  0.00  0.00    +0.041 OA
ATOM     32  O   UNL     1       4.368   1.323  -8.139  0.00  0.00    -0.576 OA
ENDBRANCH  28  30
ENDBRANCH  23  24
ENDBRANCH   1  23
TORSDOF 8
