REMARK  Name = 
REMARK  6 active torsions:
REMARK  status: ('A' for Active; 'I' for Inactive)
REMARK    1  A    between atoms: C_2  and  C_22
REMARK    2  A    between atoms: N_3  and  C_4
REMARK    3  A    between atoms: C_5  and  O_6
REMARK    4  A    between atoms: O_6  and  C_7
REMARK    5  A    between atoms: C_7  and  C_8
REMARK    6  A    between atoms: C_18  and  C_19
REMARK                            x       y       z     vdW  Elec       q    Type
REMARK                         _______ _______ _______ _____ _____    ______ ____
ROOT
ATOM      1  C   UNL     1       5.025  -1.258   0.209  0.00  0.00    +0.085 A 
ATOM      2  C   UNL     1       5.302  -1.778  -1.079  0.00  0.00    +0.143 A 
ATOM      3  C   UNL     1       6.558  -1.674  -1.676  0.00  0.00    +0.047 A 
ATOM      4  C   UNL     1       7.572  -1.015  -0.998  0.00  0.00    +0.004 A 
ATOM      5  C   UNL     1       7.329  -0.518   0.283  0.00  0.00    +0.012 A 
ATOM      6  C   UNL     1       6.072  -0.655   0.923  0.00  0.00    +0.022 A 
ENDROOT
BRANCH   1   9
ATOM      7  O   UNL     1       1.763  -1.154   1.765  0.00  0.00    -0.270 OA
ATOM      8  C   UNL     1       2.867  -0.695   1.452  0.00  0.00    +0.248 C 
ATOM      9  N   UNL     1       3.688  -1.425   0.629  0.00  0.00    -0.278 N 
ATOM     10  H   UNL     1       3.222  -2.235   0.238  0.00  0.00    +0.155 HD
BRANCH   8  11
ATOM     11  C   UNL     1       3.143   0.722   1.778  0.00  0.00    +0.037 A 
ATOM     12  C   UNL     1       3.549   1.631   0.794  0.00  0.00    +0.013 A 
ATOM     13  C   UNL     1       3.726   2.977   1.120  0.00  0.00    +0.001 A 
ATOM     14  C   UNL     1       3.480   3.419   2.421  0.00  0.00    +0.000 A 
ATOM     15  C   UNL     1       3.052   2.519   3.397  0.00  0.00    +0.001 A 
ATOM     16  C   UNL     1       2.872   1.173   3.074  0.00  0.00    +0.013 A 
ENDBRANCH   8  11
ENDBRANCH   1   9
BRANCH   6  17
ATOM     17  C   UNL     1       6.021  -0.270   2.382  0.00  0.00    +0.074 C 
ATOM     18  O   UNL     1       6.693   0.756   2.719  0.00  0.00    -0.545 OA
ATOM     19  O   UNL     1       5.373  -1.027   3.168  0.00  0.00    -0.545 OA
ENDBRANCH   6  17
BRANCH   2  20
ATOM     20  O   UNL     1       4.303  -2.413  -1.788  0.00  0.00    -0.486 OA
BRANCH  20  21
ATOM     21  C   UNL     1       3.625  -1.467  -2.621  0.00  0.00    +0.264 C 
BRANCH  21  22
ATOM     22  C   UNL     1       2.269  -2.036  -2.962  0.00  0.00    -0.010 A 
ATOM     23  C   UNL     1       1.158  -1.751  -2.153  0.00  0.00    +0.008 A 
ATOM     24  C   UNL     1      -0.093  -2.296  -2.451  0.00  0.00    +0.020 A 
ATOM     25  C   UNL     1      -0.237  -3.135  -3.553  0.00  0.00    +0.041 A 
ATOM     26 CL   UNL     1      -1.778  -3.807  -3.923  0.00  0.00    -0.084 Cl
ATOM     27  C   UNL     1       0.860  -3.439  -4.357  0.00  0.00    +0.020 A 
ATOM     28  C   UNL     1       2.112  -2.895  -4.059  0.00  0.00    +0.008 A 
ENDBRANCH  21  22
ENDBRANCH  20  21
ENDBRANCH   2  20
TORSDOF 6
