
 OpenBabel09122222393D

 28 30  0  0  0  0  0  0  0  0999 V2000
    4.5570   -5.5730    4.7980 C   0  0  0  0  0  0  0  0  0  0  0  0
    4.9510   -5.7810    3.4540 C   0  0  0  0  0  0  0  0  0  0  0  0
    4.3520   -6.7400    2.6370 C   0  0  0  0  0  3  0  0  0  0  0  0
    3.3500   -7.5400    3.1620 C   0  0  0  0  0  3  0  0  0  0  0  0
    2.9280   -7.3340    4.4760 C   0  0  0  0  0  3  0  0  0  0  0  0
    3.4930   -6.3340    5.3060 C   0  0  0  0  0  0  0  0  0  0  0  0
    5.9940   -2.5790    6.2290 O   0  0  0  0  0  0  0  0  0  0  0  0
    5.0910   -3.2510    5.7170 C   0  0  0  0  0  0  0  0  0  0  0  0
    5.3040   -4.5860    5.4770 N   0  0  0  0  0  0  0  0  0  0  0  0
    6.1650   -4.9210    5.8910 H   0  0  0  0  0  0  0  0  0  0  0  0
    3.7470   -2.6410    5.6190 C   0  0  0  0  0  0  0  0  0  0  0  0
    3.2200   -1.8660    6.6590 C   0  0  0  0  0  3  0  0  0  0  0  0
    1.9810   -1.2410    6.5030 C   0  0  0  0  0  3  0  0  0  0  0  0
    1.2780   -1.3740    5.3050 C   0  0  0  0  0  3  0  0  0  0  0  0
    1.8120   -2.1260    4.2590 C   0  0  0  0  0  3  0  0  0  0  0  0
    3.0510   -2.7500    4.4110 C   0  0  0  0  0  3  0  0  0  0  0  0
    2.7910   -6.0800    6.6180 C   0  0  0  0  0  0  0  0  0  0  0  0
    3.5200   -5.6850    7.5820 O   0  0  0  0  0  1  0  0  0  0  0  0
    1.5500   -6.3400    6.6810 O   0  0  0  0  0  0  0  0  0  0  0  0
    5.9660   -5.0180    2.9140 O   0  0  0  0  0  0  0  0  0  0  0  0
    6.5080   -5.6780    1.7650 C   0  0  0  0  0  2  0  0  0  0  0  0
    7.6270   -4.8220    1.2230 C   0  0  0  0  0  0  0  0  0  0  0  0
    8.1420   -3.7630    1.9860 C   0  0  0  0  0  3  0  0  0  0  0  0
    9.1600   -2.9540    1.4780 C   0  0  0  0  0  3  0  0  0  0  0  0
    9.6620   -3.1930    0.2010 C   0  0  0  0  0  0  0  0  0  0  0  0
   10.9170   -2.1980   -0.4280 Cl  0  0  0  0  0  0  0  0  0  0  0  0
    9.1500   -4.2320   -0.5750 C   0  0  0  0  0  3  0  0  0  0  0  0
    8.1310   -5.0420   -0.0670 C   0  0  0  0  0  3  0  0  0  0  0  0
  1  6  1  0  0  0  0
  1  9  1  0  0  0  0
  2  1  2  0  0  0  0
  3  4  2  0  0  0  0
  3  2  1  0  0  0  0
  4  5  1  0  0  0  0
  5  6  2  0  0  0  0
  6 17  1  0  0  0  0
  8  7  2  0  0  0  0
  9  8  1  0  0  0  0
  9 10  1  0  0  0  0
 11  8  1  0  0  0  0
 11 12  1  0  0  0  0
 13 12  2  0  0  0  0
 14 13  1  0  0  0  0
 15 16  1  0  0  0  0
 15 14  2  0  0  0  0
 16 11  2  0  0  0  0
 17 19  2  0  0  0  0
 17 18  1  0  0  0  0
 20  2  1  0  0  0  0
 21 20  1  0  0  0  0
 22 21  1  0  0  0  0
 22 23  1  0  0  0  0
 24 23  2  0  0  0  0
 25 24  1  0  0  0  0
 26 25  1  0  0  0  0
 27 28  1  0  0  0  0
 27 25  2  0  0  0  0
 28 22  2  0  0  0  0
M  END
>  <minimizedAffinity>
-6.54559517

$$$$
