
 OpenBabel09122222393D

 28 30  0  0  0  0  0  0  0  0999 V2000
    8.6420   -4.2610    1.1850 C   0  0  0  0  0  0  0  0  0  0  0  0
    7.3290   -4.7380    1.4180 C   0  0  0  0  0  0  0  0  0  0  0  0
    6.5030   -5.1950    0.3910 C   0  0  0  0  0  3  0  0  0  0  0  0
    6.9710   -5.1590   -0.9140 C   0  0  0  0  0  3  0  0  0  0  0  0
    8.2710   -4.7180   -1.1640 C   0  0  0  0  0  3  0  0  0  0  0  0
    9.1390   -4.2930   -0.1270 C   0  0  0  0  0  0  0  0  0  0  0  0
   10.5860   -2.5540    3.7110 O   0  0  0  0  0  0  0  0  0  0  0  0
    9.9550   -2.6350    2.6510 C   0  0  0  0  0  0  0  0  0  0  0  0
    9.3100   -3.8060    2.3420 N   0  0  0  0  0  0  0  0  0  0  0  0
    9.3050   -4.4610    3.1150 H   0  0  0  0  0  0  0  0  0  0  0  0
    9.7210   -1.3870    1.8900 C   0  0  0  0  0  0  0  0  0  0  0  0
    9.1850   -0.2480    2.5030 C   0  0  0  0  0  3  0  0  0  0  0  0
    9.0500    0.9360    1.7760 C   0  0  0  0  0  3  0  0  0  0  0  0
    9.4660    0.9890    0.4450 C   0  0  0  0  0  3  0  0  0  0  0  0
   10.0230   -0.1370   -0.1610 C   0  0  0  0  0  3  0  0  0  0  0  0
   10.1620   -1.3220    0.5640 C   0  0  0  0  0  3  0  0  0  0  0  0
   10.5780   -4.0570   -0.5180 C   0  0  0  0  0  0  0  0  0  0  0  0
   10.7770   -3.5770   -1.6790 O   0  0  0  0  0  0  0  0  0  0  0  0
   11.4770   -4.4110    0.3050 O   0  0  0  0  0  1  0  0  0  0  0  0
    6.8280   -4.7580    2.7030 O   0  0  0  0  0  0  0  0  0  0  0  0
    5.4210   -5.0230    2.6700 C   0  0  0  0  0  2  0  0  0  0  0  0
    4.7630   -4.1740    3.7300 C   0  0  0  0  0  0  0  0  0  0  0  0
    3.5010   -3.6050    3.4990 C   0  0  0  0  0  3  0  0  0  0  0  0
    2.9000   -2.7980    4.4680 C   0  0  0  0  0  3  0  0  0  0  0  0
    3.5620   -2.5490    5.6680 C   0  0  0  0  0  0  0  0  0  0  0  0
    2.8220   -1.5570    6.8640 Cl  0  0  0  0  0  0  0  0  0  0  0  0
    4.8220   -3.0950    5.9060 C   0  0  0  0  0  3  0  0  0  0  0  0
    5.4240   -3.9020    4.9370 C   0  0  0  0  0  3  0  0  0  0  0  0
  1  2  1  0  0  0  0
  1  9  1  0  0  0  0
  2 20  1  0  0  0  0
  3  2  2  0  0  0  0
  4  3  1  0  0  0  0
  5  4  2  0  0  0  0
  5  6  1  0  0  0  0
  6  1  2  0  0  0  0
  8  7  2  0  0  0  0
  9  8  1  0  0  0  0
  9 10  1  0  0  0  0
 11 12  1  0  0  0  0
 11  8  1  0  0  0  0
 13 12  2  0  0  0  0
 14 13  1  0  0  0  0
 15 14  2  0  0  0  0
 15 16  1  0  0  0  0
 16 11  2  0  0  0  0
 17  6  1  0  0  0  0
 17 19  1  0  0  0  0
 18 17  2  0  0  0  0
 21 20  1  0  0  0  0
 21 22  1  0  0  0  0
 22 28  1  0  0  0  0
 23 22  2  0  0  0  0
 23 24  1  0  0  0  0
 24 25  2  0  0  0  0
 25 27  1  0  0  0  0
 25 26  1  0  0  0  0
 28 27  2  0  0  0  0
M  END
>  <minimizedAffinity>
-5.98214912

$$$$
