
 OpenBabel09122222393D

 28 30  0  0  0  0  0  0  0  0999 V2000
    9.0830   -3.7510    1.4810 C   0  0  0  0  0  0  0  0  0  0  0  0
    8.5470   -3.0500    2.5890 C   0  0  0  0  0  0  0  0  0  0  0  0
    8.5080   -1.6580    2.6490 C   0  0  0  0  0  3  0  0  0  0  0  0
    9.0350   -0.9250    1.5960 C   0  0  0  0  0  3  0  0  0  0  0  0
    9.5430   -1.5940    0.4820 C   0  0  0  0  0  3  0  0  0  0  0  0
    9.5490   -3.0080    0.3860 C   0  0  0  0  0  0  0  0  0  0  0  0
    8.3280   -7.2610    1.9100 O   0  0  0  0  0  0  0  0  0  0  0  0
    8.0630   -6.0870    1.6260 C   0  0  0  0  0  0  0  0  0  0  0  0
    9.0710   -5.1550    1.6190 N   0  0  0  0  0  0  0  0  0  0  0  0
    9.9870   -5.5760    1.7170 H   0  0  0  0  0  0  0  0  0  0  0  0
    6.7240   -5.7980    1.0660 C   0  0  0  0  0  0  0  0  0  0  0  0
    6.4380   -6.0080   -0.2880 C   0  0  0  0  0  3  0  0  0  0  0  0
    5.1440   -5.7980   -0.7670 C   0  0  0  0  0  3  0  0  0  0  0  0
    4.1320   -5.3980    0.1070 C   0  0  0  0  0  3  0  0  0  0  0  0
    4.4090   -5.2120    1.4620 C   0  0  0  0  0  3  0  0  0  0  0  0
    5.7020   -5.4220    1.9440 C   0  0  0  0  0  3  0  0  0  0  0  0
    9.9220   -3.5820   -0.9600 C   0  0  0  0  0  0  0  0  0  0  0  0
    9.1830   -4.5210   -1.3970 O   0  0  0  0  0  1  0  0  0  0  0  0
   10.9710   -3.1380   -1.5200 O   0  0  0  0  0  0  0  0  0  0  0  0
    8.0430   -3.7550    3.6630 O   0  0  0  0  0  0  0  0  0  0  0  0
    8.1440   -2.9630    4.8510 C   0  0  0  0  0  2  0  0  0  0  0  0
    6.8050   -2.9970    5.5480 C   0  0  0  0  0  0  0  0  0  0  0  0
    5.7380   -3.7210    4.9940 C   0  0  0  0  0  3  0  0  0  0  0  0
    4.4900   -3.7340    5.6220 C   0  0  0  0  0  3  0  0  0  0  0  0
    4.3020   -3.0180    6.8010 C   0  0  0  0  0  0  0  0  0  0  0  0
    2.7660   -3.0330    7.5770 Cl  0  0  0  0  0  0  0  0  0  0  0  0
    5.3480   -2.2820    7.3550 C   0  0  0  0  0  3  0  0  0  0  0  0
    6.5960   -2.2680    6.7260 C   0  0  0  0  0  3  0  0  0  0  0  0
  1  9  1  0  0  0  0
  1  2  1  0  0  0  0
  2  3  2  0  0  0  0
  2 20  1  0  0  0  0
  4  3  1  0  0  0  0
  5  4  2  0  0  0  0
  6  5  1  0  0  0  0
  6  1  2  0  0  0  0
  8  7  2  0  0  0  0
  9  8  1  0  0  0  0
  9 10  1  0  0  0  0
 11  8  1  0  0  0  0
 11 16  1  0  0  0  0
 12 11  2  0  0  0  0
 13 12  1  0  0  0  0
 13 14  2  0  0  0  0
 14 15  1  0  0  0  0
 15 16  2  0  0  0  0
 17  6  1  0  0  0  0
 18 17  1  0  0  0  0
 19 17  2  0  0  0  0
 20 21  1  0  0  0  0
 21 22  1  0  0  0  0
 22 28  1  0  0  0  0
 23 22  2  0  0  0  0
 23 24  1  0  0  0  0
 24 25  2  0  0  0  0
 25 27  1  0  0  0  0
 25 26  1  0  0  0  0
 28 27  2  0  0  0  0
M  END
>  <minimizedAffinity>
-5.27166367

$$$$
