REMARK  Name = 
REMARK  6 active torsions:
REMARK  status: ('A' for Active; 'I' for Inactive)
REMARK    1  A    between atoms: C_2  and  C_3
REMARK    2  A    between atoms: C_4  and  C_5
REMARK    3  A    between atoms: C_13  and  S_14
REMARK    4  A    between atoms: S_14  and  C_15
REMARK    5  A    between atoms: C_15  and  C_16
REMARK    6  A    between atoms: C_20  and  N_21
REMARK                            x       y       z     vdW  Elec       q    Type
REMARK                         _______ _______ _______ _____ _____    ______ ____
ROOT
ATOM      1  C   UNL     1       3.718   0.052   0.058  0.00  0.00    +0.142 A 
ATOM      2  C   UNL     1       4.483   1.124   0.332  0.00  0.00    +0.096 A 
ATOM      3  N   UNL     1       5.861   1.123   0.264  0.00  0.00    -0.222 NA
ATOM      4  C   UNL     1       6.439   0.045  -0.143  0.00  0.00    +0.170 A 
ATOM      5  N   UNL     1       5.768  -1.080  -0.499  0.00  0.00    -0.301 N 
ATOM      6  C   UNL     1       4.414  -1.178  -0.373  0.00  0.00    +0.270 A 
ATOM      7  O   UNL     1       3.829  -2.227  -0.617  0.00  0.00    -0.266 OA
ATOM      8  H   UNL     1       6.254  -1.891  -0.841  0.00  0.00    +0.171 HD
ENDROOT
BRANCH   2   9
ATOM      9  C   UNL     1       3.863   2.430   0.641  0.00  0.00    +0.002 A 
ATOM     10  C   UNL     1       3.182   2.656   1.844  0.00  0.00    +0.011 A 
ATOM     11  C   UNL     1       2.590   3.897   2.097  0.00  0.00    +0.016 A 
ATOM     12  C   UNL     1       2.685   4.917   1.151  0.00  0.00    +0.018 A 
ATOM     13 BR   UNL     1       1.883   6.594   1.493  0.00  0.00    -0.050 Br
ATOM     14  C   UNL     1       3.372   4.712  -0.043  0.00  0.00    +0.016 A 
ATOM     15  C   UNL     1       3.963   3.472  -0.295  0.00  0.00    +0.011 A 
ENDBRANCH   2   9
BRANCH   1  17
ATOM     16  N   UNL     1       0.937   0.052   0.058  0.00  0.00    -0.191 NA
ATOM     17  C   UNL     1       2.198   0.052   0.058  0.00  0.00    +0.107 C 
ENDBRANCH   1  17
BRANCH   4  18
ATOM     18  S   UNL     1       8.163   0.005  -0.315  0.00  0.00    -0.083 S 
BRANCH  18  19
ATOM     19  C   UNL     1       8.649  -1.581   0.400  0.00  0.00    +0.112 C 
BRANCH  19  20
ATOM     20  C   UNL     1       7.959  -1.978   1.683  0.00  0.00    -0.031 A 
ATOM     21  C   UNL     1       7.326  -3.230   1.773  0.00  0.00    +0.005 A 
ATOM     22  C   UNL     1       6.700  -3.636   2.954  0.00  0.00    +0.007 A 
ATOM     23  C   UNL     1       6.703  -2.802   4.070  0.00  0.00    +0.084 A 
ATOM     24  C   UNL     1       7.344  -1.559   3.998  0.00  0.00    +0.273 A 
ATOM     25  C   UNL     1       7.975  -1.146   2.814  0.00  0.00    +0.088 A 
BRANCH  24  26
ATOM     26  N   UNL     1       7.358  -0.682   5.176  0.00  0.00    +0.080 N 
ATOM     27  O   UNL     1       6.751  -1.066   6.186  0.00  0.00    +0.041 OA
ATOM     28  O   UNL     1       7.974   0.389   5.091  0.00  0.00    -0.576 OA
ENDBRANCH  24  26
ENDBRANCH  19  20
ENDBRANCH  18  19
ENDBRANCH   4  18
TORSDOF 6
