
 OpenBabel09122222393D

 28 30  0  0  0  0  0  0  0  0999 V2000
    5.8960   -5.8290    2.4130 C   0  0  0  0  0  0  0  0  0  0  0  0
    6.1350   -4.5900    2.8790 C   0  0  0  0  0  0  0  0  0  0  0  0
    7.2020   -3.8120    2.4800 N   0  0  0  0  0  0  0  0  0  0  0  0
    7.9770   -4.2830    1.5640 C   0  0  0  0  0  0  0  0  0  0  0  0
    7.8020   -5.4970    0.9820 N   0  0  0  0  0  0  0  0  0  0  0  0
    6.8230   -6.3540    1.3890 C   0  0  0  0  0  0  0  0  0  0  0  0
    6.7280   -7.4800    0.9150 O   0  0  0  0  0  0  0  0  0  0  0  0
    8.4110   -5.8170    0.2490 H   0  0  0  0  0  0  0  0  0  0  0  0
    5.1840   -3.9390    3.8040 C   0  0  0  0  0  0  0  0  0  0  0  0
    3.9460   -3.4530    3.3660 C   0  0  0  0  0  3  0  0  0  0  0  0
    3.0770   -2.8240    4.2640 C   0  0  0  0  0  3  0  0  0  0  0  0
    3.4430   -2.6880    5.6030 C   0  0  0  0  0  0  0  0  0  0  0  0
    2.2690   -1.8360    6.8150 Br  0  0  0  0  0  0  0  0  0  0  0  0
    4.6640   -3.1800    6.0560 C   0  0  0  0  0  3  0  0  0  0  0  0
    5.5310   -3.8070    5.1590 C   0  0  0  0  0  3  0  0  0  0  0  0
    3.6870   -7.3760    3.0960 N   0  0  0  0  0  1  0  0  0  0  0  0
    4.6890   -6.6750    2.7860 C   0  0  0  0  0  2  0  0  0  0  0  0
    9.2940   -3.3240    0.9720 S   0  0  0  0  0  0  0  0  0  0  0  0
    8.9880   -1.6770    1.6480 C   0  0  0  0  0  2  0  0  0  0  0  0
    9.5300   -0.5140    0.8520 C   0  0  0  0  0  0  0  0  0  0  0  0
    9.5530    0.7690    1.4250 C   0  0  0  0  0  3  0  0  0  0  0  0
   10.0700    1.8610    0.7230 C   0  0  0  0  0  3  0  0  0  0  0  0
   10.5830    1.6880   -0.5610 C   0  0  0  0  0  3  0  0  0  0  0  0
   10.5810    0.4110   -1.1360 C   0  0  0  0  0  0  0  0  0  0  0  0
   10.0630   -0.6890   -0.4350 C   0  0  0  0  0  3  0  0  0  0  0  0
   11.1300    0.2230   -2.4850 N   0  0  0  0  0  0  0  0  0  0  0  0
   10.5780   -0.6070   -3.2210 O   0  0  0  0  0  0  0  0  0  0  0  0
   12.1130    0.9040   -2.8080 O   0  0  0  0  0  0  0  0  0  0  0  0
  1 17  1  0  0  0  0
  1  2  2  0  0  0  0
  2  9  1  0  0  0  0
  3  2  1  0  0  0  0
  4  3  2  0  0  0  0
  5  6  1  0  0  0  0
  5  4  1  0  0  0  0
  6  1  1  0  0  0  0
  7  6  2  0  0  0  0
  8  5  1  0  0  0  0
  9 15  1  0  0  0  0
 10  9  2  0  0  0  0
 10 11  1  0  0  0  0
 11 12  2  0  0  0  0
 12 14  1  0  0  0  0
 12 13  1  0  0  0  0
 15 14  2  0  0  0  0
 17 16  1  0  0  0  0
 18  4  1  0  0  0  0
 18 19  1  0  0  0  0
 20 21  1  0  0  0  0
 20 19  1  0  0  0  0
 22 21  2  0  0  0  0
 23 22  1  0  0  0  0
 24 23  2  0  0  0  0
 24 25  1  0  0  0  0
 25 20  2  0  0  0  0
 26 24  1  0  0  0  0
 27 26  2  0  0  0  0
 28 26  2  0  0  0  0
M  END
>  <minimizedAffinity>
-7.63236427

$$$$
