REMARK  Name = 
REMARK  8 active torsions:
REMARK  status: ('A' for Active; 'I' for Inactive)
REMARK    1  A    between atoms: C_1  and  C_2
REMARK    2  A    between atoms: C_2  and  C_3
REMARK    3  A    between atoms: C_3  and  C_4
REMARK    4  A    between atoms: C_4  and  C_5
REMARK    5  A    between atoms: C_5  and  S_6
REMARK    6  A    between atoms: S_6  and  C_7
REMARK    7  A    between atoms: C_9  and  C_10
REMARK    8  A    between atoms: C_18  and  C_19
REMARK                            x       y       z     vdW  Elec       q    Type
REMARK                         _______ _______ _______ _____ _____    ______ ____
ROOT
ATOM      1  C   UNL     1      -1.130   4.028   0.163  0.00  0.00    +0.170 A 
ATOM      2  N   UNL     1      -0.799   5.267   0.302  0.00  0.00    -0.222 NA
ATOM      3  C   UNL     1      -0.412   5.678   1.560  0.00  0.00    +0.098 A 
ATOM      4  C   UNL     1      -0.241   4.848   2.605  0.00  0.00    +0.142 A 
ATOM      5  C   UNL     1      -0.577   3.426   2.395  0.00  0.00    +0.270 A 
ATOM      6  O   UNL     1      -0.425   2.571   3.258  0.00  0.00    -0.266 OA
ATOM      7  N   UNL     1      -1.079   3.115   1.166  0.00  0.00    -0.301 N 
ATOM      8  H   UNL     1      -1.384   2.167   1.016  0.00  0.00    +0.171 HD
ENDROOT
BRANCH   3   9
ATOM      9  C   UNL     1      -0.261   7.138   1.737  0.00  0.00    +0.020 A 
ATOM     10  C   UNL     1       0.971   7.739   1.441  0.00  0.00    +0.013 A 
ATOM     11  C   UNL     1       1.142   9.116   1.606  0.00  0.00    +0.021 A 
ATOM     12  C   UNL     1       0.082   9.900   2.061  0.00  0.00    +0.042 A 
ATOM     13 CL   UNL     1       0.298  11.595   2.259  0.00  0.00    -0.083 Cl
ATOM     14  C   UNL     1      -1.150   9.323   2.353  0.00  0.00    +0.040 A 
ATOM     15  C   UNL     1      -1.322   7.947   2.191  0.00  0.00    +0.052 A 
ATOM     16 CL   UNL     1      -2.873   7.280   2.573  0.00  0.00    -0.083 Cl
ENDBRANCH   3   9
BRANCH   4  17
ATOM     17  C   UNL     1       0.158   5.297   4.002  0.00  0.00    +0.107 C 
ATOM     18  N   UNL     1       0.488   5.669   5.161  0.00  0.00    -0.191 NA
ENDBRANCH   4  17
BRANCH   1  19
ATOM     19  S   UNL     1      -1.736   3.445  -1.349  0.00  0.00    -0.088 S 
BRANCH  19  20
ATOM     20  C   UNL     1      -0.734   1.971  -1.691  0.00  0.00    +0.077 C 
BRANCH  20  21
ATOM     21  C   UNL     1       0.723   2.251  -2.062  0.00  0.00    +0.011 C 
BRANCH  21  22
ATOM     22  C   UNL     1       1.704   2.395  -0.894  0.00  0.00    +0.001 C 
BRANCH  22  24
ATOM     23  C   UNL     1       2.140  -0.111  -0.613  0.00  0.00    +0.004 C 
ATOM     24  C   UNL     1       1.784   1.202   0.066  0.00  0.00    -0.003 C 
ENDBRANCH  22  24
ENDBRANCH  21  22
ENDBRANCH  20  21
ENDBRANCH  19  20
ENDBRANCH   1  19
TORSDOF 7
