
 OpenBabel09132204463D

 24 25  0  0  0  0  0  0  0  0999 V2000
    4.1170   -3.6560    6.8760 C   0  0  0  0  0  0  0  0  0  0  0  0
    3.0190   -3.1990    6.3760 N   0  0  0  0  0  0  0  0  0  0  0  0
    3.0030   -2.9410    5.0220 C   0  0  0  0  0  0  0  0  0  0  0  0
    4.0080   -3.2510    4.1830 C   0  0  0  0  0  0  0  0  0  0  0  0
    5.2300   -3.8240    4.7820 C   0  0  0  0  0  0  0  0  0  0  0  0
    6.1930   -4.1820    4.1170 O   0  0  0  0  0  0  0  0  0  0  0  0
    5.2250   -3.9280    6.1420 N   0  0  0  0  0  0  0  0  0  0  0  0
    6.0710   -4.2480    6.5850 H   0  0  0  0  0  0  0  0  0  0  0  0
    1.8180   -2.2100    4.5250 C   0  0  0  0  0  0  0  0  0  0  0  0
    2.0000   -1.0150    3.8140 C   0  0  0  0  0  3  0  0  0  0  0  0
    0.8960   -0.3020    3.3390 C   0  0  0  0  0  3  0  0  0  0  0  0
   -0.3940   -0.7820    3.5650 C   0  0  0  0  0  0  0  0  0  0  0  0
   -1.7480    0.0990    2.9750 Cl  0  0  0  0  0  0  0  0  0  0  0  0
   -0.5940   -1.9690    4.2620 C   0  0  0  0  0  3  0  0  0  0  0  0
    0.5070   -2.6820    4.7400 C   0  0  0  0  0  0  0  0  0  0  0  0
    0.2010   -4.1500    5.6040 Cl  0  0  0  0  0  0  0  0  0  0  0  0
    4.0100   -2.9440    2.6940 C   0  0  0  0  0  2  0  0  0  0  0  0
    4.0110   -2.6890    1.4590 N   0  0  0  0  0  1  0  0  0  0  0  0
    4.2700   -3.9040    8.5820 S   0  0  0  0  0  0  0  0  0  0  0  0
    4.6640   -2.2580    9.2360 C   0  0  0  0  0  2  0  0  0  0  0  0
    5.6570   -1.4490    8.4000 C   0  0  0  0  0  2  0  0  0  0  0  0
    5.0620   -0.6230    7.2540 C   0  0  0  0  0  2  0  0  0  0  0  0
    2.9780   -0.4960    8.7330 C   0  0  0  0  0  1  0  0  0  0  0  0
    3.7430    0.0950    7.5590 C   0  0  0  0  0  2  0  0  0  0  0  0
  1 19  1  0  0  0  0
  2  1  2  0  0  0  0
  3  2  1  0  0  0  0
  4  5  1  0  0  0  0
  4  3  2  0  0  0  0
  5  7  1  0  0  0  0
  6  5  2  0  0  0  0
  7  8  1  0  0  0  0
  7  1  1  0  0  0  0
  9 15  1  0  0  0  0
  9  3  1  0  0  0  0
 10  9  2  0  0  0  0
 11 12  2  0  0  0  0
 11 10  1  0  0  0  0
 12 14  1  0  0  0  0
 13 12  1  0  0  0  0
 14 15  2  0  0  0  0
 15 16  1  0  0  0  0
 17  4  1  0  0  0  0
 18 17  1  0  0  0  0
 19 20  1  0  0  0  0
 21 20  1  0  0  0  0
 22 24  1  0  0  0  0
 22 21  1  0  0  0  0
 24 23  1  0  0  0  0
M  END
>  <minimizedAffinity>
13.3351517

$$$$
