REMARK  Name = 
REMARK  5 active torsions:
REMARK  status: ('A' for Active; 'I' for Inactive)
REMARK    1  A    between atoms: C_2  and  C_4
REMARK    2  A    between atoms: C_6  and  C_7
REMARK    3  A    between atoms: C_14  and  N_15
REMARK    4  A    between atoms: N_15  and  S_16
REMARK    5  A    between atoms: S_16  and  C_19
REMARK                            x       y       z     vdW  Elec       q    Type
REMARK                         _______ _______ _______ _____ _____    ______ ____
ROOT
ATOM      1  C   UNL     1       2.752   1.719  -1.565  0.00  0.00    +0.057 A 
ATOM      2  S   UNL     1       3.873   1.394  -2.812  0.00  0.00    -0.085 S 
ATOM      3  C   UNL     1       4.869   2.719  -2.374  0.00  0.00    +0.022 A 
ATOM      4  C   UNL     1       4.347   3.375  -1.274  0.00  0.00    +0.041 A 
ATOM      5  C   UNL     1       3.112   2.823  -0.815  0.00  0.00    +0.065 A 
ENDROOT
BRANCH   3   6
ATOM      6  C   UNL     1       6.108   3.009  -3.111  0.00  0.00    -0.011 A 
ATOM      7  C   UNL     1       6.171   2.923  -4.511  0.00  0.00    +0.009 A 
ATOM      8  C   UNL     1       7.354   3.221  -5.194  0.00  0.00    +0.001 A 
ATOM      9  C   UNL     1       8.489   3.612  -4.489  0.00  0.00    +0.000 A 
ATOM     10  C   UNL     1       8.443   3.705  -3.100  0.00  0.00    +0.001 A 
ATOM     11  C   UNL     1       7.261   3.408  -2.417  0.00  0.00    +0.009 A 
ENDBRANCH   3   6
BRANCH   1  13
ATOM     12  O   UNL     1       0.784   1.308  -0.355  0.00  0.00    -0.544 OA
ATOM     13  C   UNL     1       1.518   0.923  -1.326  0.00  0.00    +0.080 C 
ATOM     14  O   UNL     1       1.286  -0.059  -2.094  0.00  0.00    -0.544 OA
ENDBRANCH   1  13
BRANCH   5  15
ATOM     15  N   UNL     1       2.361   3.315   0.274  0.00  0.00    -0.214 N 
ATOM     16  H   UNL     1       1.481   2.771   0.411  0.00  0.00    +0.174 HD
BRANCH  15  17
ATOM     17  S   UNL     1       2.163   4.953   0.603  0.00  0.00    +0.090 S 
ATOM     18  O   UNL     1       1.102   5.118   1.579  0.00  0.00    -0.148 OA
ATOM     19  O   UNL     1       3.470   5.535   0.871  0.00  0.00    -0.148 OA
BRANCH  17  20
ATOM     20  C   UNL     1       1.592   5.631  -0.959  0.00  0.00    +0.197 A 
ATOM     21  C   UNL     1       2.371   6.537  -1.664  0.00  0.00    +0.049 A 
ATOM     22  C   UNL     1       1.894   6.966  -2.899  0.00  0.00    +0.005 A 
ATOM     23  C   UNL     1       0.679   6.473  -3.372  0.00  0.00    +0.020 A 
ATOM     24  C   UNL     1      -0.027   5.573  -2.586  0.00  0.00    +0.113 A 
ATOM     25  N   UNL     1       0.394   5.148  -1.380  0.00  0.00    -0.235 NA
ENDBRANCH  17  20
ENDBRANCH  15  17
ENDBRANCH   5  15
TORSDOF 5
