
 OpenBabel09122222393D

 25 27  0  0  0  0  0  0  0  0999 V2000
   10.5850    2.3860    0.3670 C   0  0  0  0  0  0  0  0  0  0  0  0
   10.6600    0.9080   -0.4850 S   0  0  0  0  0  0  0  0  0  0  0  0
    9.8730    0.0480    0.7720 C   0  0  0  0  0  0  0  0  0  0  0  0
    9.5450    0.9010    1.8110 C   0  0  0  0  0  3  0  0  0  0  0  0
    9.9750    2.2470    1.6000 C   0  0  0  0  0  0  0  0  0  0  0  0
    9.6000   -1.3910    0.6470 C   0  0  0  0  0  0  0  0  0  0  0  0
   10.0880   -2.1440   -0.4330 C   0  0  0  0  0  3  0  0  0  0  0  0
    9.8320   -3.5160   -0.5230 C   0  0  0  0  0  3  0  0  0  0  0  0
    9.0880   -4.1550    0.4650 C   0  0  0  0  0  3  0  0  0  0  0  0
    8.5980   -3.4230    1.5440 C   0  0  0  0  0  3  0  0  0  0  0  0
    8.8540   -2.0530    1.6360 C   0  0  0  0  0  3  0  0  0  0  0  0
   12.2770    3.6070   -0.7060 O   0  0  0  0  0  0  0  0  0  0  0  0
   11.1320    3.6710   -0.1450 C   0  0  0  0  0  0  0  0  0  0  0  0
   10.4320    4.7180    0.0060 O   0  0  0  0  0  1  0  0  0  0  0  0
    9.7850    3.3090    2.5100 N   0  0  0  0  0  0  0  0  0  0  0  0
    9.8210    4.2360    2.0320 H   0  0  0  0  0  0  0  0  0  0  0  0
   10.4700    3.3500    4.0460 S   0  0  0  0  0  0  0  0  0  0  0  0
    9.4580    3.0050    5.0280 O   0  0  0  0  0  0  0  0  0  0  0  0
   11.7170    2.6010    4.0200 O   0  0  0  0  0  0  0  0  0  0  0  0
   10.8960    5.0800    4.2710 C   0  0  0  0  0  0  0  0  0  0  0  0
   11.6940    5.4790    5.3340 C   0  0  0  0  0  3  0  0  0  0  0  0
   12.0390    6.8260    5.4040 C   0  0  0  0  0  3  0  0  0  0  0  0
   11.5830    7.7010    4.4200 C   0  0  0  0  0  3  0  0  0  0  0  0
   10.7840    7.2020    3.4010 C   0  0  0  0  0  3  0  0  0  0  0  0
   10.4160    5.9100    3.3090 N   0  0  0  0  0  0  0  0  0  0  0  0
  1  5  2  0  0  0  0
  2  1  1  0  0  0  0
  2  3  1  0  0  0  0
  3  4  2  0  0  0  0
  5  4  1  0  0  0  0
  5 15  1  0  0  0  0
  6  3  1  0  0  0  0
  6 11  1  0  0  0  0
  7  6  2  0  0  0  0
  8  7  1  0  0  0  0
  8  9  2  0  0  0  0
  9 10  1  0  0  0  0
 10 11  2  0  0  0  0
 12 13  2  0  0  0  0
 13 14  1  0  0  0  0
 13  1  1  0  0  0  0
 15 17  1  0  0  0  0
 16 15  1  0  0  0  0
 17 20  1  0  0  0  0
 17 18  2  0  0  0  0
 19 17  2  0  0  0  0
 20 21  1  0  0  0  0
 21 22  2  0  0  0  0
 23 22  1  0  0  0  0
 24 23  2  0  0  0  0
 25 24  1  0  0  0  0
 25 20  2  0  0  0  0
M  END
>  <minimizedAffinity>
-5.60872316

$$$$
