
 OpenBabel09122218023D

 25 27  0  0  0  0  0  0  0  0999 V2000
    9.3110    8.4110    1.0830 C   0  0  0  0  0  0  0  0  0  0  0  0
    9.9070    7.6810    2.5080 S   0  0  0  0  0  0  0  0  0  0  0  0
   10.5260    6.3290    1.6540 C   0  0  0  0  0  0  0  0  0  0  0  0
   10.2900    6.4630    0.2980 C   0  0  0  0  0  3  0  0  0  0  0  0
    9.5660    7.6470   -0.0400 C   0  0  0  0  0  0  0  0  0  0  0  0
   11.2280    5.2470    2.3600 C   0  0  0  0  0  0  0  0  0  0  0  0
   11.1270    5.0860    3.7510 C   0  0  0  0  0  3  0  0  0  0  0  0
   11.7880    4.0390    4.4000 C   0  0  0  0  0  3  0  0  0  0  0  0
   12.5550    3.1360    3.6690 C   0  0  0  0  0  3  0  0  0  0  0  0
   12.6630    3.2790    2.2880 C   0  0  0  0  0  3  0  0  0  0  0  0
   12.0030    4.3250    1.6380 C   0  0  0  0  0  3  0  0  0  0  0  0
    7.5130    9.7310    0.3540 O   0  0  0  0  0  0  0  0  0  0  0  0
    8.5800    9.7070    1.0540 C   0  0  0  0  0  0  0  0  0  0  0  0
    9.0590   10.6740    1.7200 O   0  0  0  0  0  1  0  0  0  0  0  0
    9.1780    8.0130   -1.3470 N   0  0  0  0  0  0  0  0  0  0  0  0
    8.7160    7.2220   -1.8460 H   0  0  0  0  0  0  0  0  0  0  0  0
   10.1280    8.9530   -2.3700 S   0  0  0  0  0  0  0  0  0  0  0  0
   10.3900   10.2310   -1.7360 O   0  0  0  0  0  0  0  0  0  0  0  0
   11.2480    8.1480   -2.8350 O   0  0  0  0  0  0  0  0  0  0  0  0
    9.0610    9.2440   -3.7860 C   0  0  0  0  0  0  0  0  0  0  0  0
    8.8670   10.5280   -4.2730 C   0  0  0  0  0  3  0  0  0  0  0  0
    8.0830   10.6670   -5.4150 C   0  0  0  0  0  3  0  0  0  0  0  0
    7.5400    9.5320   -6.0150 C   0  0  0  0  0  3  0  0  0  0  0  0
    7.7900    8.2920   -5.4440 C   0  0  0  0  0  3  0  0  0  0  0  0
    8.5290    8.1190   -4.3320 N   0  0  0  0  0  0  0  0  0  0  0  0
  1  2  1  0  0  0  0
  3  6  1  0  0  0  0
  3  2  1  0  0  0  0
  4  3  2  0  0  0  0
  5  4  1  0  0  0  0
  5  1  2  0  0  0  0
  6  7  1  0  0  0  0
  7  8  2  0  0  0  0
  9  8  1  0  0  0  0
 10  9  2  0  0  0  0
 11 10  1  0  0  0  0
 11  6  2  0  0  0  0
 12 13  2  0  0  0  0
 13  1  1  0  0  0  0
 13 14  1  0  0  0  0
 15  5  1  0  0  0  0
 16 15  1  0  0  0  0
 17 18  2  0  0  0  0
 17 15  1  0  0  0  0
 19 17  2  0  0  0  0
 20 17  1  0  0  0  0
 21 20  1  0  0  0  0
 22 21  2  0  0  0  0
 23 24  2  0  0  0  0
 23 22  1  0  0  0  0
 24 25  1  0  0  0  0
 25 20  2  0  0  0  0
M  END
>  <minimizedAffinity>
-6.11367321

$$$$

 OpenBabel09122218023D

 25 27  0  0  0  0  0  0  0  0999 V2000
   10.8130    0.6020   -1.1810 C   0  0  0  0  0  0  0  0  0  0  0  0
   11.2650    2.1190   -0.5400 S   0  0  0  0  0  0  0  0  0  0  0  0
   10.4400    1.8330    0.9360 C   0  0  0  0  0  0  0  0  0  0  0  0
    9.8510    0.5820    0.9280 C   0  0  0  0  0  3  0  0  0  0  0  0
   10.0380   -0.1270   -0.2980 C   0  0  0  0  0  0  0  0  0  0  0  0
   10.4490    2.8350    2.0130 C   0  0  0  0  0  0  0  0  0  0  0  0
   10.2310    2.4780    3.3530 C   0  0  0  0  0  3  0  0  0  0  0  0
   10.2630    3.4430    4.3650 C   0  0  0  0  0  3  0  0  0  0  0  0
   10.5150    4.7760    4.0520 C   0  0  0  0  0  3  0  0  0  0  0  0
   10.7360    5.1460    2.7280 C   0  0  0  0  0  3  0  0  0  0  0  0
   10.7050    4.1820    1.7170 C   0  0  0  0  0  3  0  0  0  0  0  0
   12.3500    0.4620   -2.9490 O   0  0  0  0  0  1  0  0  0  0  0  0
   11.1880    0.1270   -2.5400 C   0  0  0  0  0  0  0  0  0  0  0  0
   10.3430   -0.5690   -3.1800 O   0  0  0  0  0  0  0  0  0  0  0  0
    9.5240   -1.4120   -0.5760 N   0  0  0  0  0  0  0  0  0  0  0  0
    8.4840   -1.4350   -0.5000 H   0  0  0  0  0  0  0  0  0  0  0  0
   10.2400   -2.8360   -0.0380 S   0  0  0  0  0  0  0  0  0  0  0  0
    9.6580   -3.9600   -0.7470 O   0  0  0  0  0  0  0  0  0  0  0  0
   11.6860   -2.6630   -0.0480 O   0  0  0  0  0  0  0  0  0  0  0  0
    9.7320   -2.9400    1.6820 C   0  0  0  0  0  0  0  0  0  0  0  0
   10.6400   -2.7020    2.7030 C   0  0  0  0  0  3  0  0  0  0  0  0
   10.1580   -2.7320    4.0090 C   0  0  0  0  0  3  0  0  0  0  0  0
    8.8070   -2.9900    4.2330 C   0  0  0  0  0  3  0  0  0  0  0  0
    7.9820   -3.2210    3.1410 C   0  0  0  0  0  3  0  0  0  0  0  0
    8.4150   -3.2150    1.8660 N   0  0  0  0  0  0  0  0  0  0  0  0
  1  2  1  0  0  0  0
  1  5  2  0  0  0  0
  2  3  1  0  0  0  0
  3  6  1  0  0  0  0
  4  3  2  0  0  0  0
  5  4  1  0  0  0  0
  6  7  1  0  0  0  0
  7  8  2  0  0  0  0
  9  8  1  0  0  0  0
 10  9  2  0  0  0  0
 11  6  2  0  0  0  0
 11 10  1  0  0  0  0
 12 13  1  0  0  0  0
 13  1  1  0  0  0  0
 14 13  2  0  0  0  0
 15 16  1  0  0  0  0
 15  5  1  0  0  0  0
 15 17  1  0  0  0  0
 17 20  1  0  0  0  0
 18 17  2  0  0  0  0
 19 17  2  0  0  0  0
 20 25  2  0  0  0  0
 20 21  1  0  0  0  0
 21 22  2  0  0  0  0
 22 23  1  0  0  0  0
 24 23  2  0  0  0  0
 25 24  1  0  0  0  0
M  END
>  <minimizedAffinity>
-6.00136232

$$$$

 OpenBabel09122218023D

 25 27  0  0  0  0  0  0  0  0999 V2000
    9.5450    8.0840    1.2550 C   0  0  0  0  0  0  0  0  0  0  0  0
    9.9670    6.5670    1.9170 S   0  0  0  0  0  0  0  0  0  0  0  0
   10.1100    5.8400    0.3710 C   0  0  0  0  0  0  0  0  0  0  0  0
    9.8570    6.7650   -0.6260 C   0  0  0  0  0  3  0  0  0  0  0  0
    9.5040    8.0570   -0.1270 C   0  0  0  0  0  0  0  0  0  0  0  0
   10.4920    4.4270    0.2320 C   0  0  0  0  0  0  0  0  0  0  0  0
    9.6770    3.3920    0.7190 C   0  0  0  0  0  3  0  0  0  0  0  0
   10.0500    2.0530    0.5610 C   0  0  0  0  0  3  0  0  0  0  0  0
   11.2380    1.7300   -0.0880 C   0  0  0  0  0  3  0  0  0  0  0  0
   12.0560    2.7440   -0.5790 C   0  0  0  0  0  3  0  0  0  0  0  0
   11.6850    4.0820   -0.4220 C   0  0  0  0  0  3  0  0  0  0  0  0
    9.9850   10.3040    1.8740 O   0  0  0  0  0  0  0  0  0  0  0  0
    9.2340    9.2900    2.0680 C   0  0  0  0  0  0  0  0  0  0  0  0
    8.2590    9.2260    2.8770 O   0  0  0  0  0  1  0  0  0  0  0  0
    9.1780    9.1720   -0.9270 N   0  0  0  0  0  0  0  0  0  0  0  0
    8.1670    9.1770   -1.1860 H   0  0  0  0  0  0  0  0  0  0  0  0
   10.1620    9.7490   -2.1640 S   0  0  0  0  0  0  0  0  0  0  0  0
   10.4900   11.1380   -1.9040 O   0  0  0  0  0  0  0  0  0  0  0  0
   11.2390    8.7950   -2.3850 O   0  0  0  0  0  0  0  0  0  0  0  0
    9.0990    9.6900   -3.6110 C   0  0  0  0  0  0  0  0  0  0  0  0
    8.6770   10.8600   -4.2260 C   0  0  0  0  0  3  0  0  0  0  0  0
    7.9120   10.7350   -5.3820 C   0  0  0  0  0  3  0  0  0  0  0  0
    7.6120    9.4640   -5.8700 C   0  0  0  0  0  3  0  0  0  0  0  0
    8.0780    8.3560   -5.1760 C   0  0  0  0  0  3  0  0  0  0  0  0
    8.8060    8.4370   -4.0460 N   0  0  0  0  0  0  0  0  0  0  0  0
  1  2  1  0  0  0  0
  1 13  1  0  0  0  0
  3  2  1  0  0  0  0
  4  5  1  0  0  0  0
  4  3  2  0  0  0  0
  5  1  2  0  0  0  0
  6  3  1  0  0  0  0
  6  7  1  0  0  0  0
  8  7  2  0  0  0  0
  9  8  1  0  0  0  0
 10 11  1  0  0  0  0
 10  9  2  0  0  0  0
 11  6  2  0  0  0  0
 12 13  2  0  0  0  0
 13 14  1  0  0  0  0
 15  5  1  0  0  0  0
 16 15  1  0  0  0  0
 17 18  2  0  0  0  0
 17 15  1  0  0  0  0
 19 17  2  0  0  0  0
 20 17  1  0  0  0  0
 21 20  2  0  0  0  0
 22 21  1  0  0  0  0
 23 22  2  0  0  0  0
 23 24  1  0  0  0  0
 24 25  2  0  0  0  0
 25 20  1  0  0  0  0
M  END
>  <minimizedAffinity>
-5.99397135

$$$$

 OpenBabel09122218023D

 25 27  0  0  0  0  0  0  0  0999 V2000
   10.9160    4.7350    1.8090 C   0  0  0  0  0  0  0  0  0  0  0  0
   11.6510    3.2200    1.5260 S   0  0  0  0  0  0  0  0  0  0  0  0
   10.8550    3.0230    0.0200 C   0  0  0  0  0  0  0  0  0  0  0  0
   10.0610    4.1210   -0.2550 C   0  0  0  0  0  3  0  0  0  0  0  0
   10.0670    5.1030    0.7820 C   0  0  0  0  0  0  0  0  0  0  0  0
   11.0850    1.8280   -0.8050 C   0  0  0  0  0  0  0  0  0  0  0  0
   10.3010    0.6710   -0.6630 C   0  0  0  0  0  3  0  0  0  0  0  0
   10.5240   -0.4480   -1.4710 C   0  0  0  0  0  3  0  0  0  0  0  0
   11.5300   -0.4260   -2.4340 C   0  0  0  0  0  3  0  0  0  0  0  0
   12.3140    0.7140   -2.5900 C   0  0  0  0  0  3  0  0  0  0  0  0
   12.0920    1.8330   -1.7830 C   0  0  0  0  0  3  0  0  0  0  0  0
   10.1040    6.0920    3.5430 O   0  0  0  0  0  1  0  0  0  0  0  0
   11.1420    5.5560    3.0300 C   0  0  0  0  0  0  0  0  0  0  0  0
   12.3280    5.6560    3.4670 O   0  0  0  0  0  0  0  0  0  0  0  0
    9.3290    6.3060    0.7620 N   0  0  0  0  0  0  0  0  0  0  0  0
    8.3100    6.1340    0.9110 H   0  0  0  0  0  0  0  0  0  0  0  0
    9.6180    7.5570   -0.3240 S   0  0  0  0  0  0  0  0  0  0  0  0
   10.9120    7.3560   -0.9500 O   0  0  0  0  0  0  0  0  0  0  0  0
    8.4420    7.7240   -1.1660 O   0  0  0  0  0  0  0  0  0  0  0  0
    9.7290    9.0100    0.7250 C   0  0  0  0  0  0  0  0  0  0  0  0
    8.8630   10.0800    0.5460 C   0  0  0  0  0  3  0  0  0  0  0  0
    8.9640   11.1410    1.4410 C   0  0  0  0  0  3  0  0  0  0  0  0
    9.9070   11.0850    2.4660 C   0  0  0  0  0  3  0  0  0  0  0  0
   10.7300    9.9710    2.5550 C   0  0  0  0  0  3  0  0  0  0  0  0
   10.6740    8.9330    1.6980 N   0  0  0  0  0  0  0  0  0  0  0  0
  1 13  1  0  0  0  0
  2  1  1  0  0  0  0
  3  2  1  0  0  0  0
  4  3  2  0  0  0  0
  4  5  1  0  0  0  0
  5  1  2  0  0  0  0
  6  7  1  0  0  0  0
  6  3  1  0  0  0  0
  8  7  2  0  0  0  0
  9  8  1  0  0  0  0
 10  9  2  0  0  0  0
 10 11  1  0  0  0  0
 11  6  2  0  0  0  0
 13 14  2  0  0  0  0
 13 12  1  0  0  0  0
 15  5  1  0  0  0  0
 15 16  1  0  0  0  0
 17 20  1  0  0  0  0
 17 15  1  0  0  0  0
 18 17  2  0  0  0  0
 19 17  2  0  0  0  0
 20 25  1  0  0  0  0
 21 20  2  0  0  0  0
 21 22  1  0  0  0  0
 22 23  2  0  0  0  0
 23 24  1  0  0  0  0
 25 24  2  0  0  0  0
M  END
>  <minimizedAffinity>
-5.99118662

$$$$

 OpenBabel09122218023D

 25 27  0  0  0  0  0  0  0  0999 V2000
   10.4010    0.1100   -0.8670 C   0  0  0  0  0  0  0  0  0  0  0  0
   10.1160   -1.4010   -0.1240 S   0  0  0  0  0  0  0  0  0  0  0  0
    9.6050   -0.6770    1.3430 C   0  0  0  0  0  0  0  0  0  0  0  0
    9.6370    0.7020    1.2400 C   0  0  0  0  0  3  0  0  0  0  0  0
   10.1190    1.1680   -0.0220 C   0  0  0  0  0  0  0  0  0  0  0  0
    9.1760   -1.5000    2.4830 C   0  0  0  0  0  0  0  0  0  0  0  0
    9.5210   -1.1700    3.8030 C   0  0  0  0  0  3  0  0  0  0  0  0
    9.0880   -1.9560    4.8750 C   0  0  0  0  0  3  0  0  0  0  0  0
    8.3010   -3.0810    4.6440 C   0  0  0  0  0  3  0  0  0  0  0  0
    7.9480   -3.4220    3.3400 C   0  0  0  0  0  3  0  0  0  0  0  0
    8.3800   -2.6360    2.2690 C   0  0  0  0  0  3  0  0  0  0  0  0
   11.8100    1.1680   -2.4160 O   0  0  0  0  0  1  0  0  0  0  0  0
   10.9140    0.2740   -2.2540 C   0  0  0  0  0  0  0  0  0  0  0  0
   10.4370   -0.4780   -3.1570 O   0  0  0  0  0  0  0  0  0  0  0  0
   10.2710    2.5240   -0.3790 N   0  0  0  0  0  0  0  0  0  0  0  0
   10.2230    2.6570   -1.4130 H   0  0  0  0  0  0  0  0  0  0  0  0
   11.3750    3.5620    0.3520 S   0  0  0  0  0  0  0  0  0  0  0  0
   11.2900    3.4090    1.7930 O   0  0  0  0  0  0  0  0  0  0  0  0
   12.6660    3.4040   -0.3030 O   0  0  0  0  0  0  0  0  0  0  0  0
   10.7630    5.1960   -0.0710 C   0  0  0  0  0  0  0  0  0  0  0  0
   11.6400    6.2580   -0.2390 C   0  0  0  0  0  3  0  0  0  0  0  0
   11.0990    7.4780   -0.6330 C   0  0  0  0  0  3  0  0  0  0  0  0
    9.7250    7.5810   -0.8460 C   0  0  0  0  0  3  0  0  0  0  0  0
    8.9330    6.4590   -0.6450 C   0  0  0  0  0  3  0  0  0  0  0  0
    9.4180    5.2670   -0.2480 N   0  0  0  0  0  0  0  0  0  0  0  0
  1  2  1  0  0  0  0
  1  5  2  0  0  0  0
  2  3  1  0  0  0  0
  3  6  1  0  0  0  0
  4  3  2  0  0  0  0
  5  4  1  0  0  0  0
  6  7  1  0  0  0  0
  7  8  2  0  0  0  0
  9  8  1  0  0  0  0
 10  9  2  0  0  0  0
 11  6  2  0  0  0  0
 11 10  1  0  0  0  0
 12 13  1  0  0  0  0
 13  1  1  0  0  0  0
 14 13  2  0  0  0  0
 15  5  1  0  0  0  0
 15 17  1  0  0  0  0
 16 15  1  0  0  0  0
 17 18  2  0  0  0  0
 19 17  2  0  0  0  0
 20 17  1  0  0  0  0
 21 20  1  0  0  0  0
 22 21  2  0  0  0  0
 23 24  2  0  0  0  0
 23 22  1  0  0  0  0
 24 25  1  0  0  0  0
 25 20  2  0  0  0  0
M  END
>  <minimizedAffinity>
-5.89574194

$$$$

 OpenBabel09122218023D

 25 27  0  0  0  0  0  0  0  0999 V2000
   10.8430    4.6690    1.9680 C   0  0  0  0  0  0  0  0  0  0  0  0
   10.9230    2.9760    1.7570 S   0  0  0  0  0  0  0  0  0  0  0  0
   11.0780    3.1120    0.0550 C   0  0  0  0  0  0  0  0  0  0  0  0
   11.0880    4.4420   -0.3260 C   0  0  0  0  0  3  0  0  0  0  0  0
   10.9270    5.3480    0.7660 C   0  0  0  0  0  0  0  0  0  0  0  0
   11.2110    1.9160   -0.7890 C   0  0  0  0  0  0  0  0  0  0  0  0
   10.3910    0.7900   -0.6090 C   0  0  0  0  0  3  0  0  0  0  0  0
   10.5220   -0.3300   -1.4350 C   0  0  0  0  0  3  0  0  0  0  0  0
   11.4700   -0.3410   -2.4540 C   0  0  0  0  0  3  0  0  0  0  0  0
   12.2900    0.7690   -2.6490 C   0  0  0  0  0  3  0  0  0  0  0  0
   12.1590    1.8890   -1.8240 C   0  0  0  0  0  3  0  0  0  0  0  0
   11.2610    4.7770    4.2740 O   0  0  0  0  0  1  0  0  0  0  0  0
   10.6790    5.3380    3.2860 C   0  0  0  0  0  0  0  0  0  0  0  0
    9.9880    6.4010    3.3320 O   0  0  0  0  0  0  0  0  0  0  0  0
   10.8830    6.7540    0.6510 N   0  0  0  0  0  0  0  0  0  0  0  0
   11.1720    7.2220    1.5380 H   0  0  0  0  0  0  0  0  0  0  0  0
    9.6520    7.5840   -0.1420 S   0  0  0  0  0  0  0  0  0  0  0  0
    8.6500    6.6350   -0.5900 O   0  0  0  0  0  0  0  0  0  0  0  0
    9.2440    8.7100    0.6840 O   0  0  0  0  0  0  0  0  0  0  0  0
   10.4670    8.2590   -1.5930 C   0  0  0  0  0  0  0  0  0  0  0  0
   11.8280    8.0770   -1.7900 C   0  0  0  0  0  3  0  0  0  0  0  0
   12.3750    8.5690   -2.9710 C   0  0  0  0  0  3  0  0  0  0  0  0
   11.5490    9.2080   -3.8940 C   0  0  0  0  0  3  0  0  0  0  0  0
   10.2000    9.3450   -3.5990 C   0  0  0  0  0  3  0  0  0  0  0  0
    9.6380    8.8970   -2.4610 N   0  0  0  0  0  0  0  0  0  0  0  0
  1 13  1  0  0  0  0
  2  1  1  0  0  0  0
  3  2  1  0  0  0  0
  4  3  2  0  0  0  0
  4  5  1  0  0  0  0
  5  1  2  0  0  0  0
  6  7  1  0  0  0  0
  6  3  1  0  0  0  0
  8  7  2  0  0  0  0
  9  8  1  0  0  0  0
 10  9  2  0  0  0  0
 10 11  1  0  0  0  0
 11  6  2  0  0  0  0
 13 14  2  0  0  0  0
 13 12  1  0  0  0  0
 15  5  1  0  0  0  0
 15 16  1  0  0  0  0
 17 15  1  0  0  0  0
 17 19  2  0  0  0  0
 18 17  2  0  0  0  0
 20 17  1  0  0  0  0
 21 20  1  0  0  0  0
 22 21  2  0  0  0  0
 23 24  2  0  0  0  0
 23 22  1  0  0  0  0
 24 25  1  0  0  0  0
 25 20  2  0  0  0  0
M  END
>  <minimizedAffinity>
-5.88084984

$$$$

 OpenBabel09122218023D

 25 27  0  0  0  0  0  0  0  0999 V2000
   10.8440    4.0300    3.1090 C   0  0  0  0  0  0  0  0  0  0  0  0
   10.5420    2.5150    2.3800 S   0  0  0  0  0  0  0  0  0  0  0  0
   11.1520    3.0310    0.8630 C   0  0  0  0  0  0  0  0  0  0  0  0
   11.5960    4.3390    0.9380 C   0  0  0  0  0  3  0  0  0  0  0  0
   11.3990    4.9340    2.2220 C   0  0  0  0  0  0  0  0  0  0  0  0
   11.1880    2.1170   -0.2880 C   0  0  0  0  0  0  0  0  0  0  0  0
   10.3100    1.0250   -0.3900 C   0  0  0  0  0  3  0  0  0  0  0  0
   10.3470    0.1790   -1.5020 C   0  0  0  0  0  3  0  0  0  0  0  0
   11.2590    0.4110   -2.5280 C   0  0  0  0  0  3  0  0  0  0  0  0
   12.1350    1.4910   -2.4440 C   0  0  0  0  0  3  0  0  0  0  0  0
   12.0980    2.3380   -1.3340 C   0  0  0  0  0  3  0  0  0  0  0  0
   11.3420    5.1330    5.1190 O   0  0  0  0  0  1  0  0  0  0  0  0
   10.5260    4.3510    4.5260 C   0  0  0  0  0  0  0  0  0  0  0  0
    9.4820    3.8380    5.0320 O   0  0  0  0  0  0  0  0  0  0  0  0
   11.7430    6.2600    2.5600 N   0  0  0  0  0  0  0  0  0  0  0  0
   12.3170    6.2980    3.4310 H   0  0  0  0  0  0  0  0  0  0  0  0
   10.6810    7.5580    2.4330 S   0  0  0  0  0  0  0  0  0  0  0  0
    9.4140    7.1990    3.0430 O   0  0  0  0  0  0  0  0  0  0  0  0
   11.3650    8.7650    2.8750 O   0  0  0  0  0  0  0  0  0  0  0  0
   10.4200    7.7170    0.6630 C   0  0  0  0  0  0  0  0  0  0  0  0
    9.3140    7.1390    0.0560 C   0  0  0  0  0  3  0  0  0  0  0  0
    9.1420    7.3620   -1.3070 C   0  0  0  0  0  3  0  0  0  0  0  0
   10.0660    8.1490   -1.9930 C   0  0  0  0  0  3  0  0  0  0  0  0
   11.1420    8.6780   -1.2940 C   0  0  0  0  0  3  0  0  0  0  0  0
   11.3510    8.4700    0.0200 N   0  0  0  0  0  0  0  0  0  0  0  0
  1 13  1  0  0  0  0
  2  1  1  0  0  0  0
  3  4  2  0  0  0  0
  3  2  1  0  0  0  0
  4  5  1  0  0  0  0
  5 15  1  0  0  0  0
  5  1  2  0  0  0  0
  6  3  1  0  0  0  0
  7  6  1  0  0  0  0
  8  7  2  0  0  0  0
  9 10  2  0  0  0  0
  9  8  1  0  0  0  0
 10 11  1  0  0  0  0
 11  6  2  0  0  0  0
 13 14  2  0  0  0  0
 13 12  1  0  0  0  0
 15 16  1  0  0  0  0
 17 15  1  0  0  0  0
 17 19  2  0  0  0  0
 17 18  2  0  0  0  0
 20 17  1  0  0  0  0
 21 20  1  0  0  0  0
 22 21  2  0  0  0  0
 23 22  1  0  0  0  0
 23 24  2  0  0  0  0
 24 25  1  0  0  0  0
 25 20  2  0  0  0  0
M  END
>  <minimizedAffinity>
-5.84890366

$$$$

 OpenBabel09122218023D

 25 27  0  0  0  0  0  0  0  0999 V2000
   10.5770    5.5950    2.1460 C   0  0  0  0  0  0  0  0  0  0  0  0
   10.6910    3.9270    2.4960 S   0  0  0  0  0  0  0  0  0  0  0  0
   10.2680    3.4800    0.8960 C   0  0  0  0  0  0  0  0  0  0  0  0
   10.0690    4.6040    0.1140 C   0  0  0  0  0  3  0  0  0  0  0  0
   10.2180    5.8300    0.8320 C   0  0  0  0  0  0  0  0  0  0  0  0
   10.1920    2.0650    0.5020 C   0  0  0  0  0  0  0  0  0  0  0  0
    9.5490    1.1090    1.3050 C   0  0  0  0  0  3  0  0  0  0  0  0
    9.4720   -0.2280    0.9030 C   0  0  0  0  0  3  0  0  0  0  0  0
   10.0320   -0.6280   -0.3070 C   0  0  0  0  0  3  0  0  0  0  0  0
   10.6720    0.3080   -1.1160 C   0  0  0  0  0  3  0  0  0  0  0  0
   10.7490    1.6440   -0.7160 C   0  0  0  0  0  3  0  0  0  0  0  0
    9.8500    7.4920    3.3200 O   0  0  0  0  0  0  0  0  0  0  0  0
   10.8130    6.6730    3.1440 C   0  0  0  0  0  0  0  0  0  0  0  0
   11.9320    6.6970    3.7410 O   0  0  0  0  0  1  0  0  0  0  0  0
   10.0490    7.1170    0.2790 N   0  0  0  0  0  0  0  0  0  0  0  0
    9.1940    7.1700   -0.3170 H   0  0  0  0  0  0  0  0  0  0  0  0
   11.3160    8.0420   -0.3300 S   0  0  0  0  0  0  0  0  0  0  0  0
   11.8250    8.9030    0.7220 O   0  0  0  0  0  0  0  0  0  0  0  0
   12.2370    7.1630   -1.0350 O   0  0  0  0  0  0  0  0  0  0  0  0
   10.5260    9.0800   -1.5640 C   0  0  0  0  0  0  0  0  0  0  0  0
   10.1300   10.3720   -1.2530 C   0  0  0  0  0  3  0  0  0  0  0  0
    9.5870   11.1400   -2.2800 C   0  0  0  0  0  3  0  0  0  0  0  0
    9.4710   10.5910   -3.5560 C   0  0  0  0  0  3  0  0  0  0  0  0
    9.8920    9.2850   -3.7610 C   0  0  0  0  0  3  0  0  0  0  0  0
   10.4060    8.5070   -2.7900 N   0  0  0  0  0  0  0  0  0  0  0  0
  1  2  1  0  0  0  0
  1 13  1  0  0  0  0
  3  2  1  0  0  0  0
  4  5  1  0  0  0  0
  4  3  2  0  0  0  0
  5  1  2  0  0  0  0
  6  3  1  0  0  0  0
  6  7  1  0  0  0  0
  8  7  2  0  0  0  0
  9  8  1  0  0  0  0
 10 11  1  0  0  0  0
 10  9  2  0  0  0  0
 11  6  2  0  0  0  0
 13 12  2  0  0  0  0
 13 14  1  0  0  0  0
 15  5  1  0  0  0  0
 16 15  1  0  0  0  0
 17 15  1  0  0  0  0
 17 18  2  0  0  0  0
 19 17  2  0  0  0  0
 20 21  1  0  0  0  0
 20 17  1  0  0  0  0
 22 21  2  0  0  0  0
 23 22  1  0  0  0  0
 24 23  2  0  0  0  0
 24 25  1  0  0  0  0
 25 20  2  0  0  0  0
M  END
>  <minimizedAffinity>
-5.68047428

$$$$

 OpenBabel09122218023D

 25 27  0  0  0  0  0  0  0  0999 V2000
   10.1920    2.5270    1.8320 C   0  0  0  0  0  0  0  0  0  0  0  0
   10.4770    4.1860    2.1150 S   0  0  0  0  0  0  0  0  0  0  0  0
   10.6500    4.5270    0.4440 C   0  0  0  0  0  0  0  0  0  0  0  0
   10.4660    3.3790   -0.3060 C   0  0  0  0  0  3  0  0  0  0  0  0
   10.2280    2.2140    0.4860 C   0  0  0  0  0  0  0  0  0  0  0  0
   10.9190    5.8940   -0.0250 C   0  0  0  0  0  0  0  0  0  0  0  0
   12.2280    6.3690   -0.2030 C   0  0  0  0  0  3  0  0  0  0  0  0
   12.4630    7.6660   -0.6680 C   0  0  0  0  0  3  0  0  0  0  0  0
   11.3930    8.5060   -0.9640 C   0  0  0  0  0  3  0  0  0  0  0  0
   10.0880    8.0510   -0.7960 C   0  0  0  0  0  3  0  0  0  0  0  0
    9.8530    6.7540   -0.3330 C   0  0  0  0  0  3  0  0  0  0  0  0
   10.5260    1.7620    4.0250 O   0  0  0  0  0  1  0  0  0  0  0  0
    9.9560    1.5260    2.9080 C   0  0  0  0  0  0  0  0  0  0  0  0
    9.2140    0.5330    2.6430 O   0  0  0  0  0  0  0  0  0  0  0  0
   10.0290    0.9140   -0.0270 N   0  0  0  0  0  0  0  0  0  0  0  0
    9.9510    0.2070    0.7370 H   0  0  0  0  0  0  0  0  0  0  0  0
   10.8310    0.3150   -1.3790 S   0  0  0  0  0  0  0  0  0  0  0  0
    9.9550    0.4050   -2.5320 O   0  0  0  0  0  0  0  0  0  0  0  0
   12.1530    0.9220   -1.4420 O   0  0  0  0  0  0  0  0  0  0  0  0
   11.0660   -1.4240   -0.9940 C   0  0  0  0  0  0  0  0  0  0  0  0
   11.9440   -2.2010   -1.7350 C   0  0  0  0  0  3  0  0  0  0  0  0
   12.1250   -3.5210   -1.3350 C   0  0  0  0  0  3  0  0  0  0  0  0
   11.4340   -4.0000   -0.2230 C   0  0  0  0  0  3  0  0  0  0  0  0
   10.5730   -3.1420    0.4480 C   0  0  0  0  0  3  0  0  0  0  0  0
   10.3600   -1.8640    0.0810 N   0  0  0  0  0  0  0  0  0  0  0  0
  1  2  1  0  0  0  0
  1 13  1  0  0  0  0
  3  2  1  0  0  0  0
  4  3  2  0  0  0  0
  4  5  1  0  0  0  0
  5  1  2  0  0  0  0
  6  3  1  0  0  0  0
  7  6  1  0  0  0  0
  8  7  2  0  0  0  0
  9 10  2  0  0  0  0
  9  8  1  0  0  0  0
 10 11  1  0  0  0  0
 11  6  2  0  0  0  0
 13 12  1  0  0  0  0
 14 13  2  0  0  0  0
 15  5  1  0  0  0  0
 15 16  1  0  0  0  0
 17 20  1  0  0  0  0
 17 15  1  0  0  0  0
 18 17  2  0  0  0  0
 19 17  2  0  0  0  0
 20 25  1  0  0  0  0
 21 22  1  0  0  0  0
 21 20  2  0  0  0  0
 22 23  2  0  0  0  0
 23 24  1  0  0  0  0
 25 24  2  0  0  0  0
M  END
>  <minimizedAffinity>
-5.63172102

$$$$

 OpenBabel09122218023D

 25 27  0  0  0  0  0  0  0  0999 V2000
   10.5850    2.3860    0.3670 C   0  0  0  0  0  0  0  0  0  0  0  0
   10.6600    0.9080   -0.4850 S   0  0  0  0  0  0  0  0  0  0  0  0
    9.8730    0.0480    0.7720 C   0  0  0  0  0  0  0  0  0  0  0  0
    9.5450    0.9010    1.8110 C   0  0  0  0  0  3  0  0  0  0  0  0
    9.9750    2.2470    1.6000 C   0  0  0  0  0  0  0  0  0  0  0  0
    9.6000   -1.3910    0.6470 C   0  0  0  0  0  0  0  0  0  0  0  0
   10.0880   -2.1440   -0.4330 C   0  0  0  0  0  3  0  0  0  0  0  0
    9.8320   -3.5160   -0.5230 C   0  0  0  0  0  3  0  0  0  0  0  0
    9.0880   -4.1550    0.4650 C   0  0  0  0  0  3  0  0  0  0  0  0
    8.5980   -3.4230    1.5440 C   0  0  0  0  0  3  0  0  0  0  0  0
    8.8540   -2.0530    1.6360 C   0  0  0  0  0  3  0  0  0  0  0  0
   12.2770    3.6070   -0.7060 O   0  0  0  0  0  0  0  0  0  0  0  0
   11.1320    3.6710   -0.1450 C   0  0  0  0  0  0  0  0  0  0  0  0
   10.4320    4.7180    0.0060 O   0  0  0  0  0  1  0  0  0  0  0  0
    9.7850    3.3090    2.5100 N   0  0  0  0  0  0  0  0  0  0  0  0
    9.8210    4.2360    2.0320 H   0  0  0  0  0  0  0  0  0  0  0  0
   10.4700    3.3500    4.0460 S   0  0  0  0  0  0  0  0  0  0  0  0
    9.4580    3.0050    5.0280 O   0  0  0  0  0  0  0  0  0  0  0  0
   11.7170    2.6010    4.0200 O   0  0  0  0  0  0  0  0  0  0  0  0
   10.8960    5.0800    4.2710 C   0  0  0  0  0  0  0  0  0  0  0  0
   11.6940    5.4790    5.3340 C   0  0  0  0  0  3  0  0  0  0  0  0
   12.0390    6.8260    5.4040 C   0  0  0  0  0  3  0  0  0  0  0  0
   11.5830    7.7010    4.4200 C   0  0  0  0  0  3  0  0  0  0  0  0
   10.7840    7.2020    3.4010 C   0  0  0  0  0  3  0  0  0  0  0  0
   10.4160    5.9100    3.3090 N   0  0  0  0  0  0  0  0  0  0  0  0
  1  5  2  0  0  0  0
  2  1  1  0  0  0  0
  2  3  1  0  0  0  0
  3  4  2  0  0  0  0
  5  4  1  0  0  0  0
  5 15  1  0  0  0  0
  6  3  1  0  0  0  0
  6 11  1  0  0  0  0
  7  6  2  0  0  0  0
  8  7  1  0  0  0  0
  8  9  2  0  0  0  0
  9 10  1  0  0  0  0
 10 11  2  0  0  0  0
 12 13  2  0  0  0  0
 13 14  1  0  0  0  0
 13  1  1  0  0  0  0
 15 17  1  0  0  0  0
 16 15  1  0  0  0  0
 17 20  1  0  0  0  0
 17 18  2  0  0  0  0
 19 17  2  0  0  0  0
 20 21  1  0  0  0  0
 21 22  2  0  0  0  0
 23 22  1  0  0  0  0
 24 23  2  0  0  0  0
 25 24  1  0  0  0  0
 25 20  2  0  0  0  0
M  END
>  <minimizedAffinity>
-5.60872316

$$$$
