
 OpenBabel09122222393D

 25 27  0  0  0  0  0  0  0  0999 V2000
   10.8430    4.6690    1.9680 C   0  0  0  0  0  0  0  0  0  0  0  0
   10.9230    2.9760    1.7570 S   0  0  0  0  0  0  0  0  0  0  0  0
   11.0780    3.1120    0.0550 C   0  0  0  0  0  0  0  0  0  0  0  0
   11.0880    4.4420   -0.3260 C   0  0  0  0  0  3  0  0  0  0  0  0
   10.9270    5.3480    0.7660 C   0  0  0  0  0  0  0  0  0  0  0  0
   11.2110    1.9160   -0.7890 C   0  0  0  0  0  0  0  0  0  0  0  0
   10.3910    0.7900   -0.6090 C   0  0  0  0  0  3  0  0  0  0  0  0
   10.5220   -0.3300   -1.4350 C   0  0  0  0  0  3  0  0  0  0  0  0
   11.4700   -0.3410   -2.4540 C   0  0  0  0  0  3  0  0  0  0  0  0
   12.2900    0.7690   -2.6490 C   0  0  0  0  0  3  0  0  0  0  0  0
   12.1590    1.8890   -1.8240 C   0  0  0  0  0  3  0  0  0  0  0  0
   11.2610    4.7770    4.2740 O   0  0  0  0  0  1  0  0  0  0  0  0
   10.6790    5.3380    3.2860 C   0  0  0  0  0  0  0  0  0  0  0  0
    9.9880    6.4010    3.3320 O   0  0  0  0  0  0  0  0  0  0  0  0
   10.8830    6.7540    0.6510 N   0  0  0  0  0  0  0  0  0  0  0  0
   11.1720    7.2220    1.5380 H   0  0  0  0  0  0  0  0  0  0  0  0
    9.6520    7.5840   -0.1420 S   0  0  0  0  0  0  0  0  0  0  0  0
    8.6500    6.6350   -0.5900 O   0  0  0  0  0  0  0  0  0  0  0  0
    9.2440    8.7100    0.6840 O   0  0  0  0  0  0  0  0  0  0  0  0
   10.4670    8.2590   -1.5930 C   0  0  0  0  0  0  0  0  0  0  0  0
   11.8280    8.0770   -1.7900 C   0  0  0  0  0  3  0  0  0  0  0  0
   12.3750    8.5690   -2.9710 C   0  0  0  0  0  3  0  0  0  0  0  0
   11.5490    9.2080   -3.8940 C   0  0  0  0  0  3  0  0  0  0  0  0
   10.2000    9.3450   -3.5990 C   0  0  0  0  0  3  0  0  0  0  0  0
    9.6380    8.8970   -2.4610 N   0  0  0  0  0  0  0  0  0  0  0  0
  1 13  1  0  0  0  0
  2  1  1  0  0  0  0
  3  2  1  0  0  0  0
  4  3  2  0  0  0  0
  4  5  1  0  0  0  0
  5  1  2  0  0  0  0
  6  7  1  0  0  0  0
  6  3  1  0  0  0  0
  8  7  2  0  0  0  0
  9  8  1  0  0  0  0
 10  9  2  0  0  0  0
 10 11  1  0  0  0  0
 11  6  2  0  0  0  0
 13 14  2  0  0  0  0
 13 12  1  0  0  0  0
 15  5  1  0  0  0  0
 15 16  1  0  0  0  0
 17 15  1  0  0  0  0
 17 19  2  0  0  0  0
 18 17  2  0  0  0  0
 20 17  1  0  0  0  0
 21 20  1  0  0  0  0
 22 21  2  0  0  0  0
 23 24  2  0  0  0  0
 23 22  1  0  0  0  0
 24 25  1  0  0  0  0
 25 20  2  0  0  0  0
M  END
>  <minimizedAffinity>
-5.88084984

$$$$
