
 OpenBabel09122222393D

 25 27  0  0  0  0  0  0  0  0999 V2000
   10.1920    2.5270    1.8320 C   0  0  0  0  0  0  0  0  0  0  0  0
   10.4770    4.1860    2.1150 S   0  0  0  0  0  0  0  0  0  0  0  0
   10.6500    4.5270    0.4440 C   0  0  0  0  0  0  0  0  0  0  0  0
   10.4660    3.3790   -0.3060 C   0  0  0  0  0  3  0  0  0  0  0  0
   10.2280    2.2140    0.4860 C   0  0  0  0  0  0  0  0  0  0  0  0
   10.9190    5.8940   -0.0250 C   0  0  0  0  0  0  0  0  0  0  0  0
   12.2280    6.3690   -0.2030 C   0  0  0  0  0  3  0  0  0  0  0  0
   12.4630    7.6660   -0.6680 C   0  0  0  0  0  3  0  0  0  0  0  0
   11.3930    8.5060   -0.9640 C   0  0  0  0  0  3  0  0  0  0  0  0
   10.0880    8.0510   -0.7960 C   0  0  0  0  0  3  0  0  0  0  0  0
    9.8530    6.7540   -0.3330 C   0  0  0  0  0  3  0  0  0  0  0  0
   10.5260    1.7620    4.0250 O   0  0  0  0  0  1  0  0  0  0  0  0
    9.9560    1.5260    2.9080 C   0  0  0  0  0  0  0  0  0  0  0  0
    9.2140    0.5330    2.6430 O   0  0  0  0  0  0  0  0  0  0  0  0
   10.0290    0.9140   -0.0270 N   0  0  0  0  0  0  0  0  0  0  0  0
    9.9510    0.2070    0.7370 H   0  0  0  0  0  0  0  0  0  0  0  0
   10.8310    0.3150   -1.3790 S   0  0  0  0  0  0  0  0  0  0  0  0
    9.9550    0.4050   -2.5320 O   0  0  0  0  0  0  0  0  0  0  0  0
   12.1530    0.9220   -1.4420 O   0  0  0  0  0  0  0  0  0  0  0  0
   11.0660   -1.4240   -0.9940 C   0  0  0  0  0  0  0  0  0  0  0  0
   11.9440   -2.2010   -1.7350 C   0  0  0  0  0  3  0  0  0  0  0  0
   12.1250   -3.5210   -1.3350 C   0  0  0  0  0  3  0  0  0  0  0  0
   11.4340   -4.0000   -0.2230 C   0  0  0  0  0  3  0  0  0  0  0  0
   10.5730   -3.1420    0.4480 C   0  0  0  0  0  3  0  0  0  0  0  0
   10.3600   -1.8640    0.0810 N   0  0  0  0  0  0  0  0  0  0  0  0
  1  2  1  0  0  0  0
  1 13  1  0  0  0  0
  3  2  1  0  0  0  0
  4  3  2  0  0  0  0
  4  5  1  0  0  0  0
  5  1  2  0  0  0  0
  6  3  1  0  0  0  0
  7  6  1  0  0  0  0
  8  7  2  0  0  0  0
  9 10  2  0  0  0  0
  9  8  1  0  0  0  0
 10 11  1  0  0  0  0
 11  6  2  0  0  0  0
 13 12  1  0  0  0  0
 14 13  2  0  0  0  0
 15  5  1  0  0  0  0
 15 16  1  0  0  0  0
 17 20  1  0  0  0  0
 17 15  1  0  0  0  0
 18 17  2  0  0  0  0
 19 17  2  0  0  0  0
 20 25  1  0  0  0  0
 21 22  1  0  0  0  0
 21 20  2  0  0  0  0
 22 23  2  0  0  0  0
 23 24  1  0  0  0  0
 25 24  2  0  0  0  0
M  END
>  <minimizedAffinity>
-5.63172102

$$$$
