
 OpenBabel09122222393D

 25 27  0  0  0  0  0  0  0  0999 V2000
   10.4010    0.1100   -0.8670 C   0  0  0  0  0  0  0  0  0  0  0  0
   10.1160   -1.4010   -0.1240 S   0  0  0  0  0  0  0  0  0  0  0  0
    9.6050   -0.6770    1.3430 C   0  0  0  0  0  0  0  0  0  0  0  0
    9.6370    0.7020    1.2400 C   0  0  0  0  0  3  0  0  0  0  0  0
   10.1190    1.1680   -0.0220 C   0  0  0  0  0  0  0  0  0  0  0  0
    9.1760   -1.5000    2.4830 C   0  0  0  0  0  0  0  0  0  0  0  0
    9.5210   -1.1700    3.8030 C   0  0  0  0  0  3  0  0  0  0  0  0
    9.0880   -1.9560    4.8750 C   0  0  0  0  0  3  0  0  0  0  0  0
    8.3010   -3.0810    4.6440 C   0  0  0  0  0  3  0  0  0  0  0  0
    7.9480   -3.4220    3.3400 C   0  0  0  0  0  3  0  0  0  0  0  0
    8.3800   -2.6360    2.2690 C   0  0  0  0  0  3  0  0  0  0  0  0
   11.8100    1.1680   -2.4160 O   0  0  0  0  0  1  0  0  0  0  0  0
   10.9140    0.2740   -2.2540 C   0  0  0  0  0  0  0  0  0  0  0  0
   10.4370   -0.4780   -3.1570 O   0  0  0  0  0  0  0  0  0  0  0  0
   10.2710    2.5240   -0.3790 N   0  0  0  0  0  0  0  0  0  0  0  0
   10.2230    2.6570   -1.4130 H   0  0  0  0  0  0  0  0  0  0  0  0
   11.3750    3.5620    0.3520 S   0  0  0  0  0  0  0  0  0  0  0  0
   11.2900    3.4090    1.7930 O   0  0  0  0  0  0  0  0  0  0  0  0
   12.6660    3.4040   -0.3030 O   0  0  0  0  0  0  0  0  0  0  0  0
   10.7630    5.1960   -0.0710 C   0  0  0  0  0  0  0  0  0  0  0  0
   11.6400    6.2580   -0.2390 C   0  0  0  0  0  3  0  0  0  0  0  0
   11.0990    7.4780   -0.6330 C   0  0  0  0  0  3  0  0  0  0  0  0
    9.7250    7.5810   -0.8460 C   0  0  0  0  0  3  0  0  0  0  0  0
    8.9330    6.4590   -0.6450 C   0  0  0  0  0  3  0  0  0  0  0  0
    9.4180    5.2670   -0.2480 N   0  0  0  0  0  0  0  0  0  0  0  0
  1  2  1  0  0  0  0
  1  5  2  0  0  0  0
  2  3  1  0  0  0  0
  3  6  1  0  0  0  0
  4  3  2  0  0  0  0
  5  4  1  0  0  0  0
  6  7  1  0  0  0  0
  7  8  2  0  0  0  0
  9  8  1  0  0  0  0
 10  9  2  0  0  0  0
 11  6  2  0  0  0  0
 11 10  1  0  0  0  0
 12 13  1  0  0  0  0
 13  1  1  0  0  0  0
 14 13  2  0  0  0  0
 15  5  1  0  0  0  0
 15 17  1  0  0  0  0
 16 15  1  0  0  0  0
 17 18  2  0  0  0  0
 19 17  2  0  0  0  0
 20 17  1  0  0  0  0
 21 20  1  0  0  0  0
 22 21  2  0  0  0  0
 23 24  2  0  0  0  0
 23 22  1  0  0  0  0
 24 25  1  0  0  0  0
 25 20  2  0  0  0  0
M  END
>  <minimizedAffinity>
-5.89574194

$$$$
