REMARK  Name = 
REMARK  5 active torsions:
REMARK  status: ('A' for Active; 'I' for Inactive)
REMARK    1  A    between atoms: C_3  and  C_4
REMARK    2  A    between atoms: C_16  and  O_17
REMARK    3  A    between atoms: N_24  and  N_25
REMARK    4  A    between atoms: N_25  and  C_26
REMARK    5  A    between atoms: C_26  and  C_27
REMARK                            x       y       z     vdW  Elec       q    Type
REMARK                         _______ _______ _______ _____ _____    ______ ____
ROOT
ATOM      1  O   UNL     1       2.089   1.780   1.602  0.00  0.00    -0.265 OA
ATOM      2  C   UNL     1       3.207   1.548   1.123  0.00  0.00    +0.287 A 
ATOM      3  C   UNL     1       3.288   0.808  -0.174  0.00  0.00    +0.171 A 
ATOM      4  C   UNL     1       4.500   0.475  -0.657  0.00  0.00    +0.146 A 
ATOM      5  C   UNL     1       5.753   0.865   0.025  0.00  0.00    +0.043 A 
ATOM      6  C   UNL     1       7.026   0.596  -0.511  0.00  0.00    +0.013 A 
ATOM      7  C   UNL     1       8.189   0.945   0.179  0.00  0.00    +0.001 A 
ATOM      8  C   UNL     1       8.100   1.577   1.412  0.00  0.00    +0.002 A 
ATOM      9  C   UNL     1       6.848   1.887   1.940  0.00  0.00    +0.028 A 
ATOM     10  C   UNL     1       5.671   1.559   1.246  0.00  0.00    +0.075 A 
ATOM     11  N   UNL     1       4.393   1.929   1.740  0.00  0.00    -0.229 N 
ENDROOT
BRANCH   3  12
ATOM     12  C   UNL     1       1.979   0.470  -0.853  0.00  0.00    +0.308 C 
ATOM     13  N   UNL     1       0.839   0.807  -0.301  0.00  0.00    -0.131 N 
ATOM     14  S   UNL     1      -0.627   0.530  -0.888  0.00  0.00    +0.141 S 
ATOM     15  O   UNL     1      -1.314  -0.409  -0.023  0.00  0.00    -0.129 OA
ATOM     16  O   UNL     1      -1.255   1.796  -1.211  0.00  0.00    -0.129 OA
ATOM     17  C   UNL     1      -0.414  -0.304  -2.425  0.00  0.00    +0.175 A 
ATOM     18  C   UNL     1      -1.540  -0.669  -3.172  0.00  0.00    +0.035 A 
ATOM     19  C   UNL     1      -1.364  -1.327  -4.386  0.00  0.00    +0.002 A 
ATOM     20  C   UNL     1      -0.076  -1.612  -4.837  0.00  0.00    +0.004 A 
ATOM     21  C   UNL     1       1.038  -1.239  -4.076  0.00  0.00    +0.051 A 
ATOM     22  C   UNL     1       0.877  -0.577  -2.856  0.00  0.00    +0.147 A 
ATOM     23  N   UNL     1       1.978  -0.205  -2.095  0.00  0.00    -0.200 N 
ATOM     24  H   UNL     1       0.870   1.290   0.591  0.00  0.00    +0.339 HD
ATOM     25  H   UNL     1       2.907  -0.418  -2.462  0.00  0.00    +0.298 HD
ENDBRANCH   3  12
BRANCH   4  26
ATOM     26  O   UNL     1       4.610  -0.298  -1.805  0.00  0.00    -0.505 OA
ATOM     27  H   UNL     1       5.413  -0.848  -1.735  0.00  0.00    +0.292 HD
ENDBRANCH   4  26
BRANCH  11  28
ATOM     28  N   UNL     1       4.293   2.675   2.952  0.00  0.00    -0.281 N 
ATOM     29  H   UNL     1       3.372   2.478   3.358  0.00  0.00    +0.166 HD
BRANCH  28  30
ATOM     30  C   UNL     1       4.402   4.127   2.745  0.00  0.00    +0.124 C 
BRANCH  30  31
ATOM     31  C   UNL     1       3.253   4.693   1.967  0.00  0.00    +0.008 C 
ATOM     32  C   UNL     1       3.371   6.071   1.363  0.00  0.00    +0.005 C 
ATOM     33  C   UNL     1       3.331   4.864   0.468  0.00  0.00    +0.005 C 
ENDBRANCH  30  31
ENDBRANCH  28  30
ENDBRANCH  11  28
TORSDOF 5
