
 OpenBabel09132200323D

 33 37  0  0  1  0  0  0  0  0999 V2000
    8.9430    1.6590    2.0200 O   0  0  0  0  0  0  0  0  0  0  0  0
    9.7110    1.3660    1.0930 C   0  0  0  0  0  0  0  0  0  0  0  0
   10.5650    2.4450    0.5080 C   0  0  0  0  0  0  0  0  0  0  0  0
   11.3370    2.1550   -0.5570 C   0  0  0  0  0  0  0  0  0  0  0  0
   11.4090    0.7940   -1.1300 C   0  0  0  0  0  0  0  0  0  0  0  0
   12.2730    0.4590   -2.1890 C   0  0  0  0  0  3  0  0  0  0  0  0
   12.2870   -0.8280   -2.7310 C   0  0  0  0  0  3  0  0  0  0  0  0
   11.4440   -1.8050   -2.2180 C   0  0  0  0  0  3  0  0  0  0  0  0
   10.6090   -1.5020   -1.1440 C   0  0  0  0  0  3  0  0  0  0  0  0
   10.6010   -0.2160   -0.5770 C   0  0  0  0  0  0  0  0  0  0  0  0
    9.8070    0.0860    0.5600 N   0  0  0  0  0  0  0  0  0  0  0  0
   10.4880    3.8090    1.1570 C   0  0  1  0  0  3  0  0  0  0  0  0
   10.9340    3.9900    2.3760 N   0  0  0  0  0  0  0  0  0  0  0  0
   10.9310    5.3640    3.2020 S   0  0  0  0  0  0  0  0  0  0  0  0
   10.0250    5.2380    4.3270 O   0  0  0  0  0  0  0  0  0  0  0  0
   12.3000    5.7830    3.4290 O   0  0  0  0  0  0  0  0  0  0  0  0
   10.2230    6.5900    2.1530 C   0  0  0  0  0  0  0  0  0  0  0  0
   10.0990    7.9050    2.6180 C   0  0  0  0  0  3  0  0  0  0  0  0
    9.5400    8.8680    1.7830 C   0  0  0  0  0  3  0  0  0  0  0  0
    9.1130    8.5120    0.5050 C   0  0  0  0  0  3  0  0  0  0  0  0
    9.2460    7.1920    0.0580 C   0  0  0  0  0  3  0  0  0  0  0  0
    9.8070    6.2140    0.8840 C   0  0  0  0  0  0  0  0  0  0  0  0
    9.9400    4.9020    0.4470 N   0  0  0  0  0  0  0  0  0  0  0  0
   11.3210    3.1870    2.8620 H   0  0  0  0  0  0  0  0  0  0  0  0
    9.6290    4.6790   -0.5000 H   0  0  0  0  0  0  0  0  0  0  0  0
   12.0660    3.1540   -1.1880 O   0  0  0  0  0  0  0  0  0  0  0  0
   12.1300    2.9410   -2.1380 H   0  0  0  0  0  0  0  0  0  0  0  0
    9.0180   -0.9380    1.1640 N   0  0  0  0  0  0  0  0  0  0  0  0
    8.2610   -0.4780    1.6800 H   0  0  0  0  0  0  0  0  0  0  0  0
    9.7790   -1.7680    2.1090 C   0  0  0  0  0  2  0  0  0  0  0  0
    9.3640   -1.5590    3.5340 C   0  0  0  0  0  3  0  0  0  0  0  0
    8.9380   -2.7440    4.3660 C   0  0  0  0  0  2  0  0  0  0  0  0
   10.2270   -2.0350    4.6790 C   0  0  0  0  0  2  0  0  0  0  0  0
  2  1  2  0  0  0  0
  3  2  1  0  0  0  0
  4  3  2  0  0  0  0
  5 10  1  0  0  0  0
  5  4  1  0  0  0  0
  6  5  2  0  0  0  0
  7  8  2  0  0  0  0
  7  6  1  0  0  0  0
  8  9  1  0  0  0  0
  9 10  2  0  0  0  0
 10 11  1  0  0  0  0
 11  2  1  0  0  0  0
 11 28  1  0  0  0  0
 12  3  1  6  0  0  0
 12 13  1  0  0  0  0
 13 24  1  0  0  0  0
 13 14  1  0  0  0  0
 14 16  2  0  0  0  0
 14 15  2  0  0  0  0
 17 18  1  0  0  0  0
 17 14  1  0  0  0  0
 19 18  2  0  0  0  0
 20 19  1  0  0  0  0
 21 20  2  0  0  0  0
 21 22  1  0  0  0  0
 22 17  2  0  0  0  0
 23 22  1  0  0  0  0
 23 12  1  0  0  0  0
 25 23  1  0  0  0  0
 26  4  1  0  0  0  0
 27 26  1  0  0  0  0
 28 29  1  0  0  0  0
 28 30  1  0  0  0  0
 30 31  1  0  0  0  0
 31 32  1  0  0  0  0
 31 33  1  0  0  0  0
 32 33  1  0  0  0  0
M  END
>  <minimizedAffinity>
-7.766119

$$$$

 OpenBabel09132200323D

 33 37  0  0  1  0  0  0  0  0999 V2000
    9.2810    1.8540    2.7080 O   0  0  0  0  0  0  0  0  0  0  0  0
    9.9120    1.7650    1.6460 C   0  0  0  0  0  0  0  0  0  0  0  0
   10.8470    2.8720    1.2770 C   0  0  0  0  0  0  0  0  0  0  0  0
   11.4690    2.8250    0.0840 C   0  0  0  0  0  0  0  0  0  0  0  0
   11.2990    1.6900   -0.8490 C   0  0  0  0  0  0  0  0  0  0  0  0
   12.0070    1.5890   -2.0610 C   0  0  0  0  0  3  0  0  0  0  0  0
   11.7930    0.5210   -2.9350 C   0  0  0  0  0  3  0  0  0  0  0  0
   10.8760   -0.4690   -2.6090 C   0  0  0  0  0  3  0  0  0  0  0  0
   10.1950   -0.4060   -1.3940 C   0  0  0  0  0  3  0  0  0  0  0  0
   10.4160    0.6530   -0.4970 C   0  0  0  0  0  0  0  0  0  0  0  0
    9.7810    0.6930    0.7710 N   0  0  0  0  0  0  0  0  0  0  0  0
   11.0190    3.9890    2.2830 C   0  0  1  0  0  3  0  0  0  0  0  0
   10.7410    5.2270    1.9540 N   0  0  0  0  0  0  0  0  0  0  0  0
   10.8620    6.5180    2.8970 S   0  0  0  0  0  0  0  0  0  0  0  0
   11.9100    7.3800    2.3870 O   0  0  0  0  0  0  0  0  0  0  0  0
    9.5390    7.0610    3.1290 O   0  0  0  0  0  0  0  0  0  0  0  0
   11.4290    5.9540    4.4660 C   0  0  0  0  0  0  0  0  0  0  0  0
   11.6220    6.8760    5.5010 C   0  0  0  0  0  3  0  0  0  0  0  0
   12.0700    6.4230    6.7390 C   0  0  0  0  0  3  0  0  0  0  0  0
   12.3180    5.0650    6.9290 C   0  0  0  0  0  3  0  0  0  0  0  0
   12.1200    4.1570    5.8820 C   0  0  0  0  0  3  0  0  0  0  0  0
   11.6700    4.5970    4.6340 C   0  0  0  0  0  0  0  0  0  0  0  0
   11.4720    3.7010    3.5910 N   0  0  0  0  0  0  0  0  0  0  0  0
   10.4180    5.4030    1.0080 H   0  0  0  0  0  0  0  0  0  0  0  0
   11.6520    2.7120    3.7690 H   0  0  0  0  0  0  0  0  0  0  0  0
   12.2660    3.8830   -0.3340 O   0  0  0  0  0  0  0  0  0  0  0  0
   12.2110    3.9500   -1.3060 H   0  0  0  0  0  0  0  0  0  0  0  0
    8.9190   -0.3740    1.1640 N   0  0  0  0  0  0  0  0  0  0  0  0
    8.2630    0.0010    1.8570 H   0  0  0  0  0  0  0  0  0  0  0  0
    9.6400   -1.5000    1.7770 C   0  0  0  0  0  2  0  0  0  0  0  0
    9.3780   -1.6290    3.2470 C   0  0  0  0  0  3  0  0  0  0  0  0
    8.7160   -2.8770    3.7770 C   0  0  0  0  0  2  0  0  0  0  0  0
   10.1580   -2.6020    4.0990 C   0  0  0  0  0  2  0  0  0  0  0  0
  2  1  2  0  0  0  0
  3  2  1  0  0  0  0
  4  3  2  0  0  0  0
  5 10  1  0  0  0  0
  5  4  1  0  0  0  0
  6  5  2  0  0  0  0
  7  8  2  0  0  0  0
  7  6  1  0  0  0  0
  8  9  1  0  0  0  0
  9 10  2  0  0  0  0
 10 11  1  0  0  0  0
 11 28  1  0  0  0  0
 11  2  1  0  0  0  0
 12  3  1  1  0  0  0
 12 23  1  0  0  0  0
 13 12  1  0  0  0  0
 13 14  1  0  0  0  0
 14 16  2  0  0  0  0
 14 17  1  0  0  0  0
 15 14  2  0  0  0  0
 17 22  2  0  0  0  0
 17 18  1  0  0  0  0
 18 19  2  0  0  0  0
 19 20  1  0  0  0  0
 21 20  2  0  0  0  0
 22 21  1  0  0  0  0
 23 25  1  0  0  0  0
 23 22  1  0  0  0  0
 24 13  1  0  0  0  0
 26  4  1  0  0  0  0
 27 26  1  0  0  0  0
 28 30  1  0  0  0  0
 28 29  1  0  0  0  0
 30 31  1  0  0  0  0
 31 32  1  0  0  0  0
 31 33  1  0  0  0  0
 32 33  1  0  0  0  0
M  END
>  <minimizedAffinity>
-7.42404079

$$$$

 OpenBabel09132200323D

 33 37  0  0  1  0  0  0  0  0999 V2000
    8.7590    0.6120    2.2880 O   0  0  0  0  0  0  0  0  0  0  0  0
    9.3180   -0.1260    1.4650 C   0  0  0  0  0  0  0  0  0  0  0  0
    9.3740   -1.5940    1.7470 C   0  0  0  0  0  0  0  0  0  0  0  0
   10.0550   -2.3910    0.9030 C   0  0  0  0  0  0  0  0  0  0  0  0
   10.7010   -1.8710   -0.3220 C   0  0  0  0  0  0  0  0  0  0  0  0
   11.3450   -2.7050   -1.2550 C   0  0  0  0  0  3  0  0  0  0  0  0
   11.9780   -2.1750   -2.3820 C   0  0  0  0  0  3  0  0  0  0  0  0
   11.9710   -0.8040   -2.6000 C   0  0  0  0  0  3  0  0  0  0  0  0
   11.3050    0.0340   -1.7070 C   0  0  0  0  0  3  0  0  0  0  0  0
   10.6470   -0.4890   -0.5810 C   0  0  0  0  0  0  0  0  0  0  0  0
    9.9090    0.3450    0.2990 N   0  0  0  0  0  0  0  0  0  0  0  0
    8.6610   -2.0810    2.9890 C   0  0  1  0  0  3  0  0  0  0  0  0
    9.1280   -1.7900    4.1790 N   0  0  0  0  0  0  0  0  0  0  0  0
    8.4940   -2.2210    5.5870 S   0  0  0  0  0  0  0  0  0  0  0  0
    9.3970   -3.1410    6.2510 O   0  0  0  0  0  0  0  0  0  0  0  0
    8.0400   -1.0350    6.2860 O   0  0  0  0  0  0  0  0  0  0  0  0
    7.0420   -3.1520    5.2310 C   0  0  0  0  0  0  0  0  0  0  0  0
    6.2720   -3.6580    6.2850 C   0  0  0  0  0  3  0  0  0  0  0  0
    5.1250   -4.3910    5.9960 C   0  0  0  0  0  3  0  0  0  0  0  0
    4.7620   -4.6120    4.6690 C   0  0  0  0  0  3  0  0  0  0  0  0
    5.5440   -4.0980    3.6280 C   0  0  0  0  0  3  0  0  0  0  0  0
    6.6980   -3.3590    3.9020 C   0  0  0  0  0  0  0  0  0  0  0  0
    7.4790   -2.8470    2.8740 N   0  0  0  0  0  0  0  0  0  0  0  0
    9.9790   -1.2390    4.2320 H   0  0  0  0  0  0  0  0  0  0  0  0
    7.1760   -3.0170    1.9130 H   0  0  0  0  0  0  0  0  0  0  0  0
   10.2130   -3.7410    1.1860 O   0  0  0  0  0  0  0  0  0  0  0  0
   11.0720   -4.0370    0.8280 H   0  0  0  0  0  0  0  0  0  0  0  0
    9.8020    1.7410    0.0250 N   0  0  0  0  0  0  0  0  0  0  0  0
    9.9040    1.8640   -0.9880 H   0  0  0  0  0  0  0  0  0  0  0  0
   10.8440    2.5390    0.6910 C   0  0  0  0  0  2  0  0  0  0  0  0
   10.9210    3.9430    0.1740 C   0  0  0  0  0  3  0  0  0  0  0  0
    9.6610    4.7680    0.0710 C   0  0  0  0  0  2  0  0  0  0  0  0
   10.7070    5.1270    1.0890 C   0  0  0  0  0  2  0  0  0  0  0  0
  2  3  1  0  0  0  0
  2  1  2  0  0  0  0
  4 26  1  0  0  0  0
  4  3  2  0  0  0  0
  5  4  1  0  0  0  0
  6  5  2  0  0  0  0
  7  6  1  0  0  0  0
  8  7  2  0  0  0  0
  8  9  1  0  0  0  0
  9 10  2  0  0  0  0
 10  5  1  0  0  0  0
 10 11  1  0  0  0  0
 11  2  1  0  0  0  0
 12  3  1  1  0  0  0
 12 13  1  0  0  0  0
 13 24  1  0  0  0  0
 13 14  1  0  0  0  0
 14 15  2  0  0  0  0
 14 16  2  0  0  0  0
 17 14  1  0  0  0  0
 17 18  1  0  0  0  0
 19 18  2  0  0  0  0
 20 19  1  0  0  0  0
 21 22  1  0  0  0  0
 21 20  2  0  0  0  0
 22 17  2  0  0  0  0
 23 12  1  0  0  0  0
 23 22  1  0  0  0  0
 25 23  1  0  0  0  0
 27 26  1  0  0  0  0
 28 11  1  0  0  0  0
 28 30  1  0  0  0  0
 29 28  1  0  0  0  0
 31 30  1  0  0  0  0
 31 33  1  0  0  0  0
 32 31  1  0  0  0  0
 32 33  1  0  0  0  0
M  END
>  <minimizedAffinity>
-7.26579237

$$$$

 OpenBabel09132200323D

 33 37  0  0  1  0  0  0  0  0999 V2000
    8.9260    1.4220    2.8280 O   0  0  0  0  0  0  0  0  0  0  0  0
    9.4330    0.8110    1.8780 C   0  0  0  0  0  0  0  0  0  0  0  0
   10.1470    1.5960    0.8240 C   0  0  0  0  0  0  0  0  0  0  0  0
   10.6250    0.9490   -0.2560 C   0  0  0  0  0  0  0  0  0  0  0  0
   10.5150   -0.5180   -0.4060 C   0  0  0  0  0  0  0  0  0  0  0  0
   11.0820   -1.2160   -1.4880 C   0  0  0  0  0  3  0  0  0  0  0  0
   10.9260   -2.5980   -1.6180 C   0  0  0  0  0  3  0  0  0  0  0  0
   10.2080   -3.3070   -0.6650 C   0  0  0  0  0  3  0  0  0  0  0  0
    9.6730   -2.6380    0.4350 C   0  0  0  0  0  3  0  0  0  0  0  0
    9.8400   -1.2520    0.5870 C   0  0  0  0  0  0  0  0  0  0  0  0
    9.3590   -0.5700    1.7350 N   0  0  0  0  0  0  0  0  0  0  0  0
   10.2700    3.0880    1.0460 C   0  0  1  0  0  3  0  0  0  0  0  0
   10.0660    3.9240    0.0580 N   0  0  0  0  0  0  0  0  0  0  0  0
   10.1510    5.5240    0.1250 S   0  0  0  0  0  0  0  0  0  0  0  0
   11.2700    5.9730   -0.6800 O   0  0  0  0  0  0  0  0  0  0  0  0
    8.8330    6.0790   -0.1090 O   0  0  0  0  0  0  0  0  0  0  0  0
   10.5590    5.9450    1.7870 C   0  0  0  0  0  0  0  0  0  0  0  0
   10.6930    7.2920    2.1420 C   0  0  0  0  0  3  0  0  0  0  0  0
   11.0140    7.6170    3.4570 C   0  0  0  0  0  3  0  0  0  0  0  0
   11.1970    6.6020    4.3950 C   0  0  0  0  0  3  0  0  0  0  0  0
   11.0580    5.2610    4.0210 C   0  0  0  0  0  3  0  0  0  0  0  0
   10.7350    4.9190    2.7050 C   0  0  0  0  0  0  0  0  0  0  0  0
   10.5960    3.5900    2.3260 N   0  0  0  0  0  0  0  0  0  0  0  0
    9.8340    3.5360   -0.8510 H   0  0  0  0  0  0  0  0  0  0  0  0
   10.7240    2.8730    3.0420 H   0  0  0  0  0  0  0  0  0  0  0  0
   11.2030    1.6580   -1.3000 O   0  0  0  0  0  0  0  0  0  0  0  0
   11.0250    1.1850   -2.1340 H   0  0  0  0  0  0  0  0  0  0  0  0
    8.7150   -1.3040    2.7750 N   0  0  0  0  0  0  0  0  0  0  0  0
    8.1070   -0.6510    3.2800 H   0  0  0  0  0  0  0  0  0  0  0  0
    9.6610   -1.8890    3.7380 C   0  0  0  0  0  2  0  0  0  0  0  0
    9.5380   -1.2960    5.1090 C   0  0  0  0  0  3  0  0  0  0  0  0
   10.5570   -1.6490    6.1650 C   0  0  0  0  0  2  0  0  0  0  0  0
   10.5160   -0.2560    5.6030 C   0  0  0  0  0  2  0  0  0  0  0  0
  2  1  2  0  0  0  0
  3  2  1  0  0  0  0
  4  3  2  0  0  0  0
  5  4  1  0  0  0  0
  5 10  1  0  0  0  0
  6  5  2  0  0  0  0
  7  6  1  0  0  0  0
  7  8  2  0  0  0  0
  8  9  1  0  0  0  0
  9 10  2  0  0  0  0
 10 11  1  0  0  0  0
 11  2  1  0  0  0  0
 11 28  1  0  0  0  0
 12  3  1  1  0  0  0
 12 23  1  0  0  0  0
 13 14  1  0  0  0  0
 13 12  1  0  0  0  0
 14 17  1  0  0  0  0
 15 14  2  0  0  0  0
 16 14  2  0  0  0  0
 17 18  2  0  0  0  0
 17 22  1  0  0  0  0
 18 19  1  0  0  0  0
 19 20  2  0  0  0  0
 21 20  1  0  0  0  0
 22 21  2  0  0  0  0
 23 22  1  0  0  0  0
 23 25  1  0  0  0  0
 24 13  1  0  0  0  0
 26  4  1  0  0  0  0
 27 26  1  0  0  0  0
 28 29  1  0  0  0  0
 28 30  1  0  0  0  0
 30 31  1  0  0  0  0
 31 33  1  0  0  0  0
 31 32  1  0  0  0  0
 33 32  1  0  0  0  0
M  END
>  <minimizedAffinity>
-7.17117739

$$$$

 OpenBabel09132200323D

 33 37  0  0  1  0  0  0  0  0999 V2000
    8.8800    4.1050   -0.5090 O   0  0  0  0  0  0  0  0  0  0  0  0
    9.6490    4.4730    0.3900 C   0  0  0  0  0  0  0  0  0  0  0  0
   10.5070    3.4470    1.0590 C   0  0  0  0  0  0  0  0  0  0  0  0
   11.2800    3.8230    2.0960 C   0  0  0  0  0  0  0  0  0  0  0  0
   11.3490    5.2260    2.5570 C   0  0  0  0  0  0  0  0  0  0  0  0
   12.2140    5.6480    3.5840 C   0  0  0  0  0  3  0  0  0  0  0  0
   12.2250    6.9740    4.0210 C   0  0  0  0  0  3  0  0  0  0  0  0
   11.3780    7.9040    3.4330 C   0  0  0  0  0  3  0  0  0  0  0  0
   10.5430    7.5140    2.3880 C   0  0  0  0  0  3  0  0  0  0  0  0
   10.5370    6.1870    1.9260 C   0  0  0  0  0  0  0  0  0  0  0  0
    9.7420    5.7920    0.8190 N   0  0  0  0  0  0  0  0  0  0  0  0
   10.4320    2.0350    0.5220 C   0  0  1  0  0  3  0  0  0  0  0  0
   10.9240    1.7470   -0.6590 N   0  0  0  0  0  0  0  0  0  0  0  0
   10.9300    0.3100   -1.3680 S   0  0  0  0  0  0  0  0  0  0  0  0
   10.0720    0.3540   -2.5360 O   0  0  0  0  0  0  0  0  0  0  0  0
   12.2990   -0.1460   -1.5040 O   0  0  0  0  0  0  0  0  0  0  0  0
   10.1600   -0.8150   -0.2520 C   0  0  0  0  0  0  0  0  0  0  0  0
   10.0320   -2.1620   -0.6120 C   0  0  0  0  0  3  0  0  0  0  0  0
    9.4230   -3.0450    0.2760 C   0  0  0  0  0  3  0  0  0  0  0  0
    8.9520   -2.5780    1.5020 C   0  0  0  0  0  3  0  0  0  0  0  0
    9.0900   -1.2280    1.8440 C   0  0  0  0  0  3  0  0  0  0  0  0
    9.6990   -0.3300    0.9640 C   0  0  0  0  0  0  0  0  0  0  0  0
    9.8380    1.0120    1.2960 N   0  0  0  0  0  0  0  0  0  0  0  0
   11.3440    2.5010   -1.1920 H   0  0  0  0  0  0  0  0  0  0  0  0
    9.4930    1.3170    2.2080 H   0  0  0  0  0  0  0  0  0  0  0  0
   12.0120    2.8800    2.8040 O   0  0  0  0  0  0  0  0  0  0  0  0
   12.0770    3.1690    3.7330 H   0  0  0  0  0  0  0  0  0  0  0  0
    8.9500    6.7620    0.1360 N   0  0  0  0  0  0  0  0  0  0  0  0
    8.0140    6.3610    0.0120 H   0  0  0  0  0  0  0  0  0  0  0  0
    9.4810    7.1080   -1.1910 C   0  0  0  0  0  2  0  0  0  0  0  0
   10.4890    8.2170   -1.1450 C   0  0  0  0  0  3  0  0  0  0  0  0
   11.9590    7.8900   -1.2420 C   0  0  0  0  0  2  0  0  0  0  0  0
   11.2770    8.6100   -2.3720 C   0  0  0  0  0  2  0  0  0  0  0  0
  1  2  2  0  0  0  0
  2 11  1  0  0  0  0
  2  3  1  0  0  0  0
  3  4  2  0  0  0  0
  4  5  1  0  0  0  0
  4 26  1  0  0  0  0
  5  6  1  0  0  0  0
  6  7  2  0  0  0  0
  8  7  1  0  0  0  0
  9  8  2  0  0  0  0
 10  9  1  0  0  0  0
 10  5  2  0  0  0  0
 11 10  1  0  0  0  0
 12  3  1  1  0  0  0
 12 23  1  0  0  0  0
 13 12  1  0  0  0  0
 14 13  1  0  0  0  0
 14 17  1  0  0  0  0
 15 14  2  0  0  0  0
 16 14  2  0  0  0  0
 17 22  1  0  0  0  0
 18 17  2  0  0  0  0
 18 19  1  0  0  0  0
 19 20  2  0  0  0  0
 20 21  1  0  0  0  0
 22 23  1  0  0  0  0
 22 21  2  0  0  0  0
 23 25  1  0  0  0  0
 24 13  1  0  0  0  0
 26 27  1  0  0  0  0
 28 11  1  0  0  0  0
 29 28  1  0  0  0  0
 30 31  1  0  0  0  0
 30 28  1  0  0  0  0
 32 31  1  0  0  0  0
 33 32  1  0  0  0  0
 33 31  1  0  0  0  0
M  END
>  <minimizedAffinity>
-6.85198927

$$$$

 OpenBabel09132200323D

 33 37  0  0  1  0  0  0  0  0999 V2000
   11.7380    3.1380    2.5350 O   0  0  0  0  0  0  0  0  0  0  0  0
   11.0830    4.0320    1.9810 C   0  0  0  0  0  0  0  0  0  0  0  0
   10.2630    3.6770    0.7820 C   0  0  0  0  0  0  0  0  0  0  0  0
    9.6190    4.6590    0.1230 C   0  0  0  0  0  0  0  0  0  0  0  0
    9.6520    6.0660    0.5780 C   0  0  0  0  0  0  0  0  0  0  0  0
    8.9170    7.0870   -0.0530 C   0  0  0  0  0  3  0  0  0  0  0  0
    9.0030    8.4120    0.3800 C   0  0  0  0  0  3  0  0  0  0  0  0
    9.8170    8.7380    1.4560 C   0  0  0  0  0  3  0  0  0  0  0  0
   10.5210    7.7340    2.1180 C   0  0  0  0  0  3  0  0  0  0  0  0
   10.4280    6.3940    1.7050 C   0  0  0  0  0  0  0  0  0  0  0  0
   11.0860    5.3540    2.4110 N   0  0  0  0  0  0  0  0  0  0  0  0
   10.2270    2.2190    0.3840 C   0  0  1  0  0  3  0  0  0  0  0  0
   10.7310    1.8320   -0.7630 N   0  0  0  0  0  0  0  0  0  0  0  0
   10.7770    0.3330   -1.3300 S   0  0  0  0  0  0  0  0  0  0  0  0
    9.9230    0.2420   -2.4980 O   0  0  0  0  0  0  0  0  0  0  0  0
   12.1590   -0.0970   -1.4190 O   0  0  0  0  0  0  0  0  0  0  0  0
   10.0330   -0.6990   -0.1120 C   0  0  0  0  0  0  0  0  0  0  0  0
    9.9410   -2.0770   -0.3400 C   0  0  0  0  0  3  0  0  0  0  0  0
    9.3520   -2.8870    0.6280 C   0  0  0  0  0  3  0  0  0  0  0  0
    8.8640   -2.3160    1.8020 C   0  0  0  0  0  3  0  0  0  0  0  0
    8.9650   -0.9360    2.0120 C   0  0  0  0  0  3  0  0  0  0  0  0
    9.5550   -0.1110    1.0510 C   0  0  0  0  0  0  0  0  0  0  0  0
    9.6570    1.2600    1.2520 N   0  0  0  0  0  0  0  0  0  0  0  0
   11.1330    2.5420   -1.3660 H   0  0  0  0  0  0  0  0  0  0  0  0
    9.3010    1.6420    2.1300 H   0  0  0  0  0  0  0  0  0  0  0  0
    8.9300    4.3820   -1.0500 O   0  0  0  0  0  0  0  0  0  0  0  0
    8.9750    5.1650   -1.6310 H   0  0  0  0  0  0  0  0  0  0  0  0
   11.8370    5.6620    3.5840 N   0  0  0  0  0  0  0  0  0  0  0  0
   12.5040    4.8970    3.7310 H   0  0  0  0  0  0  0  0  0  0  0  0
   11.0020    5.7810    4.7880 C   0  0  0  0  0  2  0  0  0  0  0  0
   10.9390    4.5110    5.5820 C   0  0  0  0  0  3  0  0  0  0  0  0
   10.0970    4.4570    6.8330 C   0  0  0  0  0  2  0  0  0  0  0  0
    9.6820    3.6730    5.6190 C   0  0  0  0  0  2  0  0  0  0  0  0
  2 11  1  0  0  0  0
  2  1  2  0  0  0  0
  3  2  1  0  0  0  0
  4  5  1  0  0  0  0
  4  3  2  0  0  0  0
  5 10  1  0  0  0  0
  6  7  1  0  0  0  0
  6  5  2  0  0  0  0
  7  8  2  0  0  0  0
  8  9  1  0  0  0  0
 10  9  2  0  0  0  0
 10 11  1  0  0  0  0
 11 28  1  0  0  0  0
 12  3  1  1  0  0  0
 12 23  1  0  0  0  0
 13 12  1  0  0  0  0
 14 13  1  0  0  0  0
 14 17  1  0  0  0  0
 15 14  2  0  0  0  0
 16 14  2  0  0  0  0
 17 22  1  0  0  0  0
 18 17  2  0  0  0  0
 18 19  1  0  0  0  0
 19 20  2  0  0  0  0
 20 21  1  0  0  0  0
 22 23  1  0  0  0  0
 22 21  2  0  0  0  0
 23 25  1  0  0  0  0
 24 13  1  0  0  0  0
 26  4  1  0  0  0  0
 27 26  1  0  0  0  0
 28 29  1  0  0  0  0
 28 30  1  0  0  0  0
 30 31  1  0  0  0  0
 31 33  1  0  0  0  0
 31 32  1  0  0  0  0
 33 32  1  0  0  0  0
M  END
>  <minimizedAffinity>
-6.81664705

$$$$

 OpenBabel09132200323D

 33 37  0  0  1  0  0  0  0  0999 V2000
    8.4300    0.1970    2.1760 O   0  0  0  0  0  0  0  0  0  0  0  0
    9.0520   -0.5030    1.3650 C   0  0  0  0  0  0  0  0  0  0  0  0
    9.0010   -1.9890    1.5190 C   0  0  0  0  0  0  0  0  0  0  0  0
    9.7450   -2.7530    0.6960 C   0  0  0  0  0  0  0  0  0  0  0  0
   10.5650   -2.1720   -0.3890 C   0  0  0  0  0  0  0  0  0  0  0  0
   11.2810   -2.9620   -1.3070 C   0  0  0  0  0  3  0  0  0  0  0  0
   12.0760   -2.3800   -2.2960 C   0  0  0  0  0  3  0  0  0  0  0  0
   12.1630   -0.9970   -2.3900 C   0  0  0  0  0  3  0  0  0  0  0  0
   11.4310   -0.1980   -1.5140 C   0  0  0  0  0  3  0  0  0  0  0  0
   10.6110   -0.7730   -0.5270 C   0  0  0  0  0  0  0  0  0  0  0  0
    9.8080    0.0270    0.3260 N   0  0  0  0  0  0  0  0  0  0  0  0
    8.1140   -2.5350    2.6160 C   0  0  1  0  0  3  0  0  0  0  0  0
    7.0130   -3.1800    2.3190 N   0  0  0  0  0  0  0  0  0  0  0  0
    5.9710   -3.8220    3.3550 S   0  0  0  0  0  0  0  0  0  0  0  0
    4.7150   -3.1030    3.2710 O   0  0  0  0  0  0  0  0  0  0  0  0
    5.9810   -5.2640    3.2050 O   0  0  0  0  0  0  0  0  0  0  0  0
    6.5950   -3.5050    4.9720 C   0  0  0  0  0  0  0  0  0  0  0  0
    5.8830   -3.9630    6.0870 C   0  0  0  0  0  3  0  0  0  0  0  0
    6.3830   -3.7090    7.3610 C   0  0  0  0  0  3  0  0  0  0  0  0
    7.5780   -3.0060    7.5070 C   0  0  0  0  0  3  0  0  0  0  0  0
    8.2750   -2.5560    6.3800 C   0  0  0  0  0  3  0  0  0  0  0  0
    7.7870   -2.8040    5.0950 C   0  0  0  0  0  0  0  0  0  0  0  0
    8.4730   -2.3590    3.9720 N   0  0  0  0  0  0  0  0  0  0  0  0
    6.7790   -3.2910    1.3380 H   0  0  0  0  0  0  0  0  0  0  0  0
    9.3520   -1.8590    4.1160 H   0  0  0  0  0  0  0  0  0  0  0  0
    9.8000   -4.1290    0.8740 O   0  0  0  0  0  0  0  0  0  0  0  0
   10.6820   -4.4440    0.5990 H   0  0  0  0  0  0  0  0  0  0  0  0
    9.8050    1.4450    0.1680 N   0  0  0  0  0  0  0  0  0  0  0  0
    9.8460    1.6420   -0.8380 H   0  0  0  0  0  0  0  0  0  0  0  0
   10.9550    2.0990    0.8110 C   0  0  0  0  0  2  0  0  0  0  0  0
   10.5550    3.0220    1.9220 C   0  0  0  0  0  3  0  0  0  0  0  0
   10.5690    2.5220    3.3460 C   0  0  0  0  0  2  0  0  0  0  0  0
   11.5730    3.5510    2.9050 C   0  0  0  0  0  2  0  0  0  0  0  0
  2  3  1  0  0  0  0
  2  1  2  0  0  0  0
  4 26  1  0  0  0  0
  4  3  2  0  0  0  0
  5  4  1  0  0  0  0
  6  5  2  0  0  0  0
  7  6  1  0  0  0  0
  8  7  2  0  0  0  0
  8  9  1  0  0  0  0
  9 10  2  0  0  0  0
 10  5  1  0  0  0  0
 10 11  1  0  0  0  0
 11  2  1  0  0  0  0
 12  3  1  6  0  0  0
 12 23  1  0  0  0  0
 13 12  1  0  0  0  0
 13 14  1  0  0  0  0
 14 17  1  0  0  0  0
 15 14  2  0  0  0  0
 16 14  2  0  0  0  0
 17 22  2  0  0  0  0
 17 18  1  0  0  0  0
 18 19  2  0  0  0  0
 19 20  1  0  0  0  0
 21 20  2  0  0  0  0
 22 21  1  0  0  0  0
 23 25  1  0  0  0  0
 23 22  1  0  0  0  0
 24 13  1  0  0  0  0
 27 26  1  0  0  0  0
 28 11  1  0  0  0  0
 28 30  1  0  0  0  0
 29 28  1  0  0  0  0
 30 31  1  0  0  0  0
 31 33  1  0  0  0  0
 31 32  1  0  0  0  0
 33 32  1  0  0  0  0
M  END
>  <minimizedAffinity>
-6.75025082

$$$$

 OpenBabel09132200323D

 33 37  0  0  1  0  0  0  0  0999 V2000
    9.4620    1.9080    1.2570 O   0  0  0  0  0  0  0  0  0  0  0  0
    9.7440    1.4860    2.3870 C   0  0  0  0  0  0  0  0  0  0  0  0
   10.4950    2.3840    3.3170 C   0  0  0  0  0  0  0  0  0  0  0  0
   10.8820    1.9030    4.5130 C   0  0  0  0  0  0  0  0  0  0  0  0
   10.5410    0.5340    4.9580 C   0  0  0  0  0  0  0  0  0  0  0  0
   10.8670    0.0470    6.2370 C   0  0  0  0  0  3  0  0  0  0  0  0
   10.5640   -1.2640    6.6100 C   0  0  0  0  0  3  0  0  0  0  0  0
    9.9210   -2.1080    5.7140 C   0  0  0  0  0  3  0  0  0  0  0  0
    9.5540   -1.6310    4.4570 C   0  0  0  0  0  3  0  0  0  0  0  0
    9.8370   -0.3080    4.0780 C   0  0  0  0  0  0  0  0  0  0  0  0
    9.4100    0.2110    2.8280 N   0  0  0  0  0  0  0  0  0  0  0  0
   10.7810    3.7880    2.8320 C   0  0  1  0  0  3  0  0  0  0  0  0
   10.6200    4.8130    3.6330 N   0  0  0  0  0  0  0  0  0  0  0  0
   10.8820    6.3550    3.2790 S   0  0  0  0  0  0  0  0  0  0  0  0
    9.6190    7.0660    3.2940 O   0  0  0  0  0  0  0  0  0  0  0  0
   11.9870    6.8430    4.0800 O   0  0  0  0  0  0  0  0  0  0  0  0
   11.4420    6.4090    1.6090 C   0  0  0  0  0  0  0  0  0  0  0  0
   11.7570    7.6430    1.0290 C   0  0  0  0  0  3  0  0  0  0  0  0
   12.2000    7.6780   -0.2910 C   0  0  0  0  0  3  0  0  0  0  0  0
   12.3200    6.4900   -1.0110 C   0  0  0  0  0  3  0  0  0  0  0  0
   12.0000    5.2660   -0.4130 C   0  0  0  0  0  3  0  0  0  0  0  0
   11.5560    5.2150    0.9110 C   0  0  0  0  0  0  0  0  0  0  0  0
   11.2350    4.0030    1.5100 N   0  0  0  0  0  0  0  0  0  0  0  0
   10.2920    4.6290    4.5760 H   0  0  0  0  0  0  0  0  0  0  0  0
   11.3470    3.1520    0.9570 H   0  0  0  0  0  0  0  0  0  0  0  0
   11.6660    2.6740    5.3600 O   0  0  0  0  0  0  0  0  0  0  0  0
   12.2490    2.0820    5.8710 H   0  0  0  0  0  0  0  0  0  0  0  0
    8.6520   -0.6130    1.9430 N   0  0  0  0  0  0  0  0  0  0  0  0
    8.2910   -1.4010    2.4910 H   0  0  0  0  0  0  0  0  0  0  0  0
    9.4530   -1.1550    0.8340 C   0  0  0  0  0  2  0  0  0  0  0  0
    9.8090   -2.5980    1.0230 C   0  0  0  0  0  3  0  0  0  0  0  0
    9.8040   -3.5280   -0.1660 C   0  0  0  0  0  2  0  0  0  0  0  0
   11.1060   -3.1610    0.4890 C   0  0  0  0  0  2  0  0  0  0  0  0
  1  2  2  0  0  0  0
  2 11  1  0  0  0  0
  2  3  1  0  0  0  0
  3  4  2  0  0  0  0
  4  5  1  0  0  0  0
  4 26  1  0  0  0  0
  5  6  1  0  0  0  0
  6  7  2  0  0  0  0
  8  7  1  0  0  0  0
  9  8  2  0  0  0  0
 10  9  1  0  0  0  0
 10  5  2  0  0  0  0
 11 10  1  0  0  0  0
 12  3  1  1  0  0  0
 12 13  1  0  0  0  0
 13 24  1  0  0  0  0
 14 15  2  0  0  0  0
 14 13  1  0  0  0  0
 14 16  2  0  0  0  0
 17 14  1  0  0  0  0
 18 17  1  0  0  0  0
 19 18  2  0  0  0  0
 20 21  2  0  0  0  0
 20 19  1  0  0  0  0
 21 22  1  0  0  0  0
 22 23  1  0  0  0  0
 22 17  2  0  0  0  0
 23 12  1  0  0  0  0
 25 23  1  0  0  0  0
 26 27  1  0  0  0  0
 28 29  1  0  0  0  0
 28 11  1  0  0  0  0
 30 31  1  0  0  0  0
 30 28  1  0  0  0  0
 32 33  1  0  0  0  0
 32 31  1  0  0  0  0
 33 31  1  0  0  0  0
M  END
>  <minimizedAffinity>
-6.69539165

$$$$

 OpenBabel09132200323D

 33 37  0  0  1  0  0  0  0  0999 V2000
   10.9920    3.8060    0.2980 O   0  0  0  0  0  0  0  0  0  0  0  0
   10.5710    2.8120    0.9030 C   0  0  0  0  0  0  0  0  0  0  0  0
   10.4070    2.8970    2.3870 C   0  0  0  0  0  0  0  0  0  0  0  0
   10.0330    1.7940    3.0640 C   0  0  0  0  0  0  0  0  0  0  0  0
    9.7270    0.5180    2.3810 C   0  0  0  0  0  0  0  0  0  0  0  0
    9.2560   -0.6170    3.0650 C   0  0  0  0  0  3  0  0  0  0  0  0
    9.0130   -1.8170    2.3940 C   0  0  0  0  0  3  0  0  0  0  0  0
    9.2280   -1.9010    1.0250 C   0  0  0  0  0  3  0  0  0  0  0  0
    9.6570   -0.7750    0.3230 C   0  0  0  0  0  3  0  0  0  0  0  0
    9.8850    0.4430    0.9850 C   0  0  0  0  0  0  0  0  0  0  0  0
   10.2560    1.6140    0.2730 N   0  0  0  0  0  0  0  0  0  0  0  0
   10.6910    4.2350    3.0330 C   0  0  1  0  0  3  0  0  0  0  0  0
   10.4500    5.3490    2.3850 N   0  0  0  0  0  0  0  0  0  0  0  0
   10.6880    6.8400    2.9230 S   0  0  0  0  0  0  0  0  0  0  0  0
   11.7410    7.4620    2.1440 O   0  0  0  0  0  0  0  0  0  0  0  0
    9.4080    7.5060    3.0560 O   0  0  0  0  0  0  0  0  0  0  0  0
   11.3250    6.6970    4.5600 C   0  0  0  0  0  0  0  0  0  0  0  0
   11.6240    7.8560    5.2850 C   0  0  0  0  0  3  0  0  0  0  0  0
   12.1260    7.7360    6.5780 C   0  0  0  0  0  3  0  0  0  0  0  0
   12.3240    6.4700    7.1270 C   0  0  0  0  0  3  0  0  0  0  0  0
   12.0200    5.3230    6.3860 C   0  0  0  0  0  3  0  0  0  0  0  0
   11.5140    5.4280    5.0880 C   0  0  0  0  0  0  0  0  0  0  0  0
   11.2110    4.2930    4.3460 N   0  0  0  0  0  0  0  0  0  0  0  0
   10.0770    5.2770    1.4440 H   0  0  0  0  0  0  0  0  0  0  0  0
   11.3560    3.3820    4.7850 H   0  0  0  0  0  0  0  0  0  0  0  0
    9.9680    1.8090    4.4500 O   0  0  0  0  0  0  0  0  0  0  0  0
   10.1910    0.9190    4.7830 H   0  0  0  0  0  0  0  0  0  0  0  0
   10.3740    1.5680   -1.1480 N   0  0  0  0  0  0  0  0  0  0  0  0
    9.8880    0.7240   -1.4700 H   0  0  0  0  0  0  0  0  0  0  0  0
   11.7690    1.4970   -1.6080 C   0  0  0  0  0  2  0  0  0  0  0  0
   11.9640    0.5280   -2.7340 C   0  0  0  0  0  3  0  0  0  0  0  0
   12.0090   -0.9520   -2.4420 C   0  0  0  0  0  2  0  0  0  0  0  0
   10.8420   -0.3740   -3.1930 C   0  0  0  0  0  2  0  0  0  0  0  0
  1  2  2  0  0  0  0
  2  3  1  0  0  0  0
  3  4  2  0  0  0  0
  4 26  1  0  0  0  0
  5  4  1  0  0  0  0
  5  6  1  0  0  0  0
  7  6  2  0  0  0  0
  8  7  1  0  0  0  0
  9 10  1  0  0  0  0
  9  8  2  0  0  0  0
 10  5  2  0  0  0  0
 11  2  1  0  0  0  0
 11 10  1  0  0  0  0
 12  3  1  1  0  0  0
 12 23  1  0  0  0  0
 13 14  1  0  0  0  0
 13 12  1  0  0  0  0
 14 16  2  0  0  0  0
 14 17  1  0  0  0  0
 15 14  2  0  0  0  0
 17 22  2  0  0  0  0
 17 18  1  0  0  0  0
 18 19  2  0  0  0  0
 19 20  1  0  0  0  0
 21 20  2  0  0  0  0
 22 21  1  0  0  0  0
 23 25  1  0  0  0  0
 23 22  1  0  0  0  0
 24 13  1  0  0  0  0
 26 27  1  0  0  0  0
 28 11  1  0  0  0  0
 29 28  1  0  0  0  0
 30 28  1  0  0  0  0
 31 32  1  0  0  0  0
 31 30  1  0  0  0  0
 33 31  1  0  0  0  0
 33 32  1  0  0  0  0
M  END
>  <minimizedAffinity>
-6.628829

$$$$

 OpenBabel09132200323D

 33 37  0  0  1  0  0  0  0  0999 V2000
    9.1710    0.7060    1.5260 O   0  0  0  0  0  0  0  0  0  0  0  0
    9.5350    0.5510    2.6990 C   0  0  0  0  0  0  0  0  0  0  0  0
   10.1880    1.6990    3.4000 C   0  0  0  0  0  0  0  0  0  0  0  0
   10.6660    1.5130    4.6450 C   0  0  0  0  0  0  0  0  0  0  0  0
   10.5170    0.2270    5.3610 C   0  0  0  0  0  0  0  0  0  0  0  0
   10.9370    0.0440    6.6910 C   0  0  0  0  0  3  0  0  0  0  0  0
   10.8160   -1.1950    7.3230 C   0  0  0  0  0  3  0  0  0  0  0  0
   10.2640   -2.2710    6.6400 C   0  0  0  0  0  3  0  0  0  0  0  0
    9.8060   -2.0980    5.3350 C   0  0  0  0  0  3  0  0  0  0  0  0
    9.9040   -0.8500    4.6950 C   0  0  0  0  0  0  0  0  0  0  0  0
    9.3810   -0.6440    3.3920 N   0  0  0  0  0  0  0  0  0  0  0  0
   10.2770    3.0050    2.6410 C   0  0  1  0  0  3  0  0  0  0  0  0
   10.1730    3.0210    1.3350 N   0  0  0  0  0  0  0  0  0  0  0  0
   10.2400    4.3110    0.3850 S   0  0  0  0  0  0  0  0  0  0  0  0
   11.4340    4.2360   -0.4330 O   0  0  0  0  0  0  0  0  0  0  0  0
    8.9500    4.5010   -0.2480 O   0  0  0  0  0  0  0  0  0  0  0  0
   10.4680    5.7080    1.4350 C   0  0  0  0  0  0  0  0  0  0  0  0
   10.5550    6.9860    0.8710 C   0  0  0  0  0  3  0  0  0  0  0  0
   10.7350    8.0850    1.7060 C   0  0  0  0  0  3  0  0  0  0  0  0
   10.8240    7.8970    3.0850 C   0  0  0  0  0  3  0  0  0  0  0  0
   10.7340    6.6110    3.6300 C   0  0  0  0  0  3  0  0  0  0  0  0
   10.5530    5.4990    2.8040 C   0  0  0  0  0  0  0  0  0  0  0  0
   10.4640    4.2200    3.3390 N   0  0  0  0  0  0  0  0  0  0  0  0
   10.0400    2.1340    0.8600 H   0  0  0  0  0  0  0  0  0  0  0  0
   10.5210    4.1210    4.3540 H   0  0  0  0  0  0  0  0  0  0  0  0
   11.3650    2.5260    5.2870 O   0  0  0  0  0  0  0  0  0  0  0  0
   12.0340    2.1210    5.8720 H   0  0  0  0  0  0  0  0  0  0  0  0
    8.7140   -1.7110    2.7220 N   0  0  0  0  0  0  0  0  0  0  0  0
    8.2030   -2.2480    3.4310 H   0  0  0  0  0  0  0  0  0  0  0  0
    9.6380   -2.6250    2.0330 C   0  0  0  0  0  2  0  0  0  0  0  0
    9.3240   -2.7820    0.5760 C   0  0  0  0  0  3  0  0  0  0  0  0
   10.3520   -3.3960   -0.3440 C   0  0  0  0  0  2  0  0  0  0  0  0
    9.0870   -4.1450   -0.0310 C   0  0  0  0  0  2  0  0  0  0  0  0
  1  2  2  0  0  0  0
  2 11  1  0  0  0  0
  2  3  1  0  0  0  0
  3  4  2  0  0  0  0
  4 26  1  0  0  0  0
  4  5  1  0  0  0  0
  5  6  1  0  0  0  0
  6  7  2  0  0  0  0
  8  7  1  0  0  0  0
  9  8  2  0  0  0  0
 10  9  1  0  0  0  0
 10  5  2  0  0  0  0
 11 10  1  0  0  0  0
 12 23  1  0  0  0  0
 12  3  1  1  0  0  0
 13 12  1  0  0  0  0
 14 13  1  0  0  0  0
 14 17  1  0  0  0  0
 15 14  2  0  0  0  0
 16 14  2  0  0  0  0
 17 22  1  0  0  0  0
 18 17  2  0  0  0  0
 18 19  1  0  0  0  0
 19 20  2  0  0  0  0
 20 21  1  0  0  0  0
 22 23  1  0  0  0  0
 22 21  2  0  0  0  0
 23 25  1  0  0  0  0
 24 13  1  0  0  0  0
 26 27  1  0  0  0  0
 28 11  1  0  0  0  0
 28 29  1  0  0  0  0
 30 28  1  0  0  0  0
 31 30  1  0  0  0  0
 32 33  1  0  0  0  0
 32 31  1  0  0  0  0
 33 31  1  0  0  0  0
M  END
>  <minimizedAffinity>
-6.6243329

$$$$
