
 OpenBabel09132204463D

 33 37  0  0  1  0  0  0  0  0999 V2000
    9.1710    0.7060    1.5260 O   0  0  0  0  0  0  0  0  0  0  0  0
    9.5350    0.5510    2.6990 C   0  0  0  0  0  0  0  0  0  0  0  0
   10.1880    1.6990    3.4000 C   0  0  0  0  0  0  0  0  0  0  0  0
   10.6660    1.5130    4.6450 C   0  0  0  0  0  0  0  0  0  0  0  0
   10.5170    0.2270    5.3610 C   0  0  0  0  0  0  0  0  0  0  0  0
   10.9370    0.0440    6.6910 C   0  0  0  0  0  3  0  0  0  0  0  0
   10.8160   -1.1950    7.3230 C   0  0  0  0  0  3  0  0  0  0  0  0
   10.2640   -2.2710    6.6400 C   0  0  0  0  0  3  0  0  0  0  0  0
    9.8060   -2.0980    5.3350 C   0  0  0  0  0  3  0  0  0  0  0  0
    9.9040   -0.8500    4.6950 C   0  0  0  0  0  0  0  0  0  0  0  0
    9.3810   -0.6440    3.3920 N   0  0  0  0  0  0  0  0  0  0  0  0
   10.2770    3.0050    2.6410 C   0  0  1  0  0  3  0  0  0  0  0  0
   10.1730    3.0210    1.3350 N   0  0  0  0  0  0  0  0  0  0  0  0
   10.2400    4.3110    0.3850 S   0  0  0  0  0  0  0  0  0  0  0  0
   11.4340    4.2360   -0.4330 O   0  0  0  0  0  0  0  0  0  0  0  0
    8.9500    4.5010   -0.2480 O   0  0  0  0  0  0  0  0  0  0  0  0
   10.4680    5.7080    1.4350 C   0  0  0  0  0  0  0  0  0  0  0  0
   10.5550    6.9860    0.8710 C   0  0  0  0  0  3  0  0  0  0  0  0
   10.7350    8.0850    1.7060 C   0  0  0  0  0  3  0  0  0  0  0  0
   10.8240    7.8970    3.0850 C   0  0  0  0  0  3  0  0  0  0  0  0
   10.7340    6.6110    3.6300 C   0  0  0  0  0  3  0  0  0  0  0  0
   10.5530    5.4990    2.8040 C   0  0  0  0  0  0  0  0  0  0  0  0
   10.4640    4.2200    3.3390 N   0  0  0  0  0  0  0  0  0  0  0  0
   10.0400    2.1340    0.8600 H   0  0  0  0  0  0  0  0  0  0  0  0
   10.5210    4.1210    4.3540 H   0  0  0  0  0  0  0  0  0  0  0  0
   11.3650    2.5260    5.2870 O   0  0  0  0  0  0  0  0  0  0  0  0
   12.0340    2.1210    5.8720 H   0  0  0  0  0  0  0  0  0  0  0  0
    8.7140   -1.7110    2.7220 N   0  0  0  0  0  0  0  0  0  0  0  0
    8.2030   -2.2480    3.4310 H   0  0  0  0  0  0  0  0  0  0  0  0
    9.6380   -2.6250    2.0330 C   0  0  0  0  0  2  0  0  0  0  0  0
    9.3240   -2.7820    0.5760 C   0  0  0  0  0  3  0  0  0  0  0  0
   10.3520   -3.3960   -0.3440 C   0  0  0  0  0  2  0  0  0  0  0  0
    9.0870   -4.1450   -0.0310 C   0  0  0  0  0  2  0  0  0  0  0  0
  1  2  2  0  0  0  0
  2 11  1  0  0  0  0
  2  3  1  0  0  0  0
  3  4  2  0  0  0  0
  4 26  1  0  0  0  0
  4  5  1  0  0  0  0
  5  6  1  0  0  0  0
  6  7  2  0  0  0  0
  8  7  1  0  0  0  0
  9  8  2  0  0  0  0
 10  9  1  0  0  0  0
 10  5  2  0  0  0  0
 11 10  1  0  0  0  0
 12 23  1  0  0  0  0
 12  3  1  1  0  0  0
 13 12  1  0  0  0  0
 14 13  1  0  0  0  0
 14 17  1  0  0  0  0
 15 14  2  0  0  0  0
 16 14  2  0  0  0  0
 17 22  1  0  0  0  0
 18 17  2  0  0  0  0
 18 19  1  0  0  0  0
 19 20  2  0  0  0  0
 20 21  1  0  0  0  0
 22 23  1  0  0  0  0
 22 21  2  0  0  0  0
 23 25  1  0  0  0  0
 24 13  1  0  0  0  0
 26 27  1  0  0  0  0
 28 11  1  0  0  0  0
 28 29  1  0  0  0  0
 30 28  1  0  0  0  0
 31 30  1  0  0  0  0
 32 33  1  0  0  0  0
 32 31  1  0  0  0  0
 33 31  1  0  0  0  0
M  END
>  <minimizedAffinity>
-6.6243329

$$$$
