
 OpenBabel09132204463D

 33 37  0  0  1  0  0  0  0  0999 V2000
    8.9260    1.4220    2.8280 O   0  0  0  0  0  0  0  0  0  0  0  0
    9.4330    0.8110    1.8780 C   0  0  0  0  0  0  0  0  0  0  0  0
   10.1470    1.5960    0.8240 C   0  0  0  0  0  0  0  0  0  0  0  0
   10.6250    0.9490   -0.2560 C   0  0  0  0  0  0  0  0  0  0  0  0
   10.5150   -0.5180   -0.4060 C   0  0  0  0  0  0  0  0  0  0  0  0
   11.0820   -1.2160   -1.4880 C   0  0  0  0  0  3  0  0  0  0  0  0
   10.9260   -2.5980   -1.6180 C   0  0  0  0  0  3  0  0  0  0  0  0
   10.2080   -3.3070   -0.6650 C   0  0  0  0  0  3  0  0  0  0  0  0
    9.6730   -2.6380    0.4350 C   0  0  0  0  0  3  0  0  0  0  0  0
    9.8400   -1.2520    0.5870 C   0  0  0  0  0  0  0  0  0  0  0  0
    9.3590   -0.5700    1.7350 N   0  0  0  0  0  0  0  0  0  0  0  0
   10.2700    3.0880    1.0460 C   0  0  1  0  0  3  0  0  0  0  0  0
   10.0660    3.9240    0.0580 N   0  0  0  0  0  0  0  0  0  0  0  0
   10.1510    5.5240    0.1250 S   0  0  0  0  0  0  0  0  0  0  0  0
   11.2700    5.9730   -0.6800 O   0  0  0  0  0  0  0  0  0  0  0  0
    8.8330    6.0790   -0.1090 O   0  0  0  0  0  0  0  0  0  0  0  0
   10.5590    5.9450    1.7870 C   0  0  0  0  0  0  0  0  0  0  0  0
   10.6930    7.2920    2.1420 C   0  0  0  0  0  3  0  0  0  0  0  0
   11.0140    7.6170    3.4570 C   0  0  0  0  0  3  0  0  0  0  0  0
   11.1970    6.6020    4.3950 C   0  0  0  0  0  3  0  0  0  0  0  0
   11.0580    5.2610    4.0210 C   0  0  0  0  0  3  0  0  0  0  0  0
   10.7350    4.9190    2.7050 C   0  0  0  0  0  0  0  0  0  0  0  0
   10.5960    3.5900    2.3260 N   0  0  0  0  0  0  0  0  0  0  0  0
    9.8340    3.5360   -0.8510 H   0  0  0  0  0  0  0  0  0  0  0  0
   10.7240    2.8730    3.0420 H   0  0  0  0  0  0  0  0  0  0  0  0
   11.2030    1.6580   -1.3000 O   0  0  0  0  0  0  0  0  0  0  0  0
   11.0250    1.1850   -2.1340 H   0  0  0  0  0  0  0  0  0  0  0  0
    8.7150   -1.3040    2.7750 N   0  0  0  0  0  0  0  0  0  0  0  0
    8.1070   -0.6510    3.2800 H   0  0  0  0  0  0  0  0  0  0  0  0
    9.6610   -1.8890    3.7380 C   0  0  0  0  0  2  0  0  0  0  0  0
    9.5380   -1.2960    5.1090 C   0  0  0  0  0  3  0  0  0  0  0  0
   10.5570   -1.6490    6.1650 C   0  0  0  0  0  2  0  0  0  0  0  0
   10.5160   -0.2560    5.6030 C   0  0  0  0  0  2  0  0  0  0  0  0
  2  1  2  0  0  0  0
  3  2  1  0  0  0  0
  4  3  2  0  0  0  0
  5  4  1  0  0  0  0
  5 10  1  0  0  0  0
  6  5  2  0  0  0  0
  7  6  1  0  0  0  0
  7  8  2  0  0  0  0
  8  9  1  0  0  0  0
  9 10  2  0  0  0  0
 10 11  1  0  0  0  0
 11  2  1  0  0  0  0
 11 28  1  0  0  0  0
 12  3  1  1  0  0  0
 12 23  1  0  0  0  0
 13 14  1  0  0  0  0
 13 12  1  0  0  0  0
 14 17  1  0  0  0  0
 15 14  2  0  0  0  0
 16 14  2  0  0  0  0
 17 18  2  0  0  0  0
 17 22  1  0  0  0  0
 18 19  1  0  0  0  0
 19 20  2  0  0  0  0
 21 20  1  0  0  0  0
 22 21  2  0  0  0  0
 23 22  1  0  0  0  0
 23 25  1  0  0  0  0
 24 13  1  0  0  0  0
 26  4  1  0  0  0  0
 27 26  1  0  0  0  0
 28 29  1  0  0  0  0
 28 30  1  0  0  0  0
 30 31  1  0  0  0  0
 31 33  1  0  0  0  0
 31 32  1  0  0  0  0
 33 32  1  0  0  0  0
M  END
>  <minimizedAffinity>
-7.17117739

$$$$
