
 OpenBabel09132204463D

 33 37  0  0  1  0  0  0  0  0999 V2000
   11.7380    3.1380    2.5350 O   0  0  0  0  0  0  0  0  0  0  0  0
   11.0830    4.0320    1.9810 C   0  0  0  0  0  0  0  0  0  0  0  0
   10.2630    3.6770    0.7820 C   0  0  0  0  0  0  0  0  0  0  0  0
    9.6190    4.6590    0.1230 C   0  0  0  0  0  0  0  0  0  0  0  0
    9.6520    6.0660    0.5780 C   0  0  0  0  0  0  0  0  0  0  0  0
    8.9170    7.0870   -0.0530 C   0  0  0  0  0  3  0  0  0  0  0  0
    9.0030    8.4120    0.3800 C   0  0  0  0  0  3  0  0  0  0  0  0
    9.8170    8.7380    1.4560 C   0  0  0  0  0  3  0  0  0  0  0  0
   10.5210    7.7340    2.1180 C   0  0  0  0  0  3  0  0  0  0  0  0
   10.4280    6.3940    1.7050 C   0  0  0  0  0  0  0  0  0  0  0  0
   11.0860    5.3540    2.4110 N   0  0  0  0  0  0  0  0  0  0  0  0
   10.2270    2.2190    0.3840 C   0  0  1  0  0  3  0  0  0  0  0  0
   10.7310    1.8320   -0.7630 N   0  0  0  0  0  0  0  0  0  0  0  0
   10.7770    0.3330   -1.3300 S   0  0  0  0  0  0  0  0  0  0  0  0
    9.9230    0.2420   -2.4980 O   0  0  0  0  0  0  0  0  0  0  0  0
   12.1590   -0.0970   -1.4190 O   0  0  0  0  0  0  0  0  0  0  0  0
   10.0330   -0.6990   -0.1120 C   0  0  0  0  0  0  0  0  0  0  0  0
    9.9410   -2.0770   -0.3400 C   0  0  0  0  0  3  0  0  0  0  0  0
    9.3520   -2.8870    0.6280 C   0  0  0  0  0  3  0  0  0  0  0  0
    8.8640   -2.3160    1.8020 C   0  0  0  0  0  3  0  0  0  0  0  0
    8.9650   -0.9360    2.0120 C   0  0  0  0  0  3  0  0  0  0  0  0
    9.5550   -0.1110    1.0510 C   0  0  0  0  0  0  0  0  0  0  0  0
    9.6570    1.2600    1.2520 N   0  0  0  0  0  0  0  0  0  0  0  0
   11.1330    2.5420   -1.3660 H   0  0  0  0  0  0  0  0  0  0  0  0
    9.3010    1.6420    2.1300 H   0  0  0  0  0  0  0  0  0  0  0  0
    8.9300    4.3820   -1.0500 O   0  0  0  0  0  0  0  0  0  0  0  0
    8.9750    5.1650   -1.6310 H   0  0  0  0  0  0  0  0  0  0  0  0
   11.8370    5.6620    3.5840 N   0  0  0  0  0  0  0  0  0  0  0  0
   12.5040    4.8970    3.7310 H   0  0  0  0  0  0  0  0  0  0  0  0
   11.0020    5.7810    4.7880 C   0  0  0  0  0  2  0  0  0  0  0  0
   10.9390    4.5110    5.5820 C   0  0  0  0  0  3  0  0  0  0  0  0
   10.0970    4.4570    6.8330 C   0  0  0  0  0  2  0  0  0  0  0  0
    9.6820    3.6730    5.6190 C   0  0  0  0  0  2  0  0  0  0  0  0
  2 11  1  0  0  0  0
  2  1  2  0  0  0  0
  3  2  1  0  0  0  0
  4  5  1  0  0  0  0
  4  3  2  0  0  0  0
  5 10  1  0  0  0  0
  6  7  1  0  0  0  0
  6  5  2  0  0  0  0
  7  8  2  0  0  0  0
  8  9  1  0  0  0  0
 10  9  2  0  0  0  0
 10 11  1  0  0  0  0
 11 28  1  0  0  0  0
 12  3  1  1  0  0  0
 12 23  1  0  0  0  0
 13 12  1  0  0  0  0
 14 13  1  0  0  0  0
 14 17  1  0  0  0  0
 15 14  2  0  0  0  0
 16 14  2  0  0  0  0
 17 22  1  0  0  0  0
 18 17  2  0  0  0  0
 18 19  1  0  0  0  0
 19 20  2  0  0  0  0
 20 21  1  0  0  0  0
 22 23  1  0  0  0  0
 22 21  2  0  0  0  0
 23 25  1  0  0  0  0
 24 13  1  0  0  0  0
 26  4  1  0  0  0  0
 27 26  1  0  0  0  0
 28 29  1  0  0  0  0
 28 30  1  0  0  0  0
 30 31  1  0  0  0  0
 31 33  1  0  0  0  0
 31 32  1  0  0  0  0
 33 32  1  0  0  0  0
M  END
>  <minimizedAffinity>
-6.81664705

$$$$
