
 OpenBabel09132204463D

 33 37  0  0  1  0  0  0  0  0999 V2000
    9.4620    1.9080    1.2570 O   0  0  0  0  0  0  0  0  0  0  0  0
    9.7440    1.4860    2.3870 C   0  0  0  0  0  0  0  0  0  0  0  0
   10.4950    2.3840    3.3170 C   0  0  0  0  0  0  0  0  0  0  0  0
   10.8820    1.9030    4.5130 C   0  0  0  0  0  0  0  0  0  0  0  0
   10.5410    0.5340    4.9580 C   0  0  0  0  0  0  0  0  0  0  0  0
   10.8670    0.0470    6.2370 C   0  0  0  0  0  3  0  0  0  0  0  0
   10.5640   -1.2640    6.6100 C   0  0  0  0  0  3  0  0  0  0  0  0
    9.9210   -2.1080    5.7140 C   0  0  0  0  0  3  0  0  0  0  0  0
    9.5540   -1.6310    4.4570 C   0  0  0  0  0  3  0  0  0  0  0  0
    9.8370   -0.3080    4.0780 C   0  0  0  0  0  0  0  0  0  0  0  0
    9.4100    0.2110    2.8280 N   0  0  0  0  0  0  0  0  0  0  0  0
   10.7810    3.7880    2.8320 C   0  0  1  0  0  3  0  0  0  0  0  0
   10.6200    4.8130    3.6330 N   0  0  0  0  0  0  0  0  0  0  0  0
   10.8820    6.3550    3.2790 S   0  0  0  0  0  0  0  0  0  0  0  0
    9.6190    7.0660    3.2940 O   0  0  0  0  0  0  0  0  0  0  0  0
   11.9870    6.8430    4.0800 O   0  0  0  0  0  0  0  0  0  0  0  0
   11.4420    6.4090    1.6090 C   0  0  0  0  0  0  0  0  0  0  0  0
   11.7570    7.6430    1.0290 C   0  0  0  0  0  3  0  0  0  0  0  0
   12.2000    7.6780   -0.2910 C   0  0  0  0  0  3  0  0  0  0  0  0
   12.3200    6.4900   -1.0110 C   0  0  0  0  0  3  0  0  0  0  0  0
   12.0000    5.2660   -0.4130 C   0  0  0  0  0  3  0  0  0  0  0  0
   11.5560    5.2150    0.9110 C   0  0  0  0  0  0  0  0  0  0  0  0
   11.2350    4.0030    1.5100 N   0  0  0  0  0  0  0  0  0  0  0  0
   10.2920    4.6290    4.5760 H   0  0  0  0  0  0  0  0  0  0  0  0
   11.3470    3.1520    0.9570 H   0  0  0  0  0  0  0  0  0  0  0  0
   11.6660    2.6740    5.3600 O   0  0  0  0  0  0  0  0  0  0  0  0
   12.2490    2.0820    5.8710 H   0  0  0  0  0  0  0  0  0  0  0  0
    8.6520   -0.6130    1.9430 N   0  0  0  0  0  0  0  0  0  0  0  0
    8.2910   -1.4010    2.4910 H   0  0  0  0  0  0  0  0  0  0  0  0
    9.4530   -1.1550    0.8340 C   0  0  0  0  0  2  0  0  0  0  0  0
    9.8090   -2.5980    1.0230 C   0  0  0  0  0  3  0  0  0  0  0  0
    9.8040   -3.5280   -0.1660 C   0  0  0  0  0  2  0  0  0  0  0  0
   11.1060   -3.1610    0.4890 C   0  0  0  0  0  2  0  0  0  0  0  0
  1  2  2  0  0  0  0
  2 11  1  0  0  0  0
  2  3  1  0  0  0  0
  3  4  2  0  0  0  0
  4  5  1  0  0  0  0
  4 26  1  0  0  0  0
  5  6  1  0  0  0  0
  6  7  2  0  0  0  0
  8  7  1  0  0  0  0
  9  8  2  0  0  0  0
 10  9  1  0  0  0  0
 10  5  2  0  0  0  0
 11 10  1  0  0  0  0
 12  3  1  1  0  0  0
 12 13  1  0  0  0  0
 13 24  1  0  0  0  0
 14 15  2  0  0  0  0
 14 13  1  0  0  0  0
 14 16  2  0  0  0  0
 17 14  1  0  0  0  0
 18 17  1  0  0  0  0
 19 18  2  0  0  0  0
 20 21  2  0  0  0  0
 20 19  1  0  0  0  0
 21 22  1  0  0  0  0
 22 23  1  0  0  0  0
 22 17  2  0  0  0  0
 23 12  1  0  0  0  0
 25 23  1  0  0  0  0
 26 27  1  0  0  0  0
 28 29  1  0  0  0  0
 28 11  1  0  0  0  0
 30 31  1  0  0  0  0
 30 28  1  0  0  0  0
 32 33  1  0  0  0  0
 32 31  1  0  0  0  0
 33 31  1  0  0  0  0
M  END
>  <minimizedAffinity>
-6.69539165

$$$$
