REMARK  Name = 
REMARK  5 active torsions:
REMARK  status: ('A' for Active; 'I' for Inactive)
REMARK    1  A    between atoms: C_2  and  CA_4
REMARK    2  A    between atoms: CA_4  and  N_18
REMARK    3  A    between atoms: C_5  and  C_6
REMARK    4  A    between atoms: C_9  and  C_10
REMARK    5  A    between atoms: C_19  and  C_21
REMARK                            x       y       z     vdW  Elec       q    Type
REMARK                         _______ _______ _______ _____ _____    ______ ____
ROOT
ATOM      1  CA  UNL     1       3.134  -0.132   1.434  0.00  0.00    +0.060 C 
ATOM      2  C   UNL     1       2.605   0.234   2.619  0.00  0.00    +0.071 C 
ENDROOT
BRANCH   2   3
ATOM      3  C   UNL     1       3.239   1.056   3.592  0.00  0.00    +0.130 A 
ATOM      4  C   UNL     1       4.048   2.177   3.450  0.00  0.00    +0.050 A 
ATOM      5  C   UNL     1       4.396   2.636   4.743  0.00  0.00    +0.050 A 
ATOM      6  C   UNL     1       3.774   1.791   5.635  0.00  0.00    +0.136 A 
ATOM      7  O   UNL     1       3.065   0.854   4.944  0.00  0.00    -0.455 OA
BRANCH   6   8
ATOM      8  C   UNL     1       3.714   1.701   7.093  0.00  0.00    +0.017 A 
ATOM      9  C   UNL     1       4.322   2.681   7.895  0.00  0.00    +0.014 A 
ATOM     10  C   UNL     1       4.271   2.598   9.290  0.00  0.00    +0.039 A 
ATOM     11  C   UNL     1       3.612   1.533   9.890  0.00  0.00    +0.123 A 
ATOM     12  F   UNL     1       3.565   1.454  11.226  0.00  0.00    -0.205 F 
ATOM     13  C   UNL     1       3.003   0.550   9.123  0.00  0.00    +0.039 A 
ATOM     14  C   UNL     1       3.054   0.635   7.728  0.00  0.00    +0.014 A 
ENDBRANCH   6   8
ENDBRANCH   2   3
BRANCH   1  15
ATOM     15  N   UNL     1       4.446   0.149   1.071  0.00  0.00    -0.280 N 
ATOM     16  C   UNL     1       5.121  -0.043  -0.114  0.00  0.00    +0.248 C 
ATOM     17  O   UNL     1       6.353   0.032  -0.124  0.00  0.00    -0.270 OA
ATOM     18  H   UNL     1       5.067   0.431   1.816  0.00  0.00    +0.155 HD
BRANCH  16  19
ATOM     19  C   UNL     1       4.423  -0.221  -1.406  0.00  0.00    +0.037 A 
ATOM     20  C   UNL     1       4.922  -1.169  -2.308  0.00  0.00    +0.013 A 
ATOM     21  C   UNL     1       4.337  -1.312  -3.567  0.00  0.00    +0.001 A 
ATOM     22  C   UNL     1       3.265  -0.498  -3.933  0.00  0.00    +0.000 A 
ATOM     23  C   UNL     1       2.783   0.465  -3.045  0.00  0.00    +0.001 A 
ATOM     24  C   UNL     1       3.369   0.615  -1.787  0.00  0.00    +0.013 A 
ENDBRANCH  16  19
ENDBRANCH   1  15
BRANCH   1  26
ATOM     25  O   UNL     1       1.043  -0.474   0.329  0.00  0.00    -0.543 OA
ATOM     26  C   UNL     1       2.153  -1.019   0.603  0.00  0.00    +0.086 C 
ATOM     27  OXT UNL     1       2.580  -2.178   0.339  0.00  0.00    -0.543 OA
ENDBRANCH   1  26
TORSDOF 5
