
 OpenBabel09132204463D

 27 29  0  0  0  0  0  0  0  0999 V2000
    4.8430   -0.6570   10.8130 C   0  0  0  0  0  0  0  0  0  0  0  0
    3.9690   -0.0900    9.9580 C   0  0  0  0  0  2  0  0  0  0  0  0
    3.3680   -0.7310    8.8390 C   0  0  0  0  0  0  0  0  0  0  0  0
    2.0400   -0.8070    8.4380 C   0  0  0  0  0  3  0  0  0  0  0  0
    1.9850   -1.5470    7.2320 C   0  0  0  0  0  3  0  0  0  0  0  0
    3.2850   -1.8840    6.9250 C   0  0  0  0  0  0  0  0  0  0  0  0
    4.1160   -1.3780    7.8800 O   0  0  0  0  0  0  0  0  0  0  0  0
    3.9240   -2.6260    5.8390 C   0  0  0  0  0  0  0  0  0  0  0  0
    5.2310   -3.1190    5.9830 C   0  0  0  0  0  3  0  0  0  0  0  0
    5.8490   -3.8260    4.9470 C   0  0  0  0  0  3  0  0  0  0  0  0
    5.1620   -4.0430    3.7600 C   0  0  0  0  0  0  0  0  0  0  0  0
    5.7550   -4.7190    2.7680 F   0  0  0  0  0  0  0  0  0  0  0  0
    3.8690   -3.5670    3.5890 C   0  0  0  0  0  3  0  0  0  0  0  0
    3.2530   -2.8610    4.6270 C   0  0  0  0  0  3  0  0  0  0  0  0
    5.3740   -1.9270   10.6220 N   0  0  0  0  0  4  0  0  0  0  0  0
    4.8700   -3.1760   10.9120 C   0  0  0  0  0  0  0  0  0  0  0  0
    5.6290   -4.1490   10.9020 O   0  0  0  0  0  0  0  0  0  0  0  0
    6.3410   -1.9700   10.3340 H   0  0  0  0  0  0  0  0  0  0  0  0
    3.4260   -3.4200   11.1200 C   0  0  0  0  0  0  0  0  0  0  0  0
    2.6940   -4.0150   10.0850 C   0  0  0  0  0  3  0  0  0  0  0  0
    1.3160   -4.1920   10.2150 C   0  0  0  0  0  3  0  0  0  0  0  0
    0.6650   -3.7600   11.3710 C   0  0  0  0  0  3  0  0  0  0  0  0
    1.3880   -3.1440   12.3930 C   0  0  0  0  0  3  0  0  0  0  0  0
    2.7660   -2.9600   12.2640 C   0  0  0  0  0  3  0  0  0  0  0  0
    6.4130    0.8740   11.7620 O   0  0  0  0  0  0  0  0  0  0  0  0
    5.2840    0.3290   11.9410 C   0  0  0  0  0  0  0  0  0  0  0  0
    4.4720    0.4320   12.9030 O   0  0  0  0  0  1  0  0  0  0  0  0
  1 26  1  0  0  0  0
  2  1  1  0  0  0  0
  3  2  1  0  0  0  0
  4  3  2  0  0  0  0
  5  4  1  0  0  0  0
  6  5  2  0  0  0  0
  6  7  1  0  0  0  0
  7  3  1  0  0  0  0
  8  9  1  0  0  0  0
  8  6  1  0  0  0  0
 10  9  2  0  0  0  0
 11 10  1  0  0  0  0
 12 11  1  0  0  0  0
 13 11  2  0  0  0  0
 13 14  1  0  0  0  0
 14  8  2  0  0  0  0
 15  1  2  0  0  0  0
 15 16  1  0  0  0  0
 16 19  1  0  0  0  0
 17 16  2  0  0  0  0
 18 15  1  0  0  0  0
 19 24  1  0  0  0  0
 20 21  1  0  0  0  0
 20 19  2  0  0  0  0
 21 22  2  0  0  0  0
 22 23  1  0  0  0  0
 24 23  2  0  0  0  0
 25 26  2  0  0  0  0
 26 27  1  0  0  0  0
M  END
>  <minimizedAffinity>
-6.62369633

$$$$
