REMARK  Name = 
REMARK  7 active torsions:
REMARK  status: ('A' for Active; 'I' for Inactive)
REMARK    1  A    between atoms: C_2  and  C_3
REMARK    2  A    between atoms: C_3  and  C_4
REMARK    3  A    between atoms: N_10  and  CA_11
REMARK    4  A    between atoms: CA_11  and  C_27
REMARK    5  A    between atoms: C_12  and  C_13
REMARK    6  A    between atoms: C_16  and  O_17
REMARK    7  A    between atoms: O_17  and  C_18
REMARK                            x       y       z     vdW  Elec       q    Type
REMARK                         _______ _______ _______ _____ _____    ______ ____
ROOT
ATOM      1  CA  UNL     1       2.271   2.109   1.497  0.00  0.00    +0.057 C 
ATOM      2  C   UNL     1       2.815   3.229   2.015  0.00  0.00    +0.033 C 
ENDROOT
BRANCH   2   3
ATOM      3  C   UNL     1       4.231   3.584   1.914  0.00  0.00    -0.023 A 
ATOM      4  C   UNL     1       5.085   3.384   3.003  0.00  0.00    +0.011 A 
ATOM      5  C   UNL     1       6.452   3.642   2.876  0.00  0.00    +0.047 A 
ATOM      6  C   UNL     1       6.964   4.081   1.654  0.00  0.00    +0.129 A 
ATOM      7  C   UNL     1       6.111   4.323   0.575  0.00  0.00    +0.047 A 
ATOM      8  C   UNL     1       4.747   4.067   0.705  0.00  0.00    +0.011 A 
BRANCH   6   9
ATOM      9  O   UNL     1       8.321   4.299   1.580  0.00  0.00    -0.455 OA
BRANCH   9  10
ATOM     10  C   UNL     1       8.982   3.719   0.517  0.00  0.00    +0.142 A 
ATOM     11  C   UNL     1       8.816   2.361   0.215  0.00  0.00    +0.047 A 
ATOM     12  C   UNL     1       9.517   1.788  -0.847  0.00  0.00    +0.004 A 
ATOM     13  C   UNL     1      10.399   2.562  -1.600  0.00  0.00    +0.001 A 
ATOM     14  C   UNL     1      10.588   3.910  -1.287  0.00  0.00    +0.019 A 
ATOM     15  C   UNL     1       9.886   4.487  -0.225  0.00  0.00    +0.060 A 
ATOM     16 BR   UNL     1      10.182   6.320   0.160  0.00  0.00    -0.046 Br
ENDBRANCH   9  10
ENDBRANCH   6   9
ENDBRANCH   2   3
BRANCH   1  19
ATOM     17  O   UNL     1       1.470  -0.136  -0.259  0.00  0.00    -0.275 OA
ATOM     18  C   UNL     1       2.609   0.070   0.142  0.00  0.00    +0.217 C 
ATOM     19  N   UNL     1       3.057   1.146   0.882  0.00  0.00    -0.284 N 
ATOM     20  H   UNL     1       4.054   1.275   0.966  0.00  0.00    +0.155 HD
BRANCH  18  21
ATOM     21  C   UNL     1       3.742  -0.871  -0.238  0.00  0.00    +0.099 C 
BRANCH  21  22
ATOM     22  C   UNL     1       4.333  -0.552  -1.622  0.00  0.00    -0.002 C 
ATOM     23  C   UNL     1       5.145   0.755  -1.619  0.00  0.00    +0.004 C 
ATOM     24  C   UNL     1       5.819   1.021  -2.964  0.00  0.00    +0.000 C 
ATOM     25  C   UNL     1       6.675  -0.156  -3.412  0.00  0.00    +0.000 C 
ATOM     26  C   UNL     1       5.869  -1.450  -3.438  0.00  0.00    +0.000 C 
ATOM     27  C   UNL     1       5.210  -1.726  -2.090  0.00  0.00    +0.004 C 
ENDBRANCH  21  22
ENDBRANCH  18  21
ENDBRANCH   1  19
BRANCH   1  28
ATOM     28  C   UNL     1       0.730   1.975   1.736  0.00  0.00    +0.086 C 
ATOM     29  O   UNL     1       0.409   1.085   2.580  0.00  0.00    -0.543 OA
ATOM     30  OXT UNL     1       0.024   2.870   1.183  0.00  0.00    -0.543 OA
ENDBRANCH   1  28
TORSDOF 7
