
 OpenBabel09132204463D

 30 32  0  0  0  0  0  0  0  0999 V2000
    9.7950   -0.7360    4.9200 C   0  0  0  0  0  0  0  0  0  0  0  0
    9.2600   -1.6440    4.0790 C   0  0  0  0  0  2  0  0  0  0  0  0
    9.4900   -1.6690    2.6340 C   0  0  0  0  0  0  0  0  0  0  0  0
    9.1310   -0.5710    1.8460 C   0  0  0  0  0  3  0  0  0  0  0  0
    9.4300   -0.5610    0.4820 C   0  0  0  0  0  3  0  0  0  0  0  0
   10.1060   -1.6420   -0.0870 C   0  0  0  0  0  0  0  0  0  0  0  0
   10.4300   -2.7600    0.6850 C   0  0  0  0  0  3  0  0  0  0  0  0
   10.1280   -2.7680    2.0450 C   0  0  0  0  0  3  0  0  0  0  0  0
   10.3940   -1.5700   -1.4310 O   0  0  0  0  0  0  0  0  0  0  0  0
   11.7170   -1.7300   -1.7880 C   0  0  0  0  0  0  0  0  0  0  0  0
   12.2910   -3.0040   -1.8880 C   0  0  0  0  0  3  0  0  0  0  0  0
   13.6390   -3.1420   -2.2220 C   0  0  0  0  0  3  0  0  0  0  0  0
   14.4230   -2.0100   -2.4400 C   0  0  0  0  0  3  0  0  0  0  0  0
   13.8630   -0.7370   -2.3170 C   0  0  0  0  0  3  0  0  0  0  0  0
   12.5130   -0.5960   -1.9840 C   0  0  0  0  0  0  0  0  0  0  0  0
   11.8020    1.1550   -1.8250 Br  0  0  0  0  0  0  0  0  0  0  0  0
    9.4790    2.1720    5.3760 O   0  0  0  0  0  0  0  0  0  0  0  0
   10.3060    1.6640    4.6280 C   0  0  0  0  0  0  0  0  0  0  0  0
   10.5600    0.3190    4.4480 N   0  0  0  0  0  4  0  0  0  0  0  0
   11.4000    0.0630    3.9510 H   0  0  0  0  0  0  0  0  0  0  0  0
   11.2610    2.5370    3.8290 C   0  0  0  0  0  2  0  0  0  0  0  0
   10.5290    3.4450    2.8260 C   0  0  0  0  0  3  0  0  0  0  0  0
   11.1160    4.8670    2.7960 C   0  0  0  0  0  2  0  0  0  0  0  0
   10.4600    5.7420    1.7280 C   0  0  0  0  0  2  0  0  0  0  0  0
   10.5190    5.0950    0.3510 C   0  0  0  0  0  2  0  0  0  0  0  0
    9.9190    3.6930    0.3700 C   0  0  0  0  0  2  0  0  0  0  0  0
   10.5840    2.8140    1.4240 C   0  0  0  0  0  2  0  0  0  0  0  0
    9.3980   -0.9410    6.4210 C   0  0  0  0  0  0  0  0  0  0  0  0
    8.2440   -0.5090    6.7180 O   0  0  0  0  0  0  0  0  0  0  0  0
   10.2060   -1.6470    7.0950 O   0  0  0  0  0  1  0  0  0  0  0  0
  1 28  1  0  0  0  0
  2  1  1  0  0  0  0
  3  2  1  0  0  0  0
  4  3  2  0  0  0  0
  5  4  1  0  0  0  0
  6  5  2  0  0  0  0
  6  7  1  0  0  0  0
  7  8  2  0  0  0  0
  8  3  1  0  0  0  0
  9  6  1  0  0  0  0
 10  9  1  0  0  0  0
 11 10  1  0  0  0  0
 12 11  2  0  0  0  0
 13 14  2  0  0  0  0
 13 12  1  0  0  0  0
 14 15  1  0  0  0  0
 15 16  1  0  0  0  0
 15 10  2  0  0  0  0
 18 17  2  0  0  0  0
 19 18  1  0  0  0  0
 19  1  2  0  0  0  0
 20 19  1  0  0  0  0
 21 18  1  0  0  0  0
 22 21  1  0  0  0  0
 23 22  1  0  0  0  0
 24 23  1  0  0  0  0
 25 26  1  0  0  0  0
 25 24  1  0  0  0  0
 26 27  1  0  0  0  0
 27 22  1  0  0  0  0
 28 29  2  0  0  0  0
 28 30  1  0  0  0  0
M  END
>  <minimizedAffinity>
-7.57755947

$$$$
