
 OpenBabel09132204463D

 30 32  0  0  0  0  0  0  0  0999 V2000
    9.7840   -0.7730    4.9200 C   0  0  0  0  0  0  0  0  0  0  0  0
    9.2330   -1.6820    4.0900 C   0  0  0  0  0  2  0  0  0  0  0  0
    9.4580   -1.7270    2.6450 C   0  0  0  0  0  0  0  0  0  0  0  0
    9.1420   -0.6210    1.8500 C   0  0  0  0  0  3  0  0  0  0  0  0
    9.4380   -0.6350    0.4850 C   0  0  0  0  0  3  0  0  0  0  0  0
   10.0670   -1.7470   -0.0770 C   0  0  0  0  0  0  0  0  0  0  0  0
   10.3470   -2.8710    0.7020 C   0  0  0  0  0  3  0  0  0  0  0  0
   10.0480   -2.8560    2.0640 C   0  0  0  0  0  3  0  0  0  0  0  0
   10.3540   -1.6960   -1.4230 O   0  0  0  0  0  0  0  0  0  0  0  0
   11.3480   -0.8210   -1.8090 C   0  0  0  0  0  0  0  0  0  0  0  0
   11.0580    0.5160   -2.1090 C   0  0  0  0  0  3  0  0  0  0  0  0
   12.0740    1.3770   -2.5270 C   0  0  0  0  0  3  0  0  0  0  0  0
   13.3790    0.9040   -2.6630 C   0  0  0  0  0  3  0  0  0  0  0  0
   13.6680   -0.4350   -2.3900 C   0  0  0  0  0  3  0  0  0  0  0  0
   12.6530   -1.2990   -1.9700 C   0  0  0  0  0  0  0  0  0  0  0  0
   13.0990   -3.1080   -1.6160 Br  0  0  0  0  0  0  0  0  0  0  0  0
    9.5510    2.1410    5.3920 O   0  0  0  0  0  0  0  0  0  0  0  0
   10.3470    1.6150    4.6230 C   0  0  0  0  0  0  0  0  0  0  0  0
   10.5640    0.2650    4.4320 N   0  0  0  0  0  4  0  0  0  0  0  0
   11.3850   -0.0100    3.9150 H   0  0  0  0  0  0  0  0  0  0  0  0
   11.3050    2.4670    3.8040 C   0  0  0  0  0  2  0  0  0  0  0  0
   10.5810    3.3070    2.7380 C   0  0  0  0  0  3  0  0  0  0  0  0
   11.0410    4.7750    2.7440 C   0  0  0  0  0  2  0  0  0  0  0  0
   10.4020    5.5880    1.6200 C   0  0  0  0  0  2  0  0  0  0  0  0
   10.6290    4.9470    0.2570 C   0  0  0  0  0  2  0  0  0  0  0  0
   10.1530    3.4980    0.2390 C   0  0  0  0  0  2  0  0  0  0  0  0
   10.8050    2.6810    1.3510 C   0  0  0  0  0  2  0  0  0  0  0  0
    9.3890   -0.9540    6.4230 C   0  0  0  0  0  0  0  0  0  0  0  0
    8.2580   -0.4690    6.7270 O   0  0  0  0  0  0  0  0  0  0  0  0
   10.1690   -1.6930    7.0950 O   0  0  0  0  0  1  0  0  0  0  0  0
  1 28  1  0  0  0  0
  2  1  1  0  0  0  0
  3  2  1  0  0  0  0
  4  3  2  0  0  0  0
  5  4  1  0  0  0  0
  6  5  2  0  0  0  0
  6  7  1  0  0  0  0
  7  8  2  0  0  0  0
  8  3  1  0  0  0  0
  9  6  1  0  0  0  0
 10  9  1  0  0  0  0
 11 10  2  0  0  0  0
 12 11  1  0  0  0  0
 13 12  2  0  0  0  0
 13 14  1  0  0  0  0
 14 15  2  0  0  0  0
 15 10  1  0  0  0  0
 15 16  1  0  0  0  0
 18 17  2  0  0  0  0
 19 18  1  0  0  0  0
 19  1  2  0  0  0  0
 20 19  1  0  0  0  0
 21 18  1  0  0  0  0
 22 23  1  0  0  0  0
 22 21  1  0  0  0  0
 24 23  1  0  0  0  0
 25 24  1  0  0  0  0
 26 25  1  0  0  0  0
 26 27  1  0  0  0  0
 27 22  1  0  0  0  0
 28 29  2  0  0  0  0
 28 30  1  0  0  0  0
M  END
>  <minimizedAffinity>
-7.47062683

$$$$
