REMARK  Name = 
REMARK  8 active torsions:
REMARK  status: ('A' for Active; 'I' for Inactive)
REMARK    1  A    between atoms: C_2  and  C_3
REMARK    2  A    between atoms: C_4  and  C_5
REMARK    3  A    between atoms: C_14  and  C_15
REMARK    4  A    between atoms: N_20  and  C_21
REMARK    5  A    between atoms: C_21  and  C_22
REMARK    6  A    between atoms: C_27  and  N_28
REMARK    7  A    between atoms: N_28  and  C_29
REMARK    8  A    between atoms: N_28  and  C_30
REMARK                            x       y       z     vdW  Elec       q    Type
REMARK                         _______ _______ _______ _____ _____    ______ ____
ROOT
ATOM      1  C   UNL     1      -0.787  -0.945   0.274  0.00  0.00    +0.046 A 
ATOM      2  C   UNL     1      -1.691  -0.767  -0.764  0.00  0.00    -0.012 A 
ATOM      3  C   UNL     1      -2.829  -0.098  -0.207  0.00  0.00    +0.004 A 
ATOM      4  C   UNL     1      -4.034   0.384  -0.765  0.00  0.00    +0.011 A 
ATOM      5  C   UNL     1      -4.951   1.080   0.024  0.00  0.00    +0.010 A 
ATOM      6  C   UNL     1      -4.726   1.263   1.387  0.00  0.00    -0.001 A 
ATOM      7  C   UNL     1      -3.591   0.669   1.980  0.00  0.00    +0.036 A 
ATOM      8  C   UNL     1      -2.608   0.068   1.167  0.00  0.00    +0.051 A 
ATOM      9  N   UNL     1      -1.334  -0.401   1.435  0.00  0.00    -0.331 N 
ENDROOT
BRANCH   2  10
ATOM     10  C   UNL     1      -1.490  -1.198  -2.203  0.00  0.00    +0.022 C 
ATOM     11  C   UNL     1      -2.546  -2.210  -2.676  0.00  0.00    +0.008 C 
ATOM     12  C   UNL     1      -2.302  -2.639  -4.122  0.00  0.00    +0.001 C 
ATOM     13  C   UNL     1      -2.216  -1.439  -5.060  0.00  0.00    +0.000 C 
ATOM     14  C   UNL     1      -1.157  -0.442  -4.601  0.00  0.00    +0.001 C 
ATOM     15  C   UNL     1      -1.390   0.004  -3.159  0.00  0.00    +0.008 C 
ENDBRANCH   2  10
BRANCH   6  16
ATOM     16  C   UNL     1      -5.602   2.203   2.179  0.00  0.00    +0.072 C 
ATOM     17  O   UNL     1      -5.240   2.473   3.377  0.00  0.00    -0.545 OA
ATOM     18  O   UNL     1      -6.517   2.842   1.577  0.00  0.00    -0.545 OA
ENDBRANCH   6  16
BRANCH   1  20
ATOM     19  C   UNL     1       1.504  -1.055  -0.422  0.00  0.00    +0.010 C 
ATOM     20  C   UNL     1       0.501  -1.543   0.317  0.00  0.00    +0.018 C 
ENDBRANCH   1  20
BRANCH   9  21
ATOM     21  C   UNL     1      -0.537  -0.272   2.662  0.00  0.00    +0.218 C 
BRANCH  21  22
ATOM     22  C   UNL     1      -1.106   0.403   3.886  0.00  0.00    +0.235 C 
ATOM     23  O   UNL     1      -1.611  -0.282   4.781  0.00  0.00    -0.274 OA
ATOM     24  N   UNL     1      -0.930   1.778   4.052  0.00  0.00    -0.300 N 
ATOM     25  C   UNL     1      -1.256   2.375   5.335  0.00  0.00    +0.113 C 
ATOM     26  C   UNL     1      -2.584   3.101   5.234  0.00  0.00    +0.073 C 
ATOM     27  C   UNL     1      -2.585   4.137   4.094  0.00  0.00    +0.067 C 
ATOM     28  C   UNL     1      -1.943   3.619   2.789  0.00  0.00    +0.073 C 
ATOM     29  C   UNL     1      -0.702   2.745   2.990  0.00  0.00    +0.113 C 
BRANCH  27  30
ATOM     30  N   UNL     1      -4.018   4.604   3.847  0.00  0.00    +0.233 N 
ATOM     31  C   UNL     1      -4.718   5.212   5.018  0.00  0.00    +0.190 C 
ATOM     32  C   UNL     1      -4.278   5.386   2.595  0.00  0.00    +0.190 C 
ATOM     33  H   UNL     1      -4.568   3.706   3.687  0.00  0.00    +0.203 HD
ENDBRANCH  27  30
ENDBRANCH  21  22
ENDBRANCH   9  21
TORSDOF 6
