
 OpenBabel09132200133D

 33 36  0  0  1  0  0  0  0  0999 V2000
    1.6630   -6.3490    7.2350 C   0  0  0  0  0  0  0  0  0  0  0  0
    0.8280   -6.3890    6.1270 C   0  0  0  0  0  0  0  0  0  0  0  0
    1.6460   -6.1010    4.9870 C   0  0  0  0  0  0  0  0  0  0  0  0
    1.3830   -6.0410    3.6000 C   0  0  0  0  0  3  0  0  0  0  0  0
    2.4160   -5.8050    2.6920 C   0  0  0  0  0  3  0  0  0  0  0  0
    3.7160   -5.5670    3.1360 C   0  0  0  0  0  0  0  0  0  0  0  0
    3.9630   -5.4920    4.5240 C   0  0  0  0  0  3  0  0  0  0  0  0
    2.9480   -5.8440    5.4370 C   0  0  0  0  0  0  0  0  0  0  0  0
    2.9560   -6.0560    6.8050 N   0  0  0  0  0  0  0  0  0  0  0  0
   -0.6570   -6.6890    6.1420 C   0  0  0  0  0  3  0  0  0  0  0  0
   -1.3380   -6.2690    7.4550 C   0  0  0  0  0  2  0  0  0  0  0  0
   -2.8280   -6.6040    7.4450 C   0  0  0  0  0  2  0  0  0  0  0  0
   -3.5330   -6.0050    6.2320 C   0  0  0  0  0  2  0  0  0  0  0  0
   -2.8690   -6.4350    4.9280 C   0  0  0  0  0  2  0  0  0  0  0  0
   -1.3790   -6.1000    4.9170 C   0  0  0  0  0  2  0  0  0  0  0  0
    4.8580   -5.5390    2.1500 C   0  0  0  0  0  0  0  0  0  0  0  0
    5.3640   -4.3970    1.8710 O   0  0  0  0  0  1  0  0  0  0  0  0
    5.4030   -6.6340    1.8120 O   0  0  0  0  0  0  0  0  0  0  0  0
    1.4040   -5.5180    9.4690 C   0  0  0  0  0  2  0  0  0  0  0  0
    1.4120   -6.5520    8.6190 C   0  0  0  0  0  3  0  0  0  0  0  0
    4.0980   -6.1270    7.7260 C   0  0  0  0  0  2  0  0  0  0  0  0
    4.6580   -4.8770    8.3600 C   0  0  0  0  0  0  0  0  0  0  0  0
    5.1110   -4.9260    9.5080 O   0  0  0  0  0  0  0  0  0  0  0  0
    4.7810   -3.7170    7.5930 N   0  0  0  0  0  0  0  0  0  0  0  0
    5.5430   -2.6020    8.1270 C   0  0  0  0  0  2  0  0  0  0  0  0
    4.5920   -1.5290    8.6210 C   0  0  0  0  0  2  0  0  0  0  0  0
    3.6070   -1.0870    7.5230 C   0  0  1  0  0  3  0  0  0  0  0  0
    3.0150   -2.2620    6.7150 C   0  0  0  0  0  2  0  0  0  0  0  0
    4.0040   -3.3900    6.4080 C   0  0  0  0  0  2  0  0  0  0  0  0
    2.4980   -0.2480    8.1560 N   0  0  0  0  0  4  0  0  0  0  0  0
    1.3800    0.1490    7.2490 C   0  0  0  0  0  1  0  0  0  0  0  0
    1.9810   -0.6920    9.4910 C   0  0  0  0  0  1  0  0  0  0  0  0
    2.9620    0.6850    8.3770 H   0  0  0  0  0  0  0  0  0  0  0  0
  1 20  1  0  0  0  0
  2 10  1  0  0  0  0
  2  1  2  0  0  0  0
  3  8  1  0  0  0  0
  3  2  1  0  0  0  0
  4  3  2  0  0  0  0
  5  6  2  0  0  0  0
  5  4  1  0  0  0  0
  6  7  1  0  0  0  0
  7  8  2  0  0  0  0
  8  9  1  0  0  0  0
  9  1  1  0  0  0  0
  9 21  1  0  0  0  0
 10 11  1  0  0  0  0
 12 11  1  0  0  0  0
 13 12  1  0  0  0  0
 14 13  1  0  0  0  0
 15 14  1  0  0  0  0
 15 10  1  0  0  0  0
 16  6  1  0  0  0  0
 17 16  1  0  0  0  0
 18 16  2  0  0  0  0
 20 19  2  0  0  0  0
 21 22  1  0  0  0  0
 22 23  2  0  0  0  0
 24 25  1  0  0  0  0
 24 22  1  0  0  0  0
 25 26  1  0  0  0  0
 27 30  1  1  0  0  0
 27 26  1  0  0  0  0
 28 27  1  0  0  0  0
 29 28  1  0  0  0  0
 29 24  1  0  0  0  0
 30 33  1  0  0  0  0
 30 32  1  0  0  0  0
 31 30  1  0  0  0  0
M  END
>  <minimizedAffinity>
7.26396656

$$$$
