REMARK  Name = 
REMARK  3 active torsions:
REMARK  status: ('A' for Active; 'I' for Inactive)
REMARK    1  A    between atoms: C_2  and  C_4
REMARK    2  A    between atoms: C_8  and  C_9
REMARK    3  A    between atoms: C_15  and  C_16
REMARK                            x       y       z     vdW  Elec       q    Type
REMARK                         _______ _______ _______ _____ _____    ______ ____
ROOT
ATOM      1  C   UNL     1       3.199   0.198   1.081  0.00  0.00    +0.014 A 
ATOM      2  C   UNL     1       2.797  -0.643   2.200  0.00  0.00    +0.013 A 
ATOM      3  C   UNL     1       3.424  -0.592   3.391  0.00  0.00    +0.027 A 
ATOM      4  C   UNL     1       4.520   0.306   3.587  0.00  0.00    +0.050 A 
ATOM      5  C   UNL     1       5.361   0.612   4.652  0.00  0.00    -0.011 A 
ATOM      6  C   UNL     1       6.269   1.614   4.168  0.00  0.00    +0.004 A 
ATOM      7  C   UNL     1       5.939   1.884   2.856  0.00  0.00    +0.100 A 
ATOM      8  N   UNL     1       4.877   1.091   2.494  0.00  0.00    -0.322 N 
ATOM      9  C   UNL     1       4.231   1.041   1.262  0.00  0.00    +0.101 A 
ENDROOT
BRANCH   5  10
ATOM     10  C   UNL     1       5.342   0.038   6.050  0.00  0.00    +0.022 C 
ATOM     11  C   UNL     1       4.027   0.332   6.792  0.00  0.00    +0.008 C 
ATOM     12  C   UNL     1       4.047  -0.231   8.212  0.00  0.00    +0.001 C 
ATOM     13  C   UNL     1       4.374  -1.722   8.222  0.00  0.00    +0.000 C 
ATOM     14  C   UNL     1       5.684  -2.015   7.497  0.00  0.00    +0.001 C 
ATOM     15  C   UNL     1       5.676  -1.463   6.072  0.00  0.00    +0.008 C 
ENDBRANCH   5  10
BRANCH   6  16
ATOM     16  C   UNL     1       7.371   2.284   4.834  0.00  0.00    -0.016 A 
ATOM     17  C   UNL     1       8.460   1.545   5.309  0.00  0.00    +0.008 A 
ATOM     18  C   UNL     1       9.520   2.187   5.953  0.00  0.00    +0.001 A 
ATOM     19  C   UNL     1       9.496   3.571   6.123  0.00  0.00    +0.000 A 
ATOM     20  C   UNL     1       8.416   4.315   5.649  0.00  0.00    +0.001 A 
ATOM     21  C   UNL     1       7.356   3.673   5.005  0.00  0.00    +0.008 A 
ENDBRANCH   6  16
BRANCH   1  23
ATOM     22  O   UNL     1       1.494  -0.735  -0.305  0.00  0.00    -0.545 OA
ATOM     23  C   UNL     1       2.443   0.102  -0.265  0.00  0.00    +0.073 C 
ATOM     24  O   UNL     1       2.859   0.873  -1.179  0.00  0.00    -0.545 OA
ENDBRANCH   1  23
TORSDOF 3
