
 OpenBabel09132204463D

 24 27  0  0  0  0  0  0  0  0999 V2000
    6.9540   -0.2000    9.6460 C   0  0  0  0  0  0  0  0  0  0  0  0
    6.5950   -0.1750    8.2340 C   0  0  0  0  0  3  0  0  0  0  0  0
    5.5420   -0.8660    7.7550 C   0  0  0  0  0  3  0  0  0  0  0  0
    4.7390   -1.6540    8.6380 C   0  0  0  0  0  0  0  0  0  0  0  0
    3.6140   -2.4590    8.4880 C   0  0  0  0  0  0  0  0  0  0  0  0
    3.3150   -2.9740    9.7940 C   0  0  0  0  0  0  0  0  0  0  0  0
    4.2440   -2.4580   10.6740 C   0  0  0  0  0  3  0  0  0  0  0  0
    5.1150   -1.6550    9.9780 N   0  0  0  0  0  0  0  0  0  0  0  0
    6.2020   -0.9420   10.4770 C   0  0  0  0  0  3  0  0  0  0  0  0
    2.8330   -2.7430    7.2260 C   0  0  0  0  0  3  0  0  0  0  0  0
    2.3570   -1.4600    6.5230 C   0  0  0  0  0  2  0  0  0  0  0  0
    1.5440   -1.7770    5.2690 C   0  0  0  0  0  2  0  0  0  0  0  0
    2.3130   -2.6860    4.3140 C   0  0  0  0  0  2  0  0  0  0  0  0
    2.7750   -3.9650    5.0050 C   0  0  0  0  0  2  0  0  0  0  0  0
    3.5970   -3.6630    6.2580 C   0  0  0  0  0  2  0  0  0  0  0  0
    2.2680   -3.8800   10.2300 C   0  0  0  0  0  0  0  0  0  0  0  0
    1.3970   -3.5050   11.2590 C   0  0  0  0  0  3  0  0  0  0  0  0
    0.3910   -4.3760   11.6820 C   0  0  0  0  0  3  0  0  0  0  0  0
    0.2510   -5.6250   11.0770 C   0  0  0  0  0  3  0  0  0  0  0  0
    1.1140   -6.0050   10.0490 C   0  0  0  0  0  3  0  0  0  0  0  0
    2.1200   -5.1330    9.6260 C   0  0  0  0  0  3  0  0  0  0  0  0
    9.2950    0.0380   10.0490 O   0  0  0  0  0  0  0  0  0  0  0  0
    8.1720    0.6140   10.1440 C   0  0  0  0  0  0  0  0  0  0  0  0
    7.9080    1.7670   10.5940 O   0  0  0  0  0  1  0  0  0  0  0  0
  1 23  1  0  0  0  0
  1  9  2  0  0  0  0
  2  1  1  0  0  0  0
  3  2  2  0  0  0  0
  3  4  1  0  0  0  0
  4  8  1  0  0  0  0
  5  4  2  0  0  0  0
  5  6  1  0  0  0  0
  6 16  1  0  0  0  0
  6  7  2  0  0  0  0
  8  9  1  0  0  0  0
  8  7  1  0  0  0  0
 10  5  1  0  0  0  0
 11 10  1  0  0  0  0
 12 11  1  0  0  0  0
 13 14  1  0  0  0  0
 13 12  1  0  0  0  0
 14 15  1  0  0  0  0
 15 10  1  0  0  0  0
 16 17  1  0  0  0  0
 17 18  2  0  0  0  0
 19 18  1  0  0  0  0
 20 19  2  0  0  0  0
 21 20  1  0  0  0  0
 21 16  2  0  0  0  0
 22 23  2  0  0  0  0
 23 24  1  0  0  0  0
M  END
>  <minimizedAffinity>
-5.83884001

$$$$
