
 OpenBabel09132200043D

 24 27  0  0  0  0  0  0  0  0999 V2000
    8.6630   -2.2220    5.8230 C   0  0  0  0  0  0  0  0  0  0  0  0
    7.3600   -2.8710    5.8610 C   0  0  0  0  0  3  0  0  0  0  0  0
    6.3910   -2.4750    6.7080 C   0  0  0  0  0  3  0  0  0  0  0  0
    6.6250   -1.3880    7.6080 C   0  0  0  0  0  0  0  0  0  0  0  0
    5.8710   -0.7360    8.5790 C   0  0  0  0  0  0  0  0  0  0  0  0
    6.7220    0.2810    9.1290 C   0  0  0  0  0  0  0  0  0  0  0  0
    7.9330    0.2190    8.4710 C   0  0  0  0  0  3  0  0  0  0  0  0
    7.8830   -0.7950    7.5450 N   0  0  0  0  0  0  0  0  0  0  0  0
    8.8860   -1.2010    6.6700 C   0  0  0  0  0  3  0  0  0  0  0  0
    4.4410   -1.0070    8.9870 C   0  0  0  0  0  3  0  0  0  0  0  0
    3.4660   -0.9500    7.7980 C   0  0  0  0  0  2  0  0  0  0  0  0
    2.0260   -1.1960    8.2430 C   0  0  0  0  0  2  0  0  0  0  0  0
    1.8900   -2.5050    9.0160 C   0  0  0  0  0  2  0  0  0  0  0  0
    2.8480   -2.5590   10.2020 C   0  0  0  0  0  2  0  0  0  0  0  0
    4.2950   -2.3220    9.7710 C   0  0  0  0  0  2  0  0  0  0  0  0
    6.4730    1.2460   10.1850 C   0  0  0  0  0  0  0  0  0  0  0  0
    7.3490    2.3200   10.3780 C   0  0  0  0  0  3  0  0  0  0  0  0
    7.1130    3.2470   11.3950 C   0  0  0  0  0  3  0  0  0  0  0  0
    6.0000    3.1050   12.2230 C   0  0  0  0  0  3  0  0  0  0  0  0
    5.1200    2.0390   12.0340 C   0  0  0  0  0  3  0  0  0  0  0  0
    5.3560    1.1120   11.0170 C   0  0  0  0  0  3  0  0  0  0  0  0
   10.9180   -2.3050    5.0450 O   0  0  0  0  0  1  0  0  0  0  0  0
    9.7400   -2.7140    4.8280 C   0  0  0  0  0  0  0  0  0  0  0  0
    9.3220   -3.4730    3.9050 O   0  0  0  0  0  0  0  0  0  0  0  0
  1  2  1  0  0  0  0
  1  9  2  0  0  0  0
  2  3  2  0  0  0  0
  3  4  1  0  0  0  0
  4  5  2  0  0  0  0
  5 10  1  0  0  0  0
  5  6  1  0  0  0  0
  6 16  1  0  0  0  0
  7  6  2  0  0  0  0
  8  4  1  0  0  0  0
  8  7  1  0  0  0  0
  9  8  1  0  0  0  0
 10 15  1  0  0  0  0
 11 12  1  0  0  0  0
 11 10  1  0  0  0  0
 12 13  1  0  0  0  0
 13 14  1  0  0  0  0
 15 14  1  0  0  0  0
 16 17  2  0  0  0  0
 16 21  1  0  0  0  0
 17 18  1  0  0  0  0
 18 19  2  0  0  0  0
 20 19  1  0  0  0  0
 21 20  2  0  0  0  0
 23 22  1  0  0  0  0
 23  1  1  0  0  0  0
 24 23  2  0  0  0  0
M  END
>  <minimizedAffinity>
-6.39912558

$$$$

 OpenBabel09132200043D

 24 27  0  0  0  0  0  0  0  0999 V2000
   10.3530    3.3520    0.6790 C   0  0  0  0  0  0  0  0  0  0  0  0
   11.2840    2.9590   -0.3690 C   0  0  0  0  0  3  0  0  0  0  0  0
   11.4070    1.6790   -0.7700 C   0  0  0  0  0  3  0  0  0  0  0  0
   10.6100    0.6580   -0.1640 C   0  0  0  0  0  0  0  0  0  0  0  0
   10.4790   -0.7170   -0.3330 C   0  0  0  0  0  0  0  0  0  0  0  0
    9.4910   -1.1440    0.6190 C   0  0  0  0  0  0  0  0  0  0  0  0
    9.0570   -0.0290    1.3050 C   0  0  0  0  0  3  0  0  0  0  0  0
    9.7340    1.0710    0.8360 N   0  0  0  0  0  0  0  0  0  0  0  0
    9.6040    2.3930    1.2530 C   0  0  0  0  0  3  0  0  0  0  0  0
   11.2020   -1.6080   -1.3160 C   0  0  0  0  0  3  0  0  0  0  0  0
   11.9830   -0.8100   -2.3740 C   0  0  0  0  0  2  0  0  0  0  0  0
   12.6770   -1.7340   -3.3730 C   0  0  0  0  0  2  0  0  0  0  0  0
   13.5690   -2.7550   -2.6710 C   0  0  0  0  0  2  0  0  0  0  0  0
   12.7940   -3.5560   -1.6300 C   0  0  0  0  0  2  0  0  0  0  0  0
   12.0990   -2.6450   -0.6190 C   0  0  0  0  0  2  0  0  0  0  0  0
    8.9730   -2.4690    0.9040 C   0  0  0  0  0  0  0  0  0  0  0  0
    9.0610   -3.4810   -0.0580 C   0  0  0  0  0  3  0  0  0  0  0  0
    8.5600   -4.7570    0.2140 C   0  0  0  0  0  3  0  0  0  0  0  0
    7.9700   -5.0250    1.4490 C   0  0  0  0  0  3  0  0  0  0  0  0
    7.8820   -4.0220    2.4140 C   0  0  0  0  0  3  0  0  0  0  0  0
    8.3830   -2.7470    2.1430 C   0  0  0  0  0  3  0  0  0  0  0  0
   10.5770    5.0940    2.2960 O   0  0  0  0  0  1  0  0  0  0  0  0
   10.2490    4.8370    1.1000 C   0  0  0  0  0  0  0  0  0  0  0  0
    9.8470    5.6310    0.2000 O   0  0  0  0  0  0  0  0  0  0  0  0
  1 23  1  0  0  0  0
  1  9  2  0  0  0  0
  2  1  1  0  0  0  0
  3  2  2  0  0  0  0
  3  4  1  0  0  0  0
  4  8  1  0  0  0  0
  5  4  2  0  0  0  0
  5  6  1  0  0  0  0
  6 16  1  0  0  0  0
  6  7  2  0  0  0  0
  8  9  1  0  0  0  0
  8  7  1  0  0  0  0
 10 15  1  0  0  0  0
 10  5  1  0  0  0  0
 11 10  1  0  0  0  0
 12 13  1  0  0  0  0
 12 11  1  0  0  0  0
 13 14  1  0  0  0  0
 14 15  1  0  0  0  0
 16 21  1  0  0  0  0
 17 18  1  0  0  0  0
 17 16  2  0  0  0  0
 18 19  2  0  0  0  0
 19 20  1  0  0  0  0
 21 20  2  0  0  0  0
 23 22  1  0  0  0  0
 24 23  2  0  0  0  0
M  END
>  <minimizedAffinity>
-6.20019102

$$$$

 OpenBabel09132200043D

 24 27  0  0  0  0  0  0  0  0999 V2000
    4.4290   -4.5170    4.9760 C   0  0  0  0  0  0  0  0  0  0  0  0
    3.6200   -5.2720    5.9220 C   0  0  0  0  0  3  0  0  0  0  0  0
    3.3640   -4.8170    7.1640 C   0  0  0  0  0  3  0  0  0  0  0  0
    3.8920   -3.5570    7.5890 C   0  0  0  0  0  0  0  0  0  0  0  0
    3.8220   -2.8070    8.7580 C   0  0  0  0  0  0  0  0  0  0  0  0
    4.5970   -1.6220    8.5180 C   0  0  0  0  0  0  0  0  0  0  0  0
    5.0860   -1.6900    7.2300 C   0  0  0  0  0  3  0  0  0  0  0  0
    4.6630   -2.8660    6.6580 N   0  0  0  0  0  0  0  0  0  0  0  0
    4.9290   -3.3340    5.3740 C   0  0  0  0  0  3  0  0  0  0  0  0
    3.0800   -3.1340   10.0330 C   0  0  0  0  0  3  0  0  0  0  0  0
    1.5630   -3.2740    9.8150 C   0  0  0  0  0  2  0  0  0  0  0  0
    0.8340   -3.5720   11.1230 C   0  0  0  0  0  2  0  0  0  0  0  0
    1.4140   -4.7980   11.8240 C   0  0  0  0  0  2  0  0  0  0  0  0
    2.9160   -4.6570   12.0520 C   0  0  0  0  0  2  0  0  0  0  0  0
    3.6600   -4.3640   10.7500 C   0  0  0  0  0  2  0  0  0  0  0  0
    4.8920   -0.4990    9.3900 C   0  0  0  0  0  0  0  0  0  0  0  0
    6.2170   -0.1000    9.5990 C   0  0  0  0  0  3  0  0  0  0  0  0
    6.5040    0.9780   10.4400 C   0  0  0  0  0  3  0  0  0  0  0  0
    5.4660    1.6610   11.0740 C   0  0  0  0  0  3  0  0  0  0  0  0
    4.1430    1.2720   10.8680 C   0  0  0  0  0  3  0  0  0  0  0  0
    3.8570    0.1940   10.0270 C   0  0  0  0  0  3  0  0  0  0  0  0
    4.2120   -4.4120    2.6010 O   0  0  0  0  0  0  0  0  0  0  0  0
    4.6900   -5.0850    3.5610 C   0  0  0  0  0  0  0  0  0  0  0  0
    5.3540   -6.1620    3.5210 O   0  0  0  0  0  1  0  0  0  0  0  0
  1  9  2  0  0  0  0
  1  2  1  0  0  0  0
  2  3  2  0  0  0  0
  3  4  1  0  0  0  0
  4  5  2  0  0  0  0
  5 10  1  0  0  0  0
  6  5  1  0  0  0  0
  6 16  1  0  0  0  0
  7  6  2  0  0  0  0
  8  7  1  0  0  0  0
  8  4  1  0  0  0  0
  9  8  1  0  0  0  0
 10 15  1  0  0  0  0
 11 10  1  0  0  0  0
 11 12  1  0  0  0  0
 12 13  1  0  0  0  0
 13 14  1  0  0  0  0
 15 14  1  0  0  0  0
 16 17  2  0  0  0  0
 16 21  1  0  0  0  0
 17 18  1  0  0  0  0
 18 19  2  0  0  0  0
 20 19  1  0  0  0  0
 21 20  2  0  0  0  0
 22 23  2  0  0  0  0
 23  1  1  0  0  0  0
 24 23  1  0  0  0  0
M  END
>  <minimizedAffinity>
-6.15486383

$$$$

 OpenBabel09132200043D

 24 27  0  0  0  0  0  0  0  0999 V2000
    8.9300   -4.5140   10.3700 C   0  0  0  0  0  0  0  0  0  0  0  0
    8.0400   -4.9500   11.4360 C   0  0  0  0  0  3  0  0  0  0  0  0
    6.7060   -4.7780   11.3660 C   0  0  0  0  0  3  0  0  0  0  0  0
    6.1230   -4.1490   10.2210 C   0  0  0  0  0  0  0  0  0  0  0  0
    4.8270   -3.8280    9.8290 C   0  0  0  0  0  0  0  0  0  0  0  0
    4.9450   -3.1890    8.5480 C   0  0  0  0  0  0  0  0  0  0  0  0
    6.2820   -3.1620    8.2110 C   0  0  0  0  0  3  0  0  0  0  0  0
    7.0060   -3.7420    9.2240 N   0  0  0  0  0  0  0  0  0  0  0  0
    8.3850   -3.9200    9.2940 C   0  0  0  0  0  3  0  0  0  0  0  0
    3.5360   -4.0950   10.5680 C   0  0  0  0  0  3  0  0  0  0  0  0
    2.9980   -2.8470   11.2880 C   0  0  0  0  0  2  0  0  0  0  0  0
    1.7110   -3.1530   12.0520 C   0  0  0  0  0  2  0  0  0  0  0  0
    0.6530   -3.7770   11.1470 C   0  0  0  0  0  2  0  0  0  0  0  0
    1.1800   -5.0220   10.4410 C   0  0  0  0  0  2  0  0  0  0  0  0
    2.4650   -4.7300    9.6660 C   0  0  0  0  0  2  0  0  0  0  0  0
    3.9250   -2.6280    7.6810 C   0  0  0  0  0  0  0  0  0  0  0  0
    3.5710   -3.2820    6.4960 C   0  0  0  0  0  3  0  0  0  0  0  0
    2.5920   -2.7430    5.6590 C   0  0  0  0  0  3  0  0  0  0  0  0
    1.9620   -1.5470    6.0040 C   0  0  0  0  0  3  0  0  0  0  0  0
    2.3070   -0.8910    7.1850 C   0  0  0  0  0  3  0  0  0  0  0  0
    3.2860   -1.4300    8.0220 C   0  0  0  0  0  3  0  0  0  0  0  0
   10.8220   -5.4850   11.4540 O   0  0  0  0  0  1  0  0  0  0  0  0
   10.4550   -4.7390   10.5000 C   0  0  0  0  0  0  0  0  0  0  0  0
   11.1680   -4.1500    9.6350 O   0  0  0  0  0  0  0  0  0  0  0  0
  1 23  1  0  0  0  0
  1  2  1  0  0  0  0
  3  2  2  0  0  0  0
  4  3  1  0  0  0  0
  5  4  2  0  0  0  0
  5 10  1  0  0  0  0
  6  5  1  0  0  0  0
  7  6  2  0  0  0  0
  7  8  1  0  0  0  0
  8  9  1  0  0  0  0
  8  4  1  0  0  0  0
  9  1  2  0  0  0  0
 10 11  1  0  0  0  0
 11 12  1  0  0  0  0
 13 12  1  0  0  0  0
 14 13  1  0  0  0  0
 15 14  1  0  0  0  0
 15 10  1  0  0  0  0
 16 21  1  0  0  0  0
 16  6  1  0  0  0  0
 17 16  2  0  0  0  0
 18 19  2  0  0  0  0
 18 17  1  0  0  0  0
 19 20  1  0  0  0  0
 20 21  2  0  0  0  0
 23 22  1  0  0  0  0
 24 23  2  0  0  0  0
M  END
>  <minimizedAffinity>
-6.01191616

$$$$

 OpenBabel09132200043D

 24 27  0  0  0  0  0  0  0  0999 V2000
    9.8940    6.6790    0.2720 C   0  0  0  0  0  0  0  0  0  0  0  0
   10.5080    6.7370    1.5920 C   0  0  0  0  0  3  0  0  0  0  0  0
   10.7390    5.6280    2.3200 C   0  0  0  0  0  3  0  0  0  0  0  0
   10.3800    4.3430    1.8040 C   0  0  0  0  0  0  0  0  0  0  0  0
   10.4780    3.0360    2.2690 C   0  0  0  0  0  0  0  0  0  0  0  0
    9.9110    2.2050    1.2430 C   0  0  0  0  0  0  0  0  0  0  0  0
    9.5130    3.0250    0.2080 C   0  0  0  0  0  3  0  0  0  0  0  0
    9.7930    4.3280    0.5420 N   0  0  0  0  0  0  0  0  0  0  0  0
    9.5530    5.4720   -0.2140 C   0  0  0  0  0  3  0  0  0  0  0  0
   11.0680    2.5510    3.5730 C   0  0  0  0  0  3  0  0  0  0  0  0
   12.4710    3.1240    3.8360 C   0  0  0  0  0  2  0  0  0  0  0  0
   13.0560    2.5930    5.1440 C   0  0  0  0  0  2  0  0  0  0  0  0
   12.1190    2.8440    6.3230 C   0  0  0  0  0  2  0  0  0  0  0  0
   10.7300    2.2670    6.0690 C   0  0  0  0  0  2  0  0  0  0  0  0
   10.1290    2.7940    4.7670 C   0  0  0  0  0  2  0  0  0  0  0  0
    9.7280    0.7660    1.1940 C   0  0  0  0  0  0  0  0  0  0  0  0
   10.1340    0.0430    0.0670 C   0  0  0  0  0  3  0  0  0  0  0  0
    9.9550   -1.3420    0.0170 C   0  0  0  0  0  3  0  0  0  0  0  0
    9.3720   -2.0080    1.0940 C   0  0  0  0  0  3  0  0  0  0  0  0
    8.9680   -1.2950    2.2220 C   0  0  0  0  0  3  0  0  0  0  0  0
    9.1470    0.0890    2.2730 C   0  0  0  0  0  3  0  0  0  0  0  0
    8.4810    8.4580   -0.4610 O   0  0  0  0  0  1  0  0  0  0  0  0
    9.6530    7.9830   -0.5230 C   0  0  0  0  0  0  0  0  0  0  0  0
   10.6580    8.4320   -1.1500 O   0  0  0  0  0  0  0  0  0  0  0  0
  1  2  1  0  0  0  0
  2  3  2  0  0  0  0
  4  5  2  0  0  0  0
  4  3  1  0  0  0  0
  5 10  1  0  0  0  0
  6  5  1  0  0  0  0
  7  8  1  0  0  0  0
  7  6  2  0  0  0  0
  8  4  1  0  0  0  0
  9  1  2  0  0  0  0
  9  8  1  0  0  0  0
 10 11  1  0  0  0  0
 10 15  1  0  0  0  0
 11 12  1  0  0  0  0
 12 13  1  0  0  0  0
 14 13  1  0  0  0  0
 15 14  1  0  0  0  0
 16  6  1  0  0  0  0
 16 21  1  0  0  0  0
 17 16  2  0  0  0  0
 18 17  1  0  0  0  0
 18 19  2  0  0  0  0
 19 20  1  0  0  0  0
 20 21  2  0  0  0  0
 23 22  1  0  0  0  0
 23  1  1  0  0  0  0
 24 23  2  0  0  0  0
M  END
>  <minimizedAffinity>
-6.00404787

$$$$

 OpenBabel09132200043D

 24 27  0  0  0  0  0  0  0  0999 V2000
    8.1420   -1.9340    5.9770 C   0  0  0  0  0  0  0  0  0  0  0  0
    7.2460   -3.0090    5.5760 C   0  0  0  0  0  3  0  0  0  0  0  0
    7.3330   -3.5950    4.3660 C   0  0  0  0  0  3  0  0  0  0  0  0
    8.3260   -3.1660    3.4300 C   0  0  0  0  0  0  0  0  0  0  0  0
    8.6890   -3.5420    2.1410 C   0  0  0  0  0  0  0  0  0  0  0  0
    9.7800   -2.6860    1.7680 C   0  0  0  0  0  0  0  0  0  0  0  0
   10.0430   -1.8490    2.8340 C   0  0  0  0  0  3  0  0  0  0  0  0
    9.1610   -2.1330    3.8480 N   0  0  0  0  0  0  0  0  0  0  0  0
    9.0740   -1.5260    5.0980 C   0  0  0  0  0  3  0  0  0  0  0  0
    8.0890   -4.6330    1.2840 C   0  0  0  0  0  3  0  0  0  0  0  0
    6.6780   -5.0360    1.7430 C   0  0  0  0  0  2  0  0  0  0  0  0
    6.1080   -6.1610    0.8800 C   0  0  0  0  0  2  0  0  0  0  0  0
    6.1330   -5.8020   -0.6030 C   0  0  0  0  0  2  0  0  0  0  0  0
    7.5350   -5.4120   -1.0630 C   0  0  0  0  0  2  0  0  0  0  0  0
    8.1150   -4.2830   -0.2130 C   0  0  0  0  0  2  0  0  0  0  0  0
   10.5380   -2.6130    0.5320 C   0  0  0  0  0  0  0  0  0  0  0  0
   10.2570   -1.6150   -0.4070 C   0  0  0  0  0  3  0  0  0  0  0  0
   10.9820   -1.5450   -1.5990 C   0  0  0  0  0  3  0  0  0  0  0  0
   11.9930   -2.4710   -1.8540 C   0  0  0  0  0  3  0  0  0  0  0  0
   12.2810   -3.4660   -0.9210 C   0  0  0  0  0  3  0  0  0  0  0  0
   11.5560   -3.5370    0.2700 C   0  0  0  0  0  3  0  0  0  0  0  0
    8.4910   -1.9630    8.3380 O   0  0  0  0  0  1  0  0  0  0  0  0
    8.0010   -1.2970    7.3790 C   0  0  0  0  0  0  0  0  0  0  0  0
    7.4100   -0.1780    7.4120 O   0  0  0  0  0  0  0  0  0  0  0  0
  1 23  1  0  0  0  0
  2  1  1  0  0  0  0
  3  2  2  0  0  0  0
  4  8  1  0  0  0  0
  4  3  1  0  0  0  0
  5  4  2  0  0  0  0
  6  5  1  0  0  0  0
  6  7  2  0  0  0  0
  7  8  1  0  0  0  0
  8  9  1  0  0  0  0
  9  1  2  0  0  0  0
 10 11  1  0  0  0  0
 10  5  1  0  0  0  0
 12 11  1  0  0  0  0
 13 12  1  0  0  0  0
 14 13  1  0  0  0  0
 14 15  1  0  0  0  0
 15 10  1  0  0  0  0
 16  6  1  0  0  0  0
 17 16  2  0  0  0  0
 18 17  1  0  0  0  0
 19 18  2  0  0  0  0
 19 20  1  0  0  0  0
 20 21  2  0  0  0  0
 21 16  1  0  0  0  0
 23 24  2  0  0  0  0
 23 22  1  0  0  0  0
M  END
>  <minimizedAffinity>
-5.97381115

$$$$

 OpenBabel09132200043D

 24 27  0  0  0  0  0  0  0  0999 V2000
    7.4550    0.4500   10.7590 C   0  0  0  0  0  0  0  0  0  0  0  0
    6.8250   -0.4650   11.7000 C   0  0  0  0  0  3  0  0  0  0  0  0
    5.8490   -1.3150   11.3240 C   0  0  0  0  0  3  0  0  0  0  0  0
    5.4010   -1.3370    9.9660 C   0  0  0  0  0  0  0  0  0  0  0  0
    4.4530   -2.0660    9.2560 C   0  0  0  0  0  0  0  0  0  0  0  0
    4.5030   -1.5780    7.9060 C   0  0  0  0  0  0  0  0  0  0  0  0
    5.4750   -0.6000    7.8470 C   0  0  0  0  0  3  0  0  0  0  0  0
    6.0250   -0.4460    9.0970 N   0  0  0  0  0  0  0  0  0  0  0  0
    7.0340    0.4320    9.4820 C   0  0  0  0  0  3  0  0  0  0  0  0
    3.5470   -3.1630    9.7660 C   0  0  0  0  0  3  0  0  0  0  0  0
    2.0670   -2.7470    9.7850 C   0  0  0  0  0  2  0  0  0  0  0  0
    1.1780   -3.8630   10.3340 C   0  0  0  0  0  2  0  0  0  0  0  0
    1.3820   -5.1700    9.5730 C   0  0  0  0  0  2  0  0  0  0  0  0
    2.8480   -5.5920    9.5630 C   0  0  0  0  0  2  0  0  0  0  0  0
    3.7490   -4.4880    9.0100 C   0  0  0  0  0  2  0  0  0  0  0  0
    3.7240   -1.9550    6.7410 C   0  0  0  0  0  0  0  0  0  0  0  0
    2.4490   -1.4160    6.5420 C   0  0  0  0  0  3  0  0  0  0  0  0
    1.6960   -1.7800    5.4240 C   0  0  0  0  0  3  0  0  0  0  0  0
    2.2170   -2.6830    4.4980 C   0  0  0  0  0  3  0  0  0  0  0  0
    3.4890   -3.2220    4.6870 C   0  0  0  0  0  3  0  0  0  0  0  0
    4.2420   -2.8580    5.8060 C   0  0  0  0  0  3  0  0  0  0  0  0
    8.6130    2.5350   10.6780 O   0  0  0  0  0  0  0  0  0  0  0  0
    8.5730    1.4030   11.2420 C   0  0  0  0  0  0  0  0  0  0  0  0
    9.3260    0.9420   12.1500 O   0  0  0  0  0  1  0  0  0  0  0  0
  1 23  1  0  0  0  0
  1  2  1  0  0  0  0
  3  2  2  0  0  0  0
  4  3  1  0  0  0  0
  5 10  1  0  0  0  0
  5  4  2  0  0  0  0
  6  5  1  0  0  0  0
  7  6  2  0  0  0  0
  7  8  1  0  0  0  0
  8  9  1  0  0  0  0
  8  4  1  0  0  0  0
  9  1  2  0  0  0  0
 10 11  1  0  0  0  0
 11 12  1  0  0  0  0
 13 12  1  0  0  0  0
 14 13  1  0  0  0  0
 15 14  1  0  0  0  0
 15 10  1  0  0  0  0
 16  6  1  0  0  0  0
 17 16  1  0  0  0  0
 18 17  2  0  0  0  0
 19 20  2  0  0  0  0
 19 18  1  0  0  0  0
 20 21  1  0  0  0  0
 21 16  2  0  0  0  0
 22 23  2  0  0  0  0
 23 24  1  0  0  0  0
M  END
>  <minimizedAffinity>
-5.91790342

$$$$

 OpenBabel09132200043D

 24 27  0  0  0  0  0  0  0  0999 V2000
    9.2510   -2.9590    9.1450 C   0  0  0  0  0  0  0  0  0  0  0  0
    8.5320   -3.4960   10.2920 C   0  0  0  0  0  3  0  0  0  0  0  0
    7.1880   -3.5890   10.3100 C   0  0  0  0  0  3  0  0  0  0  0  0
    6.4230   -3.1530    9.1830 C   0  0  0  0  0  0  0  0  0  0  0  0
    5.0680   -3.1120    8.8720 C   0  0  0  0  0  0  0  0  0  0  0  0
    4.9770   -2.5390    7.5580 C   0  0  0  0  0  0  0  0  0  0  0  0
    6.2600   -2.2740    7.1240 C   0  0  0  0  0  3  0  0  0  0  0  0
    7.1460   -2.6430    8.1080 N   0  0  0  0  0  0  0  0  0  0  0  0
    8.5340   -2.5460    8.0850 C   0  0  0  0  0  3  0  0  0  0  0  0
    3.9030   -3.5800    9.7140 C   0  0  0  0  0  3  0  0  0  0  0  0
    3.1820   -2.4210   10.4220 C   0  0  0  0  0  2  0  0  0  0  0  0
    2.0310   -2.9240   11.2910 C   0  0  0  0  0  2  0  0  0  0  0  0
    1.0560   -3.7840   10.4900 C   0  0  0  0  0  2  0  0  0  0  0  0
    1.7660   -4.9420    9.7960 C   0  0  0  0  0  2  0  0  0  0  0  0
    2.9180   -4.4520    8.9180 C   0  0  0  0  0  2  0  0  0  0  0  0
    3.8150   -2.2380    6.7420 C   0  0  0  0  0  0  0  0  0  0  0  0
    2.9420   -1.2090    7.1140 C   0  0  0  0  0  3  0  0  0  0  0  0
    1.8220   -0.9200    6.3320 C   0  0  0  0  0  3  0  0  0  0  0  0
    1.5710   -1.6560    5.1750 C   0  0  0  0  0  3  0  0  0  0  0  0
    2.4380   -2.6800    4.7960 C   0  0  0  0  0  3  0  0  0  0  0  0
    3.5590   -2.9700    5.5770 C   0  0  0  0  0  3  0  0  0  0  0  0
   11.4030   -3.9810    9.2960 O   0  0  0  0  0  1  0  0  0  0  0  0
   10.7950   -2.8770    9.1740 C   0  0  0  0  0  0  0  0  0  0  0  0
   11.2810   -1.7120    9.0740 O   0  0  0  0  0  0  0  0  0  0  0  0
  1 23  1  0  0  0  0
  1  2  1  0  0  0  0
  2  3  2  0  0  0  0
  4  3  1  0  0  0  0
  5  4  2  0  0  0  0
  5 10  1  0  0  0  0
  6  5  1  0  0  0  0
  7  6  2  0  0  0  0
  7  8  1  0  0  0  0
  8  4  1  0  0  0  0
  9  8  1  0  0  0  0
  9  1  2  0  0  0  0
 10 11  1  0  0  0  0
 11 12  1  0  0  0  0
 13 12  1  0  0  0  0
 14 13  1  0  0  0  0
 15 10  1  0  0  0  0
 15 14  1  0  0  0  0
 16 17  1  0  0  0  0
 16  6  1  0  0  0  0
 18 17  2  0  0  0  0
 19 18  1  0  0  0  0
 20 19  2  0  0  0  0
 20 21  1  0  0  0  0
 21 16  2  0  0  0  0
 23 22  1  0  0  0  0
 24 23  2  0  0  0  0
M  END
>  <minimizedAffinity>
-5.9132123

$$$$

 OpenBabel09132200043D

 24 27  0  0  0  0  0  0  0  0999 V2000
    6.9540   -0.2000    9.6460 C   0  0  0  0  0  0  0  0  0  0  0  0
    6.5950   -0.1750    8.2340 C   0  0  0  0  0  3  0  0  0  0  0  0
    5.5420   -0.8660    7.7550 C   0  0  0  0  0  3  0  0  0  0  0  0
    4.7390   -1.6540    8.6380 C   0  0  0  0  0  0  0  0  0  0  0  0
    3.6140   -2.4590    8.4880 C   0  0  0  0  0  0  0  0  0  0  0  0
    3.3150   -2.9740    9.7940 C   0  0  0  0  0  0  0  0  0  0  0  0
    4.2440   -2.4580   10.6740 C   0  0  0  0  0  3  0  0  0  0  0  0
    5.1150   -1.6550    9.9780 N   0  0  0  0  0  0  0  0  0  0  0  0
    6.2020   -0.9420   10.4770 C   0  0  0  0  0  3  0  0  0  0  0  0
    2.8330   -2.7430    7.2260 C   0  0  0  0  0  3  0  0  0  0  0  0
    2.3570   -1.4600    6.5230 C   0  0  0  0  0  2  0  0  0  0  0  0
    1.5440   -1.7770    5.2690 C   0  0  0  0  0  2  0  0  0  0  0  0
    2.3130   -2.6860    4.3140 C   0  0  0  0  0  2  0  0  0  0  0  0
    2.7750   -3.9650    5.0050 C   0  0  0  0  0  2  0  0  0  0  0  0
    3.5970   -3.6630    6.2580 C   0  0  0  0  0  2  0  0  0  0  0  0
    2.2680   -3.8800   10.2300 C   0  0  0  0  0  0  0  0  0  0  0  0
    1.3970   -3.5050   11.2590 C   0  0  0  0  0  3  0  0  0  0  0  0
    0.3910   -4.3760   11.6820 C   0  0  0  0  0  3  0  0  0  0  0  0
    0.2510   -5.6250   11.0770 C   0  0  0  0  0  3  0  0  0  0  0  0
    1.1140   -6.0050   10.0490 C   0  0  0  0  0  3  0  0  0  0  0  0
    2.1200   -5.1330    9.6260 C   0  0  0  0  0  3  0  0  0  0  0  0
    9.2950    0.0380   10.0490 O   0  0  0  0  0  0  0  0  0  0  0  0
    8.1720    0.6140   10.1440 C   0  0  0  0  0  0  0  0  0  0  0  0
    7.9080    1.7670   10.5940 O   0  0  0  0  0  1  0  0  0  0  0  0
  1 23  1  0  0  0  0
  1  9  2  0  0  0  0
  2  1  1  0  0  0  0
  3  2  2  0  0  0  0
  3  4  1  0  0  0  0
  4  8  1  0  0  0  0
  5  4  2  0  0  0  0
  5  6  1  0  0  0  0
  6 16  1  0  0  0  0
  6  7  2  0  0  0  0
  8  9  1  0  0  0  0
  8  7  1  0  0  0  0
 10  5  1  0  0  0  0
 11 10  1  0  0  0  0
 12 11  1  0  0  0  0
 13 14  1  0  0  0  0
 13 12  1  0  0  0  0
 14 15  1  0  0  0  0
 15 10  1  0  0  0  0
 16 17  1  0  0  0  0
 17 18  2  0  0  0  0
 19 18  1  0  0  0  0
 20 19  2  0  0  0  0
 21 20  1  0  0  0  0
 21 16  2  0  0  0  0
 22 23  2  0  0  0  0
 23 24  1  0  0  0  0
M  END
>  <minimizedAffinity>
-5.83884001

$$$$

 OpenBabel09132200043D

 24 27  0  0  0  0  0  0  0  0999 V2000
    4.1590   -3.2710    5.1950 C   0  0  0  0  0  0  0  0  0  0  0  0
    5.5320   -3.7360    5.3390 C   0  0  0  0  0  3  0  0  0  0  0  0
    6.3560   -3.2420    6.2830 C   0  0  0  0  0  3  0  0  0  0  0  0
    5.8930   -2.2300    7.1820 C   0  0  0  0  0  0  0  0  0  0  0  0
    6.4540   -1.5260    8.2420 C   0  0  0  0  0  0  0  0  0  0  0  0
    5.4320   -0.6360    8.7160 C   0  0  0  0  0  0  0  0  0  0  0  0
    4.3040   -0.8430    7.9490 C   0  0  0  0  0  3  0  0  0  0  0  0
    4.5770   -1.8090    7.0120 N   0  0  0  0  0  0  0  0  0  0  0  0
    3.7220   -2.3180    6.0380 C   0  0  0  0  0  3  0  0  0  0  0  0
    7.8470   -1.6560    8.8150 C   0  0  0  0  0  3  0  0  0  0  0  0
    8.1360   -3.0690    9.3500 C   0  0  0  0  0  2  0  0  0  0  0  0
    9.5380   -3.1640    9.9510 C   0  0  0  0  0  2  0  0  0  0  0  0
   10.6070   -2.7110    8.9610 C   0  0  0  0  0  2  0  0  0  0  0  0
   10.3290   -1.3050    8.4370 C   0  0  0  0  0  2  0  0  0  0  0  0
    8.9320   -1.1970    7.8260 C   0  0  0  0  0  2  0  0  0  0  0  0
    5.4620    0.3460    9.7840 C   0  0  0  0  0  0  0  0  0  0  0  0
    6.6290    1.0750   10.0370 C   0  0  0  0  0  3  0  0  0  0  0  0
    6.6610    2.0190   11.0660 C   0  0  0  0  0  3  0  0  0  0  0  0
    5.5260    2.2380   11.8460 C   0  0  0  0  0  3  0  0  0  0  0  0
    4.3580    1.5180   11.5980 C   0  0  0  0  0  3  0  0  0  0  0  0
    4.3250    0.5740   10.5690 C   0  0  0  0  0  3  0  0  0  0  0  0
    3.8390   -4.2210    3.0290 O   0  0  0  0  0  0  0  0  0  0  0  0
    3.2530   -3.8740    4.0960 C   0  0  0  0  0  0  0  0  0  0  0  0
    2.0230   -3.9530    4.3870 O   0  0  0  0  0  1  0  0  0  0  0  0
  1  2  1  0  0  0  0
  1  9  2  0  0  0  0
  2  3  2  0  0  0  0
  3  4  1  0  0  0  0
  4  5  2  0  0  0  0
  5  6  1  0  0  0  0
  5 10  1  0  0  0  0
  6 16  1  0  0  0  0
  7  6  2  0  0  0  0
  8  4  1  0  0  0  0
  8  7  1  0  0  0  0
  9  8  1  0  0  0  0
 10 11  1  0  0  0  0
 11 12  1  0  0  0  0
 13 12  1  0  0  0  0
 14 13  1  0  0  0  0
 15 14  1  0  0  0  0
 15 10  1  0  0  0  0
 16 17  2  0  0  0  0
 16 21  1  0  0  0  0
 17 18  1  0  0  0  0
 18 19  2  0  0  0  0
 20 19  1  0  0  0  0
 21 20  2  0  0  0  0
 22 23  2  0  0  0  0
 23 24  1  0  0  0  0
 23  1  1  0  0  0  0
M  END
>  <minimizedAffinity>
-5.83738995

$$$$
