
 OpenBabel09132204463D

 24 27  0  0  0  0  0  0  0  0999 V2000
    8.1420   -1.9340    5.9770 C   0  0  0  0  0  0  0  0  0  0  0  0
    7.2460   -3.0090    5.5760 C   0  0  0  0  0  3  0  0  0  0  0  0
    7.3330   -3.5950    4.3660 C   0  0  0  0  0  3  0  0  0  0  0  0
    8.3260   -3.1660    3.4300 C   0  0  0  0  0  0  0  0  0  0  0  0
    8.6890   -3.5420    2.1410 C   0  0  0  0  0  0  0  0  0  0  0  0
    9.7800   -2.6860    1.7680 C   0  0  0  0  0  0  0  0  0  0  0  0
   10.0430   -1.8490    2.8340 C   0  0  0  0  0  3  0  0  0  0  0  0
    9.1610   -2.1330    3.8480 N   0  0  0  0  0  0  0  0  0  0  0  0
    9.0740   -1.5260    5.0980 C   0  0  0  0  0  3  0  0  0  0  0  0
    8.0890   -4.6330    1.2840 C   0  0  0  0  0  3  0  0  0  0  0  0
    6.6780   -5.0360    1.7430 C   0  0  0  0  0  2  0  0  0  0  0  0
    6.1080   -6.1610    0.8800 C   0  0  0  0  0  2  0  0  0  0  0  0
    6.1330   -5.8020   -0.6030 C   0  0  0  0  0  2  0  0  0  0  0  0
    7.5350   -5.4120   -1.0630 C   0  0  0  0  0  2  0  0  0  0  0  0
    8.1150   -4.2830   -0.2130 C   0  0  0  0  0  2  0  0  0  0  0  0
   10.5380   -2.6130    0.5320 C   0  0  0  0  0  0  0  0  0  0  0  0
   10.2570   -1.6150   -0.4070 C   0  0  0  0  0  3  0  0  0  0  0  0
   10.9820   -1.5450   -1.5990 C   0  0  0  0  0  3  0  0  0  0  0  0
   11.9930   -2.4710   -1.8540 C   0  0  0  0  0  3  0  0  0  0  0  0
   12.2810   -3.4660   -0.9210 C   0  0  0  0  0  3  0  0  0  0  0  0
   11.5560   -3.5370    0.2700 C   0  0  0  0  0  3  0  0  0  0  0  0
    8.4910   -1.9630    8.3380 O   0  0  0  0  0  1  0  0  0  0  0  0
    8.0010   -1.2970    7.3790 C   0  0  0  0  0  0  0  0  0  0  0  0
    7.4100   -0.1780    7.4120 O   0  0  0  0  0  0  0  0  0  0  0  0
  1 23  1  0  0  0  0
  2  1  1  0  0  0  0
  3  2  2  0  0  0  0
  4  8  1  0  0  0  0
  4  3  1  0  0  0  0
  5  4  2  0  0  0  0
  6  5  1  0  0  0  0
  6  7  2  0  0  0  0
  7  8  1  0  0  0  0
  8  9  1  0  0  0  0
  9  1  2  0  0  0  0
 10 11  1  0  0  0  0
 10  5  1  0  0  0  0
 12 11  1  0  0  0  0
 13 12  1  0  0  0  0
 14 13  1  0  0  0  0
 14 15  1  0  0  0  0
 15 10  1  0  0  0  0
 16  6  1  0  0  0  0
 17 16  2  0  0  0  0
 18 17  1  0  0  0  0
 19 18  2  0  0  0  0
 19 20  1  0  0  0  0
 20 21  2  0  0  0  0
 21 16  1  0  0  0  0
 23 24  2  0  0  0  0
 23 22  1  0  0  0  0
M  END
>  <minimizedAffinity>
-5.97381115

$$$$
