REMARK  Name = 
REMARK  10 active torsions:
REMARK  status: ('A' for Active; 'I' for Inactive)
REMARK    1  A    between atoms: C_2  and  C_4
REMARK    2  A    between atoms: C_11  and  C_12
REMARK    3  A    between atoms: C_15  and  O_16
REMARK    4  A    between atoms: O_16  and  C_17
REMARK    5  A    between atoms: C_17  and  C_18
REMARK    6  A    between atoms: C_20  and  C_21
REMARK    7  A    between atoms: N_23  and  C_24
REMARK    8  A    between atoms: C_24  and  C_25
REMARK    9  A    between atoms: C_33  and  C_34
REMARK   10  A    between atoms: N_43  and  C_44
REMARK                            x       y       z     vdW  Elec       q    Type
REMARK                         _______ _______ _______ _____ _____    ______ ____
ROOT
ATOM      1  O   UNL     1      10.107  -7.532   4.838  0.00  0.00    -0.487 OA
ENDROOT
BRANCH   1   5
ATOM      2  C   UNL     1       7.472  -5.303   2.499  0.00  0.00    +0.018 A 
ATOM      3  C   UNL     1       8.855  -5.244   2.302  0.00  0.00    +0.015 A 
ATOM      4  C   UNL     1       9.713  -6.013   3.089  0.00  0.00    +0.046 A 
ATOM      5  C   UNL     1       9.199  -6.820   4.103  0.00  0.00    +0.121 A 
ATOM      6  C   UNL     1       7.821  -6.904   4.296  0.00  0.00    +0.046 A 
ATOM      7  C   UNL     1       6.963  -6.135   3.506  0.00  0.00    +0.015 A 
BRANCH   2  15
ATOM      8  C   UNL     1       4.131  -1.161  -0.235  0.00  0.00    -0.001 A 
ATOM      9  C   UNL     1       3.382  -2.264  -0.675  0.00  0.00    +0.012 A 
ATOM     10  C   UNL     1       3.741  -3.582  -0.365  0.00  0.00    +0.028 A 
ATOM     11  C   UNL     1       4.887  -3.773   0.417  0.00  0.00    +0.069 A 
ATOM     12  C   UNL     1       5.655  -2.704   0.869  0.00  0.00    +0.090 A 
ATOM     13  C   UNL     1       5.284  -1.391   0.541  0.00  0.00    +0.039 A 
ATOM     14  N   UNL     1       6.713  -3.144   1.623  0.00  0.00    -0.228 NA
ATOM     15  C   UNL     1       6.590  -4.456   1.696  0.00  0.00    +0.142 A 
ATOM     16  N   UNL     1       5.535  -4.890   0.907  0.00  0.00    -0.320 N 
BRANCH  16  17
ATOM     17  C   UNL     1       5.212  -6.282   0.608  0.00  0.00    +0.089 C 
ATOM     18  C   UNL     1       3.866  -6.722   1.205  0.00  0.00    +0.025 C 
ATOM     19  C   UNL     1       3.591  -8.198   0.924  0.00  0.00    +0.002 C 
ATOM     20  C   UNL     1       3.685  -8.517  -0.565  0.00  0.00    +0.000 C 
ATOM     21  C   UNL     1       5.028  -8.092  -1.152  0.00  0.00    +0.002 C 
ATOM     22  C   UNL     1       5.314  -6.614  -0.891  0.00  0.00    +0.025 C 
ENDBRANCH  16  17
BRANCH   8  24
ATOM     23  O   UNL     1       2.655   0.376  -1.294  0.00  0.00    -0.545 OA
ATOM     24  C   UNL     1       3.704   0.250  -0.585  0.00  0.00    +0.072 C 
ATOM     25  O   UNL     1       4.421   1.202  -0.142  0.00  0.00    -0.545 OA
ENDBRANCH   8  24
ENDBRANCH   2  15
ENDBRANCH   1   5
BRANCH   1  26
ATOM     26  C   UNL     1       9.975  -7.392   6.259  0.00  0.00    +0.265 C 
BRANCH  26  27
ATOM     27  C   UNL     1      10.402  -6.022   6.752  0.00  0.00    -0.002 A 
ATOM     28  C   UNL     1       9.402  -5.096   7.114  0.00  0.00    +0.020 A 
ATOM     29  C   UNL     1       9.737  -3.805   7.530  0.00  0.00    +0.037 A 
ATOM     30  C   UNL     1      11.078  -3.435   7.627  0.00  0.00    +0.013 A 
ATOM     31  C   UNL     1      12.079  -4.344   7.278  0.00  0.00    +0.009 A 
ATOM     32  C   UNL     1      11.762  -5.643   6.837  0.00  0.00    -0.011 A 
BRANCH  32  33
ATOM     33  C   UNL     1      12.860  -6.564   6.512  0.00  0.00    -0.017 A 
ATOM     34  C   UNL     1      13.305  -6.719   5.191  0.00  0.00    +0.010 A 
ATOM     35  C   UNL     1      14.346  -7.599   4.886  0.00  0.00    +0.020 A 
ATOM     36  C   UNL     1      14.957  -8.326   5.905  0.00  0.00    +0.041 A 
ATOM     37 CL   UNL     1      16.239  -9.411   5.532  0.00  0.00    -0.084 Cl
ATOM     38  C   UNL     1      14.537  -8.180   7.224  0.00  0.00    +0.020 A 
ATOM     39  C   UNL     1      13.493  -7.301   7.526  0.00  0.00    +0.010 A 
ENDBRANCH  32  33
BRANCH  29  40
ATOM     40  C   UNL     1       8.708  -2.848   7.991  0.00  0.00    +0.244 C 
ATOM     41  O   UNL     1       8.864  -2.295   9.078  0.00  0.00    -0.270 OA
ATOM     42  N   UNL     1       7.600  -2.579   7.237  0.00  0.00    -0.307 N 
ATOM     43  H   UNL     1       6.968  -1.920   7.675  0.00  0.00    +0.149 HD
BRANCH  42  44
ATOM     44  C   UNL     1       7.302  -2.914   5.854  0.00  0.00    +0.139 C 
BRANCH  44  45
ATOM     45  C   UNL     1       5.889  -3.420   5.704  0.00  0.00    -0.030 A 
ATOM     46  C   UNL     1       5.354  -4.385   6.571  0.00  0.00    +0.005 A 
ATOM     47  C   UNL     1       4.059  -4.875   6.382  0.00  0.00    +0.000 A 
ATOM     48  C   UNL     1       3.286  -4.413   5.318  0.00  0.00    +0.000 A 
ATOM     49  C   UNL     1       3.806  -3.460   4.446  0.00  0.00    +0.000 A 
ATOM     50  C   UNL     1       5.097  -2.967   4.639  0.00  0.00    +0.005 A 
ENDBRANCH  44  45
ENDBRANCH  42  44
ENDBRANCH  29  40
ENDBRANCH  26  27
ENDBRANCH   1  26
TORSDOF 10
