
 OpenBabel09122222393D

 50 56  0  0  0  0  0  0  0  0999 V2000
    5.5610   -4.6790    4.7430 O   0  0  0  0  0  0  0  0  0  0  0  0
    6.2270   -1.5410    7.4060 C   0  0  0  0  0  0  0  0  0  0  0  0
    4.9440   -1.8480    6.9420 C   0  0  0  0  0  3  0  0  0  0  0  0
    4.7480   -2.9140    6.0640 C   0  0  0  0  0  3  0  0  0  0  0  0
    5.8360   -3.6600    5.6130 C   0  0  0  0  0  0  0  0  0  0  0  0
    7.1170   -3.3780    6.0840 C   0  0  0  0  0  3  0  0  0  0  0  0
    7.3120   -2.3120    6.9660 C   0  0  0  0  0  3  0  0  0  0  0  0
    7.7490    3.3440   10.5060 C   0  0  0  0  0  0  0  0  0  0  0  0
    6.9980    2.7500   11.5330 C   0  0  0  0  0  3  0  0  0  0  0  0
    6.3230    1.5360   11.3570 C   0  0  0  0  0  3  0  0  0  0  0  0
    6.4240    0.9150   10.1060 C   0  0  0  0  0  0  0  0  0  0  0  0
    7.1570    1.4750    9.0640 C   0  0  0  0  0  0  0  0  0  0  0  0
    7.8200    2.6970    9.2570 C   0  0  0  0  0  3  0  0  0  0  0  0
    7.1160    0.6770    7.9500 N   0  0  0  0  0  0  0  0  0  0  0  0
    6.4210   -0.3920    8.2910 C   0  0  0  0  0  0  0  0  0  0  0  0
    5.9110   -0.2520    9.5730 N   0  0  0  0  0  0  0  0  0  0  0  0
    4.9570   -1.1520   10.2130 C   0  0  0  0  0  3  0  0  0  0  0  0
    5.6040   -2.0340   11.2930 C   0  0  0  0  0  2  0  0  0  0  0  0
    4.5900   -3.0040   11.8960 C   0  0  0  0  0  2  0  0  0  0  0  0
    3.3540   -2.2780   12.4190 C   0  0  0  0  0  2  0  0  0  0  0  0
    2.7060   -1.4140   11.3410 C   0  0  0  0  0  2  0  0  0  0  0  0
    3.7030   -0.4280   10.7350 C   0  0  0  0  0  2  0  0  0  0  0  0
    9.0540    5.1790    9.7360 O   0  0  0  0  0  0  0  0  0  0  0  0
    8.4720    4.6550   10.7390 C   0  0  0  0  0  0  0  0  0  0  0  0
    8.4410    5.1360   11.9160 O   0  0  0  0  0  1  0  0  0  0  0  0
    5.2660   -4.2650    3.4030 C   0  0  0  0  0  2  0  0  0  0  0  0
    6.4610   -4.3930    2.4770 C   0  0  0  0  0  0  0  0  0  0  0  0
    7.4560   -3.3940    2.5200 C   0  0  0  0  0  3  0  0  0  0  0  0
    8.5540   -3.4370    1.6580 C   0  0  0  0  0  0  0  0  0  0  0  0
    8.6930   -4.5010    0.7670 C   0  0  0  0  0  3  0  0  0  0  0  0
    7.7190   -5.5000    0.7170 C   0  0  0  0  0  3  0  0  0  0  0  0
    6.5940   -5.4650    1.5640 C   0  0  0  0  0  0  0  0  0  0  0  0
    5.6190   -6.5610    1.4850 C   0  0  0  0  0  0  0  0  0  0  0  0
    4.6850   -6.6230    0.4410 C   0  0  0  0  0  3  0  0  0  0  0  0
    3.7560   -7.6640    0.3730 C   0  0  0  0  0  3  0  0  0  0  0  0
    3.7610   -8.6590    1.3470 C   0  0  0  0  0  0  0  0  0  0  0  0
    2.6180   -9.9420    1.2660 Cl  0  0  0  0  0  0  0  0  0  0  0  0
    4.6860   -8.6220    2.3870 C   0  0  0  0  0  3  0  0  0  0  0  0
    5.6120   -7.5770    2.4550 C   0  0  0  0  0  3  0  0  0  0  0  0
    9.6470   -2.4450    1.7450 C   0  0  0  0  0  0  0  0  0  0  0  0
    9.8610   -1.7200    0.7750 O   0  0  0  0  0  0  0  0  0  0  0  0
   10.4130   -2.3290    2.8710 N   0  0  0  0  0  0  0  0  0  0  0  0
   11.1360   -1.6240    2.7920 H   0  0  0  0  0  0  0  0  0  0  0  0
   10.2210   -2.8900    4.1980 C   0  0  0  0  0  2  0  0  0  0  0  0
   10.3820   -1.8380    5.2670 C   0  0  0  0  0  0  0  0  0  0  0  0
   10.7590   -2.1690    6.5780 C   0  0  0  0  0  3  0  0  0  0  0  0
   10.8530   -1.1830    7.5640 C   0  0  0  0  0  3  0  0  0  0  0  0
   10.5610    0.1450    7.2530 C   0  0  0  0  0  3  0  0  0  0  0  0
   10.1790    0.4860    5.9590 C   0  0  0  0  0  3  0  0  0  0  0  0
   10.0920   -0.4980    4.9730 C   0  0  0  0  0  3  0  0  0  0  0  0
  1  5  1  0  0  0  0
  2 15  1  0  0  0  0
  3  2  2  0  0  0  0
  4  3  1  0  0  0  0
  5  4  2  0  0  0  0
  5  6  1  0  0  0  0
  6  7  2  0  0  0  0
  7  2  1  0  0  0  0
  8 24  1  0  0  0  0
  8  9  1  0  0  0  0
 10  9  2  0  0  0  0
 11 10  1  0  0  0  0
 12 13  1  0  0  0  0
 12 11  2  0  0  0  0
 13  8  2  0  0  0  0
 14 15  2  0  0  0  0
 14 12  1  0  0  0  0
 15 16  1  0  0  0  0
 16 11  1  0  0  0  0
 16 17  1  0  0  0  0
 17 22  1  0  0  0  0
 17 18  1  0  0  0  0
 18 19  1  0  0  0  0
 19 20  1  0  0  0  0
 21 20  1  0  0  0  0
 22 21  1  0  0  0  0
 23 24  2  0  0  0  0
 24 25  1  0  0  0  0
 26  1  1  0  0  0  0
 27 28  1  0  0  0  0
 27 26  1  0  0  0  0
 29 40  1  0  0  0  0
 29 28  2  0  0  0  0
 30 29  1  0  0  0  0
 31 30  2  0  0  0  0
 31 32  1  0  0  0  0
 32 27  2  0  0  0  0
 33 32  1  0  0  0  0
 33 39  1  0  0  0  0
 34 33  2  0  0  0  0
 35 34  1  0  0  0  0
 35 36  2  0  0  0  0
 36 38  1  0  0  0  0
 37 36  1  0  0  0  0
 38 39  2  0  0  0  0
 40 42  1  0  0  0  0
 41 40  2  0  0  0  0
 42 44  1  0  0  0  0
 43 42  1  0  0  0  0
 44 45  1  0  0  0  0
 45 46  1  0  0  0  0
 46 47  2  0  0  0  0
 48 47  1  0  0  0  0
 49 48  2  0  0  0  0
 50 45  2  0  0  0  0
 50 49  1  0  0  0  0
M  END
>  <minimizedAffinity>
-9.1998558

$$$$
