
 OpenBabel09122222393D

 50 56  0  0  0  0  0  0  0  0999 V2000
    0.5830   -7.8990    7.9490 O   0  0  0  0  0  0  0  0  0  0  0  0
    3.3250   -7.3760    4.8530 C   0  0  0  0  0  0  0  0  0  0  0  0
    2.3490   -6.4160    5.1350 C   0  0  0  0  0  3  0  0  0  0  0  0
    1.4540   -6.6100    6.1880 C   0  0  0  0  0  3  0  0  0  0  0  0
    1.5030   -7.7800    6.9440 C   0  0  0  0  0  0  0  0  0  0  0  0
    2.4850   -8.7350    6.6860 C   0  0  0  0  0  3  0  0  0  0  0  0
    3.3820   -8.5390    5.6330 C   0  0  0  0  0  3  0  0  0  0  0  0
    7.0560   -5.7000    0.4860 C   0  0  0  0  0  0  0  0  0  0  0  0
    6.5560   -6.8320   -0.1780 C   0  0  0  0  0  3  0  0  0  0  0  0
    5.6250   -7.6950    0.4150 C   0  0  0  0  0  3  0  0  0  0  0  0
    5.1940   -7.3880    1.7110 C   0  0  0  0  0  0  0  0  0  0  0  0
    5.6690   -6.2770    2.4010 C   0  0  0  0  0  0  0  0  0  0  0  0
    6.6080   -5.4290    1.7940 C   0  0  0  0  0  3  0  0  0  0  0  0
    5.0900   -6.1840    3.6410 N   0  0  0  0  0  0  0  0  0  0  0  0
    4.2260   -7.1790    3.7170 C   0  0  0  0  0  0  0  0  0  0  0  0
    4.3150   -7.9870    2.5930 N   0  0  0  0  0  0  0  0  0  0  0  0
    3.6400   -9.2680    2.4110 C   0  0  0  0  0  3  0  0  0  0  0  0
    2.8770   -9.3550    1.0800 C   0  0  0  0  0  2  0  0  0  0  0  0
    2.1350  -10.6840    0.9510 C   0  0  0  0  0  2  0  0  0  0  0  0
    3.0680  -11.8740    1.1510 C   0  0  0  0  0  2  0  0  0  0  0  0
    3.8140  -11.7930    2.4800 C   0  0  0  0  0  2  0  0  0  0  0  0
    4.5730  -10.4740    2.6200 C   0  0  0  0  0  2  0  0  0  0  0  0
    8.7280   -4.0090    0.5560 O   0  0  0  0  0  1  0  0  0  0  0  0
    8.0560   -4.7870   -0.1940 C   0  0  0  0  0  0  0  0  0  0  0  0
    8.1520   -4.8670   -1.4590 O   0  0  0  0  0  0  0  0  0  0  0  0
    1.1150   -8.3400    9.2050 C   0  0  0  0  0  2  0  0  0  0  0  0
    1.8350   -7.2330    9.9540 C   0  0  0  0  0  0  0  0  0  0  0  0
    1.3070   -5.9270    9.8940 C   0  0  0  0  0  3  0  0  0  0  0  0
    1.9550   -4.8620   10.5250 C   0  0  0  0  0  0  0  0  0  0  0  0
    3.1180   -5.0960   11.2570 C   0  0  0  0  0  3  0  0  0  0  0  0
    3.6490   -6.3850   11.3300 C   0  0  0  0  0  3  0  0  0  0  0  0
    3.0230   -7.4690   10.6850 C   0  0  0  0  0  0  0  0  0  0  0  0
    3.6130   -8.8070   10.8230 C   0  0  0  0  0  0  0  0  0  0  0  0
    3.9170   -9.5820    9.6940 C   0  0  0  0  0  3  0  0  0  0  0  0
    4.4730  -10.8560    9.8300 C   0  0  0  0  0  3  0  0  0  0  0  0
    4.7390  -11.3620   11.1000 C   0  0  0  0  0  0  0  0  0  0  0  0
    5.4240  -12.9310   11.2710 Cl  0  0  0  0  0  0  0  0  0  0  0  0
    4.4540  -10.6060   12.2330 C   0  0  0  0  0  3  0  0  0  0  0  0
    3.8940   -9.3320   12.0950 C   0  0  0  0  0  3  0  0  0  0  0  0
    1.3740   -3.5020   10.5420 C   0  0  0  0  0  0  0  0  0  0  0  0
    0.3770   -3.2970   11.2310 O   0  0  0  0  0  0  0  0  0  0  0  0
    1.9210   -2.4870    9.8070 N   0  0  0  0  0  0  0  0  0  0  0  0
    1.4170   -1.6130    9.8950 H   0  0  0  0  0  0  0  0  0  0  0  0
    3.1960   -2.4130    9.1120 C   0  0  0  0  0  2  0  0  0  0  0  0
    3.0100   -2.4740    7.6170 C   0  0  0  0  0  0  0  0  0  0  0  0
    3.8680   -3.2220    6.7960 C   0  0  0  0  0  3  0  0  0  0  0  0
    3.7070   -3.2230    5.4080 C   0  0  0  0  0  3  0  0  0  0  0  0
    2.6900   -2.4700    4.8220 C   0  0  0  0  0  3  0  0  0  0  0  0
    1.8350   -1.7190    5.6240 C   0  0  0  0  0  3  0  0  0  0  0  0
    1.9930   -1.7220    7.0100 C   0  0  0  0  0  3  0  0  0  0  0  0
  1 26  1  0  0  0  0
  2  3  2  0  0  0  0
  2  7  1  0  0  0  0
  3  4  1  0  0  0  0
  4  5  2  0  0  0  0
  5  1  1  0  0  0  0
  6  5  1  0  0  0  0
  7  6  2  0  0  0  0
  8 13  1  0  0  0  0
  9 10  1  0  0  0  0
  9  8  2  0  0  0  0
 10 11  2  0  0  0  0
 11 12  1  0  0  0  0
 11 16  1  0  0  0  0
 12 14  1  0  0  0  0
 13 12  2  0  0  0  0
 14 15  2  0  0  0  0
 15  2  1  0  0  0  0
 16 15  1  0  0  0  0
 17 16  1  0  0  0  0
 17 22  1  0  0  0  0
 18 17  1  0  0  0  0
 19 18  1  0  0  0  0
 19 20  1  0  0  0  0
 20 21  1  0  0  0  0
 21 22  1  0  0  0  0
 24  8  1  0  0  0  0
 24 23  1  0  0  0  0
 25 24  2  0  0  0  0
 26 27  1  0  0  0  0
 27 32  1  0  0  0  0
 28 27  2  0  0  0  0
 28 29  1  0  0  0  0
 29 40  1  0  0  0  0
 29 30  2  0  0  0  0
 30 31  1  0  0  0  0
 32 33  1  0  0  0  0
 32 31  2  0  0  0  0
 33 39  1  0  0  0  0
 34 35  1  0  0  0  0
 34 33  2  0  0  0  0
 35 36  2  0  0  0  0
 36 37  1  0  0  0  0
 36 38  1  0  0  0  0
 39 38  2  0  0  0  0
 40 41  2  0  0  0  0
 42 43  1  0  0  0  0
 42 40  1  0  0  0  0
 44 42  1  0  0  0  0
 45 44  1  0  0  0  0
 46 45  2  0  0  0  0
 47 46  1  0  0  0  0
 48 47  2  0  0  0  0
 48 49  1  0  0  0  0
 49 50  2  0  0  0  0
 50 45  1  0  0  0  0
M  END
>  <minimizedAffinity>
-9.44184208

$$$$
