
 OpenBabel09122222393D

 50 56  0  0  0  0  0  0  0  0999 V2000
   11.2470   -0.0120    6.4660 O   0  0  0  0  0  0  0  0  0  0  0  0
    9.4620   -2.4030    3.5540 C   0  0  0  0  0  0  0  0  0  0  0  0
    9.4500   -1.0080    3.4640 C   0  0  0  0  0  3  0  0  0  0  0  0
   10.0690   -0.2320    4.4450 C   0  0  0  0  0  3  0  0  0  0  0  0
   10.6740   -0.8430    5.5430 C   0  0  0  0  0  0  0  0  0  0  0  0
   10.7120   -2.2330    5.6340 C   0  0  0  0  0  3  0  0  0  0  0  0
   10.0940   -3.0090    4.6500 C   0  0  0  0  0  3  0  0  0  0  0  0
    6.2590   -6.1080    0.1180 C   0  0  0  0  0  0  0  0  0  0  0  0
    7.2070   -5.7830   -0.8650 C   0  0  0  0  0  3  0  0  0  0  0  0
    8.2390   -4.8650   -0.6320 C   0  0  0  0  0  3  0  0  0  0  0  0
    8.3050   -4.2730    0.6350 C   0  0  0  0  0  0  0  0  0  0  0  0
    7.3810   -4.5690    1.6330 C   0  0  0  0  0  0  0  0  0  0  0  0
    6.3490   -5.4850    1.3790 C   0  0  0  0  0  3  0  0  0  0  0  0
    7.6630   -3.8770    2.7840 N   0  0  0  0  0  0  0  0  0  0  0  0
    8.7700   -3.2000    2.5420 C   0  0  0  0  0  0  0  0  0  0  0  0
    9.1510   -3.3490    1.2170 N   0  0  0  0  0  0  0  0  0  0  0  0
   10.2220   -2.6130    0.5510 C   0  0  0  0  0  3  0  0  0  0  0  0
   11.2740   -3.5360   -0.0830 C   0  0  0  0  0  2  0  0  0  0  0  0
   12.4080   -2.7320   -0.7160 C   0  0  0  0  0  2  0  0  0  0  0  0
   11.8820   -1.7010   -1.7100 C   0  0  0  0  0  2  0  0  0  0  0  0
   10.8480   -0.7760   -1.0740 C   0  0  0  0  0  2  0  0  0  0  0  0
    9.6990   -1.5640   -0.4460 C   0  0  0  0  0  2  0  0  0  0  0  0
    5.3500   -7.9070   -1.1470 O   0  0  0  0  0  0  0  0  0  0  0  0
    5.1620   -7.1120   -0.1710 C   0  0  0  0  0  0  0  0  0  0  0  0
    4.1390   -7.0910    0.5850 O   0  0  0  0  0  1  0  0  0  0  0  0
   11.2210    1.3800    6.1230 C   0  0  0  0  0  2  0  0  0  0  0  0
   10.8290    2.2620    7.2940 C   0  0  0  0  0  0  0  0  0  0  0  0
    9.4590    2.4950    7.5320 C   0  0  0  0  0  3  0  0  0  0  0  0
    9.0440    3.3360    8.5680 C   0  0  0  0  0  0  0  0  0  0  0  0
    9.9920    3.9250    9.4040 C   0  0  0  0  0  3  0  0  0  0  0  0
   11.3520    3.6970    9.1840 C   0  0  0  0  0  3  0  0  0  0  0  0
   11.7920    2.8700    8.1340 C   0  0  0  0  0  0  0  0  0  0  0  0
   13.2350    2.6450    7.9710 C   0  0  0  0  0  0  0  0  0  0  0  0
   13.8530    1.5030    8.5020 C   0  0  0  0  0  3  0  0  0  0  0  0
   15.2260    1.2960    8.3490 C   0  0  0  0  0  3  0  0  0  0  0  0
   15.9910    2.2290    7.6530 C   0  0  0  0  0  0  0  0  0  0  0  0
   17.6830    1.9770    7.4640 Cl  0  0  0  0  0  0  0  0  0  0  0  0
   15.3970    3.3640    7.1100 C   0  0  0  0  0  3  0  0  0  0  0  0
   14.0230    3.5700    7.2670 C   0  0  0  0  0  3  0  0  0  0  0  0
    7.6120    3.5280    8.8830 C   0  0  0  0  0  0  0  0  0  0  0  0
    7.0460    4.5350    8.4620 O   0  0  0  0  0  0  0  0  0  0  0  0
    6.9210    2.6160    9.6310 N   0  0  0  0  0  0  0  0  0  0  0  0
    5.9550    2.8750    9.7870 H   0  0  0  0  0  0  0  0  0  0  0  0
    7.2860    1.2690   10.0410 C   0  0  0  0  0  2  0  0  0  0  0  0
    6.8590    0.2480    9.0160 C   0  0  0  0  0  0  0  0  0  0  0  0
    5.5200   -0.1510    8.8860 C   0  0  0  0  0  3  0  0  0  0  0  0
    5.1550   -1.1350    7.9630 C   0  0  0  0  0  3  0  0  0  0  0  0
    6.1260   -1.7390    7.1660 C   0  0  0  0  0  3  0  0  0  0  0  0
    7.4590   -1.3560    7.2880 C   0  0  0  0  0  3  0  0  0  0  0  0
    7.8220   -0.3700    8.2060 C   0  0  0  0  0  3  0  0  0  0  0  0
  2  7  1  0  0  0  0
  3  2  2  0  0  0  0
  3  4  1  0  0  0  0
  4  5  2  0  0  0  0
  5  6  1  0  0  0  0
  5  1  1  0  0  0  0
  7  6  2  0  0  0  0
  8 13  1  0  0  0  0
  9 10  1  0  0  0  0
  9  8  2  0  0  0  0
 10 11  2  0  0  0  0
 11 16  1  0  0  0  0
 11 12  1  0  0  0  0
 12 14  1  0  0  0  0
 13 12  2  0  0  0  0
 15 14  2  0  0  0  0
 15  2  1  0  0  0  0
 16 15  1  0  0  0  0
 17 16  1  0  0  0  0
 18 17  1  0  0  0  0
 19 18  1  0  0  0  0
 20 21  1  0  0  0  0
 20 19  1  0  0  0  0
 21 22  1  0  0  0  0
 22 17  1  0  0  0  0
 23 24  2  0  0  0  0
 24  8  1  0  0  0  0
 24 25  1  0  0  0  0
 26  1  1  0  0  0  0
 26 27  1  0  0  0  0
 27 28  2  0  0  0  0
 27 32  1  0  0  0  0
 28 29  1  0  0  0  0
 29 40  1  0  0  0  0
 29 30  2  0  0  0  0
 31 30  1  0  0  0  0
 32 31  2  0  0  0  0
 33 32  1  0  0  0  0
 33 34  1  0  0  0  0
 35 34  2  0  0  0  0
 36 35  1  0  0  0  0
 37 36  1  0  0  0  0
 38 39  1  0  0  0  0
 38 36  2  0  0  0  0
 39 33  2  0  0  0  0
 40 42  1  0  0  0  0
 41 40  2  0  0  0  0
 42 43  1  0  0  0  0
 42 44  1  0  0  0  0
 45 44  1  0  0  0  0
 46 45  1  0  0  0  0
 47 46  2  0  0  0  0
 48 49  2  0  0  0  0
 48 47  1  0  0  0  0
 49 50  1  0  0  0  0
 50 45  2  0  0  0  0
M  END
>  <minimizedAffinity>
-9.23276234

$$$$
