
 OpenBabel09122222393D

 50 56  0  0  0  0  0  0  0  0999 V2000
    3.4520   -0.3940    8.4420 O   0  0  0  0  0  0  0  0  0  0  0  0
    3.9870   -3.3660    5.5670 C   0  0  0  0  0  0  0  0  0  0  0  0
    5.0700   -2.8120    6.2580 C   0  0  0  0  0  3  0  0  0  0  0  0
    4.8600   -1.8300    7.2260 C   0  0  0  0  0  3  0  0  0  0  0  0
    3.5710   -1.3670    7.4880 C   0  0  0  0  0  0  0  0  0  0  0  0
    2.4820   -1.9260    6.8220 C   0  0  0  0  0  3  0  0  0  0  0  0
    2.6930   -2.9100    5.8530 C   0  0  0  0  0  3  0  0  0  0  0  0
    5.1390   -6.7240    0.7520 C   0  0  0  0  0  0  0  0  0  0  0  0
    4.3900   -7.6980    1.4310 C   0  0  0  0  0  3  0  0  0  0  0  0
    3.8670   -7.4790    2.7120 C   0  0  0  0  0  3  0  0  0  0  0  0
    4.1110   -6.2350    3.3060 C   0  0  0  0  0  0  0  0  0  0  0  0
    4.8510   -5.2460    2.6640 C   0  0  0  0  0  0  0  0  0  0  0  0
    5.3740   -5.4880    1.3840 C   0  0  0  0  0  3  0  0  0  0  0  0
    4.9410   -4.1180    3.4390 N   0  0  0  0  0  0  0  0  0  0  0  0
    4.2280   -4.3620    4.5230 C   0  0  0  0  0  0  0  0  0  0  0  0
    3.7710   -5.6710    4.5200 N   0  0  0  0  0  0  0  0  0  0  0  0
    3.1020   -6.3410    5.6310 C   0  0  0  0  0  3  0  0  0  0  0  0
    1.5800   -6.4360    5.4390 C   0  0  0  0  0  2  0  0  0  0  0  0
    0.9090   -7.0880    6.6470 C   0  0  0  0  0  2  0  0  0  0  0  0
    1.5270   -8.4440    6.9740 C   0  0  0  0  0  2  0  0  0  0  0  0
    3.0360   -8.3440    7.1780 C   0  0  0  0  0  2  0  0  0  0  0  0
    3.7260   -7.7050    5.9740 C   0  0  0  0  0  2  0  0  0  0  0  0
    5.3570   -8.1050   -1.1740 O   0  0  0  0  0  0  0  0  0  0  0  0
    5.6810   -6.9980   -0.6370 C   0  0  0  0  0  0  0  0  0  0  0  0
    6.4130   -6.1020   -1.1630 O   0  0  0  0  0  1  0  0  0  0  0  0
    2.3700   -0.5820    9.3630 C   0  0  0  0  0  2  0  0  0  0  0  0
    2.7380   -1.4980   10.5160 C   0  0  0  0  0  0  0  0  0  0  0  0
    1.9640   -2.6580   10.7270 C   0  0  0  0  0  3  0  0  0  0  0  0
    2.2300   -3.5110   11.8010 C   0  0  0  0  0  0  0  0  0  0  0  0
    3.2970   -3.2370   12.6550 C   0  0  0  0  0  3  0  0  0  0  0  0
    4.0760   -2.0960   12.4540 C   0  0  0  0  0  3  0  0  0  0  0  0
    3.8130   -1.2120   11.3900 C   0  0  0  0  0  0  0  0  0  0  0  0
    4.6850   -0.0430   11.2130 C   0  0  0  0  0  0  0  0  0  0  0  0
    4.2870    1.2280   11.6510 C   0  0  0  0  0  3  0  0  0  0  0  0
    5.1180    2.3370   11.4760 C   0  0  0  0  0  3  0  0  0  0  0  0
    6.3610    2.1800   10.8680 C   0  0  0  0  0  0  0  0  0  0  0  0
    7.3860    3.5450   10.6510 Cl  0  0  0  0  0  0  0  0  0  0  0  0
    6.7800    0.9250   10.4350 C   0  0  0  0  0  3  0  0  0  0  0  0
    5.9450   -0.1820   10.6090 C   0  0  0  0  0  3  0  0  0  0  0  0
    1.4830   -4.7730   11.9900 C   0  0  0  0  0  0  0  0  0  0  0  0
    0.6620   -4.8390   12.9040 O   0  0  0  0  0  0  0  0  0  0  0  0
    1.6930   -5.8520   11.1780 N   0  0  0  0  0  0  0  0  0  0  0  0
    1.1300   -6.6560   11.4260 H   0  0  0  0  0  0  0  0  0  0  0  0
    2.4160   -5.9530    9.9210 C   0  0  0  0  0  2  0  0  0  0  0  0
    3.8890   -5.6890   10.1120 C   0  0  0  0  0  0  0  0  0  0  0  0
    4.6080   -6.2510   11.1780 C   0  0  0  0  0  3  0  0  0  0  0  0
    5.9600   -5.9520   11.3630 C   0  0  0  0  0  3  0  0  0  0  0  0
    6.6090   -5.0800   10.4900 C   0  0  0  0  0  3  0  0  0  0  0  0
    5.9060   -4.5100    9.4310 C   0  0  0  0  0  3  0  0  0  0  0  0
    4.5570   -4.8140    9.2440 C   0  0  0  0  0  3  0  0  0  0  0  0
  1 26  1  0  0  0  0
  2  7  2  0  0  0  0
  2  3  1  0  0  0  0
  3  4  2  0  0  0  0
  4  5  1  0  0  0  0
  5  1  1  0  0  0  0
  6  5  2  0  0  0  0
  7  6  1  0  0  0  0
  8 13  2  0  0  0  0
  8  9  1  0  0  0  0
  9 10  2  0  0  0  0
 10 11  1  0  0  0  0
 11 16  1  0  0  0  0
 12 11  2  0  0  0  0
 12 14  1  0  0  0  0
 13 12  1  0  0  0  0
 14 15  2  0  0  0  0
 15  2  1  0  0  0  0
 16 15  1  0  0  0  0
 16 17  1  0  0  0  0
 17 22  1  0  0  0  0
 18 17  1  0  0  0  0
 18 19  1  0  0  0  0
 19 20  1  0  0  0  0
 20 21  1  0  0  0  0
 22 21  1  0  0  0  0
 23 24  2  0  0  0  0
 24  8  1  0  0  0  0
 25 24  1  0  0  0  0
 26 27  1  0  0  0  0
 27 28  2  0  0  0  0
 27 32  1  0  0  0  0
 28 29  1  0  0  0  0
 29 40  1  0  0  0  0
 29 30  2  0  0  0  0
 31 30  1  0  0  0  0
 32 31  2  0  0  0  0
 33 32  1  0  0  0  0
 33 34  1  0  0  0  0
 35 34  2  0  0  0  0
 36 35  1  0  0  0  0
 37 36  1  0  0  0  0
 38 39  1  0  0  0  0
 38 36  2  0  0  0  0
 39 33  2  0  0  0  0
 40 41  2  0  0  0  0
 42 43  1  0  0  0  0
 42 40  1  0  0  0  0
 44 45  1  0  0  0  0
 44 42  1  0  0  0  0
 45 46  1  0  0  0  0
 46 47  2  0  0  0  0
 48 47  1  0  0  0  0
 49 48  2  0  0  0  0
 50 49  1  0  0  0  0
 50 45  2  0  0  0  0
M  END
>  <minimizedAffinity>
-9.44805908

$$$$
