
 OpenBabel09122221483D

 50 56  0  0  0  0  0  0  0  0999 V2000
   11.0300   -0.2790    6.6540 O   0  0  0  0  0  0  0  0  0  0  0  0
    9.3330   -2.5330    3.5840 C   0  0  0  0  0  0  0  0  0  0  0  0
    9.3150   -1.1350    3.5620 C   0  0  0  0  0  3  0  0  0  0  0  0
    9.9050   -0.4050    4.5950 C   0  0  0  0  0  3  0  0  0  0  0  0
   10.4860   -1.0660    5.6760 C   0  0  0  0  0  0  0  0  0  0  0  0
   10.5290   -2.4590    5.7000 C   0  0  0  0  0  3  0  0  0  0  0  0
    9.9400   -3.1880    4.6640 C   0  0  0  0  0  3  0  0  0  0  0  0
    6.2070   -6.0520   -0.1090 C   0  0  0  0  0  0  0  0  0  0  0  0
    7.2110   -5.7260   -1.0350 C   0  0  0  0  0  3  0  0  0  0  0  0
    8.2530   -4.8430   -0.7270 C   0  0  0  0  0  3  0  0  0  0  0  0
    8.2720   -4.2890    0.5590 C   0  0  0  0  0  0  0  0  0  0  0  0
    7.2940   -4.5880    1.5030 C   0  0  0  0  0  0  0  0  0  0  0  0
    6.2520   -5.4680    1.1720 C   0  0  0  0  0  3  0  0  0  0  0  0
    7.5360   -3.9350    2.6850 N   0  0  0  0  0  0  0  0  0  0  0  0
    8.6710   -3.2820    2.5170 C   0  0  0  0  0  0  0  0  0  0  0  0
    9.1130   -3.4050    1.2080 N   0  0  0  0  0  0  0  0  0  0  0  0
   10.2330   -2.6790    0.6160 C   0  0  0  0  0  3  0  0  0  0  0  0
   11.2870   -3.6130    0.0000 C   0  0  0  0  0  2  0  0  0  0  0  0
   12.4710   -2.8220   -0.5540 C   0  0  0  0  0  2  0  0  0  0  0  0
   12.0210   -1.7450   -1.5360 C   0  0  0  0  0  2  0  0  0  0  0  0
   10.9850   -0.8110   -0.9180 C   0  0  0  0  0  2  0  0  0  0  0  0
    9.7870   -1.5840   -0.3690 C   0  0  0  0  0  2  0  0  0  0  0  0
    5.4370   -8.0590   -1.1300 O   0  0  0  0  0  0  0  0  0  0  0  0
    5.1010   -7.0180   -0.4790 C   0  0  0  0  0  0  0  0  0  0  0  0
    3.9210   -6.7220   -0.1090 O   0  0  0  0  0  1  0  0  0  0  0  0
   10.1760   -0.0390    7.7800 C   0  0  0  0  0  2  0  0  0  0  0  0
   10.2740   -1.1320    8.8280 C   0  0  0  0  0  0  0  0  0  0  0  0
   11.5470   -1.4680    9.3330 C   0  0  0  0  0  3  0  0  0  0  0  0
   11.7000   -2.4980   10.2650 C   0  0  0  0  0  0  0  0  0  0  0  0
   10.5770   -3.1790   10.7340 C   0  0  0  0  0  3  0  0  0  0  0  0
    9.3100   -2.8530   10.2480 C   0  0  0  0  0  3  0  0  0  0  0  0
    9.1360   -1.8320    9.2930 C   0  0  0  0  0  0  0  0  0  0  0  0
    7.7740   -1.5140    8.8410 C   0  0  0  0  0  0  0  0  0  0  0  0
    6.9410   -0.6750    9.5950 C   0  0  0  0  0  3  0  0  0  0  0  0
    5.6460   -0.3790    9.1640 C   0  0  0  0  0  3  0  0  0  0  0  0
    5.1760   -0.9160    7.9680 C   0  0  0  0  0  0  0  0  0  0  0  0
    3.5810   -0.5540    7.4350 Cl  0  0  0  0  0  0  0  0  0  0  0  0
    5.9900   -1.7440    7.2000 C   0  0  0  0  0  3  0  0  0  0  0  0
    7.2850   -2.0410    7.6350 C   0  0  0  0  0  3  0  0  0  0  0  0
   13.0140   -2.8100   10.8660 C   0  0  0  0  0  0  0  0  0  0  0  0
   13.4750   -2.0390   11.7060 O   0  0  0  0  0  0  0  0  0  0  0  0
   13.7150   -3.9250   10.5010 N   0  0  0  0  0  0  0  0  0  0  0  0
   14.6060   -4.0110   10.9750 H   0  0  0  0  0  0  0  0  0  0  0  0
   13.3000   -5.0820    9.7250 C   0  0  0  0  0  2  0  0  0  0  0  0
   12.8960   -6.2270   10.6190 C   0  0  0  0  0  0  0  0  0  0  0  0
   11.5580   -6.6330   10.7410 C   0  0  0  0  0  3  0  0  0  0  0  0
   11.2010   -7.6640   11.6140 C   0  0  0  0  0  3  0  0  0  0  0  0
   12.1770   -8.2960   12.3840 C   0  0  0  0  0  3  0  0  0  0  0  0
   13.5070   -7.8990   12.2780 C   0  0  0  0  0  3  0  0  0  0  0  0
   13.8640   -6.8740   11.4020 C   0  0  0  0  0  3  0  0  0  0  0  0
  1 26  1  0  0  0  0
  2  7  1  0  0  0  0
  3  2  2  0  0  0  0
  3  4  1  0  0  0  0
  4  5  2  0  0  0  0
  5  6  1  0  0  0  0
  5  1  1  0  0  0  0
  7  6  2  0  0  0  0
  8 13  1  0  0  0  0
  9 10  1  0  0  0  0
  9  8  2  0  0  0  0
 10 11  2  0  0  0  0
 11 16  1  0  0  0  0
 11 12  1  0  0  0  0
 12 14  1  0  0  0  0
 13 12  2  0  0  0  0
 15 14  2  0  0  0  0
 15  2  1  0  0  0  0
 16 15  1  0  0  0  0
 17 16  1  0  0  0  0
 18 17  1  0  0  0  0
 19 18  1  0  0  0  0
 20 21  1  0  0  0  0
 20 19  1  0  0  0  0
 21 22  1  0  0  0  0
 22 17  1  0  0  0  0
 23 24  2  0  0  0  0
 24 25  1  0  0  0  0
 24  8  1  0  0  0  0
 26 27  1  0  0  0  0
 27 32  2  0  0  0  0
 27 28  1  0  0  0  0
 28 29  2  0  0  0  0
 29 30  1  0  0  0  0
 29 40  1  0  0  0  0
 31 30  2  0  0  0  0
 32 31  1  0  0  0  0
 33 32  1  0  0  0  0
 33 34  1  0  0  0  0
 35 34  2  0  0  0  0
 36 35  1  0  0  0  0
 37 36  1  0  0  0  0
 38 39  1  0  0  0  0
 38 36  2  0  0  0  0
 39 33  2  0  0  0  0
 40 41  2  0  0  0  0
 42 40  1  0  0  0  0
 42 43  1  0  0  0  0
 44 42  1  0  0  0  0
 44 45  1  0  0  0  0
 45 46  2  0  0  0  0
 45 50  1  0  0  0  0
 46 47  1  0  0  0  0
 47 48  2  0  0  0  0
 49 48  1  0  0  0  0
 50 49  2  0  0  0  0
M  END
>  <minimizedAffinity>
-10.0336313

$$$$

 OpenBabel09122221483D

 50 56  0  0  0  0  0  0  0  0999 V2000
    3.4520   -0.3940    8.4420 O   0  0  0  0  0  0  0  0  0  0  0  0
    3.9870   -3.3660    5.5670 C   0  0  0  0  0  0  0  0  0  0  0  0
    5.0700   -2.8120    6.2580 C   0  0  0  0  0  3  0  0  0  0  0  0
    4.8600   -1.8300    7.2260 C   0  0  0  0  0  3  0  0  0  0  0  0
    3.5710   -1.3670    7.4880 C   0  0  0  0  0  0  0  0  0  0  0  0
    2.4820   -1.9260    6.8220 C   0  0  0  0  0  3  0  0  0  0  0  0
    2.6930   -2.9100    5.8530 C   0  0  0  0  0  3  0  0  0  0  0  0
    5.1390   -6.7240    0.7520 C   0  0  0  0  0  0  0  0  0  0  0  0
    4.3900   -7.6980    1.4310 C   0  0  0  0  0  3  0  0  0  0  0  0
    3.8670   -7.4790    2.7120 C   0  0  0  0  0  3  0  0  0  0  0  0
    4.1110   -6.2350    3.3060 C   0  0  0  0  0  0  0  0  0  0  0  0
    4.8510   -5.2460    2.6640 C   0  0  0  0  0  0  0  0  0  0  0  0
    5.3740   -5.4880    1.3840 C   0  0  0  0  0  3  0  0  0  0  0  0
    4.9410   -4.1180    3.4390 N   0  0  0  0  0  0  0  0  0  0  0  0
    4.2280   -4.3620    4.5230 C   0  0  0  0  0  0  0  0  0  0  0  0
    3.7710   -5.6710    4.5200 N   0  0  0  0  0  0  0  0  0  0  0  0
    3.1020   -6.3410    5.6310 C   0  0  0  0  0  3  0  0  0  0  0  0
    1.5800   -6.4360    5.4390 C   0  0  0  0  0  2  0  0  0  0  0  0
    0.9090   -7.0880    6.6470 C   0  0  0  0  0  2  0  0  0  0  0  0
    1.5270   -8.4440    6.9740 C   0  0  0  0  0  2  0  0  0  0  0  0
    3.0360   -8.3440    7.1780 C   0  0  0  0  0  2  0  0  0  0  0  0
    3.7260   -7.7050    5.9740 C   0  0  0  0  0  2  0  0  0  0  0  0
    5.3570   -8.1050   -1.1740 O   0  0  0  0  0  0  0  0  0  0  0  0
    5.6810   -6.9980   -0.6370 C   0  0  0  0  0  0  0  0  0  0  0  0
    6.4130   -6.1020   -1.1630 O   0  0  0  0  0  1  0  0  0  0  0  0
    2.3700   -0.5820    9.3630 C   0  0  0  0  0  2  0  0  0  0  0  0
    2.7380   -1.4980   10.5160 C   0  0  0  0  0  0  0  0  0  0  0  0
    1.9640   -2.6580   10.7270 C   0  0  0  0  0  3  0  0  0  0  0  0
    2.2300   -3.5110   11.8010 C   0  0  0  0  0  0  0  0  0  0  0  0
    3.2970   -3.2370   12.6550 C   0  0  0  0  0  3  0  0  0  0  0  0
    4.0760   -2.0960   12.4540 C   0  0  0  0  0  3  0  0  0  0  0  0
    3.8130   -1.2120   11.3900 C   0  0  0  0  0  0  0  0  0  0  0  0
    4.6850   -0.0430   11.2130 C   0  0  0  0  0  0  0  0  0  0  0  0
    4.2870    1.2280   11.6510 C   0  0  0  0  0  3  0  0  0  0  0  0
    5.1180    2.3370   11.4760 C   0  0  0  0  0  3  0  0  0  0  0  0
    6.3610    2.1800   10.8680 C   0  0  0  0  0  0  0  0  0  0  0  0
    7.3860    3.5450   10.6510 Cl  0  0  0  0  0  0  0  0  0  0  0  0
    6.7800    0.9250   10.4350 C   0  0  0  0  0  3  0  0  0  0  0  0
    5.9450   -0.1820   10.6090 C   0  0  0  0  0  3  0  0  0  0  0  0
    1.4830   -4.7730   11.9900 C   0  0  0  0  0  0  0  0  0  0  0  0
    0.6620   -4.8390   12.9040 O   0  0  0  0  0  0  0  0  0  0  0  0
    1.6930   -5.8520   11.1780 N   0  0  0  0  0  0  0  0  0  0  0  0
    1.1300   -6.6560   11.4260 H   0  0  0  0  0  0  0  0  0  0  0  0
    2.4160   -5.9530    9.9210 C   0  0  0  0  0  2  0  0  0  0  0  0
    3.8890   -5.6890   10.1120 C   0  0  0  0  0  0  0  0  0  0  0  0
    4.6080   -6.2510   11.1780 C   0  0  0  0  0  3  0  0  0  0  0  0
    5.9600   -5.9520   11.3630 C   0  0  0  0  0  3  0  0  0  0  0  0
    6.6090   -5.0800   10.4900 C   0  0  0  0  0  3  0  0  0  0  0  0
    5.9060   -4.5100    9.4310 C   0  0  0  0  0  3  0  0  0  0  0  0
    4.5570   -4.8140    9.2440 C   0  0  0  0  0  3  0  0  0  0  0  0
  1 26  1  0  0  0  0
  2  7  2  0  0  0  0
  2  3  1  0  0  0  0
  3  4  2  0  0  0  0
  4  5  1  0  0  0  0
  5  1  1  0  0  0  0
  6  5  2  0  0  0  0
  7  6  1  0  0  0  0
  8 13  2  0  0  0  0
  8  9  1  0  0  0  0
  9 10  2  0  0  0  0
 10 11  1  0  0  0  0
 11 16  1  0  0  0  0
 12 11  2  0  0  0  0
 12 14  1  0  0  0  0
 13 12  1  0  0  0  0
 14 15  2  0  0  0  0
 15  2  1  0  0  0  0
 16 15  1  0  0  0  0
 16 17  1  0  0  0  0
 17 22  1  0  0  0  0
 18 17  1  0  0  0  0
 18 19  1  0  0  0  0
 19 20  1  0  0  0  0
 20 21  1  0  0  0  0
 22 21  1  0  0  0  0
 23 24  2  0  0  0  0
 24  8  1  0  0  0  0
 25 24  1  0  0  0  0
 26 27  1  0  0  0  0
 27 28  2  0  0  0  0
 27 32  1  0  0  0  0
 28 29  1  0  0  0  0
 29 40  1  0  0  0  0
 29 30  2  0  0  0  0
 31 30  1  0  0  0  0
 32 31  2  0  0  0  0
 33 32  1  0  0  0  0
 33 34  1  0  0  0  0
 35 34  2  0  0  0  0
 36 35  1  0  0  0  0
 37 36  1  0  0  0  0
 38 39  1  0  0  0  0
 38 36  2  0  0  0  0
 39 33  2  0  0  0  0
 40 41  2  0  0  0  0
 42 43  1  0  0  0  0
 42 40  1  0  0  0  0
 44 45  1  0  0  0  0
 44 42  1  0  0  0  0
 45 46  1  0  0  0  0
 46 47  2  0  0  0  0
 48 47  1  0  0  0  0
 49 48  2  0  0  0  0
 50 49  1  0  0  0  0
 50 45  2  0  0  0  0
M  END
>  <minimizedAffinity>
-9.44805908

$$$$

 OpenBabel09122221483D

 50 56  0  0  0  0  0  0  0  0999 V2000
    0.5830   -7.8990    7.9490 O   0  0  0  0  0  0  0  0  0  0  0  0
    3.3250   -7.3760    4.8530 C   0  0  0  0  0  0  0  0  0  0  0  0
    2.3490   -6.4160    5.1350 C   0  0  0  0  0  3  0  0  0  0  0  0
    1.4540   -6.6100    6.1880 C   0  0  0  0  0  3  0  0  0  0  0  0
    1.5030   -7.7800    6.9440 C   0  0  0  0  0  0  0  0  0  0  0  0
    2.4850   -8.7350    6.6860 C   0  0  0  0  0  3  0  0  0  0  0  0
    3.3820   -8.5390    5.6330 C   0  0  0  0  0  3  0  0  0  0  0  0
    7.0560   -5.7000    0.4860 C   0  0  0  0  0  0  0  0  0  0  0  0
    6.5560   -6.8320   -0.1780 C   0  0  0  0  0  3  0  0  0  0  0  0
    5.6250   -7.6950    0.4150 C   0  0  0  0  0  3  0  0  0  0  0  0
    5.1940   -7.3880    1.7110 C   0  0  0  0  0  0  0  0  0  0  0  0
    5.6690   -6.2770    2.4010 C   0  0  0  0  0  0  0  0  0  0  0  0
    6.6080   -5.4290    1.7940 C   0  0  0  0  0  3  0  0  0  0  0  0
    5.0900   -6.1840    3.6410 N   0  0  0  0  0  0  0  0  0  0  0  0
    4.2260   -7.1790    3.7170 C   0  0  0  0  0  0  0  0  0  0  0  0
    4.3150   -7.9870    2.5930 N   0  0  0  0  0  0  0  0  0  0  0  0
    3.6400   -9.2680    2.4110 C   0  0  0  0  0  3  0  0  0  0  0  0
    2.8770   -9.3550    1.0800 C   0  0  0  0  0  2  0  0  0  0  0  0
    2.1350  -10.6840    0.9510 C   0  0  0  0  0  2  0  0  0  0  0  0
    3.0680  -11.8740    1.1510 C   0  0  0  0  0  2  0  0  0  0  0  0
    3.8140  -11.7930    2.4800 C   0  0  0  0  0  2  0  0  0  0  0  0
    4.5730  -10.4740    2.6200 C   0  0  0  0  0  2  0  0  0  0  0  0
    8.7280   -4.0090    0.5560 O   0  0  0  0  0  1  0  0  0  0  0  0
    8.0560   -4.7870   -0.1940 C   0  0  0  0  0  0  0  0  0  0  0  0
    8.1520   -4.8670   -1.4590 O   0  0  0  0  0  0  0  0  0  0  0  0
    1.1150   -8.3400    9.2050 C   0  0  0  0  0  2  0  0  0  0  0  0
    1.8350   -7.2330    9.9540 C   0  0  0  0  0  0  0  0  0  0  0  0
    1.3070   -5.9270    9.8940 C   0  0  0  0  0  3  0  0  0  0  0  0
    1.9550   -4.8620   10.5250 C   0  0  0  0  0  0  0  0  0  0  0  0
    3.1180   -5.0960   11.2570 C   0  0  0  0  0  3  0  0  0  0  0  0
    3.6490   -6.3850   11.3300 C   0  0  0  0  0  3  0  0  0  0  0  0
    3.0230   -7.4690   10.6850 C   0  0  0  0  0  0  0  0  0  0  0  0
    3.6130   -8.8070   10.8230 C   0  0  0  0  0  0  0  0  0  0  0  0
    3.9170   -9.5820    9.6940 C   0  0  0  0  0  3  0  0  0  0  0  0
    4.4730  -10.8560    9.8300 C   0  0  0  0  0  3  0  0  0  0  0  0
    4.7390  -11.3620   11.1000 C   0  0  0  0  0  0  0  0  0  0  0  0
    5.4240  -12.9310   11.2710 Cl  0  0  0  0  0  0  0  0  0  0  0  0
    4.4540  -10.6060   12.2330 C   0  0  0  0  0  3  0  0  0  0  0  0
    3.8940   -9.3320   12.0950 C   0  0  0  0  0  3  0  0  0  0  0  0
    1.3740   -3.5020   10.5420 C   0  0  0  0  0  0  0  0  0  0  0  0
    0.3770   -3.2970   11.2310 O   0  0  0  0  0  0  0  0  0  0  0  0
    1.9210   -2.4870    9.8070 N   0  0  0  0  0  0  0  0  0  0  0  0
    1.4170   -1.6130    9.8950 H   0  0  0  0  0  0  0  0  0  0  0  0
    3.1960   -2.4130    9.1120 C   0  0  0  0  0  2  0  0  0  0  0  0
    3.0100   -2.4740    7.6170 C   0  0  0  0  0  0  0  0  0  0  0  0
    3.8680   -3.2220    6.7960 C   0  0  0  0  0  3  0  0  0  0  0  0
    3.7070   -3.2230    5.4080 C   0  0  0  0  0  3  0  0  0  0  0  0
    2.6900   -2.4700    4.8220 C   0  0  0  0  0  3  0  0  0  0  0  0
    1.8350   -1.7190    5.6240 C   0  0  0  0  0  3  0  0  0  0  0  0
    1.9930   -1.7220    7.0100 C   0  0  0  0  0  3  0  0  0  0  0  0
  1 26  1  0  0  0  0
  2  3  2  0  0  0  0
  2  7  1  0  0  0  0
  3  4  1  0  0  0  0
  4  5  2  0  0  0  0
  5  1  1  0  0  0  0
  6  5  1  0  0  0  0
  7  6  2  0  0  0  0
  8 13  1  0  0  0  0
  9 10  1  0  0  0  0
  9  8  2  0  0  0  0
 10 11  2  0  0  0  0
 11 12  1  0  0  0  0
 11 16  1  0  0  0  0
 12 14  1  0  0  0  0
 13 12  2  0  0  0  0
 14 15  2  0  0  0  0
 15  2  1  0  0  0  0
 16 15  1  0  0  0  0
 17 16  1  0  0  0  0
 17 22  1  0  0  0  0
 18 17  1  0  0  0  0
 19 18  1  0  0  0  0
 19 20  1  0  0  0  0
 20 21  1  0  0  0  0
 21 22  1  0  0  0  0
 24  8  1  0  0  0  0
 24 23  1  0  0  0  0
 25 24  2  0  0  0  0
 26 27  1  0  0  0  0
 27 32  1  0  0  0  0
 28 27  2  0  0  0  0
 28 29  1  0  0  0  0
 29 40  1  0  0  0  0
 29 30  2  0  0  0  0
 30 31  1  0  0  0  0
 32 33  1  0  0  0  0
 32 31  2  0  0  0  0
 33 39  1  0  0  0  0
 34 35  1  0  0  0  0
 34 33  2  0  0  0  0
 35 36  2  0  0  0  0
 36 37  1  0  0  0  0
 36 38  1  0  0  0  0
 39 38  2  0  0  0  0
 40 41  2  0  0  0  0
 42 43  1  0  0  0  0
 42 40  1  0  0  0  0
 44 42  1  0  0  0  0
 45 44  1  0  0  0  0
 46 45  2  0  0  0  0
 47 46  1  0  0  0  0
 48 47  2  0  0  0  0
 48 49  1  0  0  0  0
 49 50  2  0  0  0  0
 50 45  1  0  0  0  0
M  END
>  <minimizedAffinity>
-9.44184208

$$$$

 OpenBabel09122221483D

 50 56  0  0  0  0  0  0  0  0999 V2000
    3.5190   -4.1200    3.4680 O   0  0  0  0  0  0  0  0  0  0  0  0
    4.1890   -2.3620    7.1880 C   0  0  0  0  0  0  0  0  0  0  0  0
    2.9660   -2.2280    6.5250 C   0  0  0  0  0  3  0  0  0  0  0  0
    2.7630   -2.8400    5.2880 C   0  0  0  0  0  3  0  0  0  0  0  0
    3.7940   -3.5620    4.6860 C   0  0  0  0  0  0  0  0  0  0  0  0
    5.0110   -3.7210    5.3460 C   0  0  0  0  0  3  0  0  0  0  0  0
    5.2120   -3.1080    6.5860 C   0  0  0  0  0  3  0  0  0  0  0  0
    5.6910    0.9220   11.9580 C   0  0  0  0  0  0  0  0  0  0  0  0
    5.1270   -0.1380   12.6850 C   0  0  0  0  0  3  0  0  0  0  0  0
    4.5360   -1.2420   12.0580 C   0  0  0  0  0  3  0  0  0  0  0  0
    4.5280   -1.2620   10.6570 C   0  0  0  0  0  0  0  0  0  0  0  0
    5.0750   -0.2280    9.9040 C   0  0  0  0  0  0  0  0  0  0  0  0
    5.6560    0.8740   10.5510 C   0  0  0  0  0  3  0  0  0  0  0  0
    4.9570   -0.4830    8.5620 N   0  0  0  0  0  0  0  0  0  0  0  0
    4.4000   -1.6760    8.4630 C   0  0  0  0  0  0  0  0  0  0  0  0
    4.0470   -2.1520    9.7170 N   0  0  0  0  0  0  0  0  0  0  0  0
    3.2580   -3.3520    9.9800 C   0  0  0  0  0  3  0  0  0  0  0  0
    4.0080   -4.3800   10.8420 C   0  0  0  0  0  2  0  0  0  0  0  0
    3.1770   -5.6450   11.0460 C   0  0  0  0  0  2  0  0  0  0  0  0
    1.7950   -5.3290   11.6100 C   0  0  0  0  0  2  0  0  0  0  0  0
    1.0470   -4.3190   10.7440 C   0  0  0  0  0  2  0  0  0  0  0  0
    1.8600   -3.0410   10.5410 C   0  0  0  0  0  2  0  0  0  0  0  0
    7.5300    1.9460   13.0690 O   0  0  0  0  0  1  0  0  0  0  0  0
    6.3290    2.0950   12.6750 C   0  0  0  0  0  0  0  0  0  0  0  0
    5.6210    3.1400   12.8260 O   0  0  0  0  0  0  0  0  0  0  0  0
    4.6600   -4.3040    2.6180 C   0  0  0  0  0  2  0  0  0  0  0  0
    4.9810   -5.7680    2.3820 C   0  0  0  0  0  0  0  0  0  0  0  0
    4.0280   -6.7350    2.7620 C   0  0  0  0  0  3  0  0  0  0  0  0
    4.2910   -8.0990    2.6100 C   0  0  0  0  0  0  0  0  0  0  0  0
    5.4950   -8.5130    2.0410 C   0  0  0  0  0  3  0  0  0  0  0  0
    6.4450   -7.5650    1.6540 C   0  0  0  0  0  3  0  0  0  0  0  0
    6.2080   -6.1870    1.8170 C   0  0  0  0  0  0  0  0  0  0  0  0
    7.2340   -5.2380    1.3640 C   0  0  0  0  0  0  0  0  0  0  0  0
    7.7530   -5.3020    0.0620 C   0  0  0  0  0  3  0  0  0  0  0  0
    8.7310   -4.4000   -0.3620 C   0  0  0  0  0  3  0  0  0  0  0  0
    9.1930   -3.4190    0.5120 C   0  0  0  0  0  0  0  0  0  0  0  0
   10.3990   -2.3080   -0.0090 Cl  0  0  0  0  0  0  0  0  0  0  0  0
    8.6850   -3.3320    1.8050 C   0  0  0  0  0  3  0  0  0  0  0  0
    7.7080   -4.2380    2.2290 C   0  0  0  0  0  3  0  0  0  0  0  0
    3.2730   -9.1240    2.9260 C   0  0  0  0  0  0  0  0  0  0  0  0
    2.6900   -9.6790    1.9970 O   0  0  0  0  0  0  0  0  0  0  0  0
    2.9730   -9.4520    4.2190 N   0  0  0  0  0  0  0  0  0  0  0  0
    2.2480  -10.1550    4.2950 H   0  0  0  0  0  0  0  0  0  0  0  0
    3.6610   -9.1190    5.4550 C   0  0  0  0  0  2  0  0  0  0  0  0
    2.8840   -8.1080    6.2610 C   0  0  0  0  0  0  0  0  0  0  0  0
    3.4080   -6.8420    6.5610 C   0  0  0  0  0  3  0  0  0  0  0  0
    2.6900   -5.9410    7.3510 C   0  0  0  0  0  3  0  0  0  0  0  0
    1.4420   -6.2980    7.8600 C   0  0  0  0  0  3  0  0  0  0  0  0
    0.9120   -7.5540    7.5750 C   0  0  0  0  0  3  0  0  0  0  0  0
    1.6280   -8.4510    6.7810 C   0  0  0  0  0  3  0  0  0  0  0  0
  1  5  1  0  0  0  0
  2 15  1  0  0  0  0
  3  2  2  0  0  0  0
  4  3  1  0  0  0  0
  5  4  2  0  0  0  0
  5  6  1  0  0  0  0
  6  7  2  0  0  0  0
  7  2  1  0  0  0  0
  8 24  1  0  0  0  0
  8  9  1  0  0  0  0
 10  9  2  0  0  0  0
 11 10  1  0  0  0  0
 12 13  1  0  0  0  0
 12 11  2  0  0  0  0
 13  8  2  0  0  0  0
 14 12  1  0  0  0  0
 15 14  2  0  0  0  0
 15 16  1  0  0  0  0
 16 17  1  0  0  0  0
 16 11  1  0  0  0  0
 17 22  1  0  0  0  0
 17 18  1  0  0  0  0
 18 19  1  0  0  0  0
 19 20  1  0  0  0  0
 21 20  1  0  0  0  0
 22 21  1  0  0  0  0
 24 25  2  0  0  0  0
 24 23  1  0  0  0  0
 26  1  1  0  0  0  0
 27 26  1  0  0  0  0
 27 28  1  0  0  0  0
 29 28  2  0  0  0  0
 29 40  1  0  0  0  0
 30 29  1  0  0  0  0
 31 32  1  0  0  0  0
 31 30  2  0  0  0  0
 32 27  2  0  0  0  0
 33 32  1  0  0  0  0
 33 39  1  0  0  0  0
 34 33  2  0  0  0  0
 35 34  1  0  0  0  0
 35 36  2  0  0  0  0
 36 38  1  0  0  0  0
 37 36  1  0  0  0  0
 38 39  2  0  0  0  0
 40 42  1  0  0  0  0
 41 40  2  0  0  0  0
 42 43  1  0  0  0  0
 42 44  1  0  0  0  0
 44 45  1  0  0  0  0
 45 46  2  0  0  0  0
 45 50  1  0  0  0  0
 46 47  1  0  0  0  0
 47 48  2  0  0  0  0
 49 48  1  0  0  0  0
 50 49  2  0  0  0  0
M  END
>  <minimizedAffinity>
-9.36507225

$$$$

 OpenBabel09122221483D

 50 56  0  0  0  0  0  0  0  0999 V2000
    2.2120   -3.0850    7.1280 O   0  0  0  0  0  0  0  0  0  0  0  0
    5.0720   -3.8620    4.1960 C   0  0  0  0  0  0  0  0  0  0  0  0
    5.3900   -3.9020    5.5570 C   0  0  0  0  0  3  0  0  0  0  0  0
    4.4090   -3.6540    6.5180 C   0  0  0  0  0  3  0  0  0  0  0  0
    3.1120   -3.3270    6.1260 C   0  0  0  0  0  0  0  0  0  0  0  0
    2.7770   -3.3040    4.7730 C   0  0  0  0  0  3  0  0  0  0  0  0
    3.7590   -3.5550    3.8120 C   0  0  0  0  0  3  0  0  0  0  0  0
    9.6510   -3.9130    0.3450 C   0  0  0  0  0  0  0  0  0  0  0  0
    8.9050   -4.9090   -0.3050 C   0  0  0  0  0  3  0  0  0  0  0  0
    7.6830   -5.3750    0.1980 C   0  0  0  0  0  3  0  0  0  0  0  0
    7.2140   -4.8040    1.3880 C   0  0  0  0  0  0  0  0  0  0  0  0
    7.9280   -3.8160    2.0610 C   0  0  0  0  0  0  0  0  0  0  0  0
    9.1540   -3.3690    1.5460 C   0  0  0  0  0  3  0  0  0  0  0  0
    7.2590   -3.4090    3.1870 N   0  0  0  0  0  0  0  0  0  0  0  0
    6.1230   -4.0800    3.2010 C   0  0  0  0  0  0  0  0  0  0  0  0
    6.0890   -5.0010    2.1650 N   0  0  0  0  0  0  0  0  0  0  0  0
    5.0710   -6.0300    1.9730 C   0  0  0  0  0  3  0  0  0  0  0  0
    4.9310   -6.4620    0.5050 C   0  0  0  0  0  2  0  0  0  0  0  0
    3.8180   -7.4940    0.3350 C   0  0  0  0  0  2  0  0  0  0  0  0
    4.0060   -8.6880    1.2650 C   0  0  0  0  0  2  0  0  0  0  0  0
    4.1310   -8.2570    2.7230 C   0  0  0  0  0  2  0  0  0  0  0  0
    5.2500   -7.2340    2.9140 C   0  0  0  0  0  2  0  0  0  0  0  0
   11.9790   -3.4540    0.5320 O   0  0  0  0  0  1  0  0  0  0  0  0
   10.9640   -3.4310   -0.2360 C   0  0  0  0  0  0  0  0  0  0  0  0
   10.9570   -3.0430   -1.4470 O   0  0  0  0  0  0  0  0  0  0  0  0
    2.7070   -2.2670    8.1970 C   0  0  0  0  0  2  0  0  0  0  0  0
    2.5830   -2.9390    9.5510 C   0  0  0  0  0  0  0  0  0  0  0  0
    1.7610   -4.0800    9.6630 C   0  0  0  0  0  3  0  0  0  0  0  0
    1.5730   -4.7110   10.8950 C   0  0  0  0  0  0  0  0  0  0  0  0
    2.2360   -4.2330   12.0250 C   0  0  0  0  0  3  0  0  0  0  0  0
    3.0580   -3.1090   11.9280 C   0  0  0  0  0  3  0  0  0  0  0  0
    3.2440   -2.4460   10.7000 C   0  0  0  0  0  0  0  0  0  0  0  0
    4.1450   -1.2860   10.6550 C   0  0  0  0  0  0  0  0  0  0  0  0
    5.5080   -1.4410   10.3660 C   0  0  0  0  0  3  0  0  0  0  0  0
    6.3610   -0.3350   10.3290 C   0  0  0  0  0  3  0  0  0  0  0  0
    5.8530    0.9380   10.5740 C   0  0  0  0  0  0  0  0  0  0  0  0
    6.9010    2.3020   10.5290 Cl  0  0  0  0  0  0  0  0  0  0  0  0
    4.5010    1.1150   10.8530 C   0  0  0  0  0  3  0  0  0  0  0  0
    3.6500    0.0070   10.8920 C   0  0  0  0  0  3  0  0  0  0  0  0
    0.7820   -5.9540   11.0160 C   0  0  0  0  0  0  0  0  0  0  0  0
   -0.3360   -5.8930   11.5250 O   0  0  0  0  0  0  0  0  0  0  0  0
    1.2730   -7.1540   10.5810 N   0  0  0  0  0  0  0  0  0  0  0  0
    0.6380   -7.9270   10.7390 H   0  0  0  0  0  0  0  0  0  0  0  0
    2.4350   -7.4490    9.7590 C   0  0  0  0  0  2  0  0  0  0  0  0
    2.1320   -7.2610    8.2940 C   0  0  0  0  0  0  0  0  0  0  0  0
    0.8250   -7.3500    7.7920 C   0  0  0  0  0  3  0  0  0  0  0  0
    0.5750   -7.2220    6.4230 C   0  0  0  0  0  3  0  0  0  0  0  0
    1.6310   -7.0120    5.5370 C   0  0  0  0  0  3  0  0  0  0  0  0
    2.9350   -6.9280    6.0200 C   0  0  0  0  0  3  0  0  0  0  0  0
    3.1820   -7.0510    7.3880 C   0  0  0  0  0  3  0  0  0  0  0  0
  1 26  1  0  0  0  0
  2  3  1  0  0  0  0
  3  4  2  0  0  0  0
  5  4  1  0  0  0  0
  5  1  1  0  0  0  0
  6  5  2  0  0  0  0
  7  2  2  0  0  0  0
  7  6  1  0  0  0  0
  8 13  1  0  0  0  0
  9 10  1  0  0  0  0
  9  8  2  0  0  0  0
 10 11  2  0  0  0  0
 11 12  1  0  0  0  0
 11 16  1  0  0  0  0
 12 14  1  0  0  0  0
 13 12  2  0  0  0  0
 14 15  2  0  0  0  0
 15  2  1  0  0  0  0
 16 15  1  0  0  0  0
 17 16  1  0  0  0  0
 17 22  1  0  0  0  0
 18 17  1  0  0  0  0
 19 18  1  0  0  0  0
 19 20  1  0  0  0  0
 20 21  1  0  0  0  0
 21 22  1  0  0  0  0
 24  8  1  0  0  0  0
 24 23  1  0  0  0  0
 25 24  2  0  0  0  0
 26 27  1  0  0  0  0
 27 28  2  0  0  0  0
 27 32  1  0  0  0  0
 28 29  1  0  0  0  0
 29 40  1  0  0  0  0
 29 30  2  0  0  0  0
 31 30  1  0  0  0  0
 32 31  2  0  0  0  0
 33 32  1  0  0  0  0
 33 39  1  0  0  0  0
 34 33  2  0  0  0  0
 35 34  1  0  0  0  0
 35 36  2  0  0  0  0
 36 38  1  0  0  0  0
 37 36  1  0  0  0  0
 38 39  2  0  0  0  0
 40 41  2  0  0  0  0
 42 43  1  0  0  0  0
 42 40  1  0  0  0  0
 44 42  1  0  0  0  0
 45 44  1  0  0  0  0
 46 45  1  0  0  0  0
 47 46  2  0  0  0  0
 48 49  2  0  0  0  0
 48 47  1  0  0  0  0
 49 50  1  0  0  0  0
 50 45  2  0  0  0  0
M  END
>  <minimizedAffinity>
-9.27360249

$$$$

 OpenBabel09122221483D

 50 56  0  0  0  0  0  0  0  0999 V2000
   11.2470   -0.0120    6.4660 O   0  0  0  0  0  0  0  0  0  0  0  0
    9.4620   -2.4030    3.5540 C   0  0  0  0  0  0  0  0  0  0  0  0
    9.4500   -1.0080    3.4640 C   0  0  0  0  0  3  0  0  0  0  0  0
   10.0690   -0.2320    4.4450 C   0  0  0  0  0  3  0  0  0  0  0  0
   10.6740   -0.8430    5.5430 C   0  0  0  0  0  0  0  0  0  0  0  0
   10.7120   -2.2330    5.6340 C   0  0  0  0  0  3  0  0  0  0  0  0
   10.0940   -3.0090    4.6500 C   0  0  0  0  0  3  0  0  0  0  0  0
    6.2590   -6.1080    0.1180 C   0  0  0  0  0  0  0  0  0  0  0  0
    7.2070   -5.7830   -0.8650 C   0  0  0  0  0  3  0  0  0  0  0  0
    8.2390   -4.8650   -0.6320 C   0  0  0  0  0  3  0  0  0  0  0  0
    8.3050   -4.2730    0.6350 C   0  0  0  0  0  0  0  0  0  0  0  0
    7.3810   -4.5690    1.6330 C   0  0  0  0  0  0  0  0  0  0  0  0
    6.3490   -5.4850    1.3790 C   0  0  0  0  0  3  0  0  0  0  0  0
    7.6630   -3.8770    2.7840 N   0  0  0  0  0  0  0  0  0  0  0  0
    8.7700   -3.2000    2.5420 C   0  0  0  0  0  0  0  0  0  0  0  0
    9.1510   -3.3490    1.2170 N   0  0  0  0  0  0  0  0  0  0  0  0
   10.2220   -2.6130    0.5510 C   0  0  0  0  0  3  0  0  0  0  0  0
   11.2740   -3.5360   -0.0830 C   0  0  0  0  0  2  0  0  0  0  0  0
   12.4080   -2.7320   -0.7160 C   0  0  0  0  0  2  0  0  0  0  0  0
   11.8820   -1.7010   -1.7100 C   0  0  0  0  0  2  0  0  0  0  0  0
   10.8480   -0.7760   -1.0740 C   0  0  0  0  0  2  0  0  0  0  0  0
    9.6990   -1.5640   -0.4460 C   0  0  0  0  0  2  0  0  0  0  0  0
    5.3500   -7.9070   -1.1470 O   0  0  0  0  0  0  0  0  0  0  0  0
    5.1620   -7.1120   -0.1710 C   0  0  0  0  0  0  0  0  0  0  0  0
    4.1390   -7.0910    0.5850 O   0  0  0  0  0  1  0  0  0  0  0  0
   11.2210    1.3800    6.1230 C   0  0  0  0  0  2  0  0  0  0  0  0
   10.8290    2.2620    7.2940 C   0  0  0  0  0  0  0  0  0  0  0  0
    9.4590    2.4950    7.5320 C   0  0  0  0  0  3  0  0  0  0  0  0
    9.0440    3.3360    8.5680 C   0  0  0  0  0  0  0  0  0  0  0  0
    9.9920    3.9250    9.4040 C   0  0  0  0  0  3  0  0  0  0  0  0
   11.3520    3.6970    9.1840 C   0  0  0  0  0  3  0  0  0  0  0  0
   11.7920    2.8700    8.1340 C   0  0  0  0  0  0  0  0  0  0  0  0
   13.2350    2.6450    7.9710 C   0  0  0  0  0  0  0  0  0  0  0  0
   13.8530    1.5030    8.5020 C   0  0  0  0  0  3  0  0  0  0  0  0
   15.2260    1.2960    8.3490 C   0  0  0  0  0  3  0  0  0  0  0  0
   15.9910    2.2290    7.6530 C   0  0  0  0  0  0  0  0  0  0  0  0
   17.6830    1.9770    7.4640 Cl  0  0  0  0  0  0  0  0  0  0  0  0
   15.3970    3.3640    7.1100 C   0  0  0  0  0  3  0  0  0  0  0  0
   14.0230    3.5700    7.2670 C   0  0  0  0  0  3  0  0  0  0  0  0
    7.6120    3.5280    8.8830 C   0  0  0  0  0  0  0  0  0  0  0  0
    7.0460    4.5350    8.4620 O   0  0  0  0  0  0  0  0  0  0  0  0
    6.9210    2.6160    9.6310 N   0  0  0  0  0  0  0  0  0  0  0  0
    5.9550    2.8750    9.7870 H   0  0  0  0  0  0  0  0  0  0  0  0
    7.2860    1.2690   10.0410 C   0  0  0  0  0  2  0  0  0  0  0  0
    6.8590    0.2480    9.0160 C   0  0  0  0  0  0  0  0  0  0  0  0
    5.5200   -0.1510    8.8860 C   0  0  0  0  0  3  0  0  0  0  0  0
    5.1550   -1.1350    7.9630 C   0  0  0  0  0  3  0  0  0  0  0  0
    6.1260   -1.7390    7.1660 C   0  0  0  0  0  3  0  0  0  0  0  0
    7.4590   -1.3560    7.2880 C   0  0  0  0  0  3  0  0  0  0  0  0
    7.8220   -0.3700    8.2060 C   0  0  0  0  0  3  0  0  0  0  0  0
  2  7  1  0  0  0  0
  3  2  2  0  0  0  0
  3  4  1  0  0  0  0
  4  5  2  0  0  0  0
  5  6  1  0  0  0  0
  5  1  1  0  0  0  0
  7  6  2  0  0  0  0
  8 13  1  0  0  0  0
  9 10  1  0  0  0  0
  9  8  2  0  0  0  0
 10 11  2  0  0  0  0
 11 16  1  0  0  0  0
 11 12  1  0  0  0  0
 12 14  1  0  0  0  0
 13 12  2  0  0  0  0
 15 14  2  0  0  0  0
 15  2  1  0  0  0  0
 16 15  1  0  0  0  0
 17 16  1  0  0  0  0
 18 17  1  0  0  0  0
 19 18  1  0  0  0  0
 20 21  1  0  0  0  0
 20 19  1  0  0  0  0
 21 22  1  0  0  0  0
 22 17  1  0  0  0  0
 23 24  2  0  0  0  0
 24  8  1  0  0  0  0
 24 25  1  0  0  0  0
 26  1  1  0  0  0  0
 26 27  1  0  0  0  0
 27 28  2  0  0  0  0
 27 32  1  0  0  0  0
 28 29  1  0  0  0  0
 29 40  1  0  0  0  0
 29 30  2  0  0  0  0
 31 30  1  0  0  0  0
 32 31  2  0  0  0  0
 33 32  1  0  0  0  0
 33 34  1  0  0  0  0
 35 34  2  0  0  0  0
 36 35  1  0  0  0  0
 37 36  1  0  0  0  0
 38 39  1  0  0  0  0
 38 36  2  0  0  0  0
 39 33  2  0  0  0  0
 40 42  1  0  0  0  0
 41 40  2  0  0  0  0
 42 43  1  0  0  0  0
 42 44  1  0  0  0  0
 45 44  1  0  0  0  0
 46 45  1  0  0  0  0
 47 46  2  0  0  0  0
 48 49  2  0  0  0  0
 48 47  1  0  0  0  0
 49 50  1  0  0  0  0
 50 45  2  0  0  0  0
M  END
>  <minimizedAffinity>
-9.23276234

$$$$

 OpenBabel09122221483D

 50 56  0  0  0  0  0  0  0  0999 V2000
    0.2630   -7.5760    7.6820 O   0  0  0  0  0  0  0  0  0  0  0  0
    3.1990   -7.1430    4.7540 C   0  0  0  0  0  0  0  0  0  0  0  0
    2.2020   -6.1800    4.9380 C   0  0  0  0  0  3  0  0  0  0  0  0
    1.2410   -6.3430    5.9370 C   0  0  0  0  0  3  0  0  0  0  0  0
    1.2470   -7.4860    6.7350 C   0  0  0  0  0  0  0  0  0  0  0  0
    2.2480   -8.4430    6.5750 C   0  0  0  0  0  3  0  0  0  0  0  0
    3.2100   -8.2770    5.5770 C   0  0  0  0  0  3  0  0  0  0  0  0
    7.1840   -5.5910    0.5700 C   0  0  0  0  0  0  0  0  0  0  0  0
    6.7530   -6.7640   -0.0700 C   0  0  0  0  0  3  0  0  0  0  0  0
    5.8010   -7.6190    0.5010 C   0  0  0  0  0  3  0  0  0  0  0  0
    5.2770   -7.2610    1.7490 C   0  0  0  0  0  0  0  0  0  0  0  0
    5.6820   -6.1070    2.4130 C   0  0  0  0  0  0  0  0  0  0  0  0
    6.6420   -5.2670    1.8290 C   0  0  0  0  0  3  0  0  0  0  0  0
    5.0180   -5.9690    3.6060 N   0  0  0  0  0  0  0  0  0  0  0  0
    4.1710   -6.9790    3.6730 C   0  0  0  0  0  0  0  0  0  0  0  0
    4.3520   -7.8370    2.5980 N   0  0  0  0  0  0  0  0  0  0  0  0
    3.7170   -9.1410    2.4340 C   0  0  0  0  0  3  0  0  0  0  0  0
    3.0000   -9.2880    1.0830 C   0  0  0  0  0  2  0  0  0  0  0  0
    2.2970  -10.6400    0.9730 C   0  0  0  0  0  2  0  0  0  0  0  0
    3.2540  -11.7980    1.2380 C   0  0  0  0  0  2  0  0  0  0  0  0
    3.9540  -11.6570    2.5860 C   0  0  0  0  0  2  0  0  0  0  0  0
    4.6730  -10.3150    2.7100 C   0  0  0  0  0  2  0  0  0  0  0  0
    8.3800   -4.8230   -1.3390 O   0  0  0  0  0  0  0  0  0  0  0  0
    8.2090   -4.6870   -0.0860 C   0  0  0  0  0  0  0  0  0  0  0  0
    8.8190   -3.8600    0.6630 O   0  0  0  0  0  1  0  0  0  0  0  0
    0.4770   -6.7750    8.8520 C   0  0  0  0  0  2  0  0  0  0  0  0
    1.7480   -7.1480    9.5900 C   0  0  0  0  0  0  0  0  0  0  0  0
    1.8320   -8.4270   10.1800 C   0  0  0  0  0  3  0  0  0  0  0  0
    2.9610   -8.8060   10.9110 C   0  0  0  0  0  0  0  0  0  0  0  0
    4.0370   -7.9270   11.0300 C   0  0  0  0  0  3  0  0  0  0  0  0
    3.9700   -6.6600   10.4460 C   0  0  0  0  0  3  0  0  0  0  0  0
    2.8340   -6.2510    9.7220 C   0  0  0  0  0  0  0  0  0  0  0  0
    2.8340   -4.9170    9.1060 C   0  0  0  0  0  0  0  0  0  0  0  0
    2.0700   -3.8720    9.6450 C   0  0  0  0  0  3  0  0  0  0  0  0
    2.0700   -2.6070    9.0540 C   0  0  0  0  0  3  0  0  0  0  0  0
    2.8440   -2.3750    7.9190 C   0  0  0  0  0  0  0  0  0  0  0  0
    2.8450   -0.8180    7.1880 Cl  0  0  0  0  0  0  0  0  0  0  0  0
    3.6170   -3.3960    7.3730 C   0  0  0  0  0  3  0  0  0  0  0  0
    3.6130   -4.6620    7.9650 C   0  0  0  0  0  3  0  0  0  0  0  0
    3.1010  -10.1700   11.4670 C   0  0  0  0  0  0  0  0  0  0  0  0
    3.2060  -10.3000   12.6850 O   0  0  0  0  0  0  0  0  0  0  0  0
    3.1210  -11.2690   10.6540 N   0  0  0  0  0  0  0  0  0  0  0  0
    3.2400  -12.1380   11.1600 H   0  0  0  0  0  0  0  0  0  0  0  0
    2.7930  -11.3990    9.2440 C   0  0  0  0  0  2  0  0  0  0  0  0
    3.9950  -11.8240    8.4380 C   0  0  0  0  0  0  0  0  0  0  0  0
    5.1820  -12.2540    9.0510 C   0  0  0  0  0  3  0  0  0  0  0  0
    6.2990  -12.5940    8.2840 C   0  0  0  0  0  3  0  0  0  0  0  0
    6.2470  -12.5000    6.8940 C   0  0  0  0  0  3  0  0  0  0  0  0
    5.0780  -12.0690    6.2720 C   0  0  0  0  0  3  0  0  0  0  0  0
    3.9610  -11.7350    7.0390 C   0  0  0  0  0  3  0  0  0  0  0  0
  1 26  1  0  0  0  0
  2  3  2  0  0  0  0
  2  7  1  0  0  0  0
  3  4  1  0  0  0  0
  4  5  2  0  0  0  0
  5  1  1  0  0  0  0
  6  5  1  0  0  0  0
  7  6  2  0  0  0  0
  8 13  1  0  0  0  0
  9 10  1  0  0  0  0
  9  8  2  0  0  0  0
 10 11  2  0  0  0  0
 11 12  1  0  0  0  0
 11 16  1  0  0  0  0
 12 14  1  0  0  0  0
 13 12  2  0  0  0  0
 14 15  2  0  0  0  0
 15  2  1  0  0  0  0
 16 15  1  0  0  0  0
 17 16  1  0  0  0  0
 17 22  1  0  0  0  0
 18 17  1  0  0  0  0
 19 18  1  0  0  0  0
 19 20  1  0  0  0  0
 20 21  1  0  0  0  0
 21 22  1  0  0  0  0
 23 24  2  0  0  0  0
 24  8  1  0  0  0  0
 24 25  1  0  0  0  0
 26 27  1  0  0  0  0
 27 32  2  0  0  0  0
 27 28  1  0  0  0  0
 28 29  2  0  0  0  0
 29 30  1  0  0  0  0
 29 40  1  0  0  0  0
 31 30  2  0  0  0  0
 32 31  1  0  0  0  0
 33 34  1  0  0  0  0
 33 32  1  0  0  0  0
 35 34  2  0  0  0  0
 36 35  1  0  0  0  0
 37 36  1  0  0  0  0
 38 36  2  0  0  0  0
 38 39  1  0  0  0  0
 39 33  2  0  0  0  0
 40 41  2  0  0  0  0
 42 43  1  0  0  0  0
 42 40  1  0  0  0  0
 44 42  1  0  0  0  0
 45 46  1  0  0  0  0
 45 44  1  0  0  0  0
 47 46  2  0  0  0  0
 48 47  1  0  0  0  0
 49 48  2  0  0  0  0
 49 50  1  0  0  0  0
 50 45  2  0  0  0  0
M  END
>  <minimizedAffinity>
-9.20571518

$$$$

 OpenBabel09122221483D

 50 56  0  0  0  0  0  0  0  0999 V2000
    5.5610   -4.6790    4.7430 O   0  0  0  0  0  0  0  0  0  0  0  0
    6.2270   -1.5410    7.4060 C   0  0  0  0  0  0  0  0  0  0  0  0
    4.9440   -1.8480    6.9420 C   0  0  0  0  0  3  0  0  0  0  0  0
    4.7480   -2.9140    6.0640 C   0  0  0  0  0  3  0  0  0  0  0  0
    5.8360   -3.6600    5.6130 C   0  0  0  0  0  0  0  0  0  0  0  0
    7.1170   -3.3780    6.0840 C   0  0  0  0  0  3  0  0  0  0  0  0
    7.3120   -2.3120    6.9660 C   0  0  0  0  0  3  0  0  0  0  0  0
    7.7490    3.3440   10.5060 C   0  0  0  0  0  0  0  0  0  0  0  0
    6.9980    2.7500   11.5330 C   0  0  0  0  0  3  0  0  0  0  0  0
    6.3230    1.5360   11.3570 C   0  0  0  0  0  3  0  0  0  0  0  0
    6.4240    0.9150   10.1060 C   0  0  0  0  0  0  0  0  0  0  0  0
    7.1570    1.4750    9.0640 C   0  0  0  0  0  0  0  0  0  0  0  0
    7.8200    2.6970    9.2570 C   0  0  0  0  0  3  0  0  0  0  0  0
    7.1160    0.6770    7.9500 N   0  0  0  0  0  0  0  0  0  0  0  0
    6.4210   -0.3920    8.2910 C   0  0  0  0  0  0  0  0  0  0  0  0
    5.9110   -0.2520    9.5730 N   0  0  0  0  0  0  0  0  0  0  0  0
    4.9570   -1.1520   10.2130 C   0  0  0  0  0  3  0  0  0  0  0  0
    5.6040   -2.0340   11.2930 C   0  0  0  0  0  2  0  0  0  0  0  0
    4.5900   -3.0040   11.8960 C   0  0  0  0  0  2  0  0  0  0  0  0
    3.3540   -2.2780   12.4190 C   0  0  0  0  0  2  0  0  0  0  0  0
    2.7060   -1.4140   11.3410 C   0  0  0  0  0  2  0  0  0  0  0  0
    3.7030   -0.4280   10.7350 C   0  0  0  0  0  2  0  0  0  0  0  0
    9.0540    5.1790    9.7360 O   0  0  0  0  0  0  0  0  0  0  0  0
    8.4720    4.6550   10.7390 C   0  0  0  0  0  0  0  0  0  0  0  0
    8.4410    5.1360   11.9160 O   0  0  0  0  0  1  0  0  0  0  0  0
    5.2660   -4.2650    3.4030 C   0  0  0  0  0  2  0  0  0  0  0  0
    6.4610   -4.3930    2.4770 C   0  0  0  0  0  0  0  0  0  0  0  0
    7.4560   -3.3940    2.5200 C   0  0  0  0  0  3  0  0  0  0  0  0
    8.5540   -3.4370    1.6580 C   0  0  0  0  0  0  0  0  0  0  0  0
    8.6930   -4.5010    0.7670 C   0  0  0  0  0  3  0  0  0  0  0  0
    7.7190   -5.5000    0.7170 C   0  0  0  0  0  3  0  0  0  0  0  0
    6.5940   -5.4650    1.5640 C   0  0  0  0  0  0  0  0  0  0  0  0
    5.6190   -6.5610    1.4850 C   0  0  0  0  0  0  0  0  0  0  0  0
    4.6850   -6.6230    0.4410 C   0  0  0  0  0  3  0  0  0  0  0  0
    3.7560   -7.6640    0.3730 C   0  0  0  0  0  3  0  0  0  0  0  0
    3.7610   -8.6590    1.3470 C   0  0  0  0  0  0  0  0  0  0  0  0
    2.6180   -9.9420    1.2660 Cl  0  0  0  0  0  0  0  0  0  0  0  0
    4.6860   -8.6220    2.3870 C   0  0  0  0  0  3  0  0  0  0  0  0
    5.6120   -7.5770    2.4550 C   0  0  0  0  0  3  0  0  0  0  0  0
    9.6470   -2.4450    1.7450 C   0  0  0  0  0  0  0  0  0  0  0  0
    9.8610   -1.7200    0.7750 O   0  0  0  0  0  0  0  0  0  0  0  0
   10.4130   -2.3290    2.8710 N   0  0  0  0  0  0  0  0  0  0  0  0
   11.1360   -1.6240    2.7920 H   0  0  0  0  0  0  0  0  0  0  0  0
   10.2210   -2.8900    4.1980 C   0  0  0  0  0  2  0  0  0  0  0  0
   10.3820   -1.8380    5.2670 C   0  0  0  0  0  0  0  0  0  0  0  0
   10.7590   -2.1690    6.5780 C   0  0  0  0  0  3  0  0  0  0  0  0
   10.8530   -1.1830    7.5640 C   0  0  0  0  0  3  0  0  0  0  0  0
   10.5610    0.1450    7.2530 C   0  0  0  0  0  3  0  0  0  0  0  0
   10.1790    0.4860    5.9590 C   0  0  0  0  0  3  0  0  0  0  0  0
   10.0920   -0.4980    4.9730 C   0  0  0  0  0  3  0  0  0  0  0  0
  1  5  1  0  0  0  0
  2 15  1  0  0  0  0
  3  2  2  0  0  0  0
  4  3  1  0  0  0  0
  5  4  2  0  0  0  0
  5  6  1  0  0  0  0
  6  7  2  0  0  0  0
  7  2  1  0  0  0  0
  8 24  1  0  0  0  0
  8  9  1  0  0  0  0
 10  9  2  0  0  0  0
 11 10  1  0  0  0  0
 12 13  1  0  0  0  0
 12 11  2  0  0  0  0
 13  8  2  0  0  0  0
 14 15  2  0  0  0  0
 14 12  1  0  0  0  0
 15 16  1  0  0  0  0
 16 11  1  0  0  0  0
 16 17  1  0  0  0  0
 17 22  1  0  0  0  0
 17 18  1  0  0  0  0
 18 19  1  0  0  0  0
 19 20  1  0  0  0  0
 21 20  1  0  0  0  0
 22 21  1  0  0  0  0
 23 24  2  0  0  0  0
 24 25  1  0  0  0  0
 26  1  1  0  0  0  0
 27 28  1  0  0  0  0
 27 26  1  0  0  0  0
 29 40  1  0  0  0  0
 29 28  2  0  0  0  0
 30 29  1  0  0  0  0
 31 30  2  0  0  0  0
 31 32  1  0  0  0  0
 32 27  2  0  0  0  0
 33 32  1  0  0  0  0
 33 39  1  0  0  0  0
 34 33  2  0  0  0  0
 35 34  1  0  0  0  0
 35 36  2  0  0  0  0
 36 38  1  0  0  0  0
 37 36  1  0  0  0  0
 38 39  2  0  0  0  0
 40 42  1  0  0  0  0
 41 40  2  0  0  0  0
 42 44  1  0  0  0  0
 43 42  1  0  0  0  0
 44 45  1  0  0  0  0
 45 46  1  0  0  0  0
 46 47  2  0  0  0  0
 48 47  1  0  0  0  0
 49 48  2  0  0  0  0
 50 45  2  0  0  0  0
 50 49  1  0  0  0  0
M  END
>  <minimizedAffinity>
-9.1998558

$$$$

 OpenBabel09122221483D

 50 56  0  0  0  0  0  0  0  0999 V2000
    3.1930   -0.3240    8.3670 O   0  0  0  0  0  0  0  0  0  0  0  0
    3.7790   -3.2970    5.5040 C   0  0  0  0  0  0  0  0  0  0  0  0
    4.7780   -2.9570    6.4210 C   0  0  0  0  0  3  0  0  0  0  0  0
    4.5500   -1.9680    7.3790 C   0  0  0  0  0  3  0  0  0  0  0  0
    3.3340   -1.2870    7.4060 C   0  0  0  0  0  0  0  0  0  0  0  0
    2.3220   -1.6310    6.5110 C   0  0  0  0  0  3  0  0  0  0  0  0
    2.5510   -2.6220    5.5540 C   0  0  0  0  0  3  0  0  0  0  0  0
    5.0710   -6.7030    0.7580 C   0  0  0  0  0  0  0  0  0  0  0  0
    4.3070   -7.6720    1.4270 C   0  0  0  0  0  3  0  0  0  0  0  0
    3.7490   -7.4410    2.6910 C   0  0  0  0  0  3  0  0  0  0  0  0
    3.9730   -6.1890    3.2780 C   0  0  0  0  0  0  0  0  0  0  0  0
    4.7270   -5.2050    2.6450 C   0  0  0  0  0  0  0  0  0  0  0  0
    5.2850   -5.4590    1.3830 C   0  0  0  0  0  3  0  0  0  0  0  0
    4.7920   -4.0690    3.4100 N   0  0  0  0  0  0  0  0  0  0  0  0
    4.0510   -4.3030    4.4770 C   0  0  0  0  0  0  0  0  0  0  0  0
    3.5980   -5.6140    4.4760 N   0  0  0  0  0  0  0  0  0  0  0  0
    2.9020   -6.2750    5.5760 C   0  0  0  0  0  3  0  0  0  0  0  0
    1.4140   -6.5190    5.2770 C   0  0  0  0  0  2  0  0  0  0  0  0
    0.7060   -7.1550    6.4710 C   0  0  0  0  0  2  0  0  0  0  0  0
    1.4090   -8.4270    6.9340 C   0  0  0  0  0  2  0  0  0  0  0  0
    2.8830   -8.1790    7.2440 C   0  0  0  0  0  2  0  0  0  0  0  0
    3.6110   -7.5540    6.0550 C   0  0  0  0  0  2  0  0  0  0  0  0
    6.4370   -6.1160   -1.1000 O   0  0  0  0  0  1  0  0  0  0  0  0
    5.6510   -6.9890   -0.6120 C   0  0  0  0  0  0  0  0  0  0  0  0
    5.3130   -8.0800   -1.1710 O   0  0  0  0  0  0  0  0  0  0  0  0
    2.6140   -0.7790    9.5970 C   0  0  0  0  0  2  0  0  0  0  0  0
    3.6590   -1.1240   10.6420 C   0  0  0  0  0  0  0  0  0  0  0  0
    4.5750   -0.1250   11.0320 C   0  0  0  0  0  3  0  0  0  0  0  0
    5.5870   -0.4020   11.9550 C   0  0  0  0  0  0  0  0  0  0  0  0
    5.6730   -1.6700   12.5290 C   0  0  0  0  0  3  0  0  0  0  0  0
    4.7690   -2.6660   12.1560 C   0  0  0  0  0  3  0  0  0  0  0  0
    3.7540   -2.4140   11.2130 C   0  0  0  0  0  0  0  0  0  0  0  0
    2.8150   -3.4950   10.8840 C   0  0  0  0  0  0  0  0  0  0  0  0
    2.9190   -4.1980    9.6750 C   0  0  0  0  0  3  0  0  0  0  0  0
    2.0200   -5.2220    9.3630 C   0  0  0  0  0  3  0  0  0  0  0  0
    1.0140   -5.5560   10.2670 C   0  0  0  0  0  0  0  0  0  0  0  0
   -0.0940   -6.8160    9.8850 Cl  0  0  0  0  0  0  0  0  0  0  0  0
    0.8990   -4.8770   11.4760 C   0  0  0  0  0  3  0  0  0  0  0  0
    1.7970   -3.8510   11.7840 C   0  0  0  0  0  3  0  0  0  0  0  0
    6.5040    0.6530   12.4370 C   0  0  0  0  0  0  0  0  0  0  0  0
    6.0360    1.5910   13.0790 O   0  0  0  0  0  0  0  0  0  0  0  0
    7.8450    0.6010   12.1770 N   0  0  0  0  0  0  0  0  0  0  0  0
    8.3560    1.3920   12.5490 H   0  0  0  0  0  0  0  0  0  0  0  0
    8.6580   -0.4860   11.6550 C   0  0  0  0  0  2  0  0  0  0  0  0
    8.4140   -0.6950   10.1810 C   0  0  0  0  0  0  0  0  0  0  0  0
    8.1550   -1.9670    9.6490 C   0  0  0  0  0  3  0  0  0  0  0  0
    7.9810   -2.1430    8.2730 C   0  0  0  0  0  3  0  0  0  0  0  0
    8.0740   -1.0500    7.4120 C   0  0  0  0  0  3  0  0  0  0  0  0
    8.3380    0.2170    7.9260 C   0  0  0  0  0  3  0  0  0  0  0  0
    8.5050    0.3930    9.3000 C   0  0  0  0  0  3  0  0  0  0  0  0
  1 26  1  0  0  0  0
  2  7  2  0  0  0  0
  2  3  1  0  0  0  0
  3  4  2  0  0  0  0
  4  5  1  0  0  0  0
  5  1  1  0  0  0  0
  6  5  2  0  0  0  0
  7  6  1  0  0  0  0
  8 13  2  0  0  0  0
  8  9  1  0  0  0  0
  9 10  2  0  0  0  0
 10 11  1  0  0  0  0
 11 16  1  0  0  0  0
 12 11  2  0  0  0  0
 12 14  1  0  0  0  0
 13 12  1  0  0  0  0
 14 15  2  0  0  0  0
 15  2  1  0  0  0  0
 16 15  1  0  0  0  0
 16 17  1  0  0  0  0
 17 22  1  0  0  0  0
 18 17  1  0  0  0  0
 18 19  1  0  0  0  0
 19 20  1  0  0  0  0
 20 21  1  0  0  0  0
 22 21  1  0  0  0  0
 23 24  1  0  0  0  0
 24  8  1  0  0  0  0
 25 24  2  0  0  0  0
 26 27  1  0  0  0  0
 27 28  2  0  0  0  0
 27 32  1  0  0  0  0
 28 29  1  0  0  0  0
 29 40  1  0  0  0  0
 29 30  2  0  0  0  0
 31 30  1  0  0  0  0
 32 31  2  0  0  0  0
 33 32  1  0  0  0  0
 33 39  1  0  0  0  0
 34 33  2  0  0  0  0
 35 34  1  0  0  0  0
 35 36  2  0  0  0  0
 36 38  1  0  0  0  0
 37 36  1  0  0  0  0
 38 39  2  0  0  0  0
 40 41  2  0  0  0  0
 42 40  1  0  0  0  0
 42 43  1  0  0  0  0
 44 42  1  0  0  0  0
 45 44  1  0  0  0  0
 46 45  1  0  0  0  0
 47 46  2  0  0  0  0
 48 49  2  0  0  0  0
 48 47  1  0  0  0  0
 49 50  1  0  0  0  0
 50 45  2  0  0  0  0
M  END
>  <minimizedAffinity>
-9.18060207

$$$$

 OpenBabel09122221483D

 50 56  0  0  0  0  0  0  0  0999 V2000
    5.4290   -4.6520    4.9240 O   0  0  0  0  0  0  0  0  0  0  0  0
    5.7270   -1.7920    7.9430 C   0  0  0  0  0  0  0  0  0  0  0  0
    4.6360   -1.8220    7.0690 C   0  0  0  0  0  3  0  0  0  0  0  0
    4.5540   -2.8010    6.0770 C   0  0  0  0  0  3  0  0  0  0  0  0
    5.5780   -3.7350    5.9280 C   0  0  0  0  0  0  0  0  0  0  0  0
    6.6610   -3.7290    6.8070 C   0  0  0  0  0  3  0  0  0  0  0  0
    6.7410   -2.7500    7.8000 C   0  0  0  0  0  3  0  0  0  0  0  0
    6.8590    2.8040   11.6020 C   0  0  0  0  0  0  0  0  0  0  0  0
    6.0700    2.0850   12.5140 C   0  0  0  0  0  3  0  0  0  0  0  0
    5.4550    0.8720   12.1750 C   0  0  0  0  0  3  0  0  0  0  0  0
    5.6580    0.3840   10.8790 C   0  0  0  0  0  0  0  0  0  0  0  0
    6.4320    1.0710    9.9480 C   0  0  0  0  0  0  0  0  0  0  0  0
    7.0330    2.2880   10.3030 C   0  0  0  0  0  3  0  0  0  0  0  0
    6.4920    0.3880    8.7600 N   0  0  0  0  0  0  0  0  0  0  0  0
    5.8200   -0.7320    8.9470 C   0  0  0  0  0  0  0  0  0  0  0  0
    5.2260   -0.7390   10.2010 N   0  0  0  0  0  0  0  0  0  0  0  0
    4.2700   -1.7310   10.6850 C   0  0  0  0  0  3  0  0  0  0  0  0
    4.9330   -2.8360   11.5220 C   0  0  0  0  0  2  0  0  0  0  0  0
    3.9130   -3.8860   11.9590 C   0  0  0  0  0  2  0  0  0  0  0  0
    2.7280   -3.2560   12.6840 C   0  0  0  0  0  2  0  0  0  0  0  0
    2.0630   -2.1690   11.8440 C   0  0  0  0  0  2  0  0  0  0  0  0
    3.0670   -1.1020   11.4090 C   0  0  0  0  0  2  0  0  0  0  0  0
    7.0920    4.6550   13.0790 O   0  0  0  0  0  1  0  0  0  0  0  0
    7.5140    4.1080   12.0110 C   0  0  0  0  0  0  0  0  0  0  0  0
    8.4370    4.5560   11.2600 O   0  0  0  0  0  0  0  0  0  0  0  0
    5.2660   -4.0920    3.6150 C   0  0  0  0  0  2  0  0  0  0  0  0
    6.5230   -4.2040    2.7720 C   0  0  0  0  0  0  0  0  0  0  0  0
    7.5660   -3.2810    2.9950 C   0  0  0  0  0  3  0  0  0  0  0  0
    8.7260   -3.3090    2.2170 C   0  0  0  0  0  0  0  0  0  0  0  0
    8.8750   -4.2850    1.2310 C   0  0  0  0  0  3  0  0  0  0  0  0
    7.8530   -5.2090    1.0050 C   0  0  0  0  0  3  0  0  0  0  0  0
    6.6680   -5.1850    1.7640 C   0  0  0  0  0  0  0  0  0  0  0  0
    5.6410   -6.2020    1.4980 C   0  0  0  0  0  0  0  0  0  0  0  0
    5.3240   -7.1760    2.4570 C   0  0  0  0  0  3  0  0  0  0  0  0
    4.3500   -8.1430    2.1980 C   0  0  0  0  0  3  0  0  0  0  0  0
    3.6780   -8.1380    0.9780 C   0  0  0  0  0  0  0  0  0  0  0  0
    2.4780   -9.3280    0.6570 Cl  0  0  0  0  0  0  0  0  0  0  0  0
    3.9690   -7.1740    0.0170 C   0  0  0  0  0  3  0  0  0  0  0  0
    4.9470   -6.2090    0.2770 C   0  0  0  0  0  3  0  0  0  0  0  0
    9.8630   -2.4040    2.4880 C   0  0  0  0  0  0  0  0  0  0  0  0
   10.6800   -2.7280    3.3480 O   0  0  0  0  0  0  0  0  0  0  0  0
   10.0120   -1.2270    1.8090 N   0  0  0  0  0  0  0  0  0  0  0  0
   10.8220   -0.6950    2.1030 H   0  0  0  0  0  0  0  0  0  0  0  0
    9.3340   -0.7380    0.6200 C   0  0  0  0  0  2  0  0  0  0  0  0
   10.2660   -0.6950   -0.5650 C   0  0  0  0  0  0  0  0  0  0  0  0
   10.4330    0.4690   -1.3320 C   0  0  0  0  0  3  0  0  0  0  0  0
   11.2640    0.4700   -2.4550 C   0  0  0  0  0  3  0  0  0  0  0  0
   11.9320   -0.6940   -2.8310 C   0  0  0  0  0  3  0  0  0  0  0  0
   11.7710   -1.8580   -2.0840 C   0  0  0  0  0  3  0  0  0  0  0  0
   10.9450   -1.8570   -0.9590 C   0  0  0  0  0  3  0  0  0  0  0  0
  1  5  1  0  0  0  0
  2 15  1  0  0  0  0
  3  2  2  0  0  0  0
  4  3  1  0  0  0  0
  5  4  2  0  0  0  0
  5  6  1  0  0  0  0
  6  7  2  0  0  0  0
  7  2  1  0  0  0  0
  8 24  1  0  0  0  0
  8  9  1  0  0  0  0
 10  9  2  0  0  0  0
 11 10  1  0  0  0  0
 12 13  1  0  0  0  0
 12 11  2  0  0  0  0
 13  8  2  0  0  0  0
 14 15  2  0  0  0  0
 14 12  1  0  0  0  0
 15 16  1  0  0  0  0
 16 17  1  0  0  0  0
 16 11  1  0  0  0  0
 17 22  1  0  0  0  0
 17 18  1  0  0  0  0
 18 19  1  0  0  0  0
 19 20  1  0  0  0  0
 21 20  1  0  0  0  0
 22 21  1  0  0  0  0
 24 23  1  0  0  0  0
 25 24  2  0  0  0  0
 26  1  1  0  0  0  0
 27 28  1  0  0  0  0
 27 26  1  0  0  0  0
 29 40  1  0  0  0  0
 29 28  2  0  0  0  0
 30 29  1  0  0  0  0
 31 30  2  0  0  0  0
 31 32  1  0  0  0  0
 32 27  2  0  0  0  0
 33 32  1  0  0  0  0
 33 34  1  0  0  0  0
 35 34  2  0  0  0  0
 36 35  1  0  0  0  0
 37 36  1  0  0  0  0
 38 39  1  0  0  0  0
 38 36  2  0  0  0  0
 39 33  2  0  0  0  0
 40 41  2  0  0  0  0
 42 43  1  0  0  0  0
 42 40  1  0  0  0  0
 44 42  1  0  0  0  0
 45 44  1  0  0  0  0
 46 45  2  0  0  0  0
 47 46  1  0  0  0  0
 48 47  2  0  0  0  0
 48 49  1  0  0  0  0
 49 50  2  0  0  0  0
 50 45  1  0  0  0  0
M  END
>  <minimizedAffinity>
-9.15629387

$$$$
