MODEL 1
REMARK VINA RESULT:      -7.8      0.000      0.000
REMARK  Name = 347791
REMARK  4 active torsions:
REMARK  status: ('A' for Active; 'I' for Inactive)
REMARK    1  A    between atoms: C_4  and  O_7
REMARK    2  A    between atoms: C_8  and  S_11
REMARK    3  A    between atoms: S_11  and  N_14
REMARK    4  A    between atoms: C_15  and  C_17
REMARK                            x       y       z     vdW  Elec       q    Type
REMARK                         _______ _______ _______ _____ _____    ______ ____
ROOT
ATOM      1 CL   UNL     1      24.111  38.535  45.923  0.00  0.00    +0.000 Cl
ATOM      2  C   UNL     1      23.227  39.938  46.436  0.00  0.00    +0.000 A 
ATOM      3  C   UNL     1      23.583  40.659  47.589  0.00  0.00    +0.000 A 
ATOM      4  C   UNL     1      22.123  40.334  45.668  0.00  0.00    +0.000 A 
ATOM      5 CL   UNL     1      24.962  40.187  48.531  0.00  0.00    +0.000 Cl
ATOM      6  C   UNL     1      22.809  41.765  47.968  0.00  0.00    +0.000 A 
ATOM      7  C   UNL     1      21.378  41.451  46.039  0.00  0.00    +0.000 A 
ATOM      8 CL   UNL     1      23.148  42.696  49.386  0.00  0.00    +0.000 Cl
ATOM      9  C   UNL     1      21.706  42.156  47.203  0.00  0.00    +0.000 A 
ENDROOT
BRANCH   7  10
ATOM     10  S   UNL     1      19.964  41.952  45.102  0.00  0.00    +0.000 S 
ATOM     11  O   UNL     1      19.439  43.146  45.732  0.00  0.00    +0.000 OA
ATOM     12  O   UNL     1      20.326  41.965  43.695  0.00  0.00    +0.000 OA
BRANCH  10  13
ATOM     13  N   UNL     1      18.875  40.689  45.265  0.00  0.00    +0.000 NA
ATOM     14  C   UNL     1      17.514  40.690  44.673  0.00  0.00    +0.000 C 
ATOM     15  C   UNL     1      18.788  40.067  46.610  0.00  0.00    +0.000 C 
ATOM     16  C   UNL     1      16.602  40.830  45.891  0.00  0.00    +0.000 C 
ATOM     17  C   UNL     1      17.307  40.031  46.972  0.00  0.00    +0.000 C 
BRANCH  14  18
ATOM     18  C   UNL     1      17.035  41.587  43.553  0.00  0.00    +0.000 C 
ATOM     19  O   UNL     1      16.910  41.185  42.401  0.00  0.00    +0.000 OA
ATOM     20  O   UNL     1      16.678  42.844  43.880  0.00  0.00    +0.000 OA
ENDBRANCH  14  18
ENDBRANCH  10  13
ENDBRANCH   7  10
BRANCH   4  21
ATOM     21  O   UNL     1      21.775  39.626  44.546  0.00  0.00    +0.000 OA
ATOM     22  H   UNL     1      21.070  39.009  44.581  0.00  0.00    +0.000 HD
ENDBRANCH   4  21
TORSDOF 4
ENDMDL
MODEL 2
REMARK VINA RESULT:      -7.2      1.113      1.288
REMARK  Name = 347791
REMARK  4 active torsions:
REMARK  status: ('A' for Active; 'I' for Inactive)
REMARK    1  A    between atoms: C_4  and  O_7
REMARK    2  A    between atoms: C_8  and  S_11
REMARK    3  A    between atoms: S_11  and  N_14
REMARK    4  A    between atoms: C_15  and  C_17
REMARK                            x       y       z     vdW  Elec       q    Type
REMARK                         _______ _______ _______ _____ _____    ______ ____
ROOT
ATOM      1 CL   UNL     1      24.210  39.064  45.610  0.00  0.00    +0.000 Cl
ATOM      2  C   UNL     1      23.270  40.266  46.439  0.00  0.00    +0.000 A 
ATOM      3  C   UNL     1      23.766  40.952  47.560  0.00  0.00    +0.000 A 
ATOM      4  C   UNL     1      21.977  40.529  45.964  0.00  0.00    +0.000 A 
ATOM      5 CL   UNL     1      25.373  40.646  48.139  0.00  0.00    +0.000 Cl
ATOM      6  C   UNL     1      22.945  41.888  48.205  0.00  0.00    +0.000 A 
ATOM      7  C   UNL     1      21.181  41.481  46.596  0.00  0.00    +0.000 A 
ATOM      8 CL   UNL     1      23.454  42.760  49.609  0.00  0.00    +0.000 Cl
ATOM      9  C   UNL     1      21.655  42.147  47.732  0.00  0.00    +0.000 A 
ENDROOT
BRANCH   7  10
ATOM     10  S   UNL     1      19.537  41.810  46.031  0.00  0.00    +0.000 S 
ATOM     11  O   UNL     1      18.970  42.795  46.929  0.00  0.00    +0.000 OA
ATOM     12  O   UNL     1      19.584  42.062  44.601  0.00  0.00    +0.000 OA
BRANCH  10  13
ATOM     13  N   UNL     1      18.730  40.350  46.195  0.00  0.00    +0.000 NA
ATOM     14  C   UNL     1      18.092  39.629  45.067  0.00  0.00    +0.000 C 
ATOM     15  C   UNL     1      17.847  40.218  47.381  0.00  0.00    +0.000 C 
ATOM     16  C   UNL     1      16.599  39.790  45.347  0.00  0.00    +0.000 C 
ATOM     17  C   UNL     1      16.500  39.727  46.861  0.00  0.00    +0.000 C 
BRANCH  14  18
ATOM     18  C   UNL     1      18.376  39.850  43.598  0.00  0.00    +0.000 C 
ATOM     19  O   UNL     1      19.424  39.490  43.072  0.00  0.00    +0.000 OA
ATOM     20  O   UNL     1      17.396  40.403  42.857  0.00  0.00    +0.000 OA
ENDBRANCH  14  18
ENDBRANCH  10  13
ENDBRANCH   7  10
BRANCH   4  21
ATOM     21  O   UNL     1      21.494  39.855  44.872  0.00  0.00    +0.000 OA
ATOM     22  H   UNL     1      20.801  40.225  44.361  0.00  0.00    +0.000 HD
ENDBRANCH   4  21
TORSDOF 4
ENDMDL
MODEL 3
REMARK VINA RESULT:      -7.2      2.316      2.993
REMARK  Name = 347791
REMARK  4 active torsions:
REMARK  status: ('A' for Active; 'I' for Inactive)
REMARK    1  A    between atoms: C_4  and  O_7
REMARK    2  A    between atoms: C_8  and  S_11
REMARK    3  A    between atoms: S_11  and  N_14
REMARK    4  A    between atoms: C_15  and  C_17
REMARK                            x       y       z     vdW  Elec       q    Type
REMARK                         _______ _______ _______ _____ _____    ______ ____
ROOT
ATOM      1 CL   UNL     1      21.995  39.499  43.134  0.00  0.00    +0.000 Cl
ATOM      2  C   UNL     1      21.176  40.025  44.572  0.00  0.00    +0.000 A 
ATOM      3  C   UNL     1      21.848  40.700  45.605  0.00  0.00    +0.000 A 
ATOM      4  C   UNL     1      19.807  39.742  44.686  0.00  0.00    +0.000 A 
ATOM      5 CL   UNL     1      23.537  41.073  45.458  0.00  0.00    +0.000 Cl
ATOM      6  C   UNL     1      21.135  41.070  46.755  0.00  0.00    +0.000 A 
ATOM      7  C   UNL     1      19.104  40.139  45.821  0.00  0.00    +0.000 A 
ATOM      8 CL   UNL     1      21.880  41.877  48.090  0.00  0.00    +0.000 Cl
ATOM      9  C   UNL     1      19.772  40.784  46.867  0.00  0.00    +0.000 A 
ENDROOT
BRANCH   7  10
ATOM     10  S   UNL     1      17.383  39.768  45.999  0.00  0.00    +0.000 S 
ATOM     11  O   UNL     1      17.055  38.788  44.983  0.00  0.00    +0.000 OA
ATOM     12  O   UNL     1      17.115  39.489  47.399  0.00  0.00    +0.000 OA
BRANCH  10  13
ATOM     13  N   UNL     1      16.600  41.213  45.678  0.00  0.00    +0.000 NA
ATOM     14  C   UNL     1      16.682  41.927  44.380  0.00  0.00    +0.000 C 
ATOM     15  C   UNL     1      16.626  42.229  46.761  0.00  0.00    +0.000 C 
ATOM     16  C   UNL     1      17.524  43.159  44.710  0.00  0.00    +0.000 C 
ATOM     17  C   UNL     1      17.097  43.530  46.119  0.00  0.00    +0.000 C 
BRANCH  14  18
ATOM     18  C   UNL     1      17.124  41.327  43.065  0.00  0.00    +0.000 C 
ATOM     19  O   UNL     1      16.467  40.470  42.482  0.00  0.00    +0.000 OA
ATOM     20  O   UNL     1      18.248  41.821  42.508  0.00  0.00    +0.000 OA
ENDBRANCH  14  18
ENDBRANCH  10  13
ENDBRANCH   7  10
BRANCH   4  21
ATOM     21  O   UNL     1      19.154  39.079  43.678  0.00  0.00    +0.000 OA
ATOM     22  H   UNL     1      18.218  39.045  43.669  0.00  0.00    +0.000 HD
ENDBRANCH   4  21
TORSDOF 4
ENDMDL
MODEL 4
REMARK VINA RESULT:      -7.0      3.919      6.368
REMARK  Name = 347791
REMARK  4 active torsions:
REMARK  status: ('A' for Active; 'I' for Inactive)
REMARK    1  A    between atoms: C_4  and  O_7
REMARK    2  A    between atoms: C_8  and  S_11
REMARK    3  A    between atoms: S_11  and  N_14
REMARK    4  A    between atoms: C_15  and  C_17
REMARK                            x       y       z     vdW  Elec       q    Type
REMARK                         _______ _______ _______ _____ _____    ______ ____
ROOT
ATOM      1 CL   UNL     1      16.780  39.062  44.970  0.00  0.00    +0.000 Cl
ATOM      2  C   UNL     1      17.876  40.369  44.644  0.00  0.00    +0.000 A 
ATOM      3  C   UNL     1      17.728  41.199  43.521  0.00  0.00    +0.000 A 
ATOM      4  C   UNL     1      18.939  40.570  45.537  0.00  0.00    +0.000 A 
ATOM      5 CL   UNL     1      16.401  40.969  42.426  0.00  0.00    +0.000 Cl
ATOM      6  C   UNL     1      18.666  42.217  43.297  0.00  0.00    +0.000 A 
ATOM      7  C   UNL     1      19.849  41.602  45.318  0.00  0.00    +0.000 A 
ATOM      8 CL   UNL     1      18.586  43.271  41.927  0.00  0.00    +0.000 Cl
ATOM      9  C   UNL     1      19.727  42.414  44.186  0.00  0.00    +0.000 A 
ENDROOT
BRANCH   7  10
ATOM     10  S   UNL     1      21.214  41.856  46.415  0.00  0.00    +0.000 S 
ATOM     11  O   UNL     1      21.915  43.035  45.951  0.00  0.00    +0.000 OA
ATOM     12  O   UNL     1      20.725  41.783  47.781  0.00  0.00    +0.000 OA
BRANCH  10  13
ATOM     13  N   UNL     1      22.177  40.499  46.218  0.00  0.00    +0.000 NA
ATOM     14  C   UNL     1      23.536  40.361  46.798  0.00  0.00    +0.000 C 
ATOM     15  C   UNL     1      22.196  39.898  44.861  0.00  0.00    +0.000 C 
ATOM     16  C   UNL     1      24.449  40.438  45.576  0.00  0.00    +0.000 C 
ATOM     17  C   UNL     1      23.664  39.730  44.485  0.00  0.00    +0.000 C 
BRANCH  14  18
ATOM     18  C   UNL     1      24.105  41.185  47.931  0.00  0.00    +0.000 C 
ATOM     19  O   UNL     1      23.757  41.026  49.096  0.00  0.00    +0.000 OA
ATOM     20  O   UNL     1      25.074  42.069  47.622  0.00  0.00    +0.000 OA
ENDBRANCH  14  18
ENDBRANCH  10  13
ENDBRANCH   7  10
BRANCH   4  21
ATOM     21  O   UNL     1      19.084  39.754  46.630  0.00  0.00    +0.000 OA
ATOM     22  H   UNL     1      19.725  39.957  47.284  0.00  0.00    +0.000 HD
ENDBRANCH   4  21
TORSDOF 4
ENDMDL
MODEL 5
REMARK VINA RESULT:      -6.9      1.916      2.469
REMARK  Name = 347791
REMARK  4 active torsions:
REMARK  status: ('A' for Active; 'I' for Inactive)
REMARK    1  A    between atoms: C_4  and  O_7
REMARK    2  A    between atoms: C_8  and  S_11
REMARK    3  A    between atoms: S_11  and  N_14
REMARK    4  A    between atoms: C_15  and  C_17
REMARK                            x       y       z     vdW  Elec       q    Type
REMARK                         _______ _______ _______ _____ _____    ______ ____
ROOT
ATOM      1 CL   UNL     1      25.019  39.490  45.793  0.00  0.00    +0.000 Cl
ATOM      2  C   UNL     1      23.887  40.440  46.705  0.00  0.00    +0.000 A 
ATOM      3  C   UNL     1      24.289  41.228  47.796  0.00  0.00    +0.000 A 
ATOM      4  C   UNL     1      22.536  40.389  46.329  0.00  0.00    +0.000 A 
ATOM      5 CL   UNL     1      25.961  41.313  48.251  0.00  0.00    +0.000 Cl
ATOM      6  C   UNL     1      23.320  41.947  48.512  0.00  0.00    +0.000 A 
ATOM      7  C   UNL     1      21.587  41.129  47.031  0.00  0.00    +0.000 A 
ATOM      8 CL   UNL     1      23.712  42.921  49.886  0.00  0.00    +0.000 Cl
ATOM      9  C   UNL     1      21.975  41.892  48.138  0.00  0.00    +0.000 A 
ENDROOT
BRANCH   7  10
ATOM     10  S   UNL     1      19.875  41.057  46.592  0.00  0.00    +0.000 S 
ATOM     11  O   UNL     1      19.670  39.806  45.891  0.00  0.00    +0.000 OA
ATOM     12  O   UNL     1      19.085  41.376  47.769  0.00  0.00    +0.000 OA
BRANCH  10  13
ATOM     13  N   UNL     1      19.648  42.347  45.547  0.00  0.00    +0.000 NA
ATOM     14  C   UNL     1      18.315  42.844  45.126  0.00  0.00    +0.000 C 
ATOM     15  C   UNL     1      20.550  42.404  44.369  0.00  0.00    +0.000 C 
ATOM     16  C   UNL     1      18.232  42.427  43.659  0.00  0.00    +0.000 C 
ATOM     17  C   UNL     1      19.653  42.589  43.149  0.00  0.00    +0.000 C 
BRANCH  14  18
ATOM     18  C   UNL     1      17.004  42.565  45.826  0.00  0.00    +0.000 C 
ATOM     19  O   UNL     1      16.392  41.513  45.676  0.00  0.00    +0.000 OA
ATOM     20  O   UNL     1      16.554  43.499  46.687  0.00  0.00    +0.000 OA
ENDBRANCH  14  18
ENDBRANCH  10  13
ENDBRANCH   7  10
BRANCH   4  21
ATOM     21  O   UNL     1      22.146  39.614  45.266  0.00  0.00    +0.000 OA
ATOM     22  H   UNL     1      22.159  38.680  45.338  0.00  0.00    +0.000 HD
ENDBRANCH   4  21
TORSDOF 4
ENDMDL
MODEL 6
REMARK VINA RESULT:      -6.7      1.430      1.798
REMARK  Name = 347791
REMARK  4 active torsions:
REMARK  status: ('A' for Active; 'I' for Inactive)
REMARK    1  A    between atoms: C_4  and  O_7
REMARK    2  A    between atoms: C_8  and  S_11
REMARK    3  A    between atoms: S_11  and  N_14
REMARK    4  A    between atoms: C_15  and  C_17
REMARK                            x       y       z     vdW  Elec       q    Type
REMARK                         _______ _______ _______ _____ _____    ______ ____
ROOT
ATOM      1 CL   UNL     1      24.562  38.346  45.853  0.00  0.00    +0.000 Cl
ATOM      2  C   UNL     1      23.412  39.609  46.162  0.00  0.00    +0.000 A 
ATOM      3  C   UNL     1      23.532  40.468  47.267  0.00  0.00    +0.000 A 
ATOM      4  C   UNL     1      22.334  39.744  45.275  0.00  0.00    +0.000 A 
ATOM      5 CL   UNL     1      24.876  40.319  48.355  0.00  0.00    +0.000 Cl
ATOM      6  C   UNL     1      22.551  41.448  47.479  0.00  0.00    +0.000 A 
ATOM      7  C   UNL     1      21.381  40.739  45.481  0.00  0.00    +0.000 A 
ATOM      8 CL   UNL     1      22.596  42.532  48.826  0.00  0.00    +0.000 Cl
ATOM      9  C   UNL     1      21.476  41.579  46.596  0.00  0.00    +0.000 A 
ENDROOT
BRANCH   7  10
ATOM     10  S   UNL     1      19.997  40.910  44.391  0.00  0.00    +0.000 S 
ATOM     11  O   UNL     1      20.318  41.976  43.465  0.00  0.00    +0.000 OA
ATOM     12  O   UNL     1      19.637  39.592  43.896  0.00  0.00    +0.000 OA
BRANCH  10  13
ATOM     13  N   UNL     1      18.728  41.371  45.383  0.00  0.00    +0.000 NA
ATOM     14  C   UNL     1      17.309  41.024  45.123  0.00  0.00    +0.000 C 
ATOM     15  C   UNL     1      18.771  42.762  45.901  0.00  0.00    +0.000 C 
ATOM     16  C   UNL     1      16.687  42.362  44.728  0.00  0.00    +0.000 C 
ATOM     17  C   UNL     1      17.407  43.374  45.601  0.00  0.00    +0.000 C 
BRANCH  14  18
ATOM     18  C   UNL     1      16.818  39.926  44.205  0.00  0.00    +0.000 C 
ATOM     19  O   UNL     1      16.599  40.118  43.014  0.00  0.00    +0.000 OA
ATOM     20  O   UNL     1      16.693  38.693  44.732  0.00  0.00    +0.000 OA
ENDBRANCH  14  18
ENDBRANCH  10  13
ENDBRANCH   7  10
BRANCH   4  21
ATOM     21  O   UNL     1      22.216  38.901  44.200  0.00  0.00    +0.000 OA
ATOM     22  H   UNL     1      22.506  39.179  43.353  0.00  0.00    +0.000 HD
ENDBRANCH   4  21
TORSDOF 4
ENDMDL
MODEL 7
REMARK VINA RESULT:      -6.7      0.691      2.249
REMARK  Name = 347791
REMARK  4 active torsions:
REMARK  status: ('A' for Active; 'I' for Inactive)
REMARK    1  A    between atoms: C_4  and  O_7
REMARK    2  A    between atoms: C_8  and  S_11
REMARK    3  A    between atoms: S_11  and  N_14
REMARK    4  A    between atoms: C_15  and  C_17
REMARK                            x       y       z     vdW  Elec       q    Type
REMARK                         _______ _______ _______ _____ _____    ______ ____
ROOT
ATOM      1 CL   UNL     1      22.710  42.516  49.178  0.00  0.00    +0.000 Cl
ATOM      2  C   UNL     1      22.569  41.533  47.754  0.00  0.00    +0.000 A 
ATOM      3  C   UNL     1      23.477  40.498  47.474  0.00  0.00    +0.000 A 
ATOM      4  C   UNL     1      21.518  41.810  46.868  0.00  0.00    +0.000 A 
ATOM      5 CL   UNL     1      24.766  40.135  48.579  0.00  0.00    +0.000 Cl
ATOM      6  C   UNL     1      23.327  39.760  46.291  0.00  0.00    +0.000 A 
ATOM      7  C   UNL     1      21.363  41.053  45.709  0.00  0.00    +0.000 A 
ATOM      8 CL   UNL     1      24.410  38.488  45.844  0.00  0.00    +0.000 Cl
ATOM      9  C   UNL     1      22.280  40.041  45.407  0.00  0.00    +0.000 A 
ENDROOT
BRANCH   7  10
ATOM     10  S   UNL     1      20.062  41.404  44.563  0.00  0.00    +0.000 S 
ATOM     11  O   UNL     1      19.694  42.792  44.753  0.00  0.00    +0.000 OA
ATOM     12  O   UNL     1      20.463  40.925  43.252  0.00  0.00    +0.000 OA
BRANCH  10  13
ATOM     13  N   UNL     1      18.800  40.405  45.031  0.00  0.00    +0.000 NA
ATOM     14  C   UNL     1      17.390  40.609  44.620  0.00  0.00    +0.000 C 
ATOM     15  C   UNL     1      18.804  39.964  46.449  0.00  0.00    +0.000 C 
ATOM     16  C   UNL     1      16.708  41.058  45.911  0.00  0.00    +0.000 C 
ATOM     17  C   UNL     1      17.411  40.260  46.994  0.00  0.00    +0.000 C 
BRANCH  14  18
ATOM     18  C   UNL     1      16.918  41.453  43.457  0.00  0.00    +0.000 C 
ATOM     19  O   UNL     1      16.698  40.977  42.348  0.00  0.00    +0.000 OA
ATOM     20  O   UNL     1      16.677  42.757  43.700  0.00  0.00    +0.000 OA
ENDBRANCH  14  18
ENDBRANCH  10  13
ENDBRANCH   7  10
BRANCH   4  21
ATOM     21  O   UNL     1      20.636  42.825  47.142  0.00  0.00    +0.000 OA
ATOM     22  H   UNL     1      20.027  42.737  47.849  0.00  0.00    +0.000 HD
ENDBRANCH   4  21
TORSDOF 4
ENDMDL
MODEL 8
REMARK VINA RESULT:      -6.6      1.904      3.413
REMARK  Name = 347791
REMARK  4 active torsions:
REMARK  status: ('A' for Active; 'I' for Inactive)
REMARK    1  A    between atoms: C_4  and  O_7
REMARK    2  A    between atoms: C_8  and  S_11
REMARK    3  A    between atoms: S_11  and  N_14
REMARK    4  A    between atoms: C_15  and  C_17
REMARK                            x       y       z     vdW  Elec       q    Type
REMARK                         _______ _______ _______ _____ _____    ______ ____
ROOT
ATOM      1 CL   UNL     1      23.053  42.795  49.491  0.00  0.00    +0.000 Cl
ATOM      2  C   UNL     1      22.996  41.801  48.069  0.00  0.00    +0.000 A 
ATOM      3  C   UNL     1      24.151  41.214  47.527  0.00  0.00    +0.000 A 
ATOM      4  C   UNL     1      21.749  41.606  47.455  0.00  0.00    +0.000 A 
ATOM      5 CL   UNL     1      25.692  41.433  48.295  0.00  0.00    +0.000 Cl
ATOM      6  C   UNL     1      24.043  40.447  46.357  0.00  0.00    +0.000 A 
ATOM      7  C   UNL     1      21.650  40.820  46.309  0.00  0.00    +0.000 A 
ATOM      8 CL   UNL     1      25.411  39.710  45.599  0.00  0.00    +0.000 Cl
ATOM      9  C   UNL     1      22.800  40.257  45.746  0.00  0.00    +0.000 A 
ENDROOT
BRANCH   7  10
ATOM     10  S   UNL     1      20.094  40.584  45.503  0.00  0.00    +0.000 S 
ATOM     11  O   UNL     1      20.302  39.601  44.460  0.00  0.00    +0.000 OA
ATOM     12  O   UNL     1      19.077  40.370  46.518  0.00  0.00    +0.000 OA
BRANCH  10  13
ATOM     13  N   UNL     1      19.734  42.074  44.826  0.00  0.00    +0.000 NA
ATOM     14  C   UNL     1      18.529  42.868  45.169  0.00  0.00    +0.000 C 
ATOM     15  C   UNL     1      19.967  42.205  43.365  0.00  0.00    +0.000 C 
ATOM     16  C   UNL     1      17.672  42.770  43.908  0.00  0.00    +0.000 C 
ATOM     17  C   UNL     1      18.683  42.780  42.775  0.00  0.00    +0.000 C 
BRANCH  14  18
ATOM     18  C   UNL     1      17.670  42.689  46.401  0.00  0.00    +0.000 C 
ATOM     19  O   UNL     1      17.963  43.189  47.482  0.00  0.00    +0.000 OA
ATOM     20  O   UNL     1      16.517  42.007  46.254  0.00  0.00    +0.000 OA
ENDBRANCH  14  18
ENDBRANCH  10  13
ENDBRANCH   7  10
BRANCH   4  21
ATOM     21  O   UNL     1      20.624  42.185  47.984  0.00  0.00    +0.000 OA
ATOM     22  H   UNL     1      20.447  42.112  48.902  0.00  0.00    +0.000 HD
ENDBRANCH   4  21
TORSDOF 4
ENDMDL
MODEL 9
REMARK VINA RESULT:      -6.6      2.334      3.676
REMARK  Name = 347791
REMARK  4 active torsions:
REMARK  status: ('A' for Active; 'I' for Inactive)
REMARK    1  A    between atoms: C_4  and  O_7
REMARK    2  A    between atoms: C_8  and  S_11
REMARK    3  A    between atoms: S_11  and  N_14
REMARK    4  A    between atoms: C_15  and  C_17
REMARK                            x       y       z     vdW  Elec       q    Type
REMARK                         _______ _______ _______ _____ _____    ______ ____
ROOT
ATOM      1 CL   UNL     1      21.786  42.062  47.952  0.00  0.00    +0.000 Cl
ATOM      2  C   UNL     1      21.043  41.169  46.662  0.00  0.00    +0.000 A 
ATOM      3  C   UNL     1      21.768  40.753  45.533  0.00  0.00    +0.000 A 
ATOM      4  C   UNL     1      19.674  40.880  46.768  0.00  0.00    +0.000 A 
ATOM      5 CL   UNL     1      23.467  41.088  45.407  0.00  0.00    +0.000 Cl
ATOM      6  C   UNL     1      21.102  40.063  44.510  0.00  0.00    +0.000 A 
ATOM      7  C   UNL     1      19.029  40.170  45.758  0.00  0.00    +0.000 A 
ATOM      8 CL   UNL     1      21.902  39.537  43.070  0.00  0.00    +0.000 Cl
ATOM      9  C   UNL     1      19.737  39.779  44.617  0.00  0.00    +0.000 A 
ENDROOT
BRANCH   7  10
ATOM     10  S   UNL     1      17.298  39.820  45.858  0.00  0.00    +0.000 S 
ATOM     11  O   UNL     1      16.994  38.887  44.793  0.00  0.00    +0.000 OA
ATOM     12  O   UNL     1      16.974  39.492  47.235  0.00  0.00    +0.000 OA
BRANCH  10  13
ATOM     13  N   UNL     1      16.548  41.290  45.567  0.00  0.00    +0.000 NA
ATOM     14  C   UNL     1      16.692  42.054  44.303  0.00  0.00    +0.000 C 
ATOM     15  C   UNL     1      16.547  42.261  46.690  0.00  0.00    +0.000 C 
ATOM     16  C   UNL     1      17.537  43.258  44.714  0.00  0.00    +0.000 C 
ATOM     17  C   UNL     1      17.062  43.578  46.120  0.00  0.00    +0.000 C 
BRANCH  14  18
ATOM     18  C   UNL     1      17.176  41.500  42.982  0.00  0.00    +0.000 C 
ATOM     19  O   UNL     1      16.507  40.718  42.314  0.00  0.00    +0.000 OA
ATOM     20  O   UNL     1      18.358  41.953  42.520  0.00  0.00    +0.000 OA
ENDBRANCH  14  18
ENDBRANCH  10  13
ENDBRANCH   7  10
BRANCH   4  21
ATOM     21  O   UNL     1      18.967  41.292  47.869  0.00  0.00    +0.000 OA
ATOM     22  H   UNL     1      18.102  41.639  47.768  0.00  0.00    +0.000 HD
ENDBRANCH   4  21
TORSDOF 4
ENDMDL
