MODEL 1
REMARK VINA RESULT:      -8.1      0.000      0.000
REMARK  Name = 347529
REMARK  4 active torsions:
REMARK  status: ('A' for Active; 'I' for Inactive)
REMARK    1  A    between atoms: C_3  and  O_5
REMARK    2  A    between atoms: C_6  and  S_8
REMARK    3  A    between atoms: S_8  and  N_13
REMARK    4  A    between atoms: C_14  and  C_16
REMARK                            x       y       z     vdW  Elec       q    Type
REMARK                         _______ _______ _______ _____ _____    ______ ____
ROOT
ATOM      1  S   UNL     1      20.191  42.002  45.310  0.00  0.00    +0.000 S 
ATOM      2  O   UNL     1      19.712  43.211  45.933  0.00  0.00    +0.000 OA
ATOM      3  O   UNL     1      20.563  42.004  43.906  0.00  0.00    +0.000 OA
ENDROOT
BRANCH   1   8
ATOM      4 CL   UNL     1      24.195  38.385  46.136  0.00  0.00    +0.000 Cl
ATOM      5  C   UNL     1      23.325  39.796  46.617  0.00  0.00    +0.000 A 
ATOM      6  C   UNL     1      22.226  40.235  45.872  0.00  0.00    +0.000 A 
ATOM      7  C   UNL     1      23.741  40.495  47.749  0.00  0.00    +0.000 A 
ATOM      8  C   UNL     1      21.537  41.381  46.275  0.00  0.00    +0.000 A 
ATOM      9  C   UNL     1      23.029  41.621  48.155  0.00  0.00    +0.000 A 
ATOM     10  C   UNL     1      21.919  42.062  47.437  0.00  0.00    +0.000 A 
ATOM     11 CL   UNL     1      23.534  42.484  49.554  0.00  0.00    +0.000 Cl
BRANCH   6  12
ATOM     12  O   UNL     1      21.842  39.549  44.753  0.00  0.00    +0.000 OA
ATOM     13  H   UNL     1      21.559  38.658  44.823  0.00  0.00    +0.000 HD
ENDBRANCH   6  12
ENDBRANCH   1   8
BRANCH   1  14
ATOM     14  N   UNL     1      19.034  40.794  45.446  0.00  0.00    +0.000 NA
ATOM     15  C   UNL     1      17.748  40.805  44.710  0.00  0.00    +0.000 C 
ATOM     16  C   UNL     1      18.822  40.196  46.778  0.00  0.00    +0.000 C 
ATOM     17  C   UNL     1      16.696  40.882  45.813  0.00  0.00    +0.000 C 
ATOM     18  C   UNL     1      17.318  40.181  47.007  0.00  0.00    +0.000 C 
BRANCH  15  19
ATOM     19  C   UNL     1      17.442  41.804  43.611  0.00  0.00    +0.000 C 
ATOM     20  O   UNL     1      17.644  41.562  42.427  0.00  0.00    +0.000 OA
ATOM     21  O   UNL     1      16.915  42.982  43.995  0.00  0.00    +0.000 OA
ENDBRANCH  15  19
ENDBRANCH   1  14
TORSDOF 4
ENDMDL
MODEL 2
REMARK VINA RESULT:      -7.3      3.446      5.912
REMARK  Name = 347529
REMARK  4 active torsions:
REMARK  status: ('A' for Active; 'I' for Inactive)
REMARK    1  A    between atoms: C_3  and  O_5
REMARK    2  A    between atoms: C_6  and  S_8
REMARK    3  A    between atoms: S_8  and  N_13
REMARK    4  A    between atoms: C_14  and  C_16
REMARK                            x       y       z     vdW  Elec       q    Type
REMARK                         _______ _______ _______ _____ _____    ______ ____
ROOT
ATOM      1  S   UNL     1      21.070  42.106  46.509  0.00  0.00    +0.000 S 
ATOM      2  O   UNL     1      21.554  43.245  45.769  0.00  0.00    +0.000 OA
ATOM      3  O   UNL     1      21.238  42.048  47.951  0.00  0.00    +0.000 OA
ENDROOT
BRANCH   1   8
ATOM      4 CL   UNL     1      16.475  39.169  46.746  0.00  0.00    +0.000 Cl
ATOM      5  C   UNL     1      17.328  40.582  46.241  0.00  0.00    +0.000 A 
ATOM      6  C   UNL     1      18.692  40.719  46.518  0.00  0.00    +0.000 A 
ATOM      7  C   UNL     1      16.636  41.584  45.565  0.00  0.00    +0.000 A 
ATOM      8  C   UNL     1      19.364  41.871  46.105  0.00  0.00    +0.000 A 
ATOM      9  C   UNL     1      17.324  42.717  45.134  0.00  0.00    +0.000 A 
ATOM     10  C   UNL     1      18.687  42.862  45.384  0.00  0.00    +0.000 A 
ATOM     11 CL   UNL     1      16.477  43.955  44.294  0.00  0.00    +0.000 Cl
BRANCH   6  12
ATOM     12  O   UNL     1      19.352  39.734  47.200  0.00  0.00    +0.000 OA
ATOM     13  H   UNL     1      19.828  39.077  46.730  0.00  0.00    +0.000 HD
ENDBRANCH   6  12
ENDBRANCH   1   8
BRANCH   1  14
ATOM     14  N   UNL     1      21.795  40.704  45.936  0.00  0.00    +0.000 NA
ATOM     15  C   UNL     1      23.141  40.249  46.354  0.00  0.00    +0.000 C 
ATOM     16  C   UNL     1      21.586  40.357  44.517  0.00  0.00    +0.000 C 
ATOM     17  C   UNL     1      23.957  40.288  45.065  0.00  0.00    +0.000 C 
ATOM     18  C   UNL     1      22.959  40.019  43.953  0.00  0.00    +0.000 C 
BRANCH  15  19
ATOM     19  C   UNL     1      23.908  40.896  47.490  0.00  0.00    +0.000 C 
ATOM     20  O   UNL     1      24.529  41.942  47.355  0.00  0.00    +0.000 OA
ATOM     21  O   UNL     1      23.863  40.269  48.682  0.00  0.00    +0.000 OA
ENDBRANCH  15  19
ENDBRANCH   1  14
TORSDOF 4
ENDMDL
MODEL 3
REMARK VINA RESULT:      -7.0      2.346      3.060
REMARK  Name = 347529
REMARK  4 active torsions:
REMARK  status: ('A' for Active; 'I' for Inactive)
REMARK    1  A    between atoms: C_3  and  O_5
REMARK    2  A    between atoms: C_6  and  S_8
REMARK    3  A    between atoms: S_8  and  N_13
REMARK    4  A    between atoms: C_14  and  C_16
REMARK                            x       y       z     vdW  Elec       q    Type
REMARK                         _______ _______ _______ _____ _____    ______ ____
ROOT
ATOM      1  S   UNL     1      17.482  39.548  45.407  0.00  0.00    +0.000 S 
ATOM      2  O   UNL     1      17.267  38.874  44.151  0.00  0.00    +0.000 OA
ATOM      3  O   UNL     1      17.117  38.899  46.655  0.00  0.00    +0.000 OA
ENDROOT
BRANCH   1   8
ATOM      4 CL   UNL     1      22.428  39.981  43.139  0.00  0.00    +0.000 Cl
ATOM      5  C   UNL     1      21.352  40.268  44.458  0.00  0.00    +0.000 A 
ATOM      6  C   UNL     1      20.033  39.807  44.405  0.00  0.00    +0.000 A 
ATOM      7  C   UNL     1      21.813  40.975  45.567  0.00  0.00    +0.000 A 
ATOM      8  C   UNL     1      19.176  40.053  45.479  0.00  0.00    +0.000 A 
ATOM      9  C   UNL     1      20.956  41.190  46.643  0.00  0.00    +0.000 A 
ATOM     10  C   UNL     1      19.644  40.720  46.617  0.00  0.00    +0.000 A 
ATOM     11 CL   UNL     1      21.521  42.056  48.017  0.00  0.00    +0.000 Cl
BRANCH   6  12
ATOM     12  O   UNL     1      19.589  39.132  43.301  0.00  0.00    +0.000 OA
ATOM     13  H   UNL     1      20.194  38.885  42.628  0.00  0.00    +0.000 HD
ENDBRANCH   6  12
ENDBRANCH   1   8
BRANCH   1  14
ATOM     14  N   UNL     1      16.648  41.006  45.421  0.00  0.00    +0.000 NA
ATOM     15  C   UNL     1      16.667  41.970  44.297  0.00  0.00    +0.000 C 
ATOM     16  C   UNL     1      16.592  41.749  46.694  0.00  0.00    +0.000 C 
ATOM     17  C   UNL     1      17.321  43.213  44.892  0.00  0.00    +0.000 C 
ATOM     18  C   UNL     1      16.956  43.190  46.365  0.00  0.00    +0.000 C 
BRANCH  15  19
ATOM     19  C   UNL     1      17.273  41.642  42.946  0.00  0.00    +0.000 C 
ATOM     20  O   UNL     1      18.425  41.936  42.653  0.00  0.00    +0.000 OA
ATOM     21  O   UNL     1      16.484  40.988  42.073  0.00  0.00    +0.000 OA
ENDBRANCH  15  19
ENDBRANCH   1  14
TORSDOF 4
ENDMDL
MODEL 4
REMARK VINA RESULT:      -7.0      0.745      2.283
REMARK  Name = 347529
REMARK  4 active torsions:
REMARK  status: ('A' for Active; 'I' for Inactive)
REMARK    1  A    between atoms: C_3  and  O_5
REMARK    2  A    between atoms: C_6  and  S_8
REMARK    3  A    between atoms: S_8  and  N_13
REMARK    4  A    between atoms: C_14  and  C_16
REMARK                            x       y       z     vdW  Elec       q    Type
REMARK                         _______ _______ _______ _____ _____    ______ ____
ROOT
ATOM      1  S   UNL     1      20.427  41.560  44.725  0.00  0.00    +0.000 S 
ATOM      2  O   UNL     1      20.107  42.937  45.006  0.00  0.00    +0.000 OA
ATOM      3  O   UNL     1      20.722  41.142  43.365  0.00  0.00    +0.000 OA
ENDROOT
BRANCH   1   8
ATOM      4 CL   UNL     1      23.370  42.212  49.275  0.00  0.00    +0.000 Cl
ATOM      5  C   UNL     1      23.029  41.348  47.820  0.00  0.00    +0.000 A 
ATOM      6  C   UNL     1      22.016  41.787  46.961  0.00  0.00    +0.000 A 
ATOM      7  C   UNL     1      23.767  40.205  47.523  0.00  0.00    +0.000 A 
ATOM      8  C   UNL     1      21.751  41.072  45.791  0.00  0.00    +0.000 A 
ATOM      9  C   UNL     1      23.511  39.516  46.339  0.00  0.00    +0.000 A 
ATOM     10  C   UNL     1      22.519  39.950  45.461  0.00  0.00    +0.000 A 
ATOM     11 CL   UNL     1      24.422  38.108  45.963  0.00  0.00    +0.000 Cl
BRANCH   6  12
ATOM     12  O   UNL     1      21.287  42.900  47.277  0.00  0.00    +0.000 OA
ATOM     13  H   UNL     1      20.370  42.824  47.458  0.00  0.00    +0.000 HD
ENDBRANCH   6  12
ENDBRANCH   1   8
BRANCH   1  14
ATOM     14  N   UNL     1      19.161  40.570  45.212  0.00  0.00    +0.000 NA
ATOM     15  C   UNL     1      17.777  40.698  44.698  0.00  0.00    +0.000 C 
ATOM     16  C   UNL     1      19.113  40.168  46.630  0.00  0.00    +0.000 C 
ATOM     17  C   UNL     1      16.960  41.064  45.933  0.00  0.00    +0.000 C 
ATOM     18  C   UNL     1      17.686  40.414  47.098  0.00  0.00    +0.000 C 
BRANCH  15  19
ATOM     19  C   UNL     1      17.416  41.600  43.534  0.00  0.00    +0.000 C 
ATOM     20  O   UNL     1      17.556  41.258  42.367  0.00  0.00    +0.000 OA
ATOM     21  O   UNL     1      16.910  42.810  43.841  0.00  0.00    +0.000 OA
ENDBRANCH  15  19
ENDBRANCH   1  14
TORSDOF 4
ENDMDL
MODEL 5
REMARK VINA RESULT:      -6.9      3.062      5.252
REMARK  Name = 347529
REMARK  4 active torsions:
REMARK  status: ('A' for Active; 'I' for Inactive)
REMARK    1  A    between atoms: C_3  and  O_5
REMARK    2  A    between atoms: C_6  and  S_8
REMARK    3  A    between atoms: S_8  and  N_13
REMARK    4  A    between atoms: C_14  and  C_16
REMARK                            x       y       z     vdW  Elec       q    Type
REMARK                         _______ _______ _______ _____ _____    ______ ____
ROOT
ATOM      1  S   UNL     1      20.013  40.748  43.909  0.00  0.00    +0.000 S 
ATOM      2  O   UNL     1      19.651  39.864  42.829  0.00  0.00    +0.000 OA
ATOM      3  O   UNL     1      20.506  42.084  43.624  0.00  0.00    +0.000 OA
ENDROOT
BRANCH   1   8
ATOM      4 CL   UNL     1      16.225  38.374  47.041  0.00  0.00    +0.000 Cl
ATOM      5  C   UNL     1      16.988  39.795  46.427  0.00  0.00    +0.000 A 
ATOM      6  C   UNL     1      18.032  39.691  45.502  0.00  0.00    +0.000 A 
ATOM      7  C   UNL     1      16.557  41.042  46.874  0.00  0.00    +0.000 A 
ATOM      8  C   UNL     1      18.641  40.851  45.020  0.00  0.00    +0.000 A 
ATOM      9  C   UNL     1      17.155  42.193  46.365  0.00  0.00    +0.000 A 
ATOM     10  C   UNL     1      18.183  42.109  45.428  0.00  0.00    +0.000 A 
ATOM     11 CL   UNL     1      16.623  43.735  46.909  0.00  0.00    +0.000 Cl
BRANCH   6  12
ATOM     12  O   UNL     1      18.457  38.458  45.088  0.00  0.00    +0.000 OA
ATOM     13  H   UNL     1      18.810  38.350  44.226  0.00  0.00    +0.000 HD
ENDBRANCH   6  12
ENDBRANCH   1   8
BRANCH   1  14
ATOM     14  N   UNL     1      21.212  40.039  44.848  0.00  0.00    +0.000 NA
ATOM     15  C   UNL     1      21.889  40.731  45.969  0.00  0.00    +0.000 C 
ATOM     16  C   UNL     1      22.179  39.156  44.170  0.00  0.00    +0.000 C 
ATOM     17  C   UNL     1      23.347  40.807  45.524  0.00  0.00    +0.000 C 
ATOM     18  C   UNL     1      23.559  39.589  44.643  0.00  0.00    +0.000 C 
BRANCH  15  19
ATOM     19  C   UNL     1      21.425  42.071  46.505  0.00  0.00    +0.000 C 
ATOM     20  O   UNL     1      21.709  43.132  45.965  0.00  0.00    +0.000 OA
ATOM     21  O   UNL     1      20.658  42.045  47.612  0.00  0.00    +0.000 OA
ENDBRANCH  15  19
ENDBRANCH   1  14
TORSDOF 4
ENDMDL
MODEL 6
REMARK VINA RESULT:      -6.8      3.306      5.930
REMARK  Name = 347529
REMARK  4 active torsions:
REMARK  status: ('A' for Active; 'I' for Inactive)
REMARK    1  A    between atoms: C_3  and  O_5
REMARK    2  A    between atoms: C_6  and  S_8
REMARK    3  A    between atoms: S_8  and  N_13
REMARK    4  A    between atoms: C_14  and  C_16
REMARK                            x       y       z     vdW  Elec       q    Type
REMARK                         _______ _______ _______ _____ _____    ______ ____
ROOT
ATOM      1  S   UNL     1      20.718  41.783  46.285  0.00  0.00    +0.000 S 
ATOM      2  O   UNL     1      21.110  42.913  45.479  0.00  0.00    +0.000 OA
ATOM      3  O   UNL     1      20.742  41.878  47.734  0.00  0.00    +0.000 OA
ENDROOT
BRANCH   1   8
ATOM      4 CL   UNL     1      16.868  41.362  42.438  0.00  0.00    +0.000 Cl
ATOM      5  C   UNL     1      17.429  41.047  44.040  0.00  0.00    +0.000 A 
ATOM      6  C   UNL     1      18.676  41.525  44.457  0.00  0.00    +0.000 A 
ATOM      7  C   UNL     1      16.629  40.304  44.904  0.00  0.00    +0.000 A 
ATOM      8  C   UNL     1      19.115  41.258  45.755  0.00  0.00    +0.000 A 
ATOM      9  C   UNL     1      17.066  40.067  46.205  0.00  0.00    +0.000 A 
ATOM     10  C   UNL     1      18.296  40.552  46.645  0.00  0.00    +0.000 A 
ATOM     11 CL   UNL     1      16.080  39.155  47.278  0.00  0.00    +0.000 Cl
BRANCH   6  12
ATOM     12  O   UNL     1      19.459  42.238  43.590  0.00  0.00    +0.000 OA
ATOM     13  H   UNL     1      19.351  42.130  42.665  0.00  0.00    +0.000 HD
ENDBRANCH   6  12
ENDBRANCH   1   8
BRANCH   1  14
ATOM     14  N   UNL     1      21.691  40.462  45.925  0.00  0.00    +0.000 NA
ATOM     15  C   UNL     1      23.055  40.277  46.473  0.00  0.00    +0.000 C 
ATOM     16  C   UNL     1      21.649  39.936  44.548  0.00  0.00    +0.000 C 
ATOM     17  C   UNL     1      23.952  40.308  45.240  0.00  0.00    +0.000 C 
ATOM     18  C   UNL     1      23.096  39.765  44.110  0.00  0.00    +0.000 C 
BRANCH  15  19
ATOM     19  C   UNL     1      23.624  41.156  47.569  0.00  0.00    +0.000 C 
ATOM     20  O   UNL     1      24.079  42.271  47.350  0.00  0.00    +0.000 OA
ATOM     21  O   UNL     1      23.592  40.659  48.820  0.00  0.00    +0.000 OA
ENDBRANCH  15  19
ENDBRANCH   1  14
TORSDOF 4
ENDMDL
MODEL 7
REMARK VINA RESULT:      -6.5      3.228      5.725
REMARK  Name = 347529
REMARK  4 active torsions:
REMARK  status: ('A' for Active; 'I' for Inactive)
REMARK    1  A    between atoms: C_3  and  O_5
REMARK    2  A    between atoms: C_6  and  S_8
REMARK    3  A    between atoms: S_8  and  N_13
REMARK    4  A    between atoms: C_14  and  C_16
REMARK                            x       y       z     vdW  Elec       q    Type
REMARK                         _______ _______ _______ _____ _____    ______ ____
ROOT
ATOM      1  S   UNL     1      21.163  40.577  44.200  0.00  0.00    +0.000 S 
ATOM      2  O   UNL     1      21.822  39.420  44.752  0.00  0.00    +0.000 OA
ATOM      3  O   UNL     1      21.483  41.027  42.856  0.00  0.00    +0.000 OA
ENDROOT
BRANCH   1   8
ATOM      4 CL   UNL     1      16.756  39.232  47.127  0.00  0.00    +0.000 Cl
ATOM      5  C   UNL     1      17.469  39.771  45.650  0.00  0.00    +0.000 A 
ATOM      6  C   UNL     1      18.858  39.896  45.542  0.00  0.00    +0.000 A 
ATOM      7  C   UNL     1      16.642  40.090  44.576  0.00  0.00    +0.000 A 
ATOM      8  C   UNL     1      19.416  40.338  44.341  0.00  0.00    +0.000 A 
ATOM      9  C   UNL     1      17.213  40.504  43.374  0.00  0.00    +0.000 A 
ATOM     10  C   UNL     1      18.596  40.615  43.242  0.00  0.00    +0.000 A 
ATOM     11 CL   UNL     1      16.197  40.894  42.043  0.00  0.00    +0.000 Cl
BRANCH   6  12
ATOM     12  O   UNL     1      19.656  39.597  46.613  0.00  0.00    +0.000 OA
ATOM     13  H   UNL     1      19.342  39.738  47.485  0.00  0.00    +0.000 HD
ENDBRANCH   6  12
ENDBRANCH   1   8
BRANCH   1  14
ATOM     14  N   UNL     1      21.445  41.913  45.178  0.00  0.00    +0.000 NA
ATOM     15  C   UNL     1      22.269  41.867  46.408  0.00  0.00    +0.000 C 
ATOM     16  C   UNL     1      20.334  42.863  45.376  0.00  0.00    +0.000 C 
ATOM     17  C   UNL     1      21.285  42.216  47.521  0.00  0.00    +0.000 C 
ATOM     18  C   UNL     1      20.256  43.125  46.873  0.00  0.00    +0.000 C 
BRANCH  15  19
ATOM     19  C   UNL     1      23.103  40.660  46.792  0.00  0.00    +0.000 C 
ATOM     20  O   UNL     1      24.229  40.471  46.352  0.00  0.00    +0.000 OA
ATOM     21  O   UNL     1      22.549  39.797  47.665  0.00  0.00    +0.000 OA
ENDBRANCH  15  19
ENDBRANCH   1  14
TORSDOF 4
ENDMDL
MODEL 8
REMARK VINA RESULT:      -6.5      1.837      2.435
REMARK  Name = 347529
REMARK  4 active torsions:
REMARK  status: ('A' for Active; 'I' for Inactive)
REMARK    1  A    between atoms: C_3  and  O_5
REMARK    2  A    between atoms: C_6  and  S_8
REMARK    3  A    between atoms: S_8  and  N_13
REMARK    4  A    between atoms: C_14  and  C_16
REMARK                            x       y       z     vdW  Elec       q    Type
REMARK                         _______ _______ _______ _____ _____    ______ ____
ROOT
ATOM      1  S   UNL     1      19.788  41.007  46.675  0.00  0.00    +0.000 S 
ATOM      2  O   UNL     1      19.526  39.746  46.027  0.00  0.00    +0.000 OA
ATOM      3  O   UNL     1      18.974  41.432  47.800  0.00  0.00    +0.000 OA
ENDROOT
BRANCH   1   8
ATOM      4 CL   UNL     1      24.977  39.515  45.872  0.00  0.00    +0.000 Cl
ATOM      5  C   UNL     1      23.792  40.407  46.755  0.00  0.00    +0.000 A 
ATOM      6  C   UNL     1      22.439  40.314  46.412  0.00  0.00    +0.000 A 
ATOM      7  C   UNL     1      24.204  41.226  47.804  0.00  0.00    +0.000 A 
ATOM      8  C   UNL     1      21.496  41.046  47.135  0.00  0.00    +0.000 A 
ATOM      9  C   UNL     1      23.250  41.931  48.535  0.00  0.00    +0.000 A 
ATOM     10  C   UNL     1      21.895  41.835  48.220  0.00  0.00    +0.000 A 
ATOM     11 CL   UNL     1      23.751  42.939  49.834  0.00  0.00    +0.000 Cl
BRANCH   6  12
ATOM     12  O   UNL     1      22.053  39.520  45.367  0.00  0.00    +0.000 OA
ATOM     13  H   UNL     1      21.169  39.553  45.056  0.00  0.00    +0.000 HD
ENDBRANCH   6  12
ENDBRANCH   1   8
BRANCH   1  14
ATOM     14  N   UNL     1      19.665  42.257  45.560  0.00  0.00    +0.000 NA
ATOM     15  C   UNL     1      18.374  42.803  45.082  0.00  0.00    +0.000 C 
ATOM     16  C   UNL     1      20.640  42.285  44.453  0.00  0.00    +0.000 C 
ATOM     17  C   UNL     1      18.374  42.491  43.589  0.00  0.00    +0.000 C 
ATOM     18  C   UNL     1      19.836  42.503  43.180  0.00  0.00    +0.000 C 
BRANCH  15  19
ATOM     19  C   UNL     1      17.044  42.426  45.706  0.00  0.00    +0.000 C 
ATOM     20  O   UNL     1      16.455  41.390  45.425  0.00  0.00    +0.000 OA
ATOM     21  O   UNL     1      16.536  43.285  46.610  0.00  0.00    +0.000 OA
ENDBRANCH  15  19
ENDBRANCH   1  14
TORSDOF 4
ENDMDL
MODEL 9
REMARK VINA RESULT:      -6.4      1.996      2.666
REMARK  Name = 347529
REMARK  4 active torsions:
REMARK  status: ('A' for Active; 'I' for Inactive)
REMARK    1  A    between atoms: C_3  and  O_5
REMARK    2  A    between atoms: C_6  and  S_8
REMARK    3  A    between atoms: S_8  and  N_13
REMARK    4  A    between atoms: C_14  and  C_16
REMARK                            x       y       z     vdW  Elec       q    Type
REMARK                         _______ _______ _______ _____ _____    ______ ____
ROOT
ATOM      1  S   UNL     1      18.990  40.273  45.764  0.00  0.00    +0.000 S 
ATOM      2  O   UNL     1      18.905  38.900  45.330  0.00  0.00    +0.000 OA
ATOM      3  O   UNL     1      18.172  40.740  46.870  0.00  0.00    +0.000 OA
ENDROOT
BRANCH   1   8
ATOM      4 CL   UNL     1      24.216  40.453  44.197  0.00  0.00    +0.000 Cl
ATOM      5  C   UNL     1      22.993  40.750  45.378  0.00  0.00    +0.000 A 
ATOM      6  C   UNL     1      21.665  40.392  45.123  0.00  0.00    +0.000 A 
ATOM      7  C   UNL     1      23.345  41.361  46.579  0.00  0.00    +0.000 A 
ATOM      8  C   UNL     1      20.688  40.645  46.089  0.00  0.00    +0.000 A 
ATOM      9  C   UNL     1      22.367  41.583  47.545  0.00  0.00    +0.000 A 
ATOM     10  C   UNL     1      21.042  41.215  47.317  0.00  0.00    +0.000 A 
ATOM     11 CL   UNL     1      22.797  42.331  49.032  0.00  0.00    +0.000 Cl
BRANCH   6  12
ATOM     12  O   UNL     1      21.331  39.811  43.930  0.00  0.00    +0.000 OA
ATOM     13  H   UNL     1      20.450  39.865  43.614  0.00  0.00    +0.000 HD
ENDBRANCH   6  12
ENDBRANCH   1   8
BRANCH   1  14
ATOM     14  N   UNL     1      18.612  41.297  44.488  0.00  0.00    +0.000 NA
ATOM     15  C   UNL     1      18.075  42.666  44.669  0.00  0.00    +0.000 C 
ATOM     16  C   UNL     1      18.007  40.696  43.284  0.00  0.00    +0.000 C 
ATOM     17  C   UNL     1      16.692  42.604  44.029  0.00  0.00    +0.000 C 
ATOM     18  C   UNL     1      16.806  41.562  42.931  0.00  0.00    +0.000 C 
BRANCH  15  19
ATOM     19  C   UNL     1      18.008  43.347  46.022  0.00  0.00    +0.000 C 
ATOM     20  O   UNL     1      18.990  43.841  46.561  0.00  0.00    +0.000 OA
ATOM     21  O   UNL     1      16.797  43.404  46.609  0.00  0.00    +0.000 OA
ENDBRANCH  15  19
ENDBRANCH   1  14
TORSDOF 4
ENDMDL
