MODEL 1
REMARK VINA RESULT:      -8.1      0.000      0.000
REMARK  Name = 348377
REMARK  6 active torsions:
REMARK  status: ('A' for Active; 'I' for Inactive)
REMARK    1  A    between atoms: C_3  and  C_6
REMARK    2  A    between atoms: C_7  and  S_9
REMARK    3  A    between atoms: C_8  and  N_10
REMARK    4  A    between atoms: S_9  and  N_13
REMARK    5  A    between atoms: C_14  and  C_18
REMARK    6  A    between atoms: C_15  and  C_19
REMARK                            x       y       z     vdW  Elec       q    Type
REMARK                         _______ _______ _______ _____ _____    ______ ____
ROOT
ATOM      1 CL   UNL     1      24.061  42.527  50.111  0.00  0.00    +0.000 Cl
ATOM      2  C   UNL     1      23.376  42.036  48.606  0.00  0.00    +0.000 A 
ATOM      3  C   UNL     1      24.128  41.429  47.605  0.00  0.00    +0.000 A 
ATOM      4  C   UNL     1      22.021  42.285  48.402  0.00  0.00    +0.000 A 
ATOM      5  C   UNL     1      23.489  41.094  46.397  0.00  0.00    +0.000 A 
ATOM      6  C   UNL     1      25.597  41.125  47.702  0.00  0.00    +0.000 C 
ATOM      7  C   UNL     1      21.401  41.966  47.177  0.00  0.00    +0.000 A 
ATOM      8  C   UNL     1      22.145  41.400  46.127  0.00  0.00    +0.000 A 
ENDROOT
BRANCH   8   9
ATOM      9  N   UNL     1      21.622  41.132  44.829  0.00  0.00    +0.000 N 
ATOM     10  C   UNL     1      21.834  39.955  44.113  0.00  0.00    +0.000 C 
ATOM     11  O   UNL     1      22.618  39.058  44.411  0.00  0.00    +0.000 OA
ATOM     12  C   UNL     1      21.027  39.830  42.848  0.00  0.00    +0.000 C 
ATOM     13  H   UNL     1      21.070  41.830  44.407  0.00  0.00    +0.000 HD
ENDBRANCH   8   9
BRANCH   7  14
ATOM     14  S   UNL     1      19.723  42.518  47.038  0.00  0.00    +0.000 S 
ATOM     15  O   UNL     1      19.241  42.664  48.389  0.00  0.00    +0.000 OA
ATOM     16  O   UNL     1      19.660  43.624  46.101  0.00  0.00    +0.000 OA
BRANCH  14  17
ATOM     17  N   UNL     1      18.910  41.228  46.315  0.00  0.00    +0.000 NA
ATOM     18  C   UNL     1      18.109  41.315  45.068  0.00  0.00    +0.000 C 
ATOM     19  C   UNL     1      18.232  40.243  47.207  0.00  0.00    +0.000 C 
ATOM     20  C   UNL     1      16.677  41.133  45.578  0.00  0.00    +0.000 C 
ATOM     21  C   UNL     1      16.813  40.082  46.667  0.00  0.00    +0.000 C 
BRANCH  18  22
ATOM     22  C   UNL     1      18.162  42.415  44.037  0.00  0.00    +0.000 C 
ATOM     23  O   UNL     1      19.091  42.521  43.243  0.00  0.00    +0.000 OA
ATOM     24  O   UNL     1      17.097  43.233  43.957  0.00  0.00    +0.000 OA
ENDBRANCH  18  22
ENDBRANCH  14  17
ENDBRANCH   7  14
TORSDOF 4
ENDMDL
MODEL 2
REMARK VINA RESULT:      -7.9      2.055      3.479
REMARK  Name = 348377
REMARK  6 active torsions:
REMARK  status: ('A' for Active; 'I' for Inactive)
REMARK    1  A    between atoms: C_3  and  C_6
REMARK    2  A    between atoms: C_7  and  S_9
REMARK    3  A    between atoms: C_8  and  N_10
REMARK    4  A    between atoms: S_9  and  N_13
REMARK    5  A    between atoms: C_14  and  C_18
REMARK    6  A    between atoms: C_15  and  C_19
REMARK                            x       y       z     vdW  Elec       q    Type
REMARK                         _______ _______ _______ _____ _____    ______ ____
ROOT
ATOM      1 CL   UNL     1      24.325  39.106  46.689  0.00  0.00    +0.000 Cl
ATOM      2  C   UNL     1      23.069  40.284  46.595  0.00  0.00    +0.000 A 
ATOM      3  C   UNL     1      22.863  41.238  47.588  0.00  0.00    +0.000 A 
ATOM      4  C   UNL     1      22.231  40.247  45.484  0.00  0.00    +0.000 A 
ATOM      5  C   UNL     1      21.791  42.138  47.441  0.00  0.00    +0.000 A 
ATOM      6  C   UNL     1      23.688  41.366  48.838  0.00  0.00    +0.000 C 
ATOM      7  C   UNL     1      21.146  41.140  45.363  0.00  0.00    +0.000 A 
ATOM      8  C   UNL     1      20.880  42.081  46.372  0.00  0.00    +0.000 A 
ENDROOT
BRANCH   8   9
ATOM      9  N   UNL     1      19.755  42.955  46.376  0.00  0.00    +0.000 N 
ATOM     10  C   UNL     1      18.988  43.261  47.498  0.00  0.00    +0.000 C 
ATOM     11  O   UNL     1      19.058  42.710  48.594  0.00  0.00    +0.000 OA
ATOM     12  C   UNL     1      17.971  44.352  47.293  0.00  0.00    +0.000 C 
ATOM     13  H   UNL     1      19.503  43.376  45.522  0.00  0.00    +0.000 HD
ENDBRANCH   8   9
BRANCH   7  14
ATOM     14  S   UNL     1      20.090  40.826  43.975  0.00  0.00    +0.000 S 
ATOM     15  O   UNL     1      19.689  42.121  43.482  0.00  0.00    +0.000 OA
ATOM     16  O   UNL     1      20.726  39.861  43.099  0.00  0.00    +0.000 OA
BRANCH  14  17
ATOM     17  N   UNL     1      18.737  40.062  44.634  0.00  0.00    +0.000 NA
ATOM     18  C   UNL     1      17.330  40.481  44.417  0.00  0.00    +0.000 C 
ATOM     19  C   UNL     1      18.836  39.552  46.032  0.00  0.00    +0.000 C 
ATOM     20  C   UNL     1      16.928  41.025  45.791  0.00  0.00    +0.000 C 
ATOM     21  C   UNL     1      17.602  40.073  46.766  0.00  0.00    +0.000 C 
BRANCH  18  22
ATOM     22  C   UNL     1      16.816  41.387  43.325  0.00  0.00    +0.000 C 
ATOM     23  O   UNL     1      16.495  40.960  42.221  0.00  0.00    +0.000 OA
ATOM     24  O   UNL     1      16.634  42.683  43.637  0.00  0.00    +0.000 OA
ENDBRANCH  18  22
ENDBRANCH  14  17
ENDBRANCH   7  14
TORSDOF 4
ENDMDL
MODEL 3
REMARK VINA RESULT:      -7.8      2.363      4.043
REMARK  Name = 348377
REMARK  6 active torsions:
REMARK  status: ('A' for Active; 'I' for Inactive)
REMARK    1  A    between atoms: C_3  and  C_6
REMARK    2  A    between atoms: C_7  and  S_9
REMARK    3  A    between atoms: C_8  and  N_10
REMARK    4  A    between atoms: S_9  and  N_13
REMARK    5  A    between atoms: C_14  and  C_18
REMARK    6  A    between atoms: C_15  and  C_19
REMARK                            x       y       z     vdW  Elec       q    Type
REMARK                         _______ _______ _______ _____ _____    ______ ____
ROOT
ATOM      1 CL   UNL     1      24.954  40.890  46.620  0.00  0.00    +0.000 Cl
ATOM      2  C   UNL     1      23.265  41.238  46.622  0.00  0.00    +0.000 A 
ATOM      3  C   UNL     1      22.616  41.786  47.725  0.00  0.00    +0.000 A 
ATOM      4  C   UNL     1      22.540  40.930  45.473  0.00  0.00    +0.000 A 
ATOM      5  C   UNL     1      21.228  42.004  47.646  0.00  0.00    +0.000 A 
ATOM      6  C   UNL     1      23.285  42.144  49.022  0.00  0.00    +0.000 C 
ATOM      7  C   UNL     1      21.146  41.131  45.419  0.00  0.00    +0.000 A 
ATOM      8  C   UNL     1      20.453  41.635  46.533  0.00  0.00    +0.000 A 
ENDROOT
BRANCH   8   9
ATOM      9  N   UNL     1      19.037  41.782  46.597  0.00  0.00    +0.000 N 
ATOM     10  C   UNL     1      18.366  43.001  46.664  0.00  0.00    +0.000 C 
ATOM     11  O   UNL     1      18.882  44.102  46.841  0.00  0.00    +0.000 OA
ATOM     12  C   UNL     1      16.869  42.908  46.533  0.00  0.00    +0.000 C 
ATOM     13  H   UNL     1      18.494  40.961  46.592  0.00  0.00    +0.000 HD
ENDBRANCH   8   9
BRANCH   7  14
ATOM     14  S   UNL     1      20.373  40.517  43.947  0.00  0.00    +0.000 S 
ATOM     15  O   UNL     1      21.006  41.207  42.850  0.00  0.00    +0.000 OA
ATOM     16  O   UNL     1      20.340  39.068  43.994  0.00  0.00    +0.000 OA
BRANCH  14  17
ATOM     17  N   UNL     1      18.773  41.040  44.056  0.00  0.00    +0.000 NA
ATOM     18  C   UNL     1      17.619  40.184  44.428  0.00  0.00    +0.000 C 
ATOM     19  C   UNL     1      18.288  42.019  43.040  0.00  0.00    +0.000 C 
ATOM     20  C   UNL     1      16.848  40.073  43.110  0.00  0.00    +0.000 C 
ATOM     21  C   UNL     1      16.973  41.460  42.501  0.00  0.00    +0.000 C 
BRANCH  18  22
ATOM     22  C   UNL     1      17.675  38.842  45.116  0.00  0.00    +0.000 C 
ATOM     23  O   UNL     1      17.549  37.788  44.502  0.00  0.00    +0.000 OA
ATOM     24  O   UNL     1      17.963  38.838  46.431  0.00  0.00    +0.000 OA
ENDBRANCH  18  22
ENDBRANCH  14  17
ENDBRANCH   7  14
TORSDOF 4
ENDMDL
MODEL 4
REMARK VINA RESULT:      -7.1      2.868      6.085
REMARK  Name = 348377
REMARK  6 active torsions:
REMARK  status: ('A' for Active; 'I' for Inactive)
REMARK    1  A    between atoms: C_3  and  C_6
REMARK    2  A    between atoms: C_7  and  S_9
REMARK    3  A    between atoms: C_8  and  N_10
REMARK    4  A    between atoms: S_9  and  N_13
REMARK    5  A    between atoms: C_14  and  C_18
REMARK    6  A    between atoms: C_15  and  C_19
REMARK                            x       y       z     vdW  Elec       q    Type
REMARK                         _______ _______ _______ _____ _____    ______ ____
ROOT
ATOM      1 CL   UNL     1      17.920  37.033  44.020  0.00  0.00    +0.000 Cl
ATOM      2  C   UNL     1      18.196  38.489  44.902  0.00  0.00    +0.000 A 
ATOM      3  C   UNL     1      17.430  38.851  46.006  0.00  0.00    +0.000 A 
ATOM      4  C   UNL     1      19.217  39.328  44.460  0.00  0.00    +0.000 A 
ATOM      5  C   UNL     1      17.707  40.076  46.642  0.00  0.00    +0.000 A 
ATOM      6  C   UNL     1      16.295  38.040  46.564  0.00  0.00    +0.000 C 
ATOM      7  C   UNL     1      19.465  40.563  45.092  0.00  0.00    +0.000 A 
ATOM      8  C   UNL     1      18.676  40.981  46.178  0.00  0.00    +0.000 A 
ENDROOT
BRANCH   8   9
ATOM      9  N   UNL     1      18.798  42.250  46.815  0.00  0.00    +0.000 N 
ATOM     10  C   UNL     1      17.839  43.260  46.766  0.00  0.00    +0.000 C 
ATOM     11  O   UNL     1      16.842  43.277  46.048  0.00  0.00    +0.000 OA
ATOM     12  C   UNL     1      18.109  44.433  47.669  0.00  0.00    +0.000 C 
ATOM     13  H   UNL     1      19.619  42.424  47.329  0.00  0.00    +0.000 HD
ENDBRANCH   8   9
BRANCH   7  14
ATOM     14  S   UNL     1      20.679  41.570  44.284  0.00  0.00    +0.000 S 
ATOM     15  O   UNL     1      21.144  40.801  43.156  0.00  0.00    +0.000 OA
ATOM     16  O   UNL     1      20.147  42.907  44.105  0.00  0.00    +0.000 OA
BRANCH  14  17
ATOM     17  N   UNL     1      21.938  41.697  45.400  0.00  0.00    +0.000 NA
ATOM     18  C   UNL     1      22.812  40.578  45.833  0.00  0.00    +0.000 C 
ATOM     19  C   UNL     1      21.735  42.583  46.583  0.00  0.00    +0.000 C 
ATOM     20  C   UNL     1      22.371  40.353  47.282  0.00  0.00    +0.000 C 
ATOM     21  C   UNL     1      22.126  41.758  47.807  0.00  0.00    +0.000 C 
BRANCH  18  22
ATOM     22  C   UNL     1      22.999  39.256  45.131  0.00  0.00    +0.000 C 
ATOM     23  O   UNL     1      22.608  39.065  43.984  0.00  0.00    +0.000 OA
ATOM     24  O   UNL     1      23.699  38.309  45.782  0.00  0.00    +0.000 OA
ENDBRANCH  18  22
ENDBRANCH  14  17
ENDBRANCH   7  14
TORSDOF 4
ENDMDL
MODEL 5
REMARK VINA RESULT:      -7.1      2.855      4.064
REMARK  Name = 348377
REMARK  6 active torsions:
REMARK  status: ('A' for Active; 'I' for Inactive)
REMARK    1  A    between atoms: C_3  and  C_6
REMARK    2  A    between atoms: C_7  and  S_9
REMARK    3  A    between atoms: C_8  and  N_10
REMARK    4  A    between atoms: S_9  and  N_13
REMARK    5  A    between atoms: C_14  and  C_18
REMARK    6  A    between atoms: C_15  and  C_19
REMARK                            x       y       z     vdW  Elec       q    Type
REMARK                         _______ _______ _______ _____ _____    ______ ____
ROOT
ATOM      1 CL   UNL     1      17.162  44.028  46.900  0.00  0.00    +0.000 Cl
ATOM      2  C   UNL     1      18.425  42.857  46.797  0.00  0.00    +0.000 A 
ATOM      3  C   UNL     1      19.233  42.530  47.882  0.00  0.00    +0.000 A 
ATOM      4  C   UNL     1      18.637  42.244  45.564  0.00  0.00    +0.000 A 
ATOM      5  C   UNL     1      20.260  41.587  47.693  0.00  0.00    +0.000 A 
ATOM      6  C   UNL     1      19.111  43.135  49.253  0.00  0.00    +0.000 C 
ATOM      7  C   UNL     1      19.687  41.320  45.385  0.00  0.00    +0.000 A 
ATOM      8  C   UNL     1      20.552  41.007  46.447  0.00  0.00    +0.000 A 
ENDROOT
BRANCH   8   9
ATOM      9  N   UNL     1      21.690  40.158  46.330  0.00  0.00    +0.000 N 
ATOM     10  C   UNL     1      23.006  40.553  46.564  0.00  0.00    +0.000 C 
ATOM     11  O   UNL     1      23.394  41.706  46.740  0.00  0.00    +0.000 OA
ATOM     12  C   UNL     1      24.013  39.435  46.560  0.00  0.00    +0.000 C 
ATOM     13  H   UNL     1      21.535  39.222  46.066  0.00  0.00    +0.000 HD
ENDBRANCH   8   9
BRANCH   7  14
ATOM     14  S   UNL     1      19.912  40.782  43.712  0.00  0.00    +0.000 S 
ATOM     15  O   UNL     1      19.582  41.915  42.883  0.00  0.00    +0.000 OA
ATOM     16  O   UNL     1      21.199  40.122  43.592  0.00  0.00    +0.000 OA
BRANCH  14  17
ATOM     17  N   UNL     1      18.738  39.591  43.485  0.00  0.00    +0.000 NA
ATOM     18  C   UNL     1      17.297  39.849  43.242  0.00  0.00    +0.000 C 
ATOM     19  C   UNL     1      18.832  38.352  44.310  0.00  0.00    +0.000 C 
ATOM     20  C   UNL     1      16.649  39.373  44.545  0.00  0.00    +0.000 C 
ATOM     21  C   UNL     1      17.446  38.132  44.911  0.00  0.00    +0.000 C 
BRANCH  18  22
ATOM     22  C   UNL     1      16.676  41.149  42.793  0.00  0.00    +0.000 C 
ATOM     23  O   UNL     1      16.495  42.086  43.564  0.00  0.00    +0.000 OA
ATOM     24  O   UNL     1      16.407  41.281  41.482  0.00  0.00    +0.000 OA
ENDBRANCH  18  22
ENDBRANCH  14  17
ENDBRANCH   7  14
TORSDOF 4
ENDMDL
MODEL 6
REMARK VINA RESULT:      -7.1      2.987      4.444
REMARK  Name = 348377
REMARK  6 active torsions:
REMARK  status: ('A' for Active; 'I' for Inactive)
REMARK    1  A    between atoms: C_3  and  C_6
REMARK    2  A    between atoms: C_7  and  S_9
REMARK    3  A    between atoms: C_8  and  N_10
REMARK    4  A    between atoms: S_9  and  N_13
REMARK    5  A    between atoms: C_14  and  C_18
REMARK    6  A    between atoms: C_15  and  C_19
REMARK                            x       y       z     vdW  Elec       q    Type
REMARK                         _______ _______ _______ _____ _____    ______ ____
ROOT
ATOM      1 CL   UNL     1      23.069  38.792  44.137  0.00  0.00    +0.000 Cl
ATOM      2  C   UNL     1      22.037  40.078  44.643  0.00  0.00    +0.000 A 
ATOM      3  C   UNL     1      22.511  41.189  45.335  0.00  0.00    +0.000 A 
ATOM      4  C   UNL     1      20.679  39.968  44.354  0.00  0.00    +0.000 A 
ATOM      5  C   UNL     1      21.588  42.172  45.737  0.00  0.00    +0.000 A 
ATOM      6  C   UNL     1      23.947  41.411  45.718  0.00  0.00    +0.000 C 
ATOM      7  C   UNL     1      19.763  40.949  44.785  0.00  0.00    +0.000 A 
ATOM      8  C   UNL     1      20.203  42.057  45.531  0.00  0.00    +0.000 A 
ENDROOT
BRANCH   8   9
ATOM      9  N   UNL     1      19.337  43.045  46.084  0.00  0.00    +0.000 N 
ATOM     10  C   UNL     1      18.925  43.087  47.414  0.00  0.00    +0.000 C 
ATOM     11  O   UNL     1      19.104  42.209  48.255  0.00  0.00    +0.000 OA
ATOM     12  C   UNL     1      18.166  44.327  47.803  0.00  0.00    +0.000 C 
ATOM     13  H   UNL     1      19.007  43.750  45.481  0.00  0.00    +0.000 HD
ENDBRANCH   8   9
BRANCH   7  14
ATOM     14  S   UNL     1      18.064  40.551  44.482  0.00  0.00    +0.000 S 
ATOM     15  O   UNL     1      17.348  41.802  44.530  0.00  0.00    +0.000 OA
ATOM     16  O   UNL     1      17.976  39.688  43.319  0.00  0.00    +0.000 OA
BRANCH  14  17
ATOM     17  N   UNL     1      17.602  39.617  45.809  0.00  0.00    +0.000 NA
ATOM     18  C   UNL     1      17.287  38.167  45.765  0.00  0.00    +0.000 C 
ATOM     19  C   UNL     1      16.690  40.237  46.814  0.00  0.00    +0.000 C 
ATOM     20  C   UNL     1      15.775  38.147  46.002  0.00  0.00    +0.000 C 
ATOM     21  C   UNL     1      15.557  39.237  47.038  0.00  0.00    +0.000 C 
BRANCH  18  22
ATOM     22  C   UNL     1      17.660  37.196  44.673  0.00  0.00    +0.000 C 
ATOM     23  O   UNL     1      18.744  37.243  44.099  0.00  0.00    +0.000 OA
ATOM     24  O   UNL     1      16.788  36.207  44.407  0.00  0.00    +0.000 OA
ENDBRANCH  18  22
ENDBRANCH  14  17
ENDBRANCH   7  14
TORSDOF 4
ENDMDL
MODEL 7
REMARK VINA RESULT:      -6.9      2.976      6.345
REMARK  Name = 348377
REMARK  6 active torsions:
REMARK  status: ('A' for Active; 'I' for Inactive)
REMARK    1  A    between atoms: C_3  and  C_6
REMARK    2  A    between atoms: C_7  and  S_9
REMARK    3  A    between atoms: C_8  and  N_10
REMARK    4  A    between atoms: S_9  and  N_13
REMARK    5  A    between atoms: C_14  and  C_18
REMARK    6  A    between atoms: C_15  and  C_19
REMARK                            x       y       z     vdW  Elec       q    Type
REMARK                         _______ _______ _______ _____ _____    ______ ____
ROOT
ATOM      1 CL   UNL     1      17.679  37.044  44.350  0.00  0.00    +0.000 Cl
ATOM      2  C   UNL     1      17.966  38.528  45.181  0.00  0.00    +0.000 A 
ATOM      3  C   UNL     1      17.049  39.075  46.073  0.00  0.00    +0.000 A 
ATOM      4  C   UNL     1      19.160  39.195  44.917  0.00  0.00    +0.000 A 
ATOM      5  C   UNL     1      17.355  40.308  46.678  0.00  0.00    +0.000 A 
ATOM      6  C   UNL     1      15.724  38.459  46.424  0.00  0.00    +0.000 C 
ATOM      7  C   UNL     1      19.442  40.442  45.512  0.00  0.00    +0.000 A 
ATOM      8  C   UNL     1      18.513  41.046  46.377  0.00  0.00    +0.000 A 
ENDROOT
BRANCH   8   9
ATOM      9  N   UNL     1      18.675  42.341  46.948  0.00  0.00    +0.000 N 
ATOM     10  C   UNL     1      17.748  43.377  46.847  0.00  0.00    +0.000 C 
ATOM     11  O   UNL     1      16.750  43.387  46.130  0.00  0.00    +0.000 OA
ATOM     12  C   UNL     1      18.055  44.586  47.688  0.00  0.00    +0.000 C 
ATOM     13  H   UNL     1      19.502  42.517  47.452  0.00  0.00    +0.000 HD
ENDBRANCH   8   9
BRANCH   7  14
ATOM     14  S   UNL     1      20.920  41.220  44.922  0.00  0.00    +0.000 S 
ATOM     15  O   UNL     1      20.966  40.959  43.504  0.00  0.00    +0.000 OA
ATOM     16  O   UNL     1      20.982  42.576  45.431  0.00  0.00    +0.000 OA
BRANCH  14  17
ATOM     17  N   UNL     1      22.174  40.369  45.663  0.00  0.00    +0.000 NA
ATOM     18  C   UNL     1      22.860  40.778  46.915  0.00  0.00    +0.000 C 
ATOM     19  C   UNL     1      23.199  39.732  44.787  0.00  0.00    +0.000 C 
ATOM     20  C   UNL     1      24.250  41.181  46.417  0.00  0.00    +0.000 C 
ATOM     21  C   UNL     1      24.558  40.156  45.338  0.00  0.00    +0.000 C 
BRANCH  18  22
ATOM     22  C   UNL     1      22.360  41.772  47.934  0.00  0.00    +0.000 C 
ATOM     23  O   UNL     1      21.164  41.925  48.164  0.00  0.00    +0.000 OA
ATOM     24  O   UNL     1      23.285  42.429  48.656  0.00  0.00    +0.000 OA
ENDBRANCH  18  22
ENDBRANCH  14  17
ENDBRANCH   7  14
TORSDOF 4
ENDMDL
MODEL 8
REMARK VINA RESULT:      -6.8      3.107      6.321
REMARK  Name = 348377
REMARK  6 active torsions:
REMARK  status: ('A' for Active; 'I' for Inactive)
REMARK    1  A    between atoms: C_3  and  C_6
REMARK    2  A    between atoms: C_7  and  S_9
REMARK    3  A    between atoms: C_8  and  N_10
REMARK    4  A    between atoms: S_9  and  N_13
REMARK    5  A    between atoms: C_14  and  C_18
REMARK    6  A    between atoms: C_15  and  C_19
REMARK                            x       y       z     vdW  Elec       q    Type
REMARK                         _______ _______ _______ _____ _____    ______ ____
ROOT
ATOM      1 CL   UNL     1      18.884  43.934  42.052  0.00  0.00    +0.000 Cl
ATOM      2  C   UNL     1      18.710  42.425  42.868  0.00  0.00    +0.000 A 
ATOM      3  C   UNL     1      17.753  41.482  42.502  0.00  0.00    +0.000 A 
ATOM      4  C   UNL     1      19.558  42.171  43.944  0.00  0.00    +0.000 A 
ATOM      5  C   UNL     1      17.664  40.293  43.249  0.00  0.00    +0.000 A 
ATOM      6  C   UNL     1      16.775  41.649  41.374  0.00  0.00    +0.000 C 
ATOM      7  C   UNL     1      19.439  40.986  44.698  0.00  0.00    +0.000 A 
ATOM      8  C   UNL     1      18.449  40.038  44.386  0.00  0.00    +0.000 A 
ENDROOT
BRANCH   8   9
ATOM      9  N   UNL     1      18.199  38.860  45.148  0.00  0.00    +0.000 N 
ATOM     10  C   UNL     1      17.004  38.578  45.807  0.00  0.00    +0.000 C 
ATOM     11  O   UNL     1      16.065  39.354  45.966  0.00  0.00    +0.000 OA
ATOM     12  C   UNL     1      16.913  37.192  46.387  0.00  0.00    +0.000 C 
ATOM     13  H   UNL     1      18.924  38.197  45.213  0.00  0.00    +0.000 HD
ENDBRANCH   8   9
BRANCH   7  14
ATOM     14  S   UNL     1      20.479  40.920  46.131  0.00  0.00    +0.000 S 
ATOM     15  O   UNL     1      20.919  42.274  46.364  0.00  0.00    +0.000 OA
ATOM     16  O   UNL     1      19.809  40.166  47.173  0.00  0.00    +0.000 OA
BRANCH  14  17
ATOM     17  N   UNL     1      21.809  40.000  45.650  0.00  0.00    +0.000 NA
ATOM     18  C   UNL     1      23.107  39.937  46.368  0.00  0.00    +0.000 C 
ATOM     19  C   UNL     1      22.106  39.912  44.191  0.00  0.00    +0.000 C 
ATOM     20  C   UNL     1      24.051  40.676  45.415  0.00  0.00    +0.000 C 
ATOM     21  C   UNL     1      23.591  40.234  44.036  0.00  0.00    +0.000 C 
BRANCH  18  22
ATOM     22  C   UNL     1      23.371  40.352  47.794  0.00  0.00    +0.000 C 
ATOM     23  O   UNL     1      23.588  39.534  48.682  0.00  0.00    +0.000 OA
ATOM     24  O   UNL     1      23.452  41.671  48.044  0.00  0.00    +0.000 OA
ENDBRANCH  18  22
ENDBRANCH  14  17
ENDBRANCH   7  14
TORSDOF 4
ENDMDL
MODEL 9
REMARK VINA RESULT:      -6.8      1.565      2.209
REMARK  Name = 348377
REMARK  6 active torsions:
REMARK  status: ('A' for Active; 'I' for Inactive)
REMARK    1  A    between atoms: C_3  and  C_6
REMARK    2  A    between atoms: C_7  and  S_9
REMARK    3  A    between atoms: C_8  and  N_10
REMARK    4  A    between atoms: S_9  and  N_13
REMARK    5  A    between atoms: C_14  and  C_18
REMARK    6  A    between atoms: C_15  and  C_19
REMARK                            x       y       z     vdW  Elec       q    Type
REMARK                         _______ _______ _______ _____ _____    ______ ____
ROOT
ATOM      1 CL   UNL     1      24.246  43.335  50.154  0.00  0.00    +0.000 Cl
ATOM      2  C   UNL     1      23.563  42.334  48.927  0.00  0.00    +0.000 A 
ATOM      3  C   UNL     1      24.340  41.527  48.101  0.00  0.00    +0.000 A 
ATOM      4  C   UNL     1      22.180  42.368  48.761  0.00  0.00    +0.000 A 
ATOM      5  C   UNL     1      23.697  40.770  47.105  0.00  0.00    +0.000 A 
ATOM      6  C   UNL     1      25.838  41.419  48.173  0.00  0.00    +0.000 C 
ATOM      7  C   UNL     1      21.553  41.623  47.742  0.00  0.00    +0.000 A 
ATOM      8  C   UNL     1      22.315  40.838  46.859  0.00  0.00    +0.000 A 
ENDROOT
BRANCH   8   9
ATOM      9  N   UNL     1      21.775  40.129  45.748  0.00  0.00    +0.000 N 
ATOM     10  C   UNL     1      22.408  39.979  44.515  0.00  0.00    +0.000 C 
ATOM     11  O   UNL     1      23.428  40.559  44.151  0.00  0.00    +0.000 OA
ATOM     12  C   UNL     1      21.726  39.033  43.564  0.00  0.00    +0.000 C 
ATOM     13  H   UNL     1      20.889  39.714  45.859  0.00  0.00    +0.000 HD
ENDBRANCH   8   9
BRANCH   7  14
ATOM     14  S   UNL     1      19.816  41.930  47.572  0.00  0.00    +0.000 S 
ATOM     15  O   UNL     1      19.215  40.653  47.273  0.00  0.00    +0.000 OA
ATOM     16  O   UNL     1      19.358  42.721  48.698  0.00  0.00    +0.000 OA
BRANCH  14  17
ATOM     17  N   UNL     1      19.689  42.914  46.208  0.00  0.00    +0.000 NA
ATOM     18  C   UNL     1      18.515  42.969  45.301  0.00  0.00    +0.000 C 
ATOM     19  C   UNL     1      20.906  43.102  45.367  0.00  0.00    +0.000 C 
ATOM     20  C   UNL     1      19.050  42.317  44.023  0.00  0.00    +0.000 C 
ATOM     21  C   UNL     1      20.477  42.832  43.926  0.00  0.00    +0.000 C 
BRANCH  18  22
ATOM     22  C   UNL     1      17.122  42.472  45.598  0.00  0.00    +0.000 C 
ATOM     23  O   UNL     1      16.490  42.850  46.580  0.00  0.00    +0.000 OA
ATOM     24  O   UNL     1      16.552  41.661  44.688  0.00  0.00    +0.000 OA
ENDBRANCH  18  22
ENDBRANCH  14  17
ENDBRANCH   7  14
TORSDOF 4
ENDMDL
