MODEL 1
REMARK VINA RESULT:      -8.1      0.000      0.000
REMARK  Name = 347689
REMARK  4 active torsions:
REMARK  status: ('A' for Active; 'I' for Inactive)
REMARK    1  A    between atoms: C_3  and  O_5
REMARK    2  A    between atoms: C_6  and  S_8
REMARK    3  A    between atoms: S_8  and  N_13
REMARK    4  A    between atoms: C_14  and  C_16
REMARK                            x       y       z     vdW  Elec       q    Type
REMARK                         _______ _______ _______ _____ _____    ______ ____
ROOT
ATOM      1  S   UNL     1      20.436  41.983  46.317  0.00  0.00    +0.000 S 
ATOM      2  O   UNL     1      20.861  42.991  45.373  0.00  0.00    +0.000 OA
ATOM      3  O   UNL     1      20.089  42.369  47.666  0.00  0.00    +0.000 OA
ENDROOT
BRANCH   1   8
ATOM      4 CL   UNL     1      16.710  41.123  42.381  0.00  0.00    +0.000 Cl
ATOM      5  C   UNL     1      17.333  40.791  43.958  0.00  0.00    +0.000 A 
ATOM      6  C   UNL     1      18.532  41.382  44.379  0.00  0.00    +0.000 A 
ATOM      7  C   UNL     1      16.627  39.935  44.797  0.00  0.00    +0.000 A 
ATOM      8  C   UNL     1      19.025  41.113  45.660  0.00  0.00    +0.000 A 
ATOM      9  C   UNL     1      17.125  39.670  46.069  0.00  0.00    +0.000 A 
ATOM     10  C   UNL     1      18.312  40.257  46.512  0.00  0.00    +0.000 A 
ATOM     11 CL   UNL     1      16.256  38.613  47.111  0.00  0.00    +0.000 Cl
BRANCH   6  12
ATOM     12  O   UNL     1      19.227  42.181  43.516  0.00  0.00    +0.000 OA
ATOM     13  H   UNL     1      18.773  42.815  42.996  0.00  0.00    +0.000 HD
ENDBRANCH   6  12
ENDBRANCH   1   8
BRANCH   1  14
ATOM     14  N   UNL     1      21.727  40.821  46.424  0.00  0.00    +0.000 NA
ATOM     15  C   UNL     1      22.654  40.754  45.234  0.00  0.00    +0.000 C 
ATOM     16  C   UNL     1      22.411  40.847  47.757  0.00  0.00    +0.000 C 
ATOM     17  C   UNL     1      23.754  39.701  45.446  0.00  0.00    +0.000 C 
ATOM     18  C   UNL     1      23.485  39.782  47.897  0.00  0.00    +0.000 C 
ATOM     19  C   UNL     1      24.488  39.875  46.761  0.00  0.00    +0.000 C 
BRANCH  15  20
ATOM     20  C   UNL     1      21.927  40.273  43.973  0.00  0.00    +0.000 C 
ATOM     21  O   UNL     1      21.694  40.990  43.010  0.00  0.00    +0.000 OA
ATOM     22  O   UNL     1      21.708  38.933  43.963  0.00  0.00    +0.000 OA
ENDBRANCH  15  20
ENDBRANCH   1  14
TORSDOF 4
ENDMDL
MODEL 2
REMARK VINA RESULT:      -7.9      0.727      2.236
REMARK  Name = 347689
REMARK  4 active torsions:
REMARK  status: ('A' for Active; 'I' for Inactive)
REMARK    1  A    between atoms: C_3  and  O_5
REMARK    2  A    between atoms: C_6  and  S_8
REMARK    3  A    between atoms: S_8  and  N_13
REMARK    4  A    between atoms: C_14  and  C_16
REMARK                            x       y       z     vdW  Elec       q    Type
REMARK                         _______ _______ _______ _____ _____    ______ ____
ROOT
ATOM      1  S   UNL     1      20.282  42.052  46.217  0.00  0.00    +0.000 S 
ATOM      2  O   UNL     1      20.777  43.053  45.298  0.00  0.00    +0.000 OA
ATOM      3  O   UNL     1      19.974  42.425  47.579  0.00  0.00    +0.000 OA
ENDROOT
BRANCH   1   8
ATOM      4 CL   UNL     1      16.139  38.465  46.496  0.00  0.00    +0.000 Cl
ATOM      5  C   UNL     1      17.024  39.674  45.635  0.00  0.00    +0.000 A 
ATOM      6  C   UNL     1      18.088  40.341  46.255  0.00  0.00    +0.000 A 
ATOM      7  C   UNL     1      16.665  39.968  44.323  0.00  0.00    +0.000 A 
ATOM      8  C   UNL     1      18.804  41.312  45.548  0.00  0.00    +0.000 A 
ATOM      9  C   UNL     1      17.379  40.938  43.627  0.00  0.00    +0.000 A 
ATOM     10  C   UNL     1      18.451  41.606  44.223  0.00  0.00    +0.000 A 
ATOM     11 CL   UNL     1      16.940  41.307  42.006  0.00  0.00    +0.000 Cl
BRANCH   6  12
ATOM     12  O   UNL     1      18.388  40.063  47.559  0.00  0.00    +0.000 OA
ATOM     13  H   UNL     1      18.996  39.379  47.765  0.00  0.00    +0.000 HD
ENDBRANCH   6  12
ENDBRANCH   1   8
BRANCH   1  14
ATOM     14  N   UNL     1      21.482  40.793  46.280  0.00  0.00    +0.000 NA
ATOM     15  C   UNL     1      22.403  40.699  45.087  0.00  0.00    +0.000 C 
ATOM     16  C   UNL     1      22.163  40.719  47.612  0.00  0.00    +0.000 C 
ATOM     17  C   UNL     1      23.420  39.559  45.259  0.00  0.00    +0.000 C 
ATOM     18  C   UNL     1      23.153  39.571  47.712  0.00  0.00    +0.000 C 
ATOM     19  C   UNL     1      24.162  39.629  46.579  0.00  0.00    +0.000 C 
BRANCH  15  20
ATOM     20  C   UNL     1      21.644  40.322  43.810  0.00  0.00    +0.000 C 
ATOM     21  O   UNL     1      21.588  41.034  42.818  0.00  0.00    +0.000 OA
ATOM     22  O   UNL     1      21.170  39.049  43.830  0.00  0.00    +0.000 OA
ENDBRANCH  15  20
ENDBRANCH   1  14
TORSDOF 4
ENDMDL
MODEL 3
REMARK VINA RESULT:      -7.9      2.951      5.499
REMARK  Name = 347689
REMARK  4 active torsions:
REMARK  status: ('A' for Active; 'I' for Inactive)
REMARK    1  A    between atoms: C_3  and  O_5
REMARK    2  A    between atoms: C_6  and  S_8
REMARK    3  A    between atoms: S_8  and  N_13
REMARK    4  A    between atoms: C_14  and  C_16
REMARK                            x       y       z     vdW  Elec       q    Type
REMARK                         _______ _______ _______ _____ _____    ______ ____
ROOT
ATOM      1  S   UNL     1      20.481  41.785  44.729  0.00  0.00    +0.000 S 
ATOM      2  O   UNL     1      20.452  43.230  44.702  0.00  0.00    +0.000 OA
ATOM      3  O   UNL     1      20.635  41.051  43.494  0.00  0.00    +0.000 OA
ENDROOT
BRANCH   1   8
ATOM      4 CL   UNL     1      24.158  38.040  46.333  0.00  0.00    +0.000 Cl
ATOM      5  C   UNL     1      23.356  39.554  46.564  0.00  0.00    +0.000 A 
ATOM      6  C   UNL     1      22.442  40.017  45.609  0.00  0.00    +0.000 A 
ATOM      7  C   UNL     1      23.632  40.296  47.707  0.00  0.00    +0.000 A 
ATOM      8  C   UNL     1      21.791  41.239  45.809  0.00  0.00    +0.000 A 
ATOM      9  C   UNL     1      22.984  41.513  47.898  0.00  0.00    +0.000 A 
ATOM     10  C   UNL     1      22.060  41.987  46.964  0.00  0.00    +0.000 A 
ATOM     11 CL   UNL     1      23.320  42.436  49.309  0.00  0.00    +0.000 Cl
BRANCH   6  12
ATOM     12  O   UNL     1      22.226  39.288  44.474  0.00  0.00    +0.000 OA
ATOM     13  H   UNL     1      22.929  39.142  43.871  0.00  0.00    +0.000 HD
ENDBRANCH   6  12
ENDBRANCH   1   8
BRANCH   1  14
ATOM     14  N   UNL     1      18.989  41.267  45.461  0.00  0.00    +0.000 NA
ATOM     15  C   UNL     1      17.936  40.746  44.512  0.00  0.00    +0.000 C 
ATOM     16  C   UNL     1      19.213  40.427  46.680  0.00  0.00    +0.000 C 
ATOM     17  C   UNL     1      16.671  40.314  45.272  0.00  0.00    +0.000 C 
ATOM     18  C   UNL     1      17.922  40.036  47.380  0.00  0.00    +0.000 C 
ATOM     19  C   UNL     1      16.967  39.360  46.411  0.00  0.00    +0.000 C 
BRANCH  15  20
ATOM     20  C   UNL     1      17.436  41.839  43.562  0.00  0.00    +0.000 C 
ATOM     21  O   UNL     1      17.145  42.971  43.923  0.00  0.00    +0.000 OA
ATOM     22  O   UNL     1      17.499  41.477  42.254  0.00  0.00    +0.000 OA
ENDBRANCH  15  20
ENDBRANCH   1  14
TORSDOF 4
ENDMDL
MODEL 4
REMARK VINA RESULT:      -7.8      2.980      5.778
REMARK  Name = 347689
REMARK  4 active torsions:
REMARK  status: ('A' for Active; 'I' for Inactive)
REMARK    1  A    between atoms: C_3  and  O_5
REMARK    2  A    between atoms: C_6  and  S_8
REMARK    3  A    between atoms: S_8  and  N_13
REMARK    4  A    between atoms: C_14  and  C_16
REMARK                            x       y       z     vdW  Elec       q    Type
REMARK                         _______ _______ _______ _____ _____    ______ ____
ROOT
ATOM      1  S   UNL     1      20.761  41.573  44.520  0.00  0.00    +0.000 S 
ATOM      2  O   UNL     1      20.470  42.967  44.770  0.00  0.00    +0.000 OA
ATOM      3  O   UNL     1      21.160  41.155  43.195  0.00  0.00    +0.000 OA
ENDROOT
BRANCH   1   8
ATOM      4 CL   UNL     1      24.386  37.821  46.222  0.00  0.00    +0.000 Cl
ATOM      5  C   UNL     1      23.586  39.339  46.428  0.00  0.00    +0.000 A 
ATOM      6  C   UNL     1      22.695  39.802  45.451  0.00  0.00    +0.000 A 
ATOM      7  C   UNL     1      23.838  40.085  47.575  0.00  0.00    +0.000 A 
ATOM      8  C   UNL     1      22.045  41.027  45.631  0.00  0.00    +0.000 A 
ATOM      9  C   UNL     1      23.191  41.306  47.745  0.00  0.00    +0.000 A 
ATOM     10  C   UNL     1      22.290  41.780  46.788  0.00  0.00    +0.000 A 
ATOM     11 CL   UNL     1      23.499  42.233  49.159  0.00  0.00    +0.000 Cl
BRANCH   6  12
ATOM     12  O   UNL     1      22.502  39.069  44.314  0.00  0.00    +0.000 OA
ATOM     13  H   UNL     1      21.651  39.026  43.923  0.00  0.00    +0.000 HD
ENDBRANCH   6  12
ENDBRANCH   1   8
BRANCH   1  14
ATOM     14  N   UNL     1      19.329  40.678  44.940  0.00  0.00    +0.000 NA
ATOM     15  C   UNL     1      18.132  41.503  45.348  0.00  0.00    +0.000 C 
ATOM     16  C   UNL     1      19.037  39.579  43.965  0.00  0.00    +0.000 C 
ATOM     17  C   UNL     1      16.931  40.606  45.688  0.00  0.00    +0.000 C 
ATOM     18  C   UNL     1      17.838  38.734  44.362  0.00  0.00    +0.000 C 
ATOM     19  C   UNL     1      16.617  39.605  44.593  0.00  0.00    +0.000 C 
BRANCH  15  20
ATOM     20  C   UNL     1      18.390  42.275  46.646  0.00  0.00    +0.000 C 
ATOM     21  O   UNL     1      18.030  43.429  46.832  0.00  0.00    +0.000 OA
ATOM     22  O   UNL     1      18.917  41.502  47.630  0.00  0.00    +0.000 OA
ENDBRANCH  15  20
ENDBRANCH   1  14
TORSDOF 4
ENDMDL
MODEL 5
REMARK VINA RESULT:      -7.8      1.739      3.151
REMARK  Name = 347689
REMARK  4 active torsions:
REMARK  status: ('A' for Active; 'I' for Inactive)
REMARK    1  A    between atoms: C_3  and  O_5
REMARK    2  A    between atoms: C_6  and  S_8
REMARK    3  A    between atoms: S_8  and  N_13
REMARK    4  A    between atoms: C_14  and  C_16
REMARK                            x       y       z     vdW  Elec       q    Type
REMARK                         _______ _______ _______ _____ _____    ______ ____
ROOT
ATOM      1  S   UNL     1      20.682  40.612  44.011  0.00  0.00    +0.000 S 
ATOM      2  O   UNL     1      20.810  39.584  43.004  0.00  0.00    +0.000 OA
ATOM      3  O   UNL     1      20.721  42.003  43.620  0.00  0.00    +0.000 OA
ENDROOT
BRANCH   1   8
ATOM      4 CL   UNL     1      16.441  37.503  45.578  0.00  0.00    +0.000 Cl
ATOM      5  C   UNL     1      17.247  39.031  45.529  0.00  0.00    +0.000 A 
ATOM      6  C   UNL     1      18.517  39.138  44.948  0.00  0.00    +0.000 A 
ATOM      7  C   UNL     1      16.615  40.145  46.072  0.00  0.00    +0.000 A 
ATOM      8  C   UNL     1      19.158  40.380  44.906  0.00  0.00    +0.000 A 
ATOM      9  C   UNL     1      17.260  41.378  46.030  0.00  0.00    +0.000 A 
ATOM     10  C   UNL     1      18.521  41.508  45.445  0.00  0.00    +0.000 A 
ATOM     11 CL   UNL     1      16.485  42.759  46.700  0.00  0.00    +0.000 Cl
BRANCH   6  12
ATOM     12  O   UNL     1      19.132  38.017  44.465  0.00  0.00    +0.000 OA
ATOM     13  H   UNL     1      18.716  37.505  43.798  0.00  0.00    +0.000 HD
ENDBRANCH   6  12
ENDBRANCH   1   8
BRANCH   1  14
ATOM     14  N   UNL     1      21.971  40.357  45.153  0.00  0.00    +0.000 NA
ATOM     15  C   UNL     1      21.610  40.546  46.607  0.00  0.00    +0.000 C 
ATOM     16  C   UNL     1      22.762  39.121  44.854  0.00  0.00    +0.000 C 
ATOM     17  C   UNL     1      22.822  40.287  47.517  0.00  0.00    +0.000 C 
ATOM     18  C   UNL     1      23.943  38.928  45.791  0.00  0.00    +0.000 C 
ATOM     19  C   UNL     1      23.491  38.956  47.240  0.00  0.00    +0.000 C 
BRANCH  15  20
ATOM     20  C   UNL     1      21.226  41.997  46.914  0.00  0.00    +0.000 C 
ATOM     21  O   UNL     1      20.384  42.316  47.742  0.00  0.00    +0.000 OA
ATOM     22  O   UNL     1      22.024  42.902  46.291  0.00  0.00    +0.000 OA
ENDBRANCH  15  20
ENDBRANCH   1  14
TORSDOF 4
ENDMDL
MODEL 6
REMARK VINA RESULT:      -7.7      2.982      5.722
REMARK  Name = 347689
REMARK  4 active torsions:
REMARK  status: ('A' for Active; 'I' for Inactive)
REMARK    1  A    between atoms: C_3  and  O_5
REMARK    2  A    between atoms: C_6  and  S_8
REMARK    3  A    between atoms: S_8  and  N_13
REMARK    4  A    between atoms: C_14  and  C_16
REMARK                            x       y       z     vdW  Elec       q    Type
REMARK                         _______ _______ _______ _____ _____    ______ ____
ROOT
ATOM      1  S   UNL     1      20.743  41.747  44.965  0.00  0.00    +0.000 S 
ATOM      2  O   UNL     1      20.895  43.185  44.960  0.00  0.00    +0.000 OA
ATOM      3  O   UNL     1      20.874  41.012  43.728  0.00  0.00    +0.000 OA
ENDROOT
BRANCH   1   8
ATOM      4 CL   UNL     1      23.714  41.942  49.575  0.00  0.00    +0.000 Cl
ATOM      5  C   UNL     1      23.281  41.155  48.098  0.00  0.00    +0.000 A 
ATOM      6  C   UNL     1      22.249  41.671  47.304  0.00  0.00    +0.000 A 
ATOM      7  C   UNL     1      23.973  40.011  47.715  0.00  0.00    +0.000 A 
ATOM      8  C   UNL     1      21.911  41.031  46.106  0.00  0.00    +0.000 A 
ATOM      9  C   UNL     1      23.629  39.378  46.525  0.00  0.00    +0.000 A 
ATOM     10  C   UNL     1      22.611  39.882  45.712  0.00  0.00    +0.000 A 
ATOM     11 CL   UNL     1      24.480  37.962  46.046  0.00  0.00    +0.000 Cl
BRANCH   6  12
ATOM     12  O   UNL     1      21.557  42.769  47.729  0.00  0.00    +0.000 OA
ATOM     13  H   UNL     1      20.900  43.151  47.179  0.00  0.00    +0.000 HD
ENDBRANCH   6  12
ENDBRANCH   1   8
BRANCH   1  14
ATOM     14  N   UNL     1      19.159  41.414  45.604  0.00  0.00    +0.000 NA
ATOM     15  C   UNL     1      18.056  41.259  44.585  0.00  0.00    +0.000 C 
ATOM     16  C   UNL     1      19.183  40.364  46.673  0.00  0.00    +0.000 C 
ATOM     17  C   UNL     1      16.710  40.961  45.265  0.00  0.00    +0.000 C 
ATOM     18  C   UNL     1      17.821  40.121  47.300  0.00  0.00    +0.000 C 
ATOM     19  C   UNL     1      16.787  39.800  46.236  0.00  0.00    +0.000 C 
BRANCH  15  20
ATOM     20  C   UNL     1      17.799  42.563  43.822  0.00  0.00    +0.000 C 
ATOM     21  O   UNL     1      18.292  42.822  42.733  0.00  0.00    +0.000 OA
ATOM     22  O   UNL     1      16.844  43.338  44.400  0.00  0.00    +0.000 OA
ENDBRANCH  15  20
ENDBRANCH   1  14
TORSDOF 4
ENDMDL
MODEL 7
REMARK VINA RESULT:      -7.5      3.274      5.644
REMARK  Name = 347689
REMARK  4 active torsions:
REMARK  status: ('A' for Active; 'I' for Inactive)
REMARK    1  A    between atoms: C_3  and  O_5
REMARK    2  A    between atoms: C_6  and  S_8
REMARK    3  A    between atoms: S_8  and  N_13
REMARK    4  A    between atoms: C_14  and  C_16
REMARK                            x       y       z     vdW  Elec       q    Type
REMARK                         _______ _______ _______ _____ _____    ______ ____
ROOT
ATOM      1  S   UNL     1      18.716  41.330  46.637  0.00  0.00    +0.000 S 
ATOM      2  O   UNL     1      18.141  40.242  47.394  0.00  0.00    +0.000 OA
ATOM      3  O   UNL     1      18.355  42.692  46.958  0.00  0.00    +0.000 OA
ENDROOT
BRANCH   1   8
ATOM      4 CL   UNL     1      23.519  39.163  45.108  0.00  0.00    +0.000 Cl
ATOM      5  C   UNL     1      22.605  40.230  46.113  0.00  0.00    +0.000 A 
ATOM      6  C   UNL     1      21.228  40.383  45.905  0.00  0.00    +0.000 A 
ATOM      7  C   UNL     1      23.255  40.926  47.127  0.00  0.00    +0.000 A 
ATOM      8  C   UNL     1      20.494  41.243  46.730  0.00  0.00    +0.000 A 
ATOM      9  C   UNL     1      22.520  41.782  47.941  0.00  0.00    +0.000 A 
ATOM     10  C   UNL     1      21.145  41.941  47.758  0.00  0.00    +0.000 A 
ATOM     11 CL   UNL     1      23.318  42.646  49.195  0.00  0.00    +0.000 Cl
BRANCH   6  12
ATOM     12  O   UNL     1      20.625  39.722  44.873  0.00  0.00    +0.000 OA
ATOM     13  H   UNL     1      19.780  39.335  44.994  0.00  0.00    +0.000 HD
ENDBRANCH   6  12
ENDBRANCH   1   8
BRANCH   1  14
ATOM     14  N   UNL     1      18.293  41.059  44.970  0.00  0.00    +0.000 NA
ATOM     15  C   UNL     1      17.007  40.306  44.730  0.00  0.00    +0.000 C 
ATOM     16  C   UNL     1      18.475  42.285  44.128  0.00  0.00    +0.000 C 
ATOM     17  C   UNL     1      16.737  40.134  43.227  0.00  0.00    +0.000 C 
ATOM     18  C   UNL     1      18.191  42.043  42.655  0.00  0.00    +0.000 C 
ATOM     19  C   UNL     1      16.811  41.442  42.464  0.00  0.00    +0.000 C 
BRANCH  15  20
ATOM     20  C   UNL     1      17.084  38.868  45.254  0.00  0.00    +0.000 C 
ATOM     21  O   UNL     1      16.187  38.326  45.884  0.00  0.00    +0.000 OA
ATOM     22  O   UNL     1      18.181  38.199  44.814  0.00  0.00    +0.000 OA
ENDBRANCH  15  20
ENDBRANCH   1  14
TORSDOF 4
ENDMDL
MODEL 8
REMARK VINA RESULT:      -7.4      3.068      5.881
REMARK  Name = 347689
REMARK  4 active torsions:
REMARK  status: ('A' for Active; 'I' for Inactive)
REMARK    1  A    between atoms: C_3  and  O_5
REMARK    2  A    between atoms: C_6  and  S_8
REMARK    3  A    between atoms: S_8  and  N_13
REMARK    4  A    between atoms: C_14  and  C_16
REMARK                            x       y       z     vdW  Elec       q    Type
REMARK                         _______ _______ _______ _____ _____    ______ ____
ROOT
ATOM      1  S   UNL     1      20.879  41.489  44.574  0.00  0.00    +0.000 S 
ATOM      2  O   UNL     1      20.664  42.900  44.801  0.00  0.00    +0.000 OA
ATOM      3  O   UNL     1      21.378  41.041  43.294  0.00  0.00    +0.000 OA
ENDROOT
BRANCH   1   8
ATOM      4 CL   UNL     1      23.648  41.994  49.284  0.00  0.00    +0.000 Cl
ATOM      5  C   UNL     1      23.284  41.114  47.843  0.00  0.00    +0.000 A 
ATOM      6  C   UNL     1      22.284  41.570  46.975  0.00  0.00    +0.000 A 
ATOM      7  C   UNL     1      23.999  39.954  47.561  0.00  0.00    +0.000 A 
ATOM      8  C   UNL     1      22.002  40.855  45.805  0.00  0.00    +0.000 A 
ATOM      9  C   UNL     1      23.710  39.246  46.398  0.00  0.00    +0.000 A 
ATOM     10  C   UNL     1      22.725  39.690  45.514  0.00  0.00    +0.000 A 
ATOM     11 CL   UNL     1      24.590  37.812  46.044  0.00  0.00    +0.000 Cl
BRANCH   6  12
ATOM     12  O   UNL     1      21.567  42.687  47.301  0.00  0.00    +0.000 OA
ATOM     13  H   UNL     1      20.775  42.886  46.840  0.00  0.00    +0.000 HD
ENDBRANCH   6  12
ENDBRANCH   1   8
BRANCH   1  14
ATOM     14  N   UNL     1      19.352  40.699  44.843  0.00  0.00    +0.000 NA
ATOM     15  C   UNL     1      18.187  41.606  45.162  0.00  0.00    +0.000 C 
ATOM     16  C   UNL     1      19.068  39.642  43.821  0.00  0.00    +0.000 C 
ATOM     17  C   UNL     1      16.896  40.798  45.372  0.00  0.00    +0.000 C 
ATOM     18  C   UNL     1      17.778  38.884  44.089  0.00  0.00    +0.000 C 
ATOM     19  C   UNL     1      16.609  39.843  44.231  0.00  0.00    +0.000 C 
BRANCH  15  20
ATOM     20  C   UNL     1      18.383  42.335  46.496  0.00  0.00    +0.000 C 
ATOM     21  O   UNL     1      18.071  43.503  46.683  0.00  0.00    +0.000 OA
ATOM     22  O   UNL     1      18.790  41.513  47.497  0.00  0.00    +0.000 OA
ENDBRANCH  15  20
ENDBRANCH   1  14
TORSDOF 4
ENDMDL
MODEL 9
REMARK VINA RESULT:      -7.3      2.989      5.436
REMARK  Name = 347689
REMARK  4 active torsions:
REMARK  status: ('A' for Active; 'I' for Inactive)
REMARK    1  A    between atoms: C_3  and  O_5
REMARK    2  A    between atoms: C_6  and  S_8
REMARK    3  A    between atoms: S_8  and  N_13
REMARK    4  A    between atoms: C_14  and  C_16
REMARK                            x       y       z     vdW  Elec       q    Type
REMARK                         _______ _______ _______ _____ _____    ______ ____
ROOT
ATOM      1  S   UNL     1      18.271  42.325  45.454  0.00  0.00    +0.000 S 
ATOM      2  O   UNL     1      17.759  43.285  46.404  0.00  0.00    +0.000 OA
ATOM      3  O   UNL     1      18.311  42.663  44.049  0.00  0.00    +0.000 OA
ENDROOT
BRANCH   1   8
ATOM      4 CL   UNL     1      22.470  42.326  48.987  0.00  0.00    +0.000 Cl
ATOM      5  C   UNL     1      21.811  41.938  47.437  0.00  0.00    +0.000 A 
ATOM      6  C   UNL     1      20.456  42.177  47.171  0.00  0.00    +0.000 A 
ATOM      7  C   UNL     1      22.643  41.391  46.466  0.00  0.00    +0.000 A 
ATOM      8  C   UNL     1      19.933  41.867  45.911  0.00  0.00    +0.000 A 
ATOM      9  C   UNL     1      22.115  41.082  45.216  0.00  0.00    +0.000 A 
ATOM     10  C   UNL     1      20.771  41.323  44.926  0.00  0.00    +0.000 A 
ATOM     11 CL   UNL     1      23.139  40.406  44.012  0.00  0.00    +0.000 Cl
BRANCH   6  12
ATOM     12  O   UNL     1      19.652  42.671  48.159  0.00  0.00    +0.000 OA
ATOM     13  H   UNL     1      19.659  42.276  49.009  0.00  0.00    +0.000 HD
ENDBRANCH   6  12
ENDBRANCH   1   8
BRANCH   1  14
ATOM     14  N   UNL     1      17.300  40.890  45.618  0.00  0.00    +0.000 NA
ATOM     15  C   UNL     1      17.882  39.628  45.028  0.00  0.00    +0.000 C 
ATOM     16  C   UNL     1      16.731  40.740  46.995  0.00  0.00    +0.000 C 
ATOM     17  C   UNL     1      16.941  38.431  45.240  0.00  0.00    +0.000 C 
ATOM     18  C   UNL     1      15.811  39.538  47.133  0.00  0.00    +0.000 C 
ATOM     19  C   UNL     1      16.513  38.269  46.684  0.00  0.00    +0.000 C 
BRANCH  15  20
ATOM     20  C   UNL     1      18.017  39.722  43.504  0.00  0.00    +0.000 C 
ATOM     21  O   UNL     1      19.047  39.465  42.897  0.00  0.00    +0.000 OA
ATOM     22  O   UNL     1      16.836  39.964  42.880  0.00  0.00    +0.000 OA
ENDBRANCH  15  20
ENDBRANCH   1  14
TORSDOF 4
ENDMDL
