MODEL 1
REMARK VINA RESULT:      -8.8      0.000      0.000
REMARK  Name = 347800
REMARK  4 active torsions:
REMARK  status: ('A' for Active; 'I' for Inactive)
REMARK    1  A    between atoms: C_3  and  O_5
REMARK    2  A    between atoms: C_6  and  S_8
REMARK    3  A    between atoms: S_8  and  N_13
REMARK    4  A    between atoms: C_14  and  C_16
REMARK                            x       y       z     vdW  Elec       q    Type
REMARK                         _______ _______ _______ _____ _____    ______ ____
ROOT
ATOM      1  S   UNL     1      20.421  42.376  45.639  0.00  0.00    +0.000 S 
ATOM      2  O   UNL     1      20.836  43.761  45.564  0.00  0.00    +0.000 OA
ATOM      3  O   UNL     1      20.197  41.639  44.412  0.00  0.00    +0.000 OA
ENDROOT
BRANCH   1   8
ATOM      4 CL   UNL     1      24.000  38.235  46.298  0.00  0.00    +0.000 Cl
ATOM      5  C   UNL     1      23.307  39.731  46.819  0.00  0.00    +0.000 A 
ATOM      6  C   UNL     1      22.259  40.312  46.086  0.00  0.00    +0.000 A 
ATOM      7  C   UNL     1      23.812  40.340  47.965  0.00  0.00    +0.000 A 
ATOM      8  C   UNL     1      21.706  41.514  46.521  0.00  0.00    +0.000 A 
ATOM      9  C   UNL     1      23.255  41.538  48.392  0.00  0.00    +0.000 A 
ATOM     10  C   UNL     1      22.213  42.129  47.680  0.00  0.00    +0.000 A 
ATOM     11 CL   UNL     1      23.867  42.307  49.804  0.00  0.00    +0.000 Cl
BRANCH   6  12
ATOM     12  O   UNL     1      21.806  39.684  44.963  0.00  0.00    +0.000 OA
ATOM     13  H   UNL     1      21.593  38.772  44.990  0.00  0.00    +0.000 HD
ENDBRANCH   6  12
ENDBRANCH   1   8
BRANCH   1  14
ATOM     14  N   UNL     1      19.022  42.332  46.555  0.00  0.00    +0.000 NA
ATOM     15  C   UNL     1      17.911  41.368  46.377  0.00  0.00    +0.000 C 
ATOM     16  C   UNL     1      18.472  43.575  47.126  0.00  0.00    +0.000 C 
ATOM     17  C   UNL     1      16.740  42.280  46.015  0.00  0.00    +0.000 C 
ATOM     18  C   UNL     1      16.971  43.532  46.849  0.00  0.00    +0.000 C 
BRANCH  15  19
ATOM     19  C   UNL     1      18.133  40.243  45.426  0.00  0.00    +0.000 C 
ATOM     20  N   UNL     1      17.572  40.184  44.174  0.00  0.00    +0.000 NA
ATOM     21  N   UNL     1      18.904  39.179  45.701  0.00  0.00    +0.000 NA
ATOM     22  N   UNL     1      18.051  39.090  43.600  0.00  0.00    +0.000 NA
ATOM     23  N   UNL     1      18.868  38.552  44.517  0.00  0.00    +0.000 N 
ATOM     24  H   UNL     1      19.405  37.748  44.333  0.00  0.00    +0.000 HD
ENDBRANCH  15  19
ENDBRANCH   1  14
TORSDOF 4
ENDMDL
MODEL 2
REMARK VINA RESULT:      -7.8      3.934      6.098
REMARK  Name = 347800
REMARK  4 active torsions:
REMARK  status: ('A' for Active; 'I' for Inactive)
REMARK    1  A    between atoms: C_3  and  O_5
REMARK    2  A    between atoms: C_6  and  S_8
REMARK    3  A    between atoms: S_8  and  N_13
REMARK    4  A    between atoms: C_14  and  C_16
REMARK                            x       y       z     vdW  Elec       q    Type
REMARK                         _______ _______ _______ _____ _____    ______ ____
ROOT
ATOM      1  S   UNL     1      21.025  41.903  46.401  0.00  0.00    +0.000 S 
ATOM      2  O   UNL     1      21.466  43.050  45.636  0.00  0.00    +0.000 OA
ATOM      3  O   UNL     1      21.176  41.916  47.842  0.00  0.00    +0.000 OA
ENDROOT
BRANCH   1   8
ATOM      4 CL   UNL     1      16.225  39.209  46.709  0.00  0.00    +0.000 Cl
ATOM      5  C   UNL     1      17.161  40.579  46.223  0.00  0.00    +0.000 A 
ATOM      6  C   UNL     1      18.542  40.613  46.478  0.00  0.00    +0.000 A 
ATOM      7  C   UNL     1      16.517  41.637  45.586  0.00  0.00    +0.000 A 
ATOM      8  C   UNL     1      19.284  41.721  46.074  0.00  0.00    +0.000 A 
ATOM      9  C   UNL     1      17.265  42.738  45.187  0.00  0.00    +0.000 A 
ATOM     10  C   UNL     1      18.636  42.788  45.429  0.00  0.00    +0.000 A 
ATOM     11 CL   UNL     1      16.487  44.057  44.402  0.00  0.00    +0.000 Cl
BRANCH   6  12
ATOM     12  O   UNL     1      19.126  39.557  47.115  0.00  0.00    +0.000 OA
ATOM     13  H   UNL     1      18.938  39.393  48.018  0.00  0.00    +0.000 HD
ENDBRANCH   6  12
ENDBRANCH   1   8
BRANCH   1  14
ATOM     14  N   UNL     1      21.826  40.568  45.790  0.00  0.00    +0.000 NA
ATOM     15  C   UNL     1      23.172  40.110  46.209  0.00  0.00    +0.000 C 
ATOM     16  C   UNL     1      21.606  40.148  44.395  0.00  0.00    +0.000 C 
ATOM     17  C   UNL     1      23.979  40.237  44.918  0.00  0.00    +0.000 C 
ATOM     18  C   UNL     1      22.992  39.857  43.823  0.00  0.00    +0.000 C 
BRANCH  15  19
ATOM     19  C   UNL     1      23.784  40.786  47.387  0.00  0.00    +0.000 C 
ATOM     20  N   UNL     1      24.602  41.885  47.293  0.00  0.00    +0.000 NA
ATOM     21  N   UNL     1      23.594  40.386  48.654  0.00  0.00    +0.000 NA
ATOM     22  N   UNL     1      24.887  42.247  48.535  0.00  0.00    +0.000 NA
ATOM     23  N   UNL     1      24.236  41.365  49.307  0.00  0.00    +0.000 N 
ATOM     24  H   UNL     1      24.231  41.431  50.289  0.00  0.00    +0.000 HD
ENDBRANCH  15  19
ENDBRANCH   1  14
TORSDOF 4
ENDMDL
MODEL 3
REMARK VINA RESULT:      -7.6      1.821      2.375
REMARK  Name = 347800
REMARK  4 active torsions:
REMARK  status: ('A' for Active; 'I' for Inactive)
REMARK    1  A    between atoms: C_3  and  O_5
REMARK    2  A    between atoms: C_6  and  S_8
REMARK    3  A    between atoms: S_8  and  N_13
REMARK    4  A    between atoms: C_14  and  C_16
REMARK                            x       y       z     vdW  Elec       q    Type
REMARK                         _______ _______ _______ _____ _____    ______ ____
ROOT
ATOM      1  S   UNL     1      19.717  42.126  46.964  0.00  0.00    +0.000 S 
ATOM      2  O   UNL     1      19.194  42.585  48.233  0.00  0.00    +0.000 OA
ATOM      3  O   UNL     1      19.817  43.062  45.862  0.00  0.00    +0.000 OA
ENDROOT
BRANCH   1   8
ATOM      4 CL   UNL     1      24.086  38.935  45.904  0.00  0.00    +0.000 Cl
ATOM      5  C   UNL     1      23.308  40.177  46.822  0.00  0.00    +0.000 A 
ATOM      6  C   UNL     1      21.983  40.540  46.531  0.00  0.00    +0.000 A 
ATOM      7  C   UNL     1      24.023  40.805  47.839  0.00  0.00    +0.000 A 
ATOM      8  C   UNL     1      21.367  41.538  47.283  0.00  0.00    +0.000 A 
ATOM      9  C   UNL     1      23.402  41.799  48.584  0.00  0.00    +0.000 A 
ATOM     10  C   UNL     1      22.087  42.171  48.312  0.00  0.00    +0.000 A 
ATOM     11 CL   UNL     1      24.269  42.588  49.843  0.00  0.00    +0.000 Cl
BRANCH   6  12
ATOM     12  O   UNL     1      21.327  39.905  45.517  0.00  0.00    +0.000 OA
ATOM     13  H   UNL     1      20.721  39.216  45.710  0.00  0.00    +0.000 HD
ENDBRANCH   6  12
ENDBRANCH   1   8
BRANCH   1  14
ATOM     14  N   UNL     1      18.772  40.832  46.484  0.00  0.00    +0.000 NA
ATOM     15  C   UNL     1      18.139  40.679  45.152  0.00  0.00    +0.000 C 
ATOM     16  C   UNL     1      17.955  40.105  47.472  0.00  0.00    +0.000 C 
ATOM     17  C   UNL     1      16.651  40.660  45.496  0.00  0.00    +0.000 C 
ATOM     18  C   UNL     1      16.585  39.918  46.824  0.00  0.00    +0.000 C 
BRANCH  15  19
ATOM     19  C   UNL     1      18.516  41.667  44.104  0.00  0.00    +0.000 C 
ATOM     20  N   UNL     1      19.738  41.681  43.476  0.00  0.00    +0.000 NA
ATOM     21  N   UNL     1      17.698  42.640  43.671  0.00  0.00    +0.000 NA
ATOM     22  N   UNL     1      19.679  42.640  42.563  0.00  0.00    +0.000 NA
ATOM     23  N   UNL     1      18.445  43.149  42.681  0.00  0.00    +0.000 N 
ATOM     24  H   UNL     1      18.108  43.853  42.079  0.00  0.00    +0.000 HD
ENDBRANCH  15  19
ENDBRANCH   1  14
TORSDOF 4
ENDMDL
MODEL 4
REMARK VINA RESULT:      -7.5      2.534      3.762
REMARK  Name = 347800
REMARK  4 active torsions:
REMARK  status: ('A' for Active; 'I' for Inactive)
REMARK    1  A    between atoms: C_3  and  O_5
REMARK    2  A    between atoms: C_6  and  S_8
REMARK    3  A    between atoms: S_8  and  N_13
REMARK    4  A    between atoms: C_14  and  C_16
REMARK                            x       y       z     vdW  Elec       q    Type
REMARK                         _______ _______ _______ _____ _____    ______ ____
ROOT
ATOM      1  S   UNL     1      17.490  41.356  46.380  0.00  0.00    +0.000 S 
ATOM      2  O   UNL     1      17.096  40.153  47.080  0.00  0.00    +0.000 OA
ATOM      3  O   UNL     1      17.150  42.646  46.946  0.00  0.00    +0.000 OA
ENDROOT
BRANCH   1   8
ATOM      4 CL   UNL     1      22.573  42.354  48.268  0.00  0.00    +0.000 Cl
ATOM      5  C   UNL     1      21.504  41.700  47.076  0.00  0.00    +0.000 A 
ATOM      6  C   UNL     1      20.115  41.832  47.230  0.00  0.00    +0.000 A 
ATOM      7  C   UNL     1      22.050  41.043  45.976  0.00  0.00    +0.000 A 
ATOM      8  C   UNL     1      19.267  41.307  46.258  0.00  0.00    +0.000 A 
ATOM      9  C   UNL     1      21.198  40.521  45.011  0.00  0.00    +0.000 A 
ATOM     10  C   UNL     1      19.816  40.645  45.146  0.00  0.00    +0.000 A 
ATOM     11 CL   UNL     1      21.853  39.703  43.648  0.00  0.00    +0.000 Cl
BRANCH   6  12
ATOM     12  O   UNL     1      19.626  42.475  48.330  0.00  0.00    +0.000 OA
ATOM     13  H   UNL     1      18.727  42.738  48.358  0.00  0.00    +0.000 HD
ENDBRANCH   6  12
ENDBRANCH   1   8
BRANCH   1  14
ATOM     14  N   UNL     1      16.847  41.260  44.838  0.00  0.00    +0.000 NA
ATOM     15  C   UNL     1      16.707  40.016  44.044  0.00  0.00    +0.000 C 
ATOM     16  C   UNL     1      16.984  42.393  43.907  0.00  0.00    +0.000 C 
ATOM     17  C   UNL     1      17.596  40.299  42.833  0.00  0.00    +0.000 C 
ATOM     18  C   UNL     1      17.404  41.786  42.570  0.00  0.00    +0.000 C 
BRANCH  15  19
ATOM     19  C   UNL     1      17.001  38.731  44.736  0.00  0.00    +0.000 C 
ATOM     20  N   UNL     1      16.137  38.128  45.618  0.00  0.00    +0.000 NA
ATOM     21  N   UNL     1      18.137  38.037  44.565  0.00  0.00    +0.000 NA
ATOM     22  N   UNL     1      16.700  36.980  45.968  0.00  0.00    +0.000 NA
ATOM     23  N   UNL     1      17.855  36.945  45.289  0.00  0.00    +0.000 N 
ATOM     24  H   UNL     1      18.459  36.167  45.322  0.00  0.00    +0.000 HD
ENDBRANCH  15  19
ENDBRANCH   1  14
TORSDOF 4
ENDMDL
MODEL 5
REMARK VINA RESULT:      -7.4      0.827      2.349
REMARK  Name = 347800
REMARK  4 active torsions:
REMARK  status: ('A' for Active; 'I' for Inactive)
REMARK    1  A    between atoms: C_3  and  O_5
REMARK    2  A    between atoms: C_6  and  S_8
REMARK    3  A    between atoms: S_8  and  N_13
REMARK    4  A    between atoms: C_14  and  C_16
REMARK                            x       y       z     vdW  Elec       q    Type
REMARK                         _______ _______ _______ _____ _____    ______ ____
ROOT
ATOM      1  S   UNL     1      20.282  41.735  45.446  0.00  0.00    +0.000 S 
ATOM      2  O   UNL     1      20.601  43.065  44.976  0.00  0.00    +0.000 OA
ATOM      3  O   UNL     1      19.969  40.701  44.480  0.00  0.00    +0.000 OA
ENDROOT
BRANCH   1   8
ATOM      4 CL   UNL     1      23.827  41.951  49.663  0.00  0.00    +0.000 Cl
ATOM      5  C   UNL     1      23.254  41.217  48.206  0.00  0.00    +0.000 A 
ATOM      6  C   UNL     1      22.153  41.766  47.529  0.00  0.00    +0.000 A 
ATOM      7  C   UNL     1      23.900  40.078  47.731  0.00  0.00    +0.000 A 
ATOM      8  C   UNL     1      21.706  41.168  46.353  0.00  0.00    +0.000 A 
ATOM      9  C   UNL     1      23.449  39.488  46.557  0.00  0.00    +0.000 A 
ATOM     10  C   UNL     1      22.359  40.020  45.871  0.00  0.00    +0.000 A 
ATOM     11 CL   UNL     1      24.232  38.079  45.957  0.00  0.00    +0.000 Cl
BRANCH   6  12
ATOM     12  O   UNL     1      21.545  42.876  48.039  0.00  0.00    +0.000 OA
ATOM     13  H   UNL     1      21.622  43.698  47.596  0.00  0.00    +0.000 HD
ENDBRANCH   6  12
ENDBRANCH   1   8
BRANCH   1  14
ATOM     14  N   UNL     1      18.998  41.885  46.507  0.00  0.00    +0.000 NA
ATOM     15  C   UNL     1      17.730  41.121  46.433  0.00  0.00    +0.000 C 
ATOM     16  C   UNL     1      18.723  43.178  47.159  0.00  0.00    +0.000 C 
ATOM     17  C   UNL     1      16.695  42.224  46.217  0.00  0.00    +0.000 C 
ATOM     18  C   UNL     1      17.215  43.390  47.045  0.00  0.00    +0.000 C 
BRANCH  15  19
ATOM     19  C   UNL     1      17.664  40.011  45.442  0.00  0.00    +0.000 C 
ATOM     20  N   UNL     1      18.109  38.737  45.697  0.00  0.00    +0.000 NA
ATOM     21  N   UNL     1      17.161  40.148  44.205  0.00  0.00    +0.000 NA
ATOM     22  N   UNL     1      17.819  38.016  44.623  0.00  0.00    +0.000 NA
ATOM     23  N   UNL     1      17.220  38.876  43.786  0.00  0.00    +0.000 N 
ATOM     24  H   UNL     1      16.849  38.592  42.920  0.00  0.00    +0.000 HD
ENDBRANCH  15  19
ENDBRANCH   1  14
TORSDOF 4
ENDMDL
MODEL 6
REMARK VINA RESULT:      -7.4      3.287      5.483
REMARK  Name = 347800
REMARK  4 active torsions:
REMARK  status: ('A' for Active; 'I' for Inactive)
REMARK    1  A    between atoms: C_3  and  O_5
REMARK    2  A    between atoms: C_6  and  S_8
REMARK    3  A    between atoms: S_8  and  N_13
REMARK    4  A    between atoms: C_14  and  C_16
REMARK                            x       y       z     vdW  Elec       q    Type
REMARK                         _______ _______ _______ _____ _____    ______ ____
ROOT
ATOM      1  S   UNL     1      21.164  40.495  44.604  0.00  0.00    +0.000 S 
ATOM      2  O   UNL     1      21.944  39.447  43.981  0.00  0.00    +0.000 OA
ATOM      3  O   UNL     1      21.322  41.860  44.144  0.00  0.00    +0.000 OA
ENDROOT
BRANCH   1   8
ATOM      4 CL   UNL     1      16.234  41.169  42.229  0.00  0.00    +0.000 Cl
ATOM      5  C   UNL     1      17.293  40.318  43.299  0.00  0.00    +0.000 A 
ATOM      6  C   UNL     1      18.614  40.760  43.478  0.00  0.00    +0.000 A 
ATOM      7  C   UNL     1      16.810  39.194  43.964  0.00  0.00    +0.000 A 
ATOM      8  C   UNL     1      19.454  40.068  44.347  0.00  0.00    +0.000 A 
ATOM      9  C   UNL     1      17.654  38.510  44.830  0.00  0.00    +0.000 A 
ATOM     10  C   UNL     1      18.967  38.934  45.022  0.00  0.00    +0.000 A 
ATOM     11 CL   UNL     1      17.077  37.117  45.659  0.00  0.00    +0.000 Cl
BRANCH   6  12
ATOM     12  O   UNL     1      19.045  41.860  42.795  0.00  0.00    +0.000 OA
ATOM     13  H   UNL     1      19.577  41.757  42.030  0.00  0.00    +0.000 HD
ENDBRANCH   6  12
ENDBRANCH   1   8
BRANCH   1  14
ATOM     14  N   UNL     1      21.488  40.440  46.244  0.00  0.00    +0.000 NA
ATOM     15  C   UNL     1      20.805  41.250  47.280  0.00  0.00    +0.000 C 
ATOM     16  C   UNL     1      22.848  40.127  46.719  0.00  0.00    +0.000 C 
ATOM     17  C   UNL     1      21.951  42.082  47.854  0.00  0.00    +0.000 C 
ATOM     18  C   UNL     1      23.148  41.141  47.821  0.00  0.00    +0.000 C 
BRANCH  15  19
ATOM     19  C   UNL     1      19.622  42.045  46.851  0.00  0.00    +0.000 C 
ATOM     20  N   UNL     1      18.323  41.633  47.031  0.00  0.00    +0.000 NA
ATOM     21  N   UNL     1      19.709  43.241  46.247  0.00  0.00    +0.000 NA
ATOM     22  N   UNL     1      17.553  42.622  46.599  0.00  0.00    +0.000 NA
ATOM     23  N   UNL     1      18.410  43.568  46.188  0.00  0.00    +0.000 N 
ATOM     24  H   UNL     1      18.105  44.445  45.863  0.00  0.00    +0.000 HD
ENDBRANCH  15  19
ENDBRANCH   1  14
TORSDOF 4
ENDMDL
MODEL 7
REMARK VINA RESULT:      -7.4      3.803      6.185
REMARK  Name = 347800
REMARK  4 active torsions:
REMARK  status: ('A' for Active; 'I' for Inactive)
REMARK    1  A    between atoms: C_3  and  O_5
REMARK    2  A    between atoms: C_6  and  S_8
REMARK    3  A    between atoms: S_8  and  N_13
REMARK    4  A    between atoms: C_14  and  C_16
REMARK                            x       y       z     vdW  Elec       q    Type
REMARK                         _______ _______ _______ _____ _____    ______ ____
ROOT
ATOM      1  S   UNL     1      20.783  41.460  46.142  0.00  0.00    +0.000 S 
ATOM      2  O   UNL     1      21.169  42.661  45.432  0.00  0.00    +0.000 OA
ATOM      3  O   UNL     1      20.748  41.477  47.591  0.00  0.00    +0.000 OA
ENDROOT
BRANCH   1   8
ATOM      4 CL   UNL     1      16.753  41.301  42.383  0.00  0.00    +0.000 Cl
ATOM      5  C   UNL     1      17.361  40.951  43.963  0.00  0.00    +0.000 A 
ATOM      6  C   UNL     1      18.660  41.348  44.321  0.00  0.00    +0.000 A 
ATOM      7  C   UNL     1      16.542  40.267  44.859  0.00  0.00    +0.000 A 
ATOM      8  C   UNL     1      19.134  41.065  45.600  0.00  0.00    +0.000 A 
ATOM      9  C   UNL     1      17.022  39.988  46.132  0.00  0.00    +0.000 A 
ATOM     10  C   UNL     1      18.307  40.377  46.506  0.00  0.00    +0.000 A 
ATOM     11 CL   UNL     1      16.026  39.142  47.251  0.00  0.00    +0.000 Cl
BRANCH   6  12
ATOM     12  O   UNL     1      19.429  42.005  43.405  0.00  0.00    +0.000 OA
ATOM     13  H   UNL     1      19.684  42.894  43.559  0.00  0.00    +0.000 HD
ENDBRANCH   6  12
ENDBRANCH   1   8
BRANCH   1  14
ATOM     14  N   UNL     1      21.816  40.242  45.644  0.00  0.00    +0.000 NA
ATOM     15  C   UNL     1      23.192  40.025  46.150  0.00  0.00    +0.000 C 
ATOM     16  C   UNL     1      21.740  39.725  44.267  0.00  0.00    +0.000 C 
ATOM     17  C   UNL     1      24.038  40.217  44.892  0.00  0.00    +0.000 C 
ATOM     18  C   UNL     1      23.184  39.632  43.776  0.00  0.00    +0.000 C 
BRANCH  15  19
ATOM     19  C   UNL     1      23.625  40.846  47.314  0.00  0.00    +0.000 C 
ATOM     20  N   UNL     1      23.451  40.463  48.622  0.00  0.00    +0.000 NA
ATOM     21  N   UNL     1      24.229  42.040  47.199  0.00  0.00    +0.000 NA
ATOM     22  N   UNL     1      24.022  41.399  49.366  0.00  0.00    +0.000 NA
ATOM     23  N   UNL     1      24.509  42.286  48.487  0.00  0.00    +0.000 N 
ATOM     24  H   UNL     1      25.036  43.068  48.768  0.00  0.00    +0.000 HD
ENDBRANCH  15  19
ENDBRANCH   1  14
TORSDOF 4
ENDMDL
MODEL 8
REMARK VINA RESULT:      -7.4      1.360      3.043
REMARK  Name = 347800
REMARK  4 active torsions:
REMARK  status: ('A' for Active; 'I' for Inactive)
REMARK    1  A    between atoms: C_3  and  O_5
REMARK    2  A    between atoms: C_6  and  S_8
REMARK    3  A    between atoms: S_8  and  N_13
REMARK    4  A    between atoms: C_14  and  C_16
REMARK                            x       y       z     vdW  Elec       q    Type
REMARK                         _______ _______ _______ _____ _____    ______ ____
ROOT
ATOM      1  S   UNL     1      20.519  41.644  44.274  0.00  0.00    +0.000 S 
ATOM      2  O   UNL     1      20.191  42.997  44.670  0.00  0.00    +0.000 OA
ATOM      3  O   UNL     1      21.135  41.417  42.983  0.00  0.00    +0.000 OA
ENDROOT
BRANCH   1   8
ATOM      4 CL   UNL     1      24.199  37.997  46.159  0.00  0.00    +0.000 Cl
ATOM      5  C   UNL     1      23.297  39.462  46.333  0.00  0.00    +0.000 A 
ATOM      6  C   UNL     1      22.381  39.846  45.339  0.00  0.00    +0.000 A 
ATOM      7  C   UNL     1      23.504  40.245  47.465  0.00  0.00    +0.000 A 
ATOM      8  C   UNL     1      21.657  41.025  45.496  0.00  0.00    +0.000 A 
ATOM      9  C   UNL     1      22.778  41.420  47.615  0.00  0.00    +0.000 A 
ATOM     10  C   UNL     1      21.863  41.815  46.641  0.00  0.00    +0.000 A 
ATOM     11 CL   UNL     1      23.022  42.402  49.006  0.00  0.00    +0.000 Cl
BRANCH   6  12
ATOM     12  O   UNL     1      22.221  39.052  44.241  0.00  0.00    +0.000 OA
ATOM     13  H   UNL     1      21.497  38.459  44.193  0.00  0.00    +0.000 HD
ENDBRANCH   6  12
ENDBRANCH   1   8
BRANCH   1  14
ATOM     14  N   UNL     1      19.106  40.752  44.360  0.00  0.00    +0.000 NA
ATOM     15  C   UNL     1      18.092  40.854  45.435  0.00  0.00    +0.000 C 
ATOM     16  C   UNL     1      19.057  39.389  43.802  0.00  0.00    +0.000 C 
ATOM     17  C   UNL     1      18.116  39.453  46.044  0.00  0.00    +0.000 C 
ATOM     18  C   UNL     1      18.352  38.534  44.853  0.00  0.00    +0.000 C 
BRANCH  15  19
ATOM     19  C   UNL     1      18.256  41.957  46.422  0.00  0.00    +0.000 C 
ATOM     20  N   UNL     1      18.893  41.808  47.630  0.00  0.00    +0.000 NA
ATOM     21  N   UNL     1      17.799  43.204  46.226  0.00  0.00    +0.000 NA
ATOM     22  N   UNL     1      18.911  43.007  48.195  0.00  0.00    +0.000 NA
ATOM     23  N   UNL     1      18.296  43.809  47.314  0.00  0.00    +0.000 N 
ATOM     24  H   UNL     1      18.215  44.780  47.457  0.00  0.00    +0.000 HD
ENDBRANCH  15  19
ENDBRANCH   1  14
TORSDOF 4
ENDMDL
MODEL 9
REMARK VINA RESULT:      -7.3      3.360      4.757
REMARK  Name = 347800
REMARK  4 active torsions:
REMARK  status: ('A' for Active; 'I' for Inactive)
REMARK    1  A    between atoms: C_3  and  O_5
REMARK    2  A    between atoms: C_6  and  S_8
REMARK    3  A    between atoms: S_8  and  N_13
REMARK    4  A    between atoms: C_14  and  C_16
REMARK                            x       y       z     vdW  Elec       q    Type
REMARK                         _______ _______ _______ _____ _____    ______ ____
ROOT
ATOM      1  S   UNL     1      18.806  41.971  44.139  0.00  0.00    +0.000 S 
ATOM      2  O   UNL     1      20.125  41.595  43.678  0.00  0.00    +0.000 OA
ATOM      3  O   UNL     1      17.898  42.630  43.222  0.00  0.00    +0.000 OA
ENDROOT
BRANCH   1   8
ATOM      4 CL   UNL     1      18.007  36.520  43.947  0.00  0.00    +0.000 Cl
ATOM      5  C   UNL     1      17.657  38.076  44.613  0.00  0.00    +0.000 A 
ATOM      6  C   UNL     1      18.301  39.218  44.109  0.00  0.00    +0.000 A 
ATOM      7  C   UNL     1      16.736  38.166  45.654  0.00  0.00    +0.000 A 
ATOM      8  C   UNL     1      18.005  40.465  44.652  0.00  0.00    +0.000 A 
ATOM      9  C   UNL     1      16.445  39.415  46.190  0.00  0.00    +0.000 A 
ATOM     10  C   UNL     1      17.073  40.558  45.701  0.00  0.00    +0.000 A 
ATOM     11 CL   UNL     1      15.313  39.546  47.478  0.00  0.00    +0.000 Cl
BRANCH   6  12
ATOM     12  O   UNL     1      19.205  39.078  43.097  0.00  0.00    +0.000 OA
ATOM     13  H   UNL     1      19.876  39.721  42.975  0.00  0.00    +0.000 HD
ENDBRANCH   6  12
ENDBRANCH   1   8
BRANCH   1  14
ATOM     14  N   UNL     1      19.016  42.948  45.481  0.00  0.00    +0.000 NA
ATOM     15  C   UNL     1      19.989  42.708  46.572  0.00  0.00    +0.000 C 
ATOM     16  C   UNL     1      17.876  43.703  46.033  0.00  0.00    +0.000 C 
ATOM     17  C   UNL     1      19.082  42.529  47.788  0.00  0.00    +0.000 C 
ATOM     18  C   UNL     1      17.938  43.503  47.546  0.00  0.00    +0.000 C 
BRANCH  15  19
ATOM     19  C   UNL     1      20.976  41.610  46.373  0.00  0.00    +0.000 C 
ATOM     20  N   UNL     1      22.200  41.787  45.775  0.00  0.00    +0.000 NA
ATOM     21  N   UNL     1      20.765  40.342  46.759  0.00  0.00    +0.000 NA
ATOM     22  N   UNL     1      22.823  40.620  45.843  0.00  0.00    +0.000 NA
ATOM     23  N   UNL     1      21.961  39.808  46.472  0.00  0.00    +0.000 N 
ATOM     24  H   UNL     1      22.190  38.880  46.706  0.00  0.00    +0.000 HD
ENDBRANCH  15  19
ENDBRANCH   1  14
TORSDOF 4
ENDMDL
