MODEL 1
REMARK VINA RESULT:      -8.0      0.000      0.000
REMARK  Name = 347531
REMARK  4 active torsions:
REMARK  status: ('A' for Active; 'I' for Inactive)
REMARK    1  A    between atoms: C_3  and  O_5
REMARK    2  A    between atoms: C_6  and  S_8
REMARK    3  A    between atoms: S_8  and  N_13
REMARK    4  A    between atoms: C_14  and  C_16
REMARK                            x       y       z     vdW  Elec       q    Type
REMARK                         _______ _______ _______ _____ _____    ______ ____
ROOT
ATOM      1  S   UNL     1      20.107  41.921  45.120  0.00  0.00    +0.000 S 
ATOM      2  O   UNL     1      19.591  43.135  45.711  0.00  0.00    +0.000 OA
ATOM      3  O   UNL     1      20.415  41.889  43.700  0.00  0.00    +0.000 OA
ENDROOT
BRANCH   1   8
ATOM      4 CL   UNL     1      24.049  38.356  46.322  0.00  0.00    +0.000 Cl
ATOM      5  C   UNL     1      23.234  39.846  46.629  0.00  0.00    +0.000 A 
ATOM      6  C   UNL     1      22.245  40.305  45.747  0.00  0.00    +0.000 A 
ATOM      7  C   UNL     1      23.546  40.564  47.779  0.00  0.00    +0.000 A 
ATOM      8  C   UNL     1      21.550  41.482  46.041  0.00  0.00    +0.000 A 
ATOM      9  C   UNL     1      22.876  41.754  48.033  0.00  0.00    +0.000 A 
ATOM     10  C   UNL     1      21.881  42.223  47.181  0.00  0.00    +0.000 A 
ATOM     11  F   UNL     1      23.168  42.442  49.143  0.00  0.00    +0.000 F 
BRANCH   6  12
ATOM     12  O   UNL     1      21.960  39.596  44.613  0.00  0.00    +0.000 OA
ATOM     13  H   UNL     1      22.484  38.855  44.379  0.00  0.00    +0.000 HD
ENDBRANCH   6  12
ENDBRANCH   1   8
BRANCH   1  14
ATOM     14  N   UNL     1      19.006  40.681  45.358  0.00  0.00    +0.000 NA
ATOM     15  C   UNL     1      17.685  40.628  44.694  0.00  0.00    +0.000 C 
ATOM     16  C   UNL     1      18.873  40.179  46.745  0.00  0.00    +0.000 C 
ATOM     17  C   UNL     1      16.686  40.713  45.851  0.00  0.00    +0.000 C 
ATOM     18  C   UNL     1      17.383  40.025  47.010  0.00  0.00    +0.000 C 
BRANCH  15  19
ATOM     19  C   UNL     1      17.297  41.572  43.573  0.00  0.00    +0.000 C 
ATOM     20  O   UNL     1      17.424  41.283  42.392  0.00  0.00    +0.000 OA
ATOM     21  O   UNL     1      16.769  42.759  43.942  0.00  0.00    +0.000 OA
ENDBRANCH  15  19
ENDBRANCH   1  14
TORSDOF 4
ENDMDL
MODEL 2
REMARK VINA RESULT:      -7.4      2.373      2.819
REMARK  Name = 347531
REMARK  4 active torsions:
REMARK  status: ('A' for Active; 'I' for Inactive)
REMARK    1  A    between atoms: C_3  and  O_5
REMARK    2  A    between atoms: C_6  and  S_8
REMARK    3  A    between atoms: S_8  and  N_13
REMARK    4  A    between atoms: C_14  and  C_16
REMARK                            x       y       z     vdW  Elec       q    Type
REMARK                         _______ _______ _______ _____ _____    ______ ____
ROOT
ATOM      1  S   UNL     1      20.320  42.490  45.169  0.00  0.00    +0.000 S 
ATOM      2  O   UNL     1      20.999  43.730  45.474  0.00  0.00    +0.000 OA
ATOM      3  O   UNL     1      19.745  42.294  43.848  0.00  0.00    +0.000 OA
ENDROOT
BRANCH   1   8
ATOM      4 CL   UNL     1      24.002  40.160  48.442  0.00  0.00    +0.000 Cl
ATOM      5  C   UNL     1      23.170  40.224  46.931  0.00  0.00    +0.000 A 
ATOM      6  C   UNL     1      22.093  41.103  46.754  0.00  0.00    +0.000 A 
ATOM      7  C   UNL     1      23.606  39.418  45.883  0.00  0.00    +0.000 A 
ATOM      8  C   UNL     1      21.468  41.188  45.506  0.00  0.00    +0.000 A 
ATOM      9  C   UNL     1      22.946  39.484  44.662  0.00  0.00    +0.000 A 
ATOM     10  C   UNL     1      21.884  40.359  44.458  0.00  0.00    +0.000 A 
ATOM     11  F   UNL     1      23.369  38.717  43.651  0.00  0.00    +0.000 F 
BRANCH   6  12
ATOM     12  O   UNL     1      21.667  41.878  47.797  0.00  0.00    +0.000 OA
ATOM     13  H   UNL     1      22.215  42.561  48.129  0.00  0.00    +0.000 HD
ENDBRANCH   6  12
ENDBRANCH   1   8
BRANCH   1  14
ATOM     14  N   UNL     1      19.049  42.280  46.237  0.00  0.00    +0.000 NA
ATOM     15  C   UNL     1      17.977  41.279  46.038  0.00  0.00    +0.000 C 
ATOM     16  C   UNL     1      18.462  43.512  46.812  0.00  0.00    +0.000 C 
ATOM     17  C   UNL     1      16.708  42.123  45.884  0.00  0.00    +0.000 C 
ATOM     18  C   UNL     1      16.952  43.343  46.753  0.00  0.00    +0.000 C 
BRANCH  15  19
ATOM     19  C   UNL     1      18.048  40.209  44.968  0.00  0.00    +0.000 C 
ATOM     20  O   UNL     1      18.740  39.207  45.078  0.00  0.00    +0.000 OA
ATOM     21  O   UNL     1      17.278  40.399  43.874  0.00  0.00    +0.000 OA
ENDBRANCH  15  19
ENDBRANCH   1  14
TORSDOF 4
ENDMDL
MODEL 3
REMARK VINA RESULT:      -7.4      3.054      5.287
REMARK  Name = 347531
REMARK  4 active torsions:
REMARK  status: ('A' for Active; 'I' for Inactive)
REMARK    1  A    between atoms: C_3  and  O_5
REMARK    2  A    between atoms: C_6  and  S_8
REMARK    3  A    between atoms: S_8  and  N_13
REMARK    4  A    between atoms: C_14  and  C_16
REMARK                            x       y       z     vdW  Elec       q    Type
REMARK                         _______ _______ _______ _____ _____    ______ ____
ROOT
ATOM      1  S   UNL     1      19.834  40.807  43.947  0.00  0.00    +0.000 S 
ATOM      2  O   UNL     1      19.263  39.892  42.984  0.00  0.00    +0.000 OA
ATOM      3  O   UNL     1      20.371  42.080  43.495  0.00  0.00    +0.000 OA
ENDROOT
BRANCH   1   8
ATOM      4 CL   UNL     1      16.021  38.925  47.355  0.00  0.00    +0.000 Cl
ATOM      5  C   UNL     1      16.835  40.249  46.603  0.00  0.00    +0.000 A 
ATOM      6  C   UNL     1      17.977  40.024  45.822  0.00  0.00    +0.000 A 
ATOM      7  C   UNL     1      16.323  41.533  46.754  0.00  0.00    +0.000 A 
ATOM      8  C   UNL     1      18.590  41.098  45.169  0.00  0.00    +0.000 A 
ATOM      9  C   UNL     1      16.969  42.595  46.134  0.00  0.00    +0.000 A 
ATOM     10  C   UNL     1      18.095  42.395  45.341  0.00  0.00    +0.000 A 
ATOM     11  F   UNL     1      16.473  43.830  46.270  0.00  0.00    +0.000 F 
BRANCH   6  12
ATOM     12  O   UNL     1      18.478  38.758  45.695  0.00  0.00    +0.000 OA
ATOM     13  H   UNL     1      18.539  38.200  46.446  0.00  0.00    +0.000 HD
ENDBRANCH   6  12
ENDBRANCH   1   8
BRANCH   1  14
ATOM     14  N   UNL     1      21.101  40.053  44.741  0.00  0.00    +0.000 NA
ATOM     15  C   UNL     1      21.845  40.675  45.858  0.00  0.00    +0.000 C 
ATOM     16  C   UNL     1      22.046  39.290  43.894  0.00  0.00    +0.000 C 
ATOM     17  C   UNL     1      23.271  40.817  45.318  0.00  0.00    +0.000 C 
ATOM     18  C   UNL     1      23.444  39.639  44.378  0.00  0.00    +0.000 C 
BRANCH  15  19
ATOM     19  C   UNL     1      21.390  41.956  46.529  0.00  0.00    +0.000 C 
ATOM     20  O   UNL     1      20.725  41.965  47.554  0.00  0.00    +0.000 OA
ATOM     21  O   UNL     1      21.782  43.111  45.948  0.00  0.00    +0.000 OA
ENDBRANCH  15  19
ENDBRANCH   1  14
TORSDOF 4
ENDMDL
MODEL 4
REMARK VINA RESULT:      -7.4      3.477      5.854
REMARK  Name = 347531
REMARK  4 active torsions:
REMARK  status: ('A' for Active; 'I' for Inactive)
REMARK    1  A    between atoms: C_3  and  O_5
REMARK    2  A    between atoms: C_6  and  S_8
REMARK    3  A    between atoms: S_8  and  N_13
REMARK    4  A    between atoms: C_14  and  C_16
REMARK                            x       y       z     vdW  Elec       q    Type
REMARK                         _______ _______ _______ _____ _____    ______ ____
ROOT
ATOM      1  S   UNL     1      20.905  42.162  46.526  0.00  0.00    +0.000 S 
ATOM      2  O   UNL     1      21.451  43.243  45.735  0.00  0.00    +0.000 OA
ATOM      3  O   UNL     1      21.129  42.141  47.962  0.00  0.00    +0.000 OA
ENDROOT
BRANCH   1   8
ATOM      4 CL   UNL     1      16.135  39.529  46.597  0.00  0.00    +0.000 Cl
ATOM      5  C   UNL     1      17.079  40.904  46.155  0.00  0.00    +0.000 A 
ATOM      6  C   UNL     1      18.394  41.038  46.620  0.00  0.00    +0.000 A 
ATOM      7  C   UNL     1      16.529  41.857  45.302  0.00  0.00    +0.000 A 
ATOM      8  C   UNL     1      19.168  42.126  46.204  0.00  0.00    +0.000 A 
ATOM      9  C   UNL     1      17.297  42.954  44.933  0.00  0.00    +0.000 A 
ATOM     10  C   UNL     1      18.610  43.102  45.370  0.00  0.00    +0.000 A 
ATOM     11  F   UNL     1      16.774  43.866  44.105  0.00  0.00    +0.000 F 
BRANCH   6  12
ATOM     12  O   UNL     1      18.915  40.102  47.470  0.00  0.00    +0.000 OA
ATOM     13  H   UNL     1      19.525  40.358  48.134  0.00  0.00    +0.000 HD
ENDBRANCH   6  12
ENDBRANCH   1   8
BRANCH   1  14
ATOM     14  N   UNL     1      21.514  40.707  45.965  0.00  0.00    +0.000 NA
ATOM     15  C   UNL     1      22.866  40.207  46.303  0.00  0.00    +0.000 C 
ATOM     16  C   UNL     1      21.208  40.366  44.557  0.00  0.00    +0.000 C 
ATOM     17  C   UNL     1      23.588  40.156  44.953  0.00  0.00    +0.000 C 
ATOM     18  C   UNL     1      22.498  39.840  43.947  0.00  0.00    +0.000 C 
BRANCH  15  19
ATOM     19  C   UNL     1      23.736  40.857  47.359  0.00  0.00    +0.000 C 
ATOM     20  O   UNL     1      24.378  41.876  47.152  0.00  0.00    +0.000 OA
ATOM     21  O   UNL     1      23.751  40.266  48.574  0.00  0.00    +0.000 OA
ENDBRANCH  15  19
ENDBRANCH   1  14
TORSDOF 4
ENDMDL
MODEL 5
REMARK VINA RESULT:      -7.4      3.227      5.087
REMARK  Name = 347531
REMARK  4 active torsions:
REMARK  status: ('A' for Active; 'I' for Inactive)
REMARK    1  A    between atoms: C_3  and  O_5
REMARK    2  A    between atoms: C_6  and  S_8
REMARK    3  A    between atoms: S_8  and  N_13
REMARK    4  A    between atoms: C_14  and  C_16
REMARK                            x       y       z     vdW  Elec       q    Type
REMARK                         _______ _______ _______ _____ _____    ______ ____
ROOT
ATOM      1  S   UNL     1      17.973  41.813  44.139  0.00  0.00    +0.000 S 
ATOM      2  O   UNL     1      19.017  41.433  43.214  0.00  0.00    +0.000 OA
ATOM      3  O   UNL     1      16.784  42.485  43.641  0.00  0.00    +0.000 OA
ENDROOT
BRANCH   1   8
ATOM      4 CL   UNL     1      17.554  36.383  44.347  0.00  0.00    +0.000 Cl
ATOM      5  C   UNL     1      17.232  37.937  45.027  0.00  0.00    +0.000 A 
ATOM      6  C   UNL     1      17.816  39.085  44.474  0.00  0.00    +0.000 A 
ATOM      7  C   UNL     1      16.359  38.036  46.106  0.00  0.00    +0.000 A 
ATOM      8  C   UNL     1      17.497  40.342  44.997  0.00  0.00    +0.000 A 
ATOM      9  C   UNL     1      16.087  39.289  46.641  0.00  0.00    +0.000 A 
ATOM     10  C   UNL     1      16.643  40.444  46.100  0.00  0.00    +0.000 A 
ATOM     11  F   UNL     1      15.241  39.388  47.672  0.00  0.00    +0.000 F 
BRANCH   6  12
ATOM     12  O   UNL     1      18.683  38.970  43.424  0.00  0.00    +0.000 OA
ATOM     13  H   UNL     1      19.089  38.146  43.238  0.00  0.00    +0.000 HD
ENDBRANCH   6  12
ENDBRANCH   1   8
BRANCH   1  14
ATOM     14  N   UNL     1      18.609  42.843  45.295  0.00  0.00    +0.000 NA
ATOM     15  C   UNL     1      19.743  42.479  46.173  0.00  0.00    +0.000 C 
ATOM     16  C   UNL     1      17.633  43.644  46.070  0.00  0.00    +0.000 C 
ATOM     17  C   UNL     1      19.142  42.502  47.582  0.00  0.00    +0.000 C 
ATOM     18  C   UNL     1      18.073  43.577  47.524  0.00  0.00    +0.000 C 
BRANCH  15  19
ATOM     19  C   UNL     1      20.572  41.229  45.959  0.00  0.00    +0.000 C 
ATOM     20  O   UNL     1      21.436  41.147  45.099  0.00  0.00    +0.000 OA
ATOM     21  O   UNL     1      20.328  40.195  46.794  0.00  0.00    +0.000 OA
ENDBRANCH  15  19
ENDBRANCH   1  14
TORSDOF 4
ENDMDL
MODEL 6
REMARK VINA RESULT:      -7.3      2.323      3.190
REMARK  Name = 347531
REMARK  4 active torsions:
REMARK  status: ('A' for Active; 'I' for Inactive)
REMARK    1  A    between atoms: C_3  and  O_5
REMARK    2  A    between atoms: C_6  and  S_8
REMARK    3  A    between atoms: S_8  and  N_13
REMARK    4  A    between atoms: C_14  and  C_16
REMARK                            x       y       z     vdW  Elec       q    Type
REMARK                         _______ _______ _______ _____ _____    ______ ____
ROOT
ATOM      1  S   UNL     1      17.430  41.638  43.648  0.00  0.00    +0.000 S 
ATOM      2  O   UNL     1      17.033  43.020  43.795  0.00  0.00    +0.000 OA
ATOM      3  O   UNL     1      17.159  40.942  42.401  0.00  0.00    +0.000 OA
ENDROOT
BRANCH   1   8
ATOM      4 CL   UNL     1      22.067  38.802  44.033  0.00  0.00    +0.000 Cl
ATOM      5  C   UNL     1      21.189  40.272  44.250  0.00  0.00    +0.000 A 
ATOM      6  C   UNL     1      19.884  40.395  43.754  0.00  0.00    +0.000 A 
ATOM      7  C   UNL     1      21.781  41.316  44.954  0.00  0.00    +0.000 A 
ATOM      8  C   UNL     1      19.162  41.569  43.992  0.00  0.00    +0.000 A 
ATOM      9  C   UNL     1      21.066  42.493  45.143  0.00  0.00    +0.000 A 
ATOM     10  C   UNL     1      19.764  42.633  44.673  0.00  0.00    +0.000 A 
ATOM     11  F   UNL     1      21.629  43.495  45.827  0.00  0.00    +0.000 F 
BRANCH   6  12
ATOM     12  O   UNL     1      19.321  39.365  43.052  0.00  0.00    +0.000 OA
ATOM     13  H   UNL     1      19.506  38.478  43.291  0.00  0.00    +0.000 HD
ENDBRANCH   6  12
ENDBRANCH   1   8
BRANCH   1  14
ATOM     14  N   UNL     1      16.683  40.720  44.834  0.00  0.00    +0.000 NA
ATOM     15  C   UNL     1      16.706  41.075  46.270  0.00  0.00    +0.000 C 
ATOM     16  C   UNL     1      16.793  39.250  44.694  0.00  0.00    +0.000 C 
ATOM     17  C   UNL     1      17.464  39.915  46.924  0.00  0.00    +0.000 C 
ATOM     18  C   UNL     1      17.119  38.706  46.075  0.00  0.00    +0.000 C 
BRANCH  15  19
ATOM     19  C   UNL     1      17.218  42.409  46.774  0.00  0.00    +0.000 C 
ATOM     20  O   UNL     1      16.588  43.449  46.651  0.00  0.00    +0.000 OA
ATOM     21  O   UNL     1      18.414  42.396  47.402  0.00  0.00    +0.000 OA
ENDBRANCH  15  19
ENDBRANCH   1  14
TORSDOF 4
ENDMDL
MODEL 7
REMARK VINA RESULT:      -7.3      2.045      2.618
REMARK  Name = 347531
REMARK  4 active torsions:
REMARK  status: ('A' for Active; 'I' for Inactive)
REMARK    1  A    between atoms: C_3  and  O_5
REMARK    2  A    between atoms: C_6  and  S_8
REMARK    3  A    between atoms: S_8  and  N_13
REMARK    4  A    between atoms: C_14  and  C_16
REMARK                            x       y       z     vdW  Elec       q    Type
REMARK                         _______ _______ _______ _____ _____    ______ ____
ROOT
ATOM      1  S   UNL     1      18.187  39.609  45.152  0.00  0.00    +0.000 S 
ATOM      2  O   UNL     1      18.233  39.077  43.809  0.00  0.00    +0.000 OA
ATOM      3  O   UNL     1      17.904  38.720  46.267  0.00  0.00    +0.000 OA
ENDROOT
BRANCH   1   8
ATOM      4 CL   UNL     1      23.463  40.265  43.956  0.00  0.00    +0.000 Cl
ATOM      5  C   UNL     1      22.098  40.625  44.948  0.00  0.00    +0.000 A 
ATOM      6  C   UNL     1      20.821  40.172  44.584  0.00  0.00    +0.000 A 
ATOM      7  C   UNL     1      22.287  41.337  46.128  0.00  0.00    +0.000 A 
ATOM      8  C   UNL     1      19.734  40.419  45.429  0.00  0.00    +0.000 A 
ATOM      9  C   UNL     1      21.188  41.610  46.934  0.00  0.00    +0.000 A 
ATOM     10  C   UNL     1      19.915  41.159  46.602  0.00  0.00    +0.000 A 
ATOM     11  F   UNL     1      21.369  42.287  48.074  0.00  0.00    +0.000 F 
BRANCH   6  12
ATOM     12  O   UNL     1      20.649  39.487  43.414  0.00  0.00    +0.000 OA
ATOM     13  H   UNL     1      19.923  38.902  43.314  0.00  0.00    +0.000 HD
ENDBRANCH   6  12
ENDBRANCH   1   8
BRANCH   1  14
ATOM     14  N   UNL     1      17.015  40.802  45.233  0.00  0.00    +0.000 NA
ATOM     15  C   UNL     1      16.899  41.896  44.243  0.00  0.00    +0.000 C 
ATOM     16  C   UNL     1      16.710  41.333  46.581  0.00  0.00    +0.000 C 
ATOM     17  C   UNL     1      17.161  43.163  45.061  0.00  0.00    +0.000 C 
ATOM     18  C   UNL     1      16.624  42.845  46.443  0.00  0.00    +0.000 C 
BRANCH  15  19
ATOM     19  C   UNL     1      17.689  41.913  42.949  0.00  0.00    +0.000 C 
ATOM     20  O   UNL     1      18.779  42.455  42.847  0.00  0.00    +0.000 OA
ATOM     21  O   UNL     1      17.137  41.266  41.899  0.00  0.00    +0.000 OA
ENDBRANCH  15  19
ENDBRANCH   1  14
TORSDOF 4
ENDMDL
MODEL 8
REMARK VINA RESULT:      -7.1      1.720      2.293
REMARK  Name = 347531
REMARK  4 active torsions:
REMARK  status: ('A' for Active; 'I' for Inactive)
REMARK    1  A    between atoms: C_3  and  O_5
REMARK    2  A    between atoms: C_6  and  S_8
REMARK    3  A    between atoms: S_8  and  N_13
REMARK    4  A    between atoms: C_14  and  C_16
REMARK                            x       y       z     vdW  Elec       q    Type
REMARK                         _______ _______ _______ _____ _____    ______ ____
ROOT
ATOM      1  S   UNL     1      20.184  41.597  44.970  0.00  0.00    +0.000 S 
ATOM      2  O   UNL     1      19.809  42.911  45.440  0.00  0.00    +0.000 OA
ATOM      3  O   UNL     1      20.528  41.406  43.571  0.00  0.00    +0.000 OA
ENDROOT
BRANCH   1   8
ATOM      4 CL   UNL     1      23.373  42.261  49.339  0.00  0.00    +0.000 Cl
ATOM      5  C   UNL     1      22.996  41.432  47.873  0.00  0.00    +0.000 A 
ATOM      6  C   UNL     1      21.795  41.696  47.199  0.00  0.00    +0.000 A 
ATOM      7  C   UNL     1      23.915  40.527  47.352  0.00  0.00    +0.000 A 
ATOM      8  C   UNL     1      21.532  41.062  45.981  0.00  0.00    +0.000 A 
ATOM      9  C   UNL     1      23.618  39.873  46.162  0.00  0.00    +0.000 A 
ATOM     10  C   UNL     1      22.440  40.130  45.468  0.00  0.00    +0.000 A 
ATOM     11  F   UNL     1      24.504  39.009  45.654  0.00  0.00    +0.000 F 
BRANCH   6  12
ATOM     12  O   UNL     1      20.896  42.578  47.732  0.00  0.00    +0.000 OA
ATOM     13  H   UNL     1      20.615  42.482  48.621  0.00  0.00    +0.000 HD
ENDBRANCH   6  12
ENDBRANCH   1   8
BRANCH   1  14
ATOM     14  N   UNL     1      18.929  40.528  45.263  0.00  0.00    +0.000 NA
ATOM     15  C   UNL     1      17.575  40.686  44.685  0.00  0.00    +0.000 C 
ATOM     16  C   UNL     1      18.809  40.019  46.648  0.00  0.00    +0.000 C 
ATOM     17  C   UNL     1      16.674  40.890  45.906  0.00  0.00    +0.000 C 
ATOM     18  C   UNL     1      17.332  40.080  47.007  0.00  0.00    +0.000 C 
BRANCH  15  19
ATOM     19  C   UNL     1      17.263  41.703  43.605  0.00  0.00    +0.000 C 
ATOM     20  O   UNL     1      16.881  42.836  43.855  0.00  0.00    +0.000 OA
ATOM     21  O   UNL     1      17.454  41.302  42.329  0.00  0.00    +0.000 OA
ENDBRANCH  15  19
ENDBRANCH   1  14
TORSDOF 4
ENDMDL
MODEL 9
REMARK VINA RESULT:      -7.1      1.878      2.566
REMARK  Name = 347531
REMARK  4 active torsions:
REMARK  status: ('A' for Active; 'I' for Inactive)
REMARK    1  A    between atoms: C_3  and  O_5
REMARK    2  A    between atoms: C_6  and  S_8
REMARK    3  A    between atoms: S_8  and  N_13
REMARK    4  A    between atoms: C_14  and  C_16
REMARK                            x       y       z     vdW  Elec       q    Type
REMARK                         _______ _______ _______ _____ _____    ______ ____
ROOT
ATOM      1  S   UNL     1      19.887  41.560  46.955  0.00  0.00    +0.000 S 
ATOM      2  O   UNL     1      19.351  40.252  46.649  0.00  0.00    +0.000 OA
ATOM      3  O   UNL     1      19.373  42.295  48.099  0.00  0.00    +0.000 OA
ENDROOT
BRANCH   1   8
ATOM      4 CL   UNL     1      24.448  38.746  45.969  0.00  0.00    +0.000 Cl
ATOM      5  C   UNL     1      23.633  40.048  46.757  0.00  0.00    +0.000 A 
ATOM      6  C   UNL     1      22.302  40.347  46.434  0.00  0.00    +0.000 A 
ATOM      7  C   UNL     1      24.303  40.770  47.739  0.00  0.00    +0.000 A 
ATOM      8  C   UNL     1      21.635  41.364  47.124  0.00  0.00    +0.000 A 
ATOM      9  C   UNL     1      23.639  41.806  48.385  0.00  0.00    +0.000 A 
ATOM     10  C   UNL     1      22.314  42.112  48.092  0.00  0.00    +0.000 A 
ATOM     11  F   UNL     1      24.278  42.496  49.336  0.00  0.00    +0.000 F 
BRANCH   6  12
ATOM     12  O   UNL     1      21.662  39.637  45.456  0.00  0.00    +0.000 OA
ATOM     13  H   UNL     1      21.563  38.709  45.537  0.00  0.00    +0.000 HD
ENDBRANCH   6  12
ENDBRANCH   1   8
BRANCH   1  14
ATOM     14  N   UNL     1      19.655  42.572  45.642  0.00  0.00    +0.000 NA
ATOM     15  C   UNL     1      18.321  42.883  45.082  0.00  0.00    +0.000 C 
ATOM     16  C   UNL     1      20.629  42.444  44.534  0.00  0.00    +0.000 C 
ATOM     17  C   UNL     1      18.373  42.310  43.663  0.00  0.00    +0.000 C 
ATOM     18  C   UNL     1      19.824  42.456  43.244  0.00  0.00    +0.000 C 
BRANCH  15  19
ATOM     19  C   UNL     1      17.032  42.493  45.777  0.00  0.00    +0.000 C 
ATOM     20  O   UNL     1      16.493  43.199  46.616  0.00  0.00    +0.000 OA
ATOM     21  O   UNL     1      16.479  41.319  45.402  0.00  0.00    +0.000 OA
ENDBRANCH  15  19
ENDBRANCH   1  14
TORSDOF 4
ENDMDL
