MODEL 1
REMARK VINA RESULT:      -8.6      0.000      0.000
REMARK  Name = 347690
REMARK  4 active torsions:
REMARK  status: ('A' for Active; 'I' for Inactive)
REMARK    1  A    between atoms: C_3  and  O_5
REMARK    2  A    between atoms: C_6  and  S_8
REMARK    3  A    between atoms: S_8  and  N_13
REMARK    4  A    between atoms: C_14  and  C_16
REMARK                            x       y       z     vdW  Elec       q    Type
REMARK                         _______ _______ _______ _____ _____    ______ ____
ROOT
ATOM      1  S   UNL     1      20.094  41.929  45.552  0.00  0.00    +0.000 S 
ATOM      2  O   UNL     1      19.711  43.147  46.223  0.00  0.00    +0.000 OA
ATOM      3  O   UNL     1      20.326  41.923  44.116  0.00  0.00    +0.000 OA
ENDROOT
BRANCH   1   8
ATOM      4 CL   UNL     1      24.271  38.369  46.092  0.00  0.00    +0.000 Cl
ATOM      5  C   UNL     1      23.415  39.777  46.613  0.00  0.00    +0.000 A 
ATOM      6  C   UNL     1      22.285  40.214  45.904  0.00  0.00    +0.000 A 
ATOM      7  C   UNL     1      23.854  40.449  47.748  0.00  0.00    +0.000 A 
ATOM      8  C   UNL     1      21.618  41.374  46.304  0.00  0.00    +0.000 A 
ATOM      9  C   UNL     1      23.159  41.574  48.175  0.00  0.00    +0.000 A 
ATOM     10  C   UNL     1      22.055  42.043  47.460  0.00  0.00    +0.000 A 
ATOM     11 CL   UNL     1      23.641  42.365  49.623  0.00  0.00    +0.000 Cl
BRANCH   6  12
ATOM     12  O   UNL     1      21.837  39.458  44.859  0.00  0.00    +0.000 OA
ATOM     13  H   UNL     1      21.684  38.541  44.977  0.00  0.00    +0.000 HD
ENDBRANCH   6  12
ENDBRANCH   1   8
BRANCH   1  14
ATOM     14  N   UNL     1      18.872  40.767  45.790  0.00  0.00    +0.000 NA
ATOM     15  C   UNL     1      17.682  41.166  46.583  0.00  0.00    +0.000 C 
ATOM     16  C   UNL     1      18.651  39.773  44.723  0.00  0.00    +0.000 C 
ATOM     17  C   UNL     1      16.795  39.971  46.961  0.00  0.00    +0.000 C 
ATOM     18  C   UNL     1      17.886  38.560  45.228  0.00  0.00    +0.000 C 
ATOM     19  C   UNL     1      16.557  38.987  45.826  0.00  0.00    +0.000 C 
BRANCH  15  20
ATOM     20  C   UNL     1      16.892  42.306  45.958  0.00  0.00    +0.000 C 
ATOM     21  O   UNL     1      16.637  42.405  44.767  0.00  0.00    +0.000 OA
ATOM     22  O   UNL     1      16.541  43.269  46.849  0.00  0.00    +0.000 OA
ENDBRANCH  15  20
ENDBRANCH   1  14
TORSDOF 4
ENDMDL
MODEL 2
REMARK VINA RESULT:      -8.5      1.411      1.610
REMARK  Name = 347690
REMARK  4 active torsions:
REMARK  status: ('A' for Active; 'I' for Inactive)
REMARK    1  A    between atoms: C_3  and  O_5
REMARK    2  A    between atoms: C_6  and  S_8
REMARK    3  A    between atoms: S_8  and  N_13
REMARK    4  A    between atoms: C_14  and  C_16
REMARK                            x       y       z     vdW  Elec       q    Type
REMARK                         _______ _______ _______ _____ _____    ______ ____
ROOT
ATOM      1  S   UNL     1      20.756  42.088  45.164  0.00  0.00    +0.000 S 
ATOM      2  O   UNL     1      20.894  43.518  45.292  0.00  0.00    +0.000 OA
ATOM      3  O   UNL     1      20.807  41.459  43.853  0.00  0.00    +0.000 OA
ENDROOT
BRANCH   1   8
ATOM      4 CL   UNL     1      24.247  37.980  46.326  0.00  0.00    +0.000 Cl
ATOM      5  C   UNL     1      23.553  39.518  46.700  0.00  0.00    +0.000 A 
ATOM      6  C   UNL     1      22.601  40.087  45.838  0.00  0.00    +0.000 A 
ATOM      7  C   UNL     1      23.939  40.164  47.869  0.00  0.00    +0.000 A 
ATOM      8  C   UNL     1      22.070  41.348  46.122  0.00  0.00    +0.000 A 
ATOM      9  C   UNL     1      23.372  41.395  48.176  0.00  0.00    +0.000 A 
ATOM     10  C   UNL     1      22.451  41.992  47.312  0.00  0.00    +0.000 A 
ATOM     11 CL   UNL     1      23.779  42.165  49.659  0.00  0.00    +0.000 Cl
BRANCH   6  12
ATOM     12  O   UNL     1      22.182  39.363  44.760  0.00  0.00    +0.000 OA
ATOM     13  H   UNL     1      21.875  39.804  43.991  0.00  0.00    +0.000 HD
ENDBRANCH   6  12
ENDBRANCH   1   8
BRANCH   1  14
ATOM     14  N   UNL     1      19.244  41.627  45.798  0.00  0.00    +0.000 NA
ATOM     15  C   UNL     1      18.030  42.267  45.230  0.00  0.00    +0.000 C 
ATOM     16  C   UNL     1      19.094  40.242  46.282  0.00  0.00    +0.000 C 
ATOM     17  C   UNL     1      16.769  41.984  46.059  0.00  0.00    +0.000 C 
ATOM     18  C   UNL     1      17.899  40.091  47.209  0.00  0.00    +0.000 C 
ATOM     19  C   UNL     1      16.629  40.538  46.509  0.00  0.00    +0.000 C 
BRANCH  15  20
ATOM     20  C   UNL     1      17.832  41.981  43.749  0.00  0.00    +0.000 C 
ATOM     21  O   UNL     1      17.539  40.889  43.283  0.00  0.00    +0.000 OA
ATOM     22  O   UNL     1      18.081  43.055  42.957  0.00  0.00    +0.000 OA
ENDBRANCH  15  20
ENDBRANCH   1  14
TORSDOF 4
ENDMDL
MODEL 3
REMARK VINA RESULT:      -8.0      1.775      2.416
REMARK  Name = 347690
REMARK  4 active torsions:
REMARK  status: ('A' for Active; 'I' for Inactive)
REMARK    1  A    between atoms: C_3  and  O_5
REMARK    2  A    between atoms: C_6  and  S_8
REMARK    3  A    between atoms: S_8  and  N_13
REMARK    4  A    between atoms: C_14  and  C_16
REMARK                            x       y       z     vdW  Elec       q    Type
REMARK                         _______ _______ _______ _____ _____    ______ ____
ROOT
ATOM      1  S   UNL     1      19.808  41.300  46.938  0.00  0.00    +0.000 S 
ATOM      2  O   UNL     1      19.302  40.003  47.314  0.00  0.00    +0.000 OA
ATOM      3  O   UNL     1      19.331  42.498  47.612  0.00  0.00    +0.000 OA
ENDROOT
BRANCH   1   8
ATOM      4 CL   UNL     1      24.852  39.338  45.880  0.00  0.00    +0.000 Cl
ATOM      5  C   UNL     1      23.792  40.355  46.791  0.00  0.00    +0.000 A 
ATOM      6  C   UNL     1      22.426  40.411  46.469  0.00  0.00    +0.000 A 
ATOM      7  C   UNL     1      24.310  41.092  47.848  0.00  0.00    +0.000 A 
ATOM      8  C   UNL     1      21.578  41.264  47.180  0.00  0.00    +0.000 A 
ATOM      9  C   UNL     1      23.457  41.900  48.588  0.00  0.00    +0.000 A 
ATOM     10  C   UNL     1      22.103  41.997  48.259  0.00  0.00    +0.000 A 
ATOM     11 CL   UNL     1      24.069  42.753  49.950  0.00  0.00    +0.000 Cl
BRANCH   6  12
ATOM     12  O   UNL     1      21.951  39.589  45.489  0.00  0.00    +0.000 OA
ATOM     13  H   UNL     1      22.223  39.714  44.600  0.00  0.00    +0.000 HD
ENDBRANCH   6  12
ENDBRANCH   1   8
BRANCH   1  14
ATOM     14  N   UNL     1      19.452  41.568  45.293  0.00  0.00    +0.000 NA
ATOM     15  C   UNL     1      18.116  41.152  44.797  0.00  0.00    +0.000 C 
ATOM     16  C   UNL     1      20.064  42.740  44.639  0.00  0.00    +0.000 C 
ATOM     17  C   UNL     1      18.017  41.186  43.265  0.00  0.00    +0.000 C 
ATOM     18  C   UNL     1      20.045  42.617  43.124  0.00  0.00    +0.000 C 
ATOM     19  C   UNL     1      18.624  42.426  42.628  0.00  0.00    +0.000 C 
BRANCH  15  20
ATOM     20  C   UNL     1      16.965  41.881  45.473  0.00  0.00    +0.000 C 
ATOM     21  O   UNL     1      16.669  43.051  45.275  0.00  0.00    +0.000 OA
ATOM     22  O   UNL     1      16.316  41.123  46.394  0.00  0.00    +0.000 OA
ENDBRANCH  15  20
ENDBRANCH   1  14
TORSDOF 4
ENDMDL
MODEL 4
REMARK VINA RESULT:      -8.0      3.127      6.037
REMARK  Name = 347690
REMARK  4 active torsions:
REMARK  status: ('A' for Active; 'I' for Inactive)
REMARK    1  A    between atoms: C_3  and  O_5
REMARK    2  A    between atoms: C_6  and  S_8
REMARK    3  A    between atoms: S_8  and  N_13
REMARK    4  A    between atoms: C_14  and  C_16
REMARK                            x       y       z     vdW  Elec       q    Type
REMARK                         _______ _______ _______ _____ _____    ______ ____
ROOT
ATOM      1  S   UNL     1      20.992  40.772  45.335  0.00  0.00    +0.000 S 
ATOM      2  O   UNL     1      21.246  39.522  44.662  0.00  0.00    +0.000 OA
ATOM      3  O   UNL     1      21.203  42.035  44.643  0.00  0.00    +0.000 OA
ENDROOT
BRANCH   1   8
ATOM      4 CL   UNL     1      16.036  38.391  45.756  0.00  0.00    +0.000 Cl
ATOM      5  C   UNL     1      17.070  39.762  45.953  0.00  0.00    +0.000 A 
ATOM      6  C   UNL     1      18.435  39.662  45.638  0.00  0.00    +0.000 A 
ATOM      7  C   UNL     1      16.524  40.956  46.407  0.00  0.00    +0.000 A 
ATOM      8  C   UNL     1      19.277  40.759  45.836  0.00  0.00    +0.000 A 
ATOM      9  C   UNL     1      17.352  42.062  46.554  0.00  0.00    +0.000 A 
ATOM     10  C   UNL     1      18.719  41.971  46.281  0.00  0.00    +0.000 A 
ATOM     11 CL   UNL     1      16.674  43.568  47.035  0.00  0.00    +0.000 Cl
BRANCH   6  12
ATOM     12  O   UNL     1      18.897  38.497  45.099  0.00  0.00    +0.000 OA
ATOM     13  H   UNL     1      18.584  37.674  45.423  0.00  0.00    +0.000 HD
ENDBRANCH   6  12
ENDBRANCH   1   8
BRANCH   1  14
ATOM     14  N   UNL     1      21.997  40.867  46.707  0.00  0.00    +0.000 NA
ATOM     15  C   UNL     1      22.960  39.761  46.939  0.00  0.00    +0.000 C 
ATOM     16  C   UNL     1      22.409  42.207  47.167  0.00  0.00    +0.000 C 
ATOM     17  C   UNL     1      23.602  39.818  48.332  0.00  0.00    +0.000 C 
ATOM     18  C   UNL     1      22.900  42.187  48.605  0.00  0.00    +0.000 C 
ATOM     19  C   UNL     1      24.049  41.208  48.757  0.00  0.00    +0.000 C 
BRANCH  15  20
ATOM     20  C   UNL     1      23.987  39.608  45.827  0.00  0.00    +0.000 C 
ATOM     21  O   UNL     1      24.367  40.515  45.101  0.00  0.00    +0.000 OA
ATOM     22  O   UNL     1      24.408  38.329  45.657  0.00  0.00    +0.000 OA
ENDBRANCH  15  20
ENDBRANCH   1  14
TORSDOF 4
ENDMDL
MODEL 5
REMARK VINA RESULT:      -8.0      1.533      2.761
REMARK  Name = 347690
REMARK  4 active torsions:
REMARK  status: ('A' for Active; 'I' for Inactive)
REMARK    1  A    between atoms: C_3  and  O_5
REMARK    2  A    between atoms: C_6  and  S_8
REMARK    3  A    between atoms: S_8  and  N_13
REMARK    4  A    between atoms: C_14  and  C_16
REMARK                            x       y       z     vdW  Elec       q    Type
REMARK                         _______ _______ _______ _____ _____    ______ ____
ROOT
ATOM      1  S   UNL     1      20.739  41.627  45.080  0.00  0.00    +0.000 S 
ATOM      2  O   UNL     1      20.948  43.054  45.038  0.00  0.00    +0.000 OA
ATOM      3  O   UNL     1      20.836  40.834  43.865  0.00  0.00    +0.000 OA
ENDROOT
BRANCH   1   8
ATOM      4 CL   UNL     1      23.841  41.861  49.634  0.00  0.00    +0.000 Cl
ATOM      5  C   UNL     1      23.380  41.077  48.164  0.00  0.00    +0.000 A 
ATOM      6  C   UNL     1      22.344  41.611  47.380  0.00  0.00    +0.000 A 
ATOM      7  C   UNL     1      24.062  39.933  47.770  0.00  0.00    +0.000 A 
ATOM      8  C   UNL     1      21.947  40.954  46.212  0.00  0.00    +0.000 A 
ATOM      9  C   UNL     1      23.700  39.309  46.582  0.00  0.00    +0.000 A 
ATOM     10  C   UNL     1      22.648  39.805  45.809  0.00  0.00    +0.000 A 
ATOM     11 CL   UNL     1      24.590  37.941  46.041  0.00  0.00    +0.000 Cl
BRANCH   6  12
ATOM     12  O   UNL     1      21.779  42.793  47.760  0.00  0.00    +0.000 OA
ATOM     13  H   UNL     1      20.974  43.074  47.370  0.00  0.00    +0.000 HD
ENDBRANCH   6  12
ENDBRANCH   1   8
BRANCH   1  14
ATOM     14  N   UNL     1      19.166  41.324  45.661  0.00  0.00    +0.000 NA
ATOM     15  C   UNL     1      18.042  42.066  45.036  0.00  0.00    +0.000 C 
ATOM     16  C   UNL     1      18.866  39.968  46.159  0.00  0.00    +0.000 C 
ATOM     17  C   UNL     1      16.729  41.919  45.818  0.00  0.00    +0.000 C 
ATOM     18  C   UNL     1      17.628  39.949  47.039  0.00  0.00    +0.000 C 
ATOM     19  C   UNL     1      16.434  40.502  46.283  0.00  0.00    +0.000 C 
BRANCH  15  20
ATOM     20  C   UNL     1      17.874  41.774  43.553  0.00  0.00    +0.000 C 
ATOM     21  O   UNL     1      17.434  40.729  43.094  0.00  0.00    +0.000 OA
ATOM     22  O   UNL     1      18.331  42.772  42.753  0.00  0.00    +0.000 OA
ENDBRANCH  15  20
ENDBRANCH   1  14
TORSDOF 4
ENDMDL
MODEL 6
REMARK VINA RESULT:      -7.9      2.812      6.297
REMARK  Name = 347690
REMARK  4 active torsions:
REMARK  status: ('A' for Active; 'I' for Inactive)
REMARK    1  A    between atoms: C_3  and  O_5
REMARK    2  A    between atoms: C_6  and  S_8
REMARK    3  A    between atoms: S_8  and  N_13
REMARK    4  A    between atoms: C_14  and  C_16
REMARK                            x       y       z     vdW  Elec       q    Type
REMARK                         _______ _______ _______ _____ _____    ______ ____
ROOT
ATOM      1  S   UNL     1      21.079  40.755  45.251  0.00  0.00    +0.000 S 
ATOM      2  O   UNL     1      21.282  39.458  44.654  0.00  0.00    +0.000 OA
ATOM      3  O   UNL     1      21.401  41.964  44.509  0.00  0.00    +0.000 OA
ENDROOT
BRANCH   1   8
ATOM      4 CL   UNL     1      16.629  43.551  46.922  0.00  0.00    +0.000 Cl
ATOM      5  C   UNL     1      17.397  42.067  46.481  0.00  0.00    +0.000 A 
ATOM      6  C   UNL     1      18.737  42.069  46.060  0.00  0.00    +0.000 A 
ATOM      7  C   UNL     1      16.675  40.884  46.569  0.00  0.00    +0.000 A 
ATOM      8  C   UNL     1      19.344  40.874  45.667  0.00  0.00    +0.000 A 
ATOM      9  C   UNL     1      17.295  39.689  46.226  0.00  0.00    +0.000 A 
ATOM     10  C   UNL     1      18.616  39.676  45.771  0.00  0.00    +0.000 A 
ATOM     11 CL   UNL     1      16.439  38.209  46.410  0.00  0.00    +0.000 Cl
BRANCH   6  12
ATOM     12  O   UNL     1      19.430  43.244  46.091  0.00  0.00    +0.000 OA
ATOM     13  H   UNL     1      20.033  43.451  45.404  0.00  0.00    +0.000 HD
ENDBRANCH   6  12
ENDBRANCH   1   8
BRANCH   1  14
ATOM     14  N   UNL     1      22.023  40.859  46.665  0.00  0.00    +0.000 NA
ATOM     15  C   UNL     1      22.973  39.754  46.947  0.00  0.00    +0.000 C 
ATOM     16  C   UNL     1      22.416  42.202  47.132  0.00  0.00    +0.000 C 
ATOM     17  C   UNL     1      23.555  39.820  48.365  0.00  0.00    +0.000 C 
ATOM     18  C   UNL     1      22.844  42.192  48.590  0.00  0.00    +0.000 C 
ATOM     19  C   UNL     1      23.985  41.213  48.799  0.00  0.00    +0.000 C 
BRANCH  15  20
ATOM     20  C   UNL     1      24.048  39.592  45.882  0.00  0.00    +0.000 C 
ATOM     21  O   UNL     1      24.436  40.486  45.143  0.00  0.00    +0.000 OA
ATOM     22  O   UNL     1      24.505  38.318  45.768  0.00  0.00    +0.000 OA
ENDBRANCH  15  20
ENDBRANCH   1  14
TORSDOF 4
ENDMDL
MODEL 7
REMARK VINA RESULT:      -7.8      0.807      2.271
REMARK  Name = 347690
REMARK  4 active torsions:
REMARK  status: ('A' for Active; 'I' for Inactive)
REMARK    1  A    between atoms: C_3  and  O_5
REMARK    2  A    between atoms: C_6  and  S_8
REMARK    3  A    between atoms: S_8  and  N_13
REMARK    4  A    between atoms: C_14  and  C_16
REMARK                            x       y       z     vdW  Elec       q    Type
REMARK                         _______ _______ _______ _____ _____    ______ ____
ROOT
ATOM      1  S   UNL     1      19.941  41.073  45.229  0.00  0.00    +0.000 S 
ATOM      2  O   UNL     1      19.558  42.445  45.456  0.00  0.00    +0.000 OA
ATOM      3  O   UNL     1      20.281  40.617  43.889  0.00  0.00    +0.000 OA
ENDROOT
BRANCH   1   8
ATOM      4 CL   UNL     1      23.355  42.271  49.391  0.00  0.00    +0.000 Cl
ATOM      5  C   UNL     1      22.937  41.314  48.014  0.00  0.00    +0.000 A 
ATOM      6  C   UNL     1      21.733  41.555  47.331  0.00  0.00    +0.000 A 
ATOM      7  C   UNL     1      23.816  40.326  47.589  0.00  0.00    +0.000 A 
ATOM      8  C   UNL     1      21.379  40.755  46.242  0.00  0.00    +0.000 A 
ATOM      9  C   UNL     1      23.487  39.565  46.475  0.00  0.00    +0.000 A 
ATOM     10  C   UNL     1      22.277  39.766  45.806  0.00  0.00    +0.000 A 
ATOM     11 CL   UNL     1      24.604  38.395  45.890  0.00  0.00    +0.000 Cl
BRANCH   6  12
ATOM     12  O   UNL     1      20.957  42.605  47.728  0.00  0.00    +0.000 OA
ATOM     13  H   UNL     1      20.984  43.413  47.253  0.00  0.00    +0.000 HD
ENDBRANCH   6  12
ENDBRANCH   1   8
BRANCH   1  14
ATOM     14  N   UNL     1      18.657  40.061  45.708  0.00  0.00    +0.000 NA
ATOM     15  C   UNL     1      17.577  40.657  46.534  0.00  0.00    +0.000 C 
ATOM     16  C   UNL     1      18.265  38.968  44.798  0.00  0.00    +0.000 C 
ATOM     17  C   UNL     1      16.636  39.600  47.129  0.00  0.00    +0.000 C 
ATOM     18  C   UNL     1      17.455  37.899  45.512  0.00  0.00    +0.000 C 
ATOM     19  C   UNL     1      16.223  38.511  46.152  0.00  0.00    +0.000 C 
BRANCH  15  20
ATOM     20  C   UNL     1      16.826  41.778  45.832  0.00  0.00    +0.000 C 
ATOM     21  O   UNL     1      16.544  41.789  44.642  0.00  0.00    +0.000 OA
ATOM     22  O   UNL     1      16.548  42.830  46.644  0.00  0.00    +0.000 OA
ENDBRANCH  15  20
ENDBRANCH   1  14
TORSDOF 4
ENDMDL
MODEL 8
REMARK VINA RESULT:      -7.7      3.028      5.739
REMARK  Name = 347690
REMARK  4 active torsions:
REMARK  status: ('A' for Active; 'I' for Inactive)
REMARK    1  A    between atoms: C_3  and  O_5
REMARK    2  A    between atoms: C_6  and  S_8
REMARK    3  A    between atoms: S_8  and  N_13
REMARK    4  A    between atoms: C_14  and  C_16
REMARK                            x       y       z     vdW  Elec       q    Type
REMARK                         _______ _______ _______ _____ _____    ______ ____
ROOT
ATOM      1  S   UNL     1      20.243  42.432  46.774  0.00  0.00    +0.000 S 
ATOM      2  O   UNL     1      20.725  43.335  45.758  0.00  0.00    +0.000 OA
ATOM      3  O   UNL     1      19.655  42.951  47.999  0.00  0.00    +0.000 OA
ENDROOT
BRANCH   1   8
ATOM      4 CL   UNL     1      17.112  40.892  42.503  0.00  0.00    +0.000 Cl
ATOM      5  C   UNL     1      17.544  40.777  44.173  0.00  0.00    +0.000 A 
ATOM      6  C   UNL     1      18.616  41.535  44.674  0.00  0.00    +0.000 A 
ATOM      7  C   UNL     1      16.804  39.944  45.003  0.00  0.00    +0.000 A 
ATOM      8  C   UNL     1      18.988  41.411  46.014  0.00  0.00    +0.000 A 
ATOM      9  C   UNL     1      17.143  39.861  46.348  0.00  0.00    +0.000 A 
ATOM     10  C   UNL     1      18.229  40.578  46.855  0.00  0.00    +0.000 A 
ATOM     11 CL   UNL     1      16.185  38.898  47.403  0.00  0.00    +0.000 Cl
BRANCH   6  12
ATOM     12  O   UNL     1      19.241  42.414  43.838  0.00  0.00    +0.000 OA
ATOM     13  H   UNL     1      18.738  42.920  43.230  0.00  0.00    +0.000 HD
ENDBRANCH   6  12
ENDBRANCH   1   8
BRANCH   1  14
ATOM     14  N   UNL     1      21.540  41.462  47.302  0.00  0.00    +0.000 NA
ATOM     15  C   UNL     1      21.866  40.249  46.510  0.00  0.00    +0.000 C 
ATOM     16  C   UNL     1      22.667  42.130  47.980  0.00  0.00    +0.000 C 
ATOM     17  C   UNL     1      22.855  39.321  47.229  0.00  0.00    +0.000 C 
ATOM     18  C   UNL     1      23.508  41.150  48.781  0.00  0.00    +0.000 C 
ATOM     19  C   UNL     1      24.024  40.041  47.883  0.00  0.00    +0.000 C 
BRANCH  15  20
ATOM     20  C   UNL     1      22.285  40.554  45.080  0.00  0.00    +0.000 C 
ATOM     21  O   UNL     1      21.554  40.462  44.105  0.00  0.00    +0.000 OA
ATOM     22  O   UNL     1      23.598  40.881  44.963  0.00  0.00    +0.000 OA
ENDBRANCH  15  20
ENDBRANCH   1  14
TORSDOF 4
ENDMDL
MODEL 9
REMARK VINA RESULT:      -7.4      3.398      6.376
REMARK  Name = 347690
REMARK  4 active torsions:
REMARK  status: ('A' for Active; 'I' for Inactive)
REMARK    1  A    between atoms: C_3  and  O_5
REMARK    2  A    between atoms: C_6  and  S_8
REMARK    3  A    between atoms: S_8  and  N_13
REMARK    4  A    between atoms: C_14  and  C_16
REMARK                            x       y       z     vdW  Elec       q    Type
REMARK                         _______ _______ _______ _____ _____    ______ ____
ROOT
ATOM      1  S   UNL     1      21.936  40.282  44.779  0.00  0.00    +0.000 S 
ATOM      2  O   UNL     1      21.763  38.865  44.570  0.00  0.00    +0.000 OA
ATOM      3  O   UNL     1      22.840  41.044  43.931  0.00  0.00    +0.000 OA
ENDROOT
BRANCH   1   8
ATOM      4 CL   UNL     1      16.584  40.759  46.020  0.00  0.00    +0.000 Cl
ATOM      5  C   UNL     1      17.954  41.207  45.068  0.00  0.00    +0.000 A 
ATOM      6  C   UNL     1      19.213  40.646  45.342  0.00  0.00    +0.000 A 
ATOM      7  C   UNL     1      17.783  42.107  44.024  0.00  0.00    +0.000 A 
ATOM      8  C   UNL     1      20.327  41.039  44.597  0.00  0.00    +0.000 A 
ATOM      9  C   UNL     1      18.882  42.458  43.250  0.00  0.00    +0.000 A 
ATOM     10  C   UNL     1      20.147  41.939  43.532  0.00  0.00    +0.000 A 
ATOM     11 CL   UNL     1      18.667  43.507  41.904  0.00  0.00    +0.000 Cl
BRANCH   6  12
ATOM     12  O   UNL     1      19.304  39.690  46.311  0.00  0.00    +0.000 OA
ATOM     13  H   UNL     1      18.639  39.034  46.386  0.00  0.00    +0.000 HD
ENDBRANCH   6  12
ENDBRANCH   1   8
BRANCH   1  14
ATOM     14  N   UNL     1      22.521  40.533  46.358  0.00  0.00    +0.000 NA
ATOM     15  C   UNL     1      23.361  39.470  46.964  0.00  0.00    +0.000 C 
ATOM     16  C   UNL     1      22.812  41.920  46.772  0.00  0.00    +0.000 C 
ATOM     17  C   UNL     1      23.592  39.681  48.466  0.00  0.00    +0.000 C 
ATOM     18  C   UNL     1      22.882  42.057  48.284  0.00  0.00    +0.000 C 
ATOM     19  C   UNL     1      23.927  41.114  48.851  0.00  0.00    +0.000 C 
BRANCH  15  20
ATOM     20  C   UNL     1      24.654  39.214  46.204  0.00  0.00    +0.000 C 
ATOM     21  O   UNL     1      25.495  40.065  45.953  0.00  0.00    +0.000 OA
ATOM     22  O   UNL     1      24.769  37.938  45.753  0.00  0.00    +0.000 OA
ENDBRANCH  15  20
ENDBRANCH   1  14
TORSDOF 4
ENDMDL
