MODEL 1
REMARK VINA RESULT:      -8.0      0.000      0.000
REMARK  Name = 348320
REMARK  5 active torsions:
REMARK  status: ('A' for Active; 'I' for Inactive)
REMARK    1  A    between atoms: C_3  and  C_6
REMARK    2  A    between atoms: C_7  and  N_9
REMARK    3  A    between atoms: C_8  and  S_10
REMARK    4  A    between atoms: S_10  and  N_13
REMARK    5  A    between atoms: C_14  and  C_16
REMARK                            x       y       z     vdW  Elec       q    Type
REMARK                         _______ _______ _______ _____ _____    ______ ____
ROOT
ATOM      1 CL   UNL     1      16.487  36.535  45.452  0.00  0.00    +0.000 Cl
ATOM      2  C   UNL     1      17.291  38.051  45.250  0.00  0.00    +0.000 A 
ATOM      3  C   UNL     1      17.009  39.161  46.053  0.00  0.00    +0.000 A 
ATOM      4  C   UNL     1      18.272  38.129  44.254  0.00  0.00    +0.000 A 
ATOM      5  C   UNL     1      17.719  40.353  45.813  0.00  0.00    +0.000 A 
ATOM      6  C   UNL     1      16.030  39.142  47.193  0.00  0.00    +0.000 C 
ATOM      7  C   UNL     1      19.055  39.282  44.079  0.00  0.00    +0.000 A 
ATOM      8  C   UNL     1      18.729  40.419  44.835  0.00  0.00    +0.000 A 
ENDROOT
BRANCH   7   9
ATOM      9  N   UNL     1      19.980  39.290  43.024  0.00  0.00    +0.000 N 
ATOM     10  H   UNL     1      20.945  39.254  43.215  0.00  0.00    +0.000 HD
ATOM     11  H   UNL     1      19.663  39.332  42.092  0.00  0.00    +0.000 HD
ENDBRANCH   7   9
BRANCH   8  12
ATOM     12  S   UNL     1      19.799  41.844  44.859  0.00  0.00    +0.000 S 
ATOM     13  O   UNL     1      20.447  41.939  43.569  0.00  0.00    +0.000 OA
ATOM     14  O   UNL     1      19.042  42.972  45.365  0.00  0.00    +0.000 OA
BRANCH  12  15
ATOM     15  N   UNL     1      20.996  41.582  45.987  0.00  0.00    +0.000 NA
ATOM     16  C   UNL     1      22.426  41.375  45.691  0.00  0.00    +0.000 C 
ATOM     17  C   UNL     1      20.880  42.159  47.341  0.00  0.00    +0.000 C 
ATOM     18  C   UNL     1      22.893  40.843  47.054  0.00  0.00    +0.000 C 
ATOM     19  C   UNL     1      22.167  41.735  48.052  0.00  0.00    +0.000 C 
BRANCH  16  20
ATOM     20  C   UNL     1      22.918  40.414  44.636  0.00  0.00    +0.000 C 
ATOM     21  O   UNL     1      23.850  40.679  43.886  0.00  0.00    +0.000 OA
ATOM     22  O   UNL     1      22.346  39.193  44.643  0.00  0.00    +0.000 OA
ENDBRANCH  16  20
ENDBRANCH  12  15
ENDBRANCH   8  12
TORSDOF 4
ENDMDL
MODEL 2
REMARK VINA RESULT:      -8.0      2.960      5.111
REMARK  Name = 348320
REMARK  5 active torsions:
REMARK  status: ('A' for Active; 'I' for Inactive)
REMARK    1  A    between atoms: C_3  and  C_6
REMARK    2  A    between atoms: C_7  and  N_9
REMARK    3  A    between atoms: C_8  and  S_10
REMARK    4  A    between atoms: S_10  and  N_13
REMARK    5  A    between atoms: C_14  and  C_16
REMARK                            x       y       z     vdW  Elec       q    Type
REMARK                         _______ _______ _______ _____ _____    ______ ____
ROOT
ATOM      1 CL   UNL     1      24.488  40.498  45.958  0.00  0.00    +0.000 Cl
ATOM      2  C   UNL     1      22.791  40.519  45.637  0.00  0.00    +0.000 A 
ATOM      3  C   UNL     1      21.868  41.088  46.522  0.00  0.00    +0.000 A 
ATOM      4  C   UNL     1      22.359  39.960  44.428  0.00  0.00    +0.000 A 
ATOM      5  C   UNL     1      20.505  41.058  46.171  0.00  0.00    +0.000 A 
ATOM      6  C   UNL     1      22.251  41.777  47.801  0.00  0.00    +0.000 C 
ATOM      7  C   UNL     1      21.015  40.021  44.026  0.00  0.00    +0.000 A 
ATOM      8  C   UNL     1      20.077  40.528  44.939  0.00  0.00    +0.000 A 
ENDROOT
BRANCH   7   9
ATOM      9  N   UNL     1      20.664  39.391  42.822  0.00  0.00    +0.000 N 
ATOM     10  H   UNL     1      20.018  38.647  42.825  0.00  0.00    +0.000 HD
ATOM     11  H   UNL     1      21.063  39.692  41.974  0.00  0.00    +0.000 HD
ENDBRANCH   7   9
BRANCH   8  12
ATOM     12  S   UNL     1      18.399  40.864  44.442  0.00  0.00    +0.000 S 
ATOM     13  O   UNL     1      18.128  42.262  44.695  0.00  0.00    +0.000 OA
ATOM     14  O   UNL     1      18.204  40.326  43.110  0.00  0.00    +0.000 OA
BRANCH  12  15
ATOM     15  N   UNL     1      17.377  39.984  45.420  0.00  0.00    +0.000 NA
ATOM     16  C   UNL     1      17.521  38.554  45.750  0.00  0.00    +0.000 C 
ATOM     17  C   UNL     1      16.655  40.645  46.525  0.00  0.00    +0.000 C 
ATOM     18  C   UNL     1      16.130  38.288  46.343  0.00  0.00    +0.000 C 
ATOM     19  C   UNL     1      15.866  39.520  47.198  0.00  0.00    +0.000 C 
BRANCH  16  20
ATOM     20  C   UNL     1      17.782  37.492  44.710  0.00  0.00    +0.000 C 
ATOM     21  O   UNL     1      18.775  37.502  43.991  0.00  0.00    +0.000 OA
ATOM     22  O   UNL     1      16.915  36.460  44.696  0.00  0.00    +0.000 OA
ENDBRANCH  16  20
ENDBRANCH  12  15
ENDBRANCH   8  12
TORSDOF 4
ENDMDL
MODEL 3
REMARK VINA RESULT:      -7.9      2.810      5.675
REMARK  Name = 348320
REMARK  5 active torsions:
REMARK  status: ('A' for Active; 'I' for Inactive)
REMARK    1  A    between atoms: C_3  and  C_6
REMARK    2  A    between atoms: C_7  and  N_9
REMARK    3  A    between atoms: C_8  and  S_10
REMARK    4  A    between atoms: S_10  and  N_13
REMARK    5  A    between atoms: C_14  and  C_16
REMARK                            x       y       z     vdW  Elec       q    Type
REMARK                         _______ _______ _______ _____ _____    ______ ____
ROOT
ATOM      1 CL   UNL     1      24.633  41.086  47.920  0.00  0.00    +0.000 Cl
ATOM      2  C   UNL     1      23.361  41.041  46.751  0.00  0.00    +0.000 A 
ATOM      3  C   UNL     1      23.193  39.968  45.868  0.00  0.00    +0.000 A 
ATOM      4  C   UNL     1      22.469  42.120  46.732  0.00  0.00    +0.000 A 
ATOM      5  C   UNL     1      22.124  40.022  44.953  0.00  0.00    +0.000 A 
ATOM      6  C   UNL     1      24.054  38.737  45.874  0.00  0.00    +0.000 C 
ATOM      7  C   UNL     1      21.342  42.130  45.893  0.00  0.00    +0.000 A 
ATOM      8  C   UNL     1      21.208  41.091  44.959  0.00  0.00    +0.000 A 
ENDROOT
BRANCH   7   9
ATOM      9  N   UNL     1      20.531  43.274  45.903  0.00  0.00    +0.000 N 
ATOM     10  H   UNL     1      20.151  43.601  46.750  0.00  0.00    +0.000 HD
ATOM     11  H   UNL     1      20.340  43.750  45.062  0.00  0.00    +0.000 HD
ENDBRANCH   7   9
BRANCH   8  12
ATOM     12  S   UNL     1      19.707  40.887  44.020  0.00  0.00    +0.000 S 
ATOM     13  O   UNL     1      19.440  42.128  43.327  0.00  0.00    +0.000 OA
ATOM     14  O   UNL     1      19.807  39.653  43.266  0.00  0.00    +0.000 OA
BRANCH  12  15
ATOM     15  N   UNL     1      18.451  40.644  45.086  0.00  0.00    +0.000 NA
ATOM     16  C   UNL     1      17.203  41.429  45.138  0.00  0.00    +0.000 C 
ATOM     17  C   UNL     1      18.173  39.293  45.612  0.00  0.00    +0.000 C 
ATOM     18  C   UNL     1      16.671  40.971  46.503  0.00  0.00    +0.000 C 
ATOM     19  C   UNL     1      16.947  39.474  46.510  0.00  0.00    +0.000 C 
BRANCH  16  20
ATOM     20  C   UNL     1      17.178  42.938  45.122  0.00  0.00    +0.000 C 
ATOM     21  O   UNL     1      16.647  43.580  44.223  0.00  0.00    +0.000 OA
ATOM     22  O   UNL     1      17.671  43.543  46.221  0.00  0.00    +0.000 OA
ENDBRANCH  16  20
ENDBRANCH  12  15
ENDBRANCH   8  12
TORSDOF 4
ENDMDL
MODEL 4
REMARK VINA RESULT:      -7.9      2.679      4.782
REMARK  Name = 348320
REMARK  5 active torsions:
REMARK  status: ('A' for Active; 'I' for Inactive)
REMARK    1  A    between atoms: C_3  and  C_6
REMARK    2  A    between atoms: C_7  and  N_9
REMARK    3  A    between atoms: C_8  and  S_10
REMARK    4  A    between atoms: S_10  and  N_13
REMARK    5  A    between atoms: C_14  and  C_16
REMARK                            x       y       z     vdW  Elec       q    Type
REMARK                         _______ _______ _______ _____ _____    ______ ____
ROOT
ATOM      1 CL   UNL     1      24.608  37.960  45.989  0.00  0.00    +0.000 Cl
ATOM      2  C   UNL     1      23.354  39.117  45.717  0.00  0.00    +0.000 A 
ATOM      3  C   UNL     1      23.057  40.130  46.635  0.00  0.00    +0.000 A 
ATOM      4  C   UNL     1      22.645  39.025  44.512  0.00  0.00    +0.000 A 
ATOM      5  C   UNL     1      22.019  41.028  46.323  0.00  0.00    +0.000 A 
ATOM      6  C   UNL     1      23.818  40.350  47.912  0.00  0.00    +0.000 C 
ATOM      7  C   UNL     1      21.679  39.979  44.150  0.00  0.00    +0.000 A 
ATOM      8  C   UNL     1      21.331  40.955  45.097  0.00  0.00    +0.000 A 
ENDROOT
BRANCH   7   9
ATOM      9  N   UNL     1      20.983  39.779  42.949  0.00  0.00    +0.000 N 
ATOM     10  H   UNL     1      20.061  39.434  42.965  0.00  0.00    +0.000 HD
ATOM     11  H   UNL     1      21.417  39.984  42.089  0.00  0.00    +0.000 HD
ENDBRANCH   7   9
BRANCH   8  12
ATOM     12  S   UNL     1      20.300  42.338  44.653  0.00  0.00    +0.000 S 
ATOM     13  O   UNL     1      20.817  43.514  45.319  0.00  0.00    +0.000 OA
ATOM     14  O   UNL     1      20.141  42.343  43.212  0.00  0.00    +0.000 OA
BRANCH  12  15
ATOM     15  N   UNL     1      18.772  42.069  45.258  0.00  0.00    +0.000 NA
ATOM     16  C   UNL     1      18.106  40.757  45.359  0.00  0.00    +0.000 C 
ATOM     17  C   UNL     1      18.221  42.951  46.306  0.00  0.00    +0.000 C 
ATOM     18  C   UNL     1      16.667  41.221  45.628  0.00  0.00    +0.000 C 
ATOM     19  C   UNL     1      16.841  42.366  46.616  0.00  0.00    +0.000 C 
BRANCH  16  20
ATOM     20  C   UNL     1      18.059  39.767  44.221  0.00  0.00    +0.000 C 
ATOM     21  O   UNL     1      17.741  40.088  43.081  0.00  0.00    +0.000 OA
ATOM     22  O   UNL     1      18.503  38.526  44.504  0.00  0.00    +0.000 OA
ENDBRANCH  16  20
ENDBRANCH  12  15
ENDBRANCH   8  12
TORSDOF 4
ENDMDL
MODEL 5
REMARK VINA RESULT:      -7.8      3.011      5.265
REMARK  Name = 348320
REMARK  5 active torsions:
REMARK  status: ('A' for Active; 'I' for Inactive)
REMARK    1  A    between atoms: C_3  and  C_6
REMARK    2  A    between atoms: C_7  and  N_9
REMARK    3  A    between atoms: C_8  and  S_10
REMARK    4  A    between atoms: S_10  and  N_13
REMARK    5  A    between atoms: C_14  and  C_16
REMARK                            x       y       z     vdW  Elec       q    Type
REMARK                         _______ _______ _______ _____ _____    ______ ____
ROOT
ATOM      1 CL   UNL     1      25.084  39.880  45.703  0.00  0.00    +0.000 Cl
ATOM      2  C   UNL     1      23.417  40.289  45.900  0.00  0.00    +0.000 A 
ATOM      3  C   UNL     1      22.807  40.359  47.157  0.00  0.00    +0.000 A 
ATOM      4  C   UNL     1      22.686  40.580  44.742  0.00  0.00    +0.000 A 
ATOM      5  C   UNL     1      21.443  40.704  47.216  0.00  0.00    +0.000 A 
ATOM      6  C   UNL     1      23.535  40.141  48.454  0.00  0.00    +0.000 C 
ATOM      7  C   UNL     1      21.355  41.024  44.802  0.00  0.00    +0.000 A 
ATOM      8  C   UNL     1      20.719  41.030  46.053  0.00  0.00    +0.000 A 
ENDROOT
BRANCH   7   9
ATOM      9  N   UNL     1      20.684  41.244  43.590  0.00  0.00    +0.000 N 
ATOM     10  H   UNL     1      19.816  40.811  43.421  0.00  0.00    +0.000 HD
ATOM     11  H   UNL     1      21.082  41.832  42.907  0.00  0.00    +0.000 HD
ENDBRANCH   7   9
BRANCH   8  12
ATOM     12  S   UNL     1      19.124  41.793  46.270  0.00  0.00    +0.000 S 
ATOM     13  O   UNL     1      18.489  41.186  47.420  0.00  0.00    +0.000 OA
ATOM     14  O   UNL     1      19.298  43.231  46.225  0.00  0.00    +0.000 OA
BRANCH  12  15
ATOM     15  N   UNL     1      18.183  41.426  44.945  0.00  0.00    +0.000 NA
ATOM     16  C   UNL     1      17.441  40.169  44.738  0.00  0.00    +0.000 C 
ATOM     17  C   UNL     1      17.493  42.501  44.204  0.00  0.00    +0.000 C 
ATOM     18  C   UNL     1      17.113  40.309  43.245  0.00  0.00    +0.000 C 
ATOM     19  C   UNL     1      16.718  41.773  43.103  0.00  0.00    +0.000 C 
BRANCH  16  20
ATOM     20  C   UNL     1      18.057  38.806  44.942  0.00  0.00    +0.000 C 
ATOM     21  O   UNL     1      17.617  37.998  45.752  0.00  0.00    +0.000 OA
ATOM     22  O   UNL     1      19.053  38.481  44.094  0.00  0.00    +0.000 OA
ENDBRANCH  16  20
ENDBRANCH  12  15
ENDBRANCH   8  12
TORSDOF 4
ENDMDL
MODEL 6
REMARK VINA RESULT:      -7.7      1.818      2.470
REMARK  Name = 348320
REMARK  5 active torsions:
REMARK  status: ('A' for Active; 'I' for Inactive)
REMARK    1  A    between atoms: C_3  and  C_6
REMARK    2  A    between atoms: C_7  and  N_9
REMARK    3  A    between atoms: C_8  and  S_10
REMARK    4  A    between atoms: S_10  and  N_13
REMARK    5  A    between atoms: C_14  and  C_16
REMARK                            x       y       z     vdW  Elec       q    Type
REMARK                         _______ _______ _______ _____ _____    ______ ____
ROOT
ATOM      1 CL   UNL     1      16.759  36.086  45.456  0.00  0.00    +0.000 Cl
ATOM      2  C   UNL     1      17.242  37.714  45.136  0.00  0.00    +0.000 A 
ATOM      3  C   UNL     1      16.682  38.807  45.805  0.00  0.00    +0.000 A 
ATOM      4  C   UNL     1      18.251  37.908  44.184  0.00  0.00    +0.000 A 
ATOM      5  C   UNL     1      17.143  40.096  45.476  0.00  0.00    +0.000 A 
ATOM      6  C   UNL     1      15.653  38.683  46.894  0.00  0.00    +0.000 C 
ATOM      7  C   UNL     1      18.787  39.181  43.928  0.00  0.00    +0.000 A 
ATOM      8  C   UNL     1      18.181  40.286  44.546  0.00  0.00    +0.000 A 
ENDROOT
BRANCH   7   9
ATOM      9  N   UNL     1      19.760  39.290  42.923  0.00  0.00    +0.000 N 
ATOM     10  H   UNL     1      20.712  39.176  43.145  0.00  0.00    +0.000 HD
ATOM     11  H   UNL     1      19.490  39.481  41.995  0.00  0.00    +0.000 HD
ENDBRANCH   7   9
BRANCH   8  12
ATOM     12  S   UNL     1      18.927  41.903  44.472  0.00  0.00    +0.000 S 
ATOM     13  O   UNL     1      20.322  41.737  44.123  0.00  0.00    +0.000 OA
ATOM     14  O   UNL     1      18.083  42.757  43.660  0.00  0.00    +0.000 OA
BRANCH  12  15
ATOM     15  N   UNL     1      18.883  42.571  45.997  0.00  0.00    +0.000 NA
ATOM     16  C   UNL     1      20.029  42.688  46.919  0.00  0.00    +0.000 C 
ATOM     17  C   UNL     1      17.924  43.649  46.309  0.00  0.00    +0.000 C 
ATOM     18  C   UNL     1      19.279  43.023  48.216  0.00  0.00    +0.000 C 
ATOM     19  C   UNL     1      18.214  44.013  47.766  0.00  0.00    +0.000 C 
BRANCH  16  20
ATOM     20  C   UNL     1      20.965  41.543  47.218  0.00  0.00    +0.000 C 
ATOM     21  O   UNL     1      20.601  40.373  47.208  0.00  0.00    +0.000 OA
ATOM     22  O   UNL     1      22.262  41.874  47.381  0.00  0.00    +0.000 OA
ENDBRANCH  16  20
ENDBRANCH  12  15
ENDBRANCH   8  12
TORSDOF 4
ENDMDL
MODEL 7
REMARK VINA RESULT:      -7.6      2.826      5.148
REMARK  Name = 348320
REMARK  5 active torsions:
REMARK  status: ('A' for Active; 'I' for Inactive)
REMARK    1  A    between atoms: C_3  and  C_6
REMARK    2  A    between atoms: C_7  and  N_9
REMARK    3  A    between atoms: C_8  and  S_10
REMARK    4  A    between atoms: S_10  and  N_13
REMARK    5  A    between atoms: C_14  and  C_16
REMARK                            x       y       z     vdW  Elec       q    Type
REMARK                         _______ _______ _______ _____ _____    ______ ____
ROOT
ATOM      1 CL   UNL     1      25.071  40.261  45.653  0.00  0.00    +0.000 Cl
ATOM      2  C   UNL     1      23.377  40.514  45.882  0.00  0.00    +0.000 A 
ATOM      3  C   UNL     1      22.760  40.373  47.130  0.00  0.00    +0.000 A 
ATOM      4  C   UNL     1      22.628  40.899  44.763  0.00  0.00    +0.000 A 
ATOM      5  C   UNL     1      21.374  40.602  47.217  0.00  0.00    +0.000 A 
ATOM      6  C   UNL     1      23.500  40.041  48.395  0.00  0.00    +0.000 C 
ATOM      7  C   UNL     1      21.267  41.230  44.865  0.00  0.00    +0.000 A 
ATOM      8  C   UNL     1      20.630  41.023  46.098  0.00  0.00    +0.000 A 
ENDROOT
BRANCH   7   9
ATOM      9  N   UNL     1      20.584  41.556  43.683  0.00  0.00    +0.000 N 
ATOM     10  H   UNL     1      20.845  41.136  42.832  0.00  0.00    +0.000 HD
ATOM     11  H   UNL     1      19.844  42.205  43.706  0.00  0.00    +0.000 HD
ENDBRANCH   7   9
BRANCH   8  12
ATOM     12  S   UNL     1      18.980  41.629  46.393  0.00  0.00    +0.000 S 
ATOM     13  O   UNL     1      18.902  42.062  47.771  0.00  0.00    +0.000 OA
ATOM     14  O   UNL     1      18.639  42.554  45.331  0.00  0.00    +0.000 OA
BRANCH  12  15
ATOM     15  N   UNL     1      17.917  40.358  46.221  0.00  0.00    +0.000 NA
ATOM     16  C   UNL     1      18.062  39.238  45.273  0.00  0.00    +0.000 C 
ATOM     17  C   UNL     1      17.125  39.890  47.376  0.00  0.00    +0.000 C 
ATOM     18  C   UNL     1      16.643  38.655  45.349  0.00  0.00    +0.000 C 
ATOM     19  C   UNL     1      16.315  38.710  46.835  0.00  0.00    +0.000 C 
BRANCH  16  20
ATOM     20  C   UNL     1      18.395  39.432  43.814  0.00  0.00    +0.000 C 
ATOM     21  O   UNL     1      19.324  38.850  43.266  0.00  0.00    +0.000 OA
ATOM     22  O   UNL     1      17.535  40.198  43.113  0.00  0.00    +0.000 OA
ENDBRANCH  16  20
ENDBRANCH  12  15
ENDBRANCH   8  12
TORSDOF 4
ENDMDL
MODEL 8
REMARK VINA RESULT:      -7.5      1.881      2.694
REMARK  Name = 348320
REMARK  5 active torsions:
REMARK  status: ('A' for Active; 'I' for Inactive)
REMARK    1  A    between atoms: C_3  and  C_6
REMARK    2  A    between atoms: C_7  and  N_9
REMARK    3  A    between atoms: C_8  and  S_10
REMARK    4  A    between atoms: S_10  and  N_13
REMARK    5  A    between atoms: C_14  and  C_16
REMARK                            x       y       z     vdW  Elec       q    Type
REMARK                         _______ _______ _______ _____ _____    ______ ____
ROOT
ATOM      1 CL   UNL     1      15.634  39.254  46.897  0.00  0.00    +0.000 Cl
ATOM      2  C   UNL     1      17.019  39.889  46.082  0.00  0.00    +0.000 A 
ATOM      3  C   UNL     1      17.347  41.249  46.109  0.00  0.00    +0.000 A 
ATOM      4  C   UNL     1      17.836  38.979  45.400  0.00  0.00    +0.000 A 
ATOM      5  C   UNL     1      18.497  41.670  45.416  0.00  0.00    +0.000 A 
ATOM      6  C   UNL     1      16.572  42.280  46.881  0.00  0.00    +0.000 C 
ATOM      7  C   UNL     1      19.039  39.378  44.794  0.00  0.00    +0.000 A 
ATOM      8  C   UNL     1      19.336  40.749  44.761  0.00  0.00    +0.000 A 
ENDROOT
BRANCH   7   9
ATOM      9  N   UNL     1      19.769  38.408  44.090  0.00  0.00    +0.000 N 
ATOM     10  H   UNL     1      19.352  37.928  43.338  0.00  0.00    +0.000 HD
ATOM     11  H   UNL     1      20.697  38.206  44.349  0.00  0.00    +0.000 HD
ENDBRANCH   7   9
BRANCH   8  12
ATOM     12  S   UNL     1      20.935  41.331  44.232  0.00  0.00    +0.000 S 
ATOM     13  O   UNL     1      21.166  40.844  42.889  0.00  0.00    +0.000 OA
ATOM     14  O   UNL     1      21.013  42.753  44.502  0.00  0.00    +0.000 OA
BRANCH  12  15
ATOM     15  N   UNL     1      22.094  40.638  45.207  0.00  0.00    +0.000 NA
ATOM     16  C   UNL     1      22.041  40.554  46.679  0.00  0.00    +0.000 C 
ATOM     17  C   UNL     1      22.913  39.516  44.707  0.00  0.00    +0.000 C 
ATOM     18  C   UNL     1      23.499  40.169  46.964  0.00  0.00    +0.000 C 
ATOM     19  C   UNL     1      23.814  39.142  45.885  0.00  0.00    +0.000 C 
BRANCH  16  20
ATOM     20  C   UNL     1      21.701  41.732  47.559  0.00  0.00    +0.000 C 
ATOM     21  O   UNL     1      20.549  42.106  47.746  0.00  0.00    +0.000 OA
ATOM     22  O   UNL     1      22.736  42.281  48.228  0.00  0.00    +0.000 OA
ENDBRANCH  16  20
ENDBRANCH  12  15
ENDBRANCH   8  12
TORSDOF 4
ENDMDL
MODEL 9
REMARK VINA RESULT:      -7.3      2.881      5.443
REMARK  Name = 348320
REMARK  5 active torsions:
REMARK  status: ('A' for Active; 'I' for Inactive)
REMARK    1  A    between atoms: C_3  and  C_6
REMARK    2  A    between atoms: C_7  and  N_9
REMARK    3  A    between atoms: C_8  and  S_10
REMARK    4  A    between atoms: S_10  and  N_13
REMARK    5  A    between atoms: C_14  and  C_16
REMARK                            x       y       z     vdW  Elec       q    Type
REMARK                         _______ _______ _______ _____ _____    ______ ____
ROOT
ATOM      1 CL   UNL     1      25.081  40.997  47.855  0.00  0.00    +0.000 Cl
ATOM      2  C   UNL     1      23.590  40.790  47.007  0.00  0.00    +0.000 A 
ATOM      3  C   UNL     1      22.413  41.444  47.389  0.00  0.00    +0.000 A 
ATOM      4  C   UNL     1      23.601  39.952  45.885  0.00  0.00    +0.000 A 
ATOM      5  C   UNL     1      21.249  41.213  46.633  0.00  0.00    +0.000 A 
ATOM      6  C   UNL     1      22.332  42.419  48.529  0.00  0.00    +0.000 C 
ATOM      7  C   UNL     1      22.469  39.800  45.067  0.00  0.00    +0.000 A 
ATOM      8  C   UNL     1      21.270  40.398  45.486  0.00  0.00    +0.000 A 
ENDROOT
BRANCH   7   9
ATOM      9  N   UNL     1      22.555  38.901  43.994  0.00  0.00    +0.000 N 
ATOM     10  H   UNL     1      22.708  39.237  43.081  0.00  0.00    +0.000 HD
ATOM     11  H   UNL     1      22.462  37.933  44.153  0.00  0.00    +0.000 HD
ENDBRANCH   7   9
BRANCH   8  12
ATOM     12  S   UNL     1      19.851  40.462  44.410  0.00  0.00    +0.000 S 
ATOM     13  O   UNL     1      19.877  41.728  43.709  0.00  0.00    +0.000 OA
ATOM     14  O   UNL     1      19.798  39.226  43.654  0.00  0.00    +0.000 OA
BRANCH  12  15
ATOM     15  N   UNL     1      18.478  40.455  45.352  0.00  0.00    +0.000 NA
ATOM     16  C   UNL     1      17.333  41.374  45.210  0.00  0.00    +0.000 C 
ATOM     17  C   UNL     1      17.991  39.195  45.947  0.00  0.00    +0.000 C 
ATOM     18  C   UNL     1      16.620  41.100  46.543  0.00  0.00    +0.000 C 
ATOM     19  C   UNL     1      16.715  39.588  46.693  0.00  0.00    +0.000 C 
BRANCH  16  20
ATOM     20  C   UNL     1      17.489  42.869  45.077  0.00  0.00    +0.000 C 
ATOM     21  O   UNL     1      16.842  43.531  44.273  0.00  0.00    +0.000 OA
ATOM     22  O   UNL     1      18.299  43.457  45.980  0.00  0.00    +0.000 OA
ENDBRANCH  16  20
ENDBRANCH  12  15
ENDBRANCH   8  12
TORSDOF 4
ENDMDL
