MODEL 1
REMARK VINA RESULT:      -8.1      0.000      0.000
REMARK  Name = 348375
REMARK  4 active torsions:
REMARK  status: ('A' for Active; 'I' for Inactive)
REMARK    1  A    between atoms: S_1  and  N_4
REMARK    2  A    between atoms: S_1  and  C_5
REMARK    3  A    between atoms: C_6  and  C_10
REMARK    4  A    between atoms: C_8  and  N_13
REMARK                            x       y       z     vdW  Elec       q    Type
REMARK                         _______ _______ _______ _____ _____    ______ ____
ROOT
ATOM      1  S   UNL     1      17.883  41.267  44.238  0.00  0.00    +0.000 S 
ATOM      2  O   UNL     1      19.205  41.228  43.635  0.00  0.00    +0.000 OA
ATOM      3  O   UNL     1      16.737  41.772  43.517  0.00  0.00    +0.000 OA
ENDROOT
BRANCH   1   4
ATOM      4  C   UNL     1      17.485  39.635  44.834  0.00  0.00    +0.000 A 
ATOM      5  C   UNL     1      18.216  38.507  44.426  0.00  0.00    +0.000 A 
ATOM      6  C   UNL     1      16.397  39.501  45.711  0.00  0.00    +0.000 A 
ATOM      7  C   UNL     1      17.782  37.248  44.872  0.00  0.00    +0.000 A 
ATOM      8  C   UNL     1      15.998  38.238  46.151  0.00  0.00    +0.000 A 
ATOM      9  C   UNL     1      16.677  37.112  45.716  0.00  0.00    +0.000 A 
BRANCH   5  10
ATOM     10  N   UNL     1      19.440  38.554  43.762  0.00  0.00    +0.000 N 
ATOM     11  H   UNL     1      19.724  39.382  43.311  0.00  0.00    +0.000 HD
ATOM     12  H   UNL     1      20.020  37.759  43.744  0.00  0.00    +0.000 HD
ENDBRANCH   5  10
ENDBRANCH   1   4
BRANCH   1  13
ATOM     13  N   UNL     1      18.067  42.170  45.626  0.00  0.00    +0.000 NA
ATOM     14  C   UNL     1      19.343  42.461  46.298  0.00  0.00    +0.000 C 
ATOM     15  C   UNL     1      17.078  43.190  46.000  0.00  0.00    +0.000 C 
ATOM     16  C   UNL     1      18.833  42.946  47.662  0.00  0.00    +0.000 C 
ATOM     17  C   UNL     1      17.576  43.742  47.334  0.00  0.00    +0.000 C 
BRANCH  14  18
ATOM     18  C   UNL     1      20.403  41.388  46.449  0.00  0.00    +0.000 C 
ATOM     19  O   UNL     1      20.225  40.319  47.020  0.00  0.00    +0.000 OA
ATOM     20  O   UNL     1      21.625  41.732  45.983  0.00  0.00    +0.000 OA
ENDBRANCH  14  18
ENDBRANCH   1  13
TORSDOF 4
ENDMDL
MODEL 2
REMARK VINA RESULT:      -8.0      1.701      2.764
REMARK  Name = 348375
REMARK  4 active torsions:
REMARK  status: ('A' for Active; 'I' for Inactive)
REMARK    1  A    between atoms: S_1  and  N_4
REMARK    2  A    between atoms: S_1  and  C_5
REMARK    3  A    between atoms: C_6  and  C_10
REMARK    4  A    between atoms: C_8  and  N_13
REMARK                            x       y       z     vdW  Elec       q    Type
REMARK                         _______ _______ _______ _____ _____    ______ ____
ROOT
ATOM      1  S   UNL     1      18.464  41.076  44.014  0.00  0.00    +0.000 S 
ATOM      2  O   UNL     1      18.238  40.612  42.656  0.00  0.00    +0.000 OA
ATOM      3  O   UNL     1      18.164  42.433  44.410  0.00  0.00    +0.000 OA
ENDROOT
BRANCH   1   4
ATOM      4  C   UNL     1      17.622  39.976  45.136  0.00  0.00    +0.000 A 
ATOM      5  C   UNL     1      17.700  38.581  44.990  0.00  0.00    +0.000 A 
ATOM      6  C   UNL     1      16.853  40.544  46.164  0.00  0.00    +0.000 A 
ATOM      7  C   UNL     1      16.937  37.787  45.862  0.00  0.00    +0.000 A 
ATOM      8  C   UNL     1      16.117  39.730  47.026  0.00  0.00    +0.000 A 
ATOM      9  C   UNL     1      16.143  38.354  46.862  0.00  0.00    +0.000 A 
BRANCH   5  10
ATOM     10  N   UNL     1      18.611  37.920  44.169  0.00  0.00    +0.000 N 
ATOM     11  H   UNL     1      19.477  37.626  44.531  0.00  0.00    +0.000 HD
ATOM     12  H   UNL     1      18.386  37.745  43.226  0.00  0.00    +0.000 HD
ENDBRANCH   5  10
ENDBRANCH   1   4
BRANCH   1  13
ATOM     13  N   UNL     1      20.080  40.791  44.307  0.00  0.00    +0.000 NA
ATOM     14  C   UNL     1      20.742  40.878  45.618  0.00  0.00    +0.000 C 
ATOM     15  C   UNL     1      20.865  39.920  43.423  0.00  0.00    +0.000 C 
ATOM     16  C   UNL     1      22.213  40.916  45.182  0.00  0.00    +0.000 C 
ATOM     17  C   UNL     1      22.280  39.961  43.997  0.00  0.00    +0.000 C 
BRANCH  14  18
ATOM     18  C   UNL     1      20.417  42.005  46.578  0.00  0.00    +0.000 C 
ATOM     19  O   UNL     1      19.762  41.870  47.603  0.00  0.00    +0.000 OA
ATOM     20  O   UNL     1      20.827  43.229  46.172  0.00  0.00    +0.000 OA
ENDBRANCH  14  18
ENDBRANCH   1  13
TORSDOF 4
ENDMDL
MODEL 3
REMARK VINA RESULT:      -8.0      1.404      2.885
REMARK  Name = 348375
REMARK  4 active torsions:
REMARK  status: ('A' for Active; 'I' for Inactive)
REMARK    1  A    between atoms: S_1  and  N_4
REMARK    2  A    between atoms: S_1  and  C_5
REMARK    3  A    between atoms: C_6  and  C_10
REMARK    4  A    between atoms: C_8  and  N_13
REMARK                            x       y       z     vdW  Elec       q    Type
REMARK                         _______ _______ _______ _____ _____    ______ ____
ROOT
ATOM      1  S   UNL     1      19.142  40.790  45.847  0.00  0.00    +0.000 S 
ATOM      2  O   UNL     1      19.564  40.973  47.225  0.00  0.00    +0.000 OA
ATOM      3  O   UNL     1      20.097  40.744  44.763  0.00  0.00    +0.000 OA
ENDROOT
BRANCH   1   4
ATOM      4  C   UNL     1      18.134  39.323  45.754  0.00  0.00    +0.000 A 
ATOM      5  C   UNL     1      18.381  38.323  44.799  0.00  0.00    +0.000 A 
ATOM      6  C   UNL     1      17.061  39.202  46.652  0.00  0.00    +0.000 A 
ATOM      7  C   UNL     1      17.487  37.241  44.735  0.00  0.00    +0.000 A 
ATOM      8  C   UNL     1      16.198  38.109  46.576  0.00  0.00    +0.000 A 
ATOM      9  C   UNL     1      16.398  37.140  45.606  0.00  0.00    +0.000 A 
BRANCH   5  10
ATOM     10  N   UNL     1      19.541  38.228  44.033  0.00  0.00    +0.000 N 
ATOM     11  H   UNL     1      20.043  37.382  44.003  0.00  0.00    +0.000 HD
ATOM     12  H   UNL     1      19.857  39.007  43.520  0.00  0.00    +0.000 HD
ENDBRANCH   5  10
ENDBRANCH   1   4
BRANCH   1  13
ATOM     13  N   UNL     1      18.073  42.033  45.550  0.00  0.00    +0.000 NA
ATOM     14  C   UNL     1      17.037  42.043  44.506  0.00  0.00    +0.000 C 
ATOM     15  C   UNL     1      17.703  42.979  46.612  0.00  0.00    +0.000 C 
ATOM     16  C   UNL     1      16.691  43.538  44.474  0.00  0.00    +0.000 C 
ATOM     17  C   UNL     1      16.762  43.973  45.933  0.00  0.00    +0.000 C 
BRANCH  14  18
ATOM     18  C   UNL     1      17.329  41.509  43.118  0.00  0.00    +0.000 C 
ATOM     19  O   UNL     1      18.152  41.995  42.352  0.00  0.00    +0.000 OA
ATOM     20  O   UNL     1      16.533  40.488  42.727  0.00  0.00    +0.000 OA
ENDBRANCH  14  18
ENDBRANCH   1  13
TORSDOF 4
ENDMDL
MODEL 4
REMARK VINA RESULT:      -7.9      1.882      3.395
REMARK  Name = 348375
REMARK  4 active torsions:
REMARK  status: ('A' for Active; 'I' for Inactive)
REMARK    1  A    between atoms: S_1  and  N_4
REMARK    2  A    between atoms: S_1  and  C_5
REMARK    3  A    between atoms: C_6  and  C_10
REMARK    4  A    between atoms: C_8  and  N_13
REMARK                            x       y       z     vdW  Elec       q    Type
REMARK                         _______ _______ _______ _____ _____    ______ ____
ROOT
ATOM      1  S   UNL     1      19.376  40.844  46.549  0.00  0.00    +0.000 S 
ATOM      2  O   UNL     1      18.873  41.899  47.413  0.00  0.00    +0.000 OA
ATOM      3  O   UNL     1      20.595  40.132  46.855  0.00  0.00    +0.000 OA
ENDROOT
BRANCH   1   4
ATOM      4  C   UNL     1      18.081  39.642  46.311  0.00  0.00    +0.000 A 
ATOM      5  C   UNL     1      18.119  38.726  45.247  0.00  0.00    +0.000 A 
ATOM      6  C   UNL     1      17.001  39.650  47.208  0.00  0.00    +0.000 A 
ATOM      7  C   UNL     1      17.017  37.871  45.078  0.00  0.00    +0.000 A 
ATOM      8  C   UNL     1      15.927  38.778  47.025  0.00  0.00    +0.000 A 
ATOM      9  C   UNL     1      15.925  37.904  45.950  0.00  0.00    +0.000 A 
BRANCH   5  10
ATOM     10  N   UNL     1      19.238  38.476  44.456  0.00  0.00    +0.000 N 
ATOM     11  H   UNL     1      19.377  38.985  43.625  0.00  0.00    +0.000 HD
ATOM     12  H   UNL     1      19.890  37.790  44.729  0.00  0.00    +0.000 HD
ENDBRANCH   5  10
ENDBRANCH   1   4
BRANCH   1  13
ATOM     13  N   UNL     1      19.547  41.554  45.051  0.00  0.00    +0.000 NA
ATOM     14  C   UNL     1      18.694  42.622  44.506  0.00  0.00    +0.000 C 
ATOM     15  C   UNL     1      20.848  41.577  44.371  0.00  0.00    +0.000 C 
ATOM     16  C   UNL     1      19.077  42.551  43.022  0.00  0.00    +0.000 C 
ATOM     17  C   UNL     1      20.573  42.260  43.032  0.00  0.00    +0.000 C 
BRANCH  14  18
ATOM     18  C   UNL     1      17.190  42.587  44.695  0.00  0.00    +0.000 C 
ATOM     19  O   UNL     1      16.583  43.257  45.521  0.00  0.00    +0.000 OA
ATOM     20  O   UNL     1      16.548  41.669  43.937  0.00  0.00    +0.000 OA
ENDBRANCH  14  18
ENDBRANCH   1  13
TORSDOF 4
ENDMDL
MODEL 5
REMARK VINA RESULT:      -7.6      2.479      4.136
REMARK  Name = 348375
REMARK  4 active torsions:
REMARK  status: ('A' for Active; 'I' for Inactive)
REMARK    1  A    between atoms: S_1  and  N_4
REMARK    2  A    between atoms: S_1  and  C_5
REMARK    3  A    between atoms: C_6  and  C_10
REMARK    4  A    between atoms: C_8  and  N_13
REMARK                            x       y       z     vdW  Elec       q    Type
REMARK                         _______ _______ _______ _____ _____    ______ ____
ROOT
ATOM      1  S   UNL     1      18.328  40.139  45.909  0.00  0.00    +0.000 S 
ATOM      2  O   UNL     1      17.559  39.168  45.149  0.00  0.00    +0.000 OA
ATOM      3  O   UNL     1      18.484  40.027  47.341  0.00  0.00    +0.000 OA
ENDROOT
BRANCH   1   4
ATOM      4  C   UNL     1      19.952  40.264  45.186  0.00  0.00    +0.000 A 
ATOM      5  C   UNL     1      20.271  39.612  43.983  0.00  0.00    +0.000 A 
ATOM      6  C   UNL     1      20.922  41.018  45.868  0.00  0.00    +0.000 A 
ATOM      7  C   UNL     1      21.598  39.689  43.527  0.00  0.00    +0.000 A 
ATOM      8  C   UNL     1      22.228  41.090  45.383  0.00  0.00    +0.000 A 
ATOM      9  C   UNL     1      22.571  40.409  44.225  0.00  0.00    +0.000 A 
BRANCH   5  10
ATOM     10  N   UNL     1      19.338  39.048  43.116  0.00  0.00    +0.000 N 
ATOM     11  H   UNL     1      19.632  38.416  42.421  0.00  0.00    +0.000 HD
ATOM     12  H   UNL     1      18.385  39.280  43.201  0.00  0.00    +0.000 HD
ENDBRANCH   5  10
ENDBRANCH   1   4
BRANCH   1  13
ATOM     13  N   UNL     1      17.623  41.611  45.573  0.00  0.00    +0.000 NA
ATOM     14  C   UNL     1      16.815  41.923  44.383  0.00  0.00    +0.000 C 
ATOM     15  C   UNL     1      17.283  42.549  46.651  0.00  0.00    +0.000 C 
ATOM     16  C   UNL     1      16.811  43.456  44.447  0.00  0.00    +0.000 C 
ATOM     17  C   UNL     1      16.715  43.772  45.934  0.00  0.00    +0.000 C 
BRANCH  14  18
ATOM     18  C   UNL     1      17.226  41.423  43.013  0.00  0.00    +0.000 C 
ATOM     19  O   UNL     1      18.163  41.875  42.367  0.00  0.00    +0.000 OA
ATOM     20  O   UNL     1      16.411  40.479  42.488  0.00  0.00    +0.000 OA
ENDBRANCH  14  18
ENDBRANCH   1  13
TORSDOF 4
ENDMDL
MODEL 6
REMARK VINA RESULT:      -7.4      1.961      2.595
REMARK  Name = 348375
REMARK  4 active torsions:
REMARK  status: ('A' for Active; 'I' for Inactive)
REMARK    1  A    between atoms: S_1  and  N_4
REMARK    2  A    between atoms: S_1  and  C_5
REMARK    3  A    between atoms: C_6  and  C_10
REMARK    4  A    between atoms: C_8  and  N_13
REMARK                            x       y       z     vdW  Elec       q    Type
REMARK                         _______ _______ _______ _____ _____    ______ ____
ROOT
ATOM      1  S   UNL     1      18.783  41.331  44.956  0.00  0.00    +0.000 S 
ATOM      2  O   UNL     1      19.126  41.161  43.555  0.00  0.00    +0.000 OA
ATOM      3  O   UNL     1      18.144  42.534  45.439  0.00  0.00    +0.000 OA
ENDROOT
BRANCH   1   4
ATOM      4  C   UNL     1      17.797  39.939  45.471  0.00  0.00    +0.000 A 
ATOM      5  C   UNL     1      17.990  38.660  44.920  0.00  0.00    +0.000 A 
ATOM      6  C   UNL     1      16.796  40.158  46.432  0.00  0.00    +0.000 A 
ATOM      7  C   UNL     1      17.112  37.637  45.315  0.00  0.00    +0.000 A 
ATOM      8  C   UNL     1      15.949  39.118  46.817  0.00  0.00    +0.000 A 
ATOM      9  C   UNL     1      16.094  37.865  46.244  0.00  0.00    +0.000 A 
BRANCH   5  10
ATOM     10  N   UNL     1      19.090  38.286  44.153  0.00  0.00    +0.000 N 
ATOM     11  H   UNL     1      19.312  38.786  43.334  0.00  0.00    +0.000 HD
ATOM     12  H   UNL     1      19.647  37.523  44.430  0.00  0.00    +0.000 HD
ENDBRANCH   5  10
ENDBRANCH   1   4
BRANCH   1  13
ATOM     13  N   UNL     1      20.218  41.134  45.781  0.00  0.00    +0.000 NA
ATOM     14  C   UNL     1      21.554  41.051  45.170  0.00  0.00    +0.000 C 
ATOM     15  C   UNL     1      20.350  41.563  47.180  0.00  0.00    +0.000 C 
ATOM     16  C   UNL     1      22.361  40.483  46.346  0.00  0.00    +0.000 C 
ATOM     17  C   UNL     1      21.773  41.170  47.572  0.00  0.00    +0.000 C 
BRANCH  14  18
ATOM     18  C   UNL     1      21.779  40.250  43.903  0.00  0.00    +0.000 C 
ATOM     19  O   UNL     1      21.897  39.032  43.869  0.00  0.00    +0.000 OA
ATOM     20  O   UNL     1      21.941  40.995  42.785  0.00  0.00    +0.000 OA
ENDBRANCH  14  18
ENDBRANCH   1  13
TORSDOF 4
ENDMDL
MODEL 7
REMARK VINA RESULT:      -7.4      1.827      4.174
REMARK  Name = 348375
REMARK  4 active torsions:
REMARK  status: ('A' for Active; 'I' for Inactive)
REMARK    1  A    between atoms: S_1  and  N_4
REMARK    2  A    between atoms: S_1  and  C_5
REMARK    3  A    between atoms: C_6  and  C_10
REMARK    4  A    between atoms: C_8  and  N_13
REMARK                            x       y       z     vdW  Elec       q    Type
REMARK                         _______ _______ _______ _____ _____    ______ ____
ROOT
ATOM      1  S   UNL     1      18.186  41.229  43.899  0.00  0.00    +0.000 S 
ATOM      2  O   UNL     1      17.560  42.540  43.879  0.00  0.00    +0.000 OA
ATOM      3  O   UNL     1      18.281  40.418  42.707  0.00  0.00    +0.000 OA
ENDROOT
BRANCH   1   4
ATOM      4  C   UNL     1      19.821  41.393  44.587  0.00  0.00    +0.000 A 
ATOM      5  C   UNL     1      20.682  40.288  44.703  0.00  0.00    +0.000 A 
ATOM      6  C   UNL     1      20.225  42.661  45.035  0.00  0.00    +0.000 A 
ATOM      7  C   UNL     1      21.920  40.484  45.337  0.00  0.00    +0.000 A 
ATOM      8  C   UNL     1      21.468  42.830  45.646  0.00  0.00    +0.000 A 
ATOM      9  C   UNL     1      22.306  41.739  45.815  0.00  0.00    +0.000 A 
BRANCH   5  10
ATOM     10  N   UNL     1      20.479  39.057  44.083  0.00  0.00    +0.000 N 
ATOM     11  H   UNL     1      21.073  38.771  43.352  0.00  0.00    +0.000 HD
ATOM     12  H   UNL     1      19.742  38.474  44.377  0.00  0.00    +0.000 HD
ENDBRANCH   5  10
ENDBRANCH   1   4
BRANCH   1  13
ATOM     13  N   UNL     1      17.348  40.367  45.053  0.00  0.00    +0.000 NA
ATOM     14  C   UNL     1      16.575  40.946  46.164  0.00  0.00    +0.000 C 
ATOM     15  C   UNL     1      16.854  39.012  44.773  0.00  0.00    +0.000 C 
ATOM     16  C   UNL     1      16.407  39.709  47.057  0.00  0.00    +0.000 C 
ATOM     17  C   UNL     1      16.199  38.561  46.077  0.00  0.00    +0.000 C 
BRANCH  14  18
ATOM     18  C   UNL     1      17.110  42.129  46.946  0.00  0.00    +0.000 C 
ATOM     19  O   UNL     1      16.616  43.249  46.926  0.00  0.00    +0.000 OA
ATOM     20  O   UNL     1      18.261  41.889  47.617  0.00  0.00    +0.000 OA
ENDBRANCH  14  18
ENDBRANCH   1  13
TORSDOF 4
ENDMDL
MODEL 8
REMARK VINA RESULT:      -7.4      2.450      4.605
REMARK  Name = 348375
REMARK  4 active torsions:
REMARK  status: ('A' for Active; 'I' for Inactive)
REMARK    1  A    between atoms: S_1  and  N_4
REMARK    2  A    between atoms: S_1  and  C_5
REMARK    3  A    between atoms: C_6  and  C_10
REMARK    4  A    between atoms: C_8  and  N_13
REMARK                            x       y       z     vdW  Elec       q    Type
REMARK                         _______ _______ _______ _____ _____    ______ ____
ROOT
ATOM      1  S   UNL     1      19.844  41.862  44.669  0.00  0.00    +0.000 S 
ATOM      2  O   UNL     1      19.998  43.088  45.434  0.00  0.00    +0.000 OA
ATOM      3  O   UNL     1      19.624  41.883  43.241  0.00  0.00    +0.000 OA
ENDROOT
BRANCH   1   4
ATOM      4  C   UNL     1      21.246  40.811  44.996  0.00  0.00    +0.000 A 
ATOM      5  C   UNL     1      21.859  40.779  46.259  0.00  0.00    +0.000 A 
ATOM      6  C   UNL     1      21.742  40.026  43.942  0.00  0.00    +0.000 A 
ATOM      7  C   UNL     1      23.013  39.992  46.409  0.00  0.00    +0.000 A 
ATOM      8  C   UNL     1      22.880  39.241  44.124  0.00  0.00    +0.000 A 
ATOM      9  C   UNL     1      23.527  39.239  45.350  0.00  0.00    +0.000 A 
BRANCH   5  10
ATOM     10  N   UNL     1      21.313  41.324  47.419  0.00  0.00    +0.000 N 
ATOM     11  H   UNL     1      21.311  42.300  47.551  0.00  0.00    +0.000 HD
ATOM     12  H   UNL     1      20.928  40.733  48.106  0.00  0.00    +0.000 HD
ENDBRANCH   5  10
ENDBRANCH   1   4
BRANCH   1  13
ATOM     13  N   UNL     1      18.567  41.063  45.383  0.00  0.00    +0.000 NA
ATOM     14  C   UNL     1      17.165  41.509  45.377  0.00  0.00    +0.000 C 
ATOM     15  C   UNL     1      18.614  39.612  45.606  0.00  0.00    +0.000 C 
ATOM     16  C   UNL     1      16.588  40.622  46.489  0.00  0.00    +0.000 C 
ATOM     17  C   UNL     1      17.300  39.287  46.313  0.00  0.00    +0.000 C 
BRANCH  14  18
ATOM     18  C   UNL     1      16.814  42.968  45.590  0.00  0.00    +0.000 C 
ATOM     19  O   UNL     1      16.612  43.476  46.686  0.00  0.00    +0.000 OA
ATOM     20  O   UNL     1      16.639  43.679  44.452  0.00  0.00    +0.000 OA
ENDBRANCH  14  18
ENDBRANCH   1  13
TORSDOF 4
ENDMDL
MODEL 9
REMARK VINA RESULT:      -7.3      2.066      2.629
REMARK  Name = 348375
REMARK  4 active torsions:
REMARK  status: ('A' for Active; 'I' for Inactive)
REMARK    1  A    between atoms: S_1  and  N_4
REMARK    2  A    between atoms: S_1  and  C_5
REMARK    3  A    between atoms: C_6  and  C_10
REMARK    4  A    between atoms: C_8  and  N_13
REMARK                            x       y       z     vdW  Elec       q    Type
REMARK                         _______ _______ _______ _____ _____    ______ ____
ROOT
ATOM      1  S   UNL     1      17.964  41.704  46.329  0.00  0.00    +0.000 S 
ATOM      2  O   UNL     1      16.816  42.543  46.626  0.00  0.00    +0.000 OA
ATOM      3  O   UNL     1      19.129  41.687  47.184  0.00  0.00    +0.000 OA
ENDROOT
BRANCH   1   4
ATOM      4  C   UNL     1      17.403  40.024  46.131  0.00  0.00    +0.000 A 
ATOM      5  C   UNL     1      18.165  39.075  45.429  0.00  0.00    +0.000 A 
ATOM      6  C   UNL     1      16.157  39.676  46.677  0.00  0.00    +0.000 A 
ATOM      7  C   UNL     1      17.611  37.798  45.242  0.00  0.00    +0.000 A 
ATOM      8  C   UNL     1      15.639  38.394  46.489  0.00  0.00    +0.000 A 
ATOM      9  C   UNL     1      16.355  37.463  45.755  0.00  0.00    +0.000 A 
BRANCH   5  10
ATOM     10  N   UNL     1      19.498  39.245  45.061  0.00  0.00    +0.000 N 
ATOM     11  H   UNL     1      19.757  40.001  44.487  0.00  0.00    +0.000 HD
ATOM     12  H   UNL     1      20.180  38.609  45.376  0.00  0.00    +0.000 HD
ENDBRANCH   5  10
ENDBRANCH   1   4
BRANCH   1  13
ATOM     13  N   UNL     1      18.445  42.152  44.798  0.00  0.00    +0.000 NA
ATOM     14  C   UNL     1      19.815  42.063  44.269  0.00  0.00    +0.000 C 
ATOM     15  C   UNL     1      17.493  42.162  43.680  0.00  0.00    +0.000 C 
ATOM     16  C   UNL     1      19.693  42.964  43.033  0.00  0.00    +0.000 C 
ATOM     17  C   UNL     1      18.301  42.669  42.487  0.00  0.00    +0.000 C 
BRANCH  14  18
ATOM     18  C   UNL     1      21.004  42.452  45.125  0.00  0.00    +0.000 C 
ATOM     19  O   UNL     1      21.224  43.588  45.524  0.00  0.00    +0.000 OA
ATOM     20  O   UNL     1      21.888  41.452  45.350  0.00  0.00    +0.000 OA
ENDBRANCH  14  18
ENDBRANCH   1  13
TORSDOF 4
ENDMDL
