MODEL 1
REMARK VINA RESULT:      -8.0      0.000      0.000
REMARK  Name = 347798
REMARK  6 active torsions:
REMARK  status: ('A' for Active; 'I' for Inactive)
REMARK    1  A    between atoms: C_3  and  O_5
REMARK    2  A    between atoms: C_6  and  S_8
REMARK    3  A    between atoms: S_8  and  N_13
REMARK    4  A    between atoms: C_14  and  C_16
REMARK    5  A    between atoms: C_16  and  O_20
REMARK    6  A    between atoms: O_20  and  C_21
REMARK                            x       y       z     vdW  Elec       q    Type
REMARK                         _______ _______ _______ _____ _____    ______ ____
ROOT
ATOM      1  S   UNL     1      20.057  42.093  45.584  0.00  0.00    +0.000 S 
ATOM      2  O   UNL     1      19.598  43.195  46.410  0.00  0.00    +0.000 OA
ATOM      3  O   UNL     1      20.407  42.327  44.202  0.00  0.00    +0.000 OA
ENDROOT
BRANCH   1   8
ATOM      4 CL   UNL     1      24.162  38.455  46.112  0.00  0.00    +0.000 Cl
ATOM      5  C   UNL     1      23.310  39.862  46.643  0.00  0.00    +0.000 A 
ATOM      6  C   UNL     1      22.187  40.314  45.933  0.00  0.00    +0.000 A 
ATOM      7  C   UNL     1      23.761  40.527  47.781  0.00  0.00    +0.000 A 
ATOM      8  C   UNL     1      21.499  41.437  46.388  0.00  0.00    +0.000 A 
ATOM      9  C   UNL     1      23.074  41.650  48.223  0.00  0.00    +0.000 A 
ATOM     10  C   UNL     1      21.951  42.107  47.539  0.00  0.00    +0.000 A 
ATOM     11 CL   UNL     1      23.616  42.487  49.625  0.00  0.00    +0.000 Cl
BRANCH   6  12
ATOM     12  O   UNL     1      21.791  39.642  44.813  0.00  0.00    +0.000 OA
ATOM     13  H   UNL     1      22.241  39.778  44.001  0.00  0.00    +0.000 HD
ENDBRANCH   6  12
ENDBRANCH   1   8
BRANCH   1  14
ATOM     14  N   UNL     1      18.842  40.945  45.659  0.00  0.00    +0.000 NA
ATOM     15  C   UNL     1      17.503  41.137  45.073  0.00  0.00    +0.000 C 
ATOM     16  C   UNL     1      18.757  40.017  46.796  0.00  0.00    +0.000 C 
ATOM     17  C   UNL     1      16.581  40.978  46.286  0.00  0.00    +0.000 C 
ATOM     18  C   UNL     1      17.292  40.002  47.211  0.00  0.00    +0.000 C 
BRANCH  15  19
ATOM     19  C   UNL     1      17.184  42.425  44.340  0.00  0.00    +0.000 C 
ATOM     20  O   UNL     1      16.771  43.447  44.882  0.00  0.00    +0.000 OA
BRANCH  19  21
ATOM     21  O   UNL     1      17.415  42.312  43.004  0.00  0.00    +0.000 OA
ATOM     22  C   UNL     1      17.000  41.063  42.449  0.00  0.00    +0.000 C 
ENDBRANCH  19  21
ENDBRANCH  15  19
ENDBRANCH   1  14
TORSDOF 5
ENDMDL
MODEL 2
REMARK VINA RESULT:      -7.0      1.592      2.433
REMARK  Name = 347798
REMARK  6 active torsions:
REMARK  status: ('A' for Active; 'I' for Inactive)
REMARK    1  A    between atoms: C_3  and  O_5
REMARK    2  A    between atoms: C_6  and  S_8
REMARK    3  A    between atoms: S_8  and  N_13
REMARK    4  A    between atoms: C_14  and  C_16
REMARK    5  A    between atoms: C_16  and  O_20
REMARK    6  A    between atoms: O_20  and  C_21
REMARK                            x       y       z     vdW  Elec       q    Type
REMARK                         _______ _______ _______ _____ _____    ______ ____
ROOT
ATOM      1  S   UNL     1      19.832  41.097  46.577  0.00  0.00    +0.000 S 
ATOM      2  O   UNL     1      19.593  39.830  45.908  0.00  0.00    +0.000 OA
ATOM      3  O   UNL     1      19.086  41.434  47.767  0.00  0.00    +0.000 OA
ENDROOT
BRANCH   1   8
ATOM      4 CL   UNL     1      25.084  39.566  45.908  0.00  0.00    +0.000 Cl
ATOM      5  C   UNL     1      23.863  40.461  46.744  0.00  0.00    +0.000 A 
ATOM      6  C   UNL     1      22.528  40.399  46.316  0.00  0.00    +0.000 A 
ATOM      7  C   UNL     1      24.235  41.235  47.842  0.00  0.00    +0.000 A 
ATOM      8  C   UNL     1      21.554  41.109  47.014  0.00  0.00    +0.000 A 
ATOM      9  C   UNL     1      23.258  41.946  48.527  0.00  0.00    +0.000 A 
ATOM     10  C   UNL     1      21.927  41.888  48.124  0.00  0.00    +0.000 A 
ATOM     11 CL   UNL     1      23.697  42.910  49.883  0.00  0.00    +0.000 Cl
BRANCH   6  12
ATOM     12  O   UNL     1      22.212  39.643  45.224  0.00  0.00    +0.000 OA
ATOM     13  H   UNL     1      22.035  40.057  44.402  0.00  0.00    +0.000 HD
ENDBRANCH   6  12
ENDBRANCH   1   8
BRANCH   1  14
ATOM     14  N   UNL     1      19.574  42.269  45.412  0.00  0.00    +0.000 NA
ATOM     15  C   UNL     1      18.236  42.754  45.027  0.00  0.00    +0.000 C 
ATOM     16  C   UNL     1      20.500  42.418  44.280  0.00  0.00    +0.000 C 
ATOM     17  C   UNL     1      18.187  42.443  43.527  0.00  0.00    +0.000 C 
ATOM     18  C   UNL     1      19.625  42.554  43.042  0.00  0.00    +0.000 C 
BRANCH  15  19
ATOM     19  C   UNL     1      17.009  42.192  45.717  0.00  0.00    +0.000 C 
ATOM     20  O   UNL     1      16.441  42.727  46.666  0.00  0.00    +0.000 OA
BRANCH  19  21
ATOM     21  O   UNL     1      16.609  41.021  45.152  0.00  0.00    +0.000 OA
ATOM     22  C   UNL     1      16.319  39.991  46.098  0.00  0.00    +0.000 C 
ENDBRANCH  19  21
ENDBRANCH  15  19
ENDBRANCH   1  14
TORSDOF 5
ENDMDL
MODEL 3
REMARK VINA RESULT:      -7.0      3.402      6.223
REMARK  Name = 347798
REMARK  6 active torsions:
REMARK  status: ('A' for Active; 'I' for Inactive)
REMARK    1  A    between atoms: C_3  and  O_5
REMARK    2  A    between atoms: C_6  and  S_8
REMARK    3  A    between atoms: S_8  and  N_13
REMARK    4  A    between atoms: C_14  and  C_16
REMARK    5  A    between atoms: C_16  and  O_20
REMARK    6  A    between atoms: O_20  and  C_21
REMARK                            x       y       z     vdW  Elec       q    Type
REMARK                         _______ _______ _______ _____ _____    ______ ____
ROOT
ATOM      1  S   UNL     1      21.032  42.008  46.538  0.00  0.00    +0.000 S 
ATOM      2  O   UNL     1      21.485  43.117  45.718  0.00  0.00    +0.000 OA
ATOM      3  O   UNL     1      21.161  42.076  47.975  0.00  0.00    +0.000 OA
ENDROOT
BRANCH   1   8
ATOM      4 CL   UNL     1      16.316  39.158  46.577  0.00  0.00    +0.000 Cl
ATOM      5  C   UNL     1      17.224  40.573  46.180  0.00  0.00    +0.000 A 
ATOM      6  C   UNL     1      18.583  40.656  46.521  0.00  0.00    +0.000 A 
ATOM      7  C   UNL     1      16.580  41.618  45.519  0.00  0.00    +0.000 A 
ATOM      8  C   UNL     1      19.306  41.795  46.174  0.00  0.00    +0.000 A 
ATOM      9  C   UNL     1      17.307  42.753  45.184  0.00  0.00    +0.000 A 
ATOM     10  C   UNL     1      18.658  42.849  45.504  0.00  0.00    +0.000 A 
ATOM     11 CL   UNL     1      16.530  44.055  44.370  0.00  0.00    +0.000 Cl
BRANCH   6  12
ATOM     12  O   UNL     1      19.168  39.617  47.185  0.00  0.00    +0.000 OA
ATOM     13  H   UNL     1      19.513  39.746  48.047  0.00  0.00    +0.000 HD
ENDBRANCH   6  12
ENDBRANCH   1   8
BRANCH   1  14
ATOM     14  N   UNL     1      21.860  40.669  45.972  0.00  0.00    +0.000 NA
ATOM     15  C   UNL     1      23.152  40.218  46.520  0.00  0.00    +0.000 C 
ATOM     16  C   UNL     1      21.749  40.259  44.564  0.00  0.00    +0.000 C 
ATOM     17  C   UNL     1      24.069  40.263  45.294  0.00  0.00    +0.000 C 
ATOM     18  C   UNL     1      23.170  39.968  44.103  0.00  0.00    +0.000 C 
BRANCH  15  19
ATOM     19  C   UNL     1      23.782  40.977  47.671  0.00  0.00    +0.000 C 
ATOM     20  O   UNL     1      23.637  40.686  48.856  0.00  0.00    +0.000 OA
BRANCH  19  21
ATOM     21  O   UNL     1      24.535  42.021  47.231  0.00  0.00    +0.000 OA
ATOM     22  C   UNL     1      25.766  42.186  47.936  0.00  0.00    +0.000 C 
ENDBRANCH  19  21
ENDBRANCH  15  19
ENDBRANCH   1  14
TORSDOF 5
ENDMDL
MODEL 4
REMARK VINA RESULT:      -6.9      0.673      2.221
REMARK  Name = 347798
REMARK  6 active torsions:
REMARK  status: ('A' for Active; 'I' for Inactive)
REMARK    1  A    between atoms: C_3  and  O_5
REMARK    2  A    between atoms: C_6  and  S_8
REMARK    3  A    between atoms: S_8  and  N_13
REMARK    4  A    between atoms: C_14  and  C_16
REMARK    5  A    between atoms: C_16  and  O_20
REMARK    6  A    between atoms: O_20  and  C_21
REMARK                            x       y       z     vdW  Elec       q    Type
REMARK                         _______ _______ _______ _____ _____    ______ ____
ROOT
ATOM      1  S   UNL     1      20.152  41.948  45.406  0.00  0.00    +0.000 S 
ATOM      2  O   UNL     1      19.735  43.155  46.098  0.00  0.00    +0.000 OA
ATOM      3  O   UNL     1      20.504  42.006  44.006  0.00  0.00    +0.000 OA
ENDROOT
BRANCH   1   8
ATOM      4 CL   UNL     1      23.723  41.980  49.603  0.00  0.00    +0.000 Cl
ATOM      5  C   UNL     1      23.150  41.327  48.109  0.00  0.00    +0.000 A 
ATOM      6  C   UNL     1      22.008  41.865  47.496  0.00  0.00    +0.000 A 
ATOM      7  C   UNL     1      23.846  40.265  47.533  0.00  0.00    +0.000 A 
ATOM      8  C   UNL     1      21.573  41.341  46.282  0.00  0.00    +0.000 A 
ATOM      9  C   UNL     1      23.400  39.743  46.325  0.00  0.00    +0.000 A 
ATOM     10  C   UNL     1      22.276  40.271  45.698  0.00  0.00    +0.000 A 
ATOM     11 CL   UNL     1      24.243  38.430  45.600  0.00  0.00    +0.000 Cl
BRANCH   6  12
ATOM     12  O   UNL     1      21.347  42.893  48.105  0.00  0.00    +0.000 OA
ATOM     13  H   UNL     1      20.436  42.808  48.311  0.00  0.00    +0.000 HD
ENDBRANCH   6  12
ENDBRANCH   1   8
BRANCH   1  14
ATOM     14  N   UNL     1      18.898  40.861  45.615  0.00  0.00    +0.000 NA
ATOM     15  C   UNL     1      17.542  41.067  45.075  0.00  0.00    +0.000 C 
ATOM     16  C   UNL     1      18.829  40.018  46.818  0.00  0.00    +0.000 C 
ATOM     17  C   UNL     1      16.671  41.032  46.335  0.00  0.00    +0.000 C 
ATOM     18  C   UNL     1      17.386  40.093  47.296  0.00  0.00    +0.000 C 
BRANCH  15  19
ATOM     19  C   UNL     1      17.240  42.314  44.267  0.00  0.00    +0.000 C 
ATOM     20  O   UNL     1      16.865  43.379  44.749  0.00  0.00    +0.000 OA
BRANCH  19  21
ATOM     21  O   UNL     1      17.438  42.108  42.937  0.00  0.00    +0.000 OA
ATOM     22  C   UNL     1      16.810  40.929  42.433  0.00  0.00    +0.000 C 
ENDBRANCH  19  21
ENDBRANCH  15  19
ENDBRANCH   1  14
TORSDOF 5
ENDMDL
MODEL 5
REMARK VINA RESULT:      -6.6      3.251      5.477
REMARK  Name = 347798
REMARK  6 active torsions:
REMARK  status: ('A' for Active; 'I' for Inactive)
REMARK    1  A    between atoms: C_3  and  O_5
REMARK    2  A    between atoms: C_6  and  S_8
REMARK    3  A    between atoms: S_8  and  N_13
REMARK    4  A    between atoms: C_14  and  C_16
REMARK    5  A    between atoms: C_16  and  O_20
REMARK    6  A    between atoms: O_20  and  C_21
REMARK                            x       y       z     vdW  Elec       q    Type
REMARK                         _______ _______ _______ _____ _____    ______ ____
ROOT
ATOM      1  S   UNL     1      20.564  40.561  43.850  0.00  0.00    +0.000 S 
ATOM      2  O   UNL     1      20.401  39.402  42.991  0.00  0.00    +0.000 OA
ATOM      3  O   UNL     1      21.039  41.807  43.295  0.00  0.00    +0.000 OA
ENDROOT
BRANCH   1   8
ATOM      4 CL   UNL     1      16.131  39.142  46.801  0.00  0.00    +0.000 Cl
ATOM      5  C   UNL     1      17.016  40.287  45.855  0.00  0.00    +0.000 A 
ATOM      6  C   UNL     1      18.279  39.951  45.343  0.00  0.00    +0.000 A 
ATOM      7  C   UNL     1      16.449  41.537  45.616  0.00  0.00    +0.000 A 
ATOM      8  C   UNL     1      18.968  40.878  44.565  0.00  0.00    +0.000 A 
ATOM      9  C   UNL     1      17.147  42.458  44.845  0.00  0.00    +0.000 A 
ATOM     10  C   UNL     1      18.396  42.139  44.320  0.00  0.00    +0.000 A 
ATOM     11 CL   UNL     1      16.466  44.009  44.541  0.00  0.00    +0.000 Cl
BRANCH   6  12
ATOM     12  O   UNL     1      18.804  38.721  45.617  0.00  0.00    +0.000 OA
ATOM     13  H   UNL     1      18.901  38.089  44.932  0.00  0.00    +0.000 HD
ENDBRANCH   6  12
ENDBRANCH   1   8
BRANCH   1  14
ATOM     14  N   UNL     1      21.600  40.069  45.068  0.00  0.00    +0.000 NA
ATOM     15  C   UNL     1      21.764  40.795  46.341  0.00  0.00    +0.000 C 
ATOM     16  C   UNL     1      22.836  39.339  44.751  0.00  0.00    +0.000 C 
ATOM     17  C   UNL     1      23.260  41.125  46.346  0.00  0.00    +0.000 C 
ATOM     18  C   UNL     1      23.930  39.991  45.586  0.00  0.00    +0.000 C 
BRANCH  15  19
ATOM     19  C   UNL     1      20.952  42.049  46.598  0.00  0.00    +0.000 C 
ATOM     20  O   UNL     1      21.157  43.131  46.056  0.00  0.00    +0.000 OA
BRANCH  19  21
ATOM     21  O   UNL     1      19.961  41.826  47.503  0.00  0.00    +0.000 OA
ATOM     22  C   UNL     1      19.179  42.983  47.802  0.00  0.00    +0.000 C 
ENDBRANCH  19  21
ENDBRANCH  15  19
ENDBRANCH   1  14
TORSDOF 5
ENDMDL
MODEL 6
REMARK VINA RESULT:      -6.6      3.268      6.204
REMARK  Name = 347798
REMARK  6 active torsions:
REMARK  status: ('A' for Active; 'I' for Inactive)
REMARK    1  A    between atoms: C_3  and  O_5
REMARK    2  A    between atoms: C_6  and  S_8
REMARK    3  A    between atoms: S_8  and  N_13
REMARK    4  A    between atoms: C_14  and  C_16
REMARK    5  A    between atoms: C_16  and  O_20
REMARK    6  A    between atoms: O_20  and  C_21
REMARK                            x       y       z     vdW  Elec       q    Type
REMARK                         _______ _______ _______ _____ _____    ______ ____
ROOT
ATOM      1  S   UNL     1      20.804  41.635  46.283  0.00  0.00    +0.000 S 
ATOM      2  O   UNL     1      21.253  42.733  45.445  0.00  0.00    +0.000 OA
ATOM      3  O   UNL     1      20.662  41.829  47.708  0.00  0.00    +0.000 OA
ENDROOT
BRANCH   1   8
ATOM      4 CL   UNL     1      16.982  41.274  42.330  0.00  0.00    +0.000 Cl
ATOM      5  C   UNL     1      17.521  40.974  43.944  0.00  0.00    +0.000 A 
ATOM      6  C   UNL     1      18.803  41.382  44.346  0.00  0.00    +0.000 A 
ATOM      7  C   UNL     1      16.660  40.326  44.828  0.00  0.00    +0.000 A 
ATOM      8  C   UNL     1      19.213  41.152  45.656  0.00  0.00    +0.000 A 
ATOM      9  C   UNL     1      17.080  40.094  46.131  0.00  0.00    +0.000 A 
ATOM     10  C   UNL     1      18.344  40.500  46.550  0.00  0.00    +0.000 A 
ATOM     11 CL   UNL     1      16.033  39.292  47.236  0.00  0.00    +0.000 Cl
BRANCH   6  12
ATOM     12  O   UNL     1      19.620  41.997  43.441  0.00  0.00    +0.000 OA
ATOM     13  H   UNL     1      20.135  42.736  43.701  0.00  0.00    +0.000 HD
ENDBRANCH   6  12
ENDBRANCH   1   8
BRANCH   1  14
ATOM     14  N   UNL     1      21.884  40.390  46.001  0.00  0.00    +0.000 NA
ATOM     15  C   UNL     1      23.237  40.336  46.584  0.00  0.00    +0.000 C 
ATOM     16  C   UNL     1      21.864  39.655  44.727  0.00  0.00    +0.000 C 
ATOM     17  C   UNL     1      24.134  40.277  45.343  0.00  0.00    +0.000 C 
ATOM     18  C   UNL     1      23.317  39.548  44.286  0.00  0.00    +0.000 C 
BRANCH  15  19
ATOM     19  C   UNL     1      23.698  41.446  47.508  0.00  0.00    +0.000 C 
ATOM     20  O   UNL     1      24.171  42.514  47.128  0.00  0.00    +0.000 OA
BRANCH  19  21
ATOM     21  O   UNL     1      23.519  41.115  48.815  0.00  0.00    +0.000 OA
ATOM     22  C   UNL     1      23.779  42.185  49.725  0.00  0.00    +0.000 C 
ENDBRANCH  19  21
ENDBRANCH  15  19
ENDBRANCH   1  14
TORSDOF 5
ENDMDL
MODEL 7
REMARK VINA RESULT:      -6.5      3.045      5.321
REMARK  Name = 347798
REMARK  6 active torsions:
REMARK  status: ('A' for Active; 'I' for Inactive)
REMARK    1  A    between atoms: C_3  and  O_5
REMARK    2  A    between atoms: C_6  and  S_8
REMARK    3  A    between atoms: S_8  and  N_13
REMARK    4  A    between atoms: C_14  and  C_16
REMARK    5  A    between atoms: C_16  and  O_20
REMARK    6  A    between atoms: O_20  and  C_21
REMARK                            x       y       z     vdW  Elec       q    Type
REMARK                         _______ _______ _______ _____ _____    ______ ____
ROOT
ATOM      1  S   UNL     1      21.043  40.596  44.672  0.00  0.00    +0.000 S 
ATOM      2  O   UNL     1      21.842  39.502  44.148  0.00  0.00    +0.000 OA
ATOM      3  O   UNL     1      21.228  41.933  44.159  0.00  0.00    +0.000 OA
ENDROOT
BRANCH   1   8
ATOM      4 CL   UNL     1      16.183  41.139  42.132  0.00  0.00    +0.000 Cl
ATOM      5  C   UNL     1      17.208  40.362  43.287  0.00  0.00    +0.000 A 
ATOM      6  C   UNL     1      18.542  40.774  43.434  0.00  0.00    +0.000 A 
ATOM      7  C   UNL     1      16.680  39.331  44.062  0.00  0.00    +0.000 A 
ATOM      8  C   UNL     1      19.347  40.152  44.385  0.00  0.00    +0.000 A 
ATOM      9  C   UNL     1      17.493  38.711  45.003  0.00  0.00    +0.000 A 
ATOM     10  C   UNL     1      18.815  39.113  45.170  0.00  0.00    +0.000 A 
ATOM     11 CL   UNL     1      16.862  37.434  45.967  0.00  0.00    +0.000 Cl
BRANCH   6  12
ATOM     12  O   UNL     1      19.021  41.776  42.641  0.00  0.00    +0.000 OA
ATOM     13  H   UNL     1      18.587  41.986  41.837  0.00  0.00    +0.000 HD
ENDBRANCH   6  12
ENDBRANCH   1   8
BRANCH   1  14
ATOM     14  N   UNL     1      21.317  40.594  46.322  0.00  0.00    +0.000 NA
ATOM     15  C   UNL     1      20.613  41.482  47.266  0.00  0.00    +0.000 C 
ATOM     16  C   UNL     1      22.640  40.247  46.862  0.00  0.00    +0.000 C 
ATOM     17  C   UNL     1      21.763  42.254  47.920  0.00  0.00    +0.000 C 
ATOM     18  C   UNL     1      22.947  41.298  47.920  0.00  0.00    +0.000 C 
BRANCH  15  19
ATOM     19  C   UNL     1      19.565  42.446  46.746  0.00  0.00    +0.000 C 
ATOM     20  O   UNL     1      19.818  43.502  46.171  0.00  0.00    +0.000 OA
BRANCH  19  21
ATOM     21  O   UNL     1      18.305  41.997  46.993  0.00  0.00    +0.000 OA
ATOM     22  C   UNL     1      17.284  42.745  46.331  0.00  0.00    +0.000 C 
ENDBRANCH  19  21
ENDBRANCH  15  19
ENDBRANCH   1  14
TORSDOF 5
ENDMDL
MODEL 8
REMARK VINA RESULT:      -6.3      1.759      3.293
REMARK  Name = 347798
REMARK  6 active torsions:
REMARK  status: ('A' for Active; 'I' for Inactive)
REMARK    1  A    between atoms: C_3  and  O_5
REMARK    2  A    between atoms: C_6  and  S_8
REMARK    3  A    between atoms: S_8  and  N_13
REMARK    4  A    between atoms: C_14  and  C_16
REMARK    5  A    between atoms: C_16  and  O_20
REMARK    6  A    between atoms: O_20  and  C_21
REMARK                            x       y       z     vdW  Elec       q    Type
REMARK                         _______ _______ _______ _____ _____    ______ ____
ROOT
ATOM      1  S   UNL     1      19.951  41.293  46.974  0.00  0.00    +0.000 S 
ATOM      2  O   UNL     1      19.367  40.017  46.600  0.00  0.00    +0.000 OA
ATOM      3  O   UNL     1      19.453  42.001  48.130  0.00  0.00    +0.000 OA
ENDROOT
BRANCH   1   8
ATOM      4 CL   UNL     1      24.844  42.424  49.244  0.00  0.00    +0.000 Cl
ATOM      5  C   UNL     1      23.834  41.452  48.232  0.00  0.00    +0.000 A 
ATOM      6  C   UNL     1      22.474  41.766  48.086  0.00  0.00    +0.000 A 
ATOM      7  C   UNL     1      24.399  40.363  47.572  0.00  0.00    +0.000 A 
ATOM      8  C   UNL     1      21.679  40.985  47.250  0.00  0.00    +0.000 A 
ATOM      9  C   UNL     1      23.597  39.584  46.747  0.00  0.00    +0.000 A 
ATOM     10  C   UNL     1      22.249  39.887  46.581  0.00  0.00    +0.000 A 
ATOM     11 CL   UNL     1      24.275  38.233  45.925  0.00  0.00    +0.000 Cl
BRANCH   6  12
ATOM     12  O   UNL     1      21.959  42.831  48.766  0.00  0.00    +0.000 OA
ATOM     13  H   UNL     1      21.398  43.442  48.327  0.00  0.00    +0.000 HD
ENDBRANCH   6  12
ENDBRANCH   1   8
BRANCH   1  14
ATOM     14  N   UNL     1      19.798  42.265  45.622  0.00  0.00    +0.000 NA
ATOM     15  C   UNL     1      18.501  42.726  45.093  0.00  0.00    +0.000 C 
ATOM     16  C   UNL     1      20.781  42.194  44.531  0.00  0.00    +0.000 C 
ATOM     17  C   UNL     1      18.508  42.173  43.664  0.00  0.00    +0.000 C 
ATOM     18  C   UNL     1      19.970  42.154  43.243  0.00  0.00    +0.000 C 
BRANCH  15  19
ATOM     19  C   UNL     1      17.220  42.328  45.799  0.00  0.00    +0.000 C 
ATOM     20  O   UNL     1      16.711  42.960  46.721  0.00  0.00    +0.000 OA
BRANCH  19  21
ATOM     21  O   UNL     1      16.699  41.183  45.283  0.00  0.00    +0.000 OA
ATOM     22  C   UNL     1      16.339  40.214  46.269  0.00  0.00    +0.000 C 
ENDBRANCH  19  21
ENDBRANCH  15  19
ENDBRANCH   1  14
TORSDOF 5
ENDMDL
MODEL 9
REMARK VINA RESULT:      -6.3      2.987      6.129
REMARK  Name = 347798
REMARK  6 active torsions:
REMARK  status: ('A' for Active; 'I' for Inactive)
REMARK    1  A    between atoms: C_3  and  O_5
REMARK    2  A    between atoms: C_6  and  S_8
REMARK    3  A    between atoms: S_8  and  N_13
REMARK    4  A    between atoms: C_14  and  C_16
REMARK    5  A    between atoms: C_16  and  O_20
REMARK    6  A    between atoms: O_20  and  C_21
REMARK                            x       y       z     vdW  Elec       q    Type
REMARK                         _______ _______ _______ _____ _____    ______ ____
ROOT
ATOM      1  S   UNL     1      21.323  41.324  45.059  0.00  0.00    +0.000 S 
ATOM      2  O   UNL     1      21.377  40.929  43.663  0.00  0.00    +0.000 OA
ATOM      3  O   UNL     1      21.829  42.616  45.461  0.00  0.00    +0.000 OA
ENDROOT
BRANCH   1   8
ATOM      4 CL   UNL     1      16.684  43.537  47.045  0.00  0.00    +0.000 Cl
ATOM      5  C   UNL     1      17.562  42.201  46.388  0.00  0.00    +0.000 A 
ATOM      6  C   UNL     1      18.912  42.351  46.034  0.00  0.00    +0.000 A 
ATOM      7  C   UNL     1      16.903  40.984  46.222  0.00  0.00    +0.000 A 
ATOM      8  C   UNL     1      19.611  41.259  45.527  0.00  0.00    +0.000 A 
ATOM      9  C   UNL     1      17.606  39.902  45.708  0.00  0.00    +0.000 A 
ATOM     10  C   UNL     1      18.948  40.029  45.362  0.00  0.00    +0.000 A 
ATOM     11 CL   UNL     1      16.809  38.392  45.493  0.00  0.00    +0.000 Cl
BRANCH   6  12
ATOM     12  O   UNL     1      19.512  43.567  46.197  0.00  0.00    +0.000 OA
ATOM     13  H   UNL     1      20.370  43.620  46.571  0.00  0.00    +0.000 HD
ENDBRANCH   6  12
ENDBRANCH   1   8
BRANCH   1  14
ATOM     14  N   UNL     1      22.143  40.126  45.891  0.00  0.00    +0.000 NA
ATOM     15  C   UNL     1      22.651  40.291  47.265  0.00  0.00    +0.000 C 
ATOM     16  C   UNL     1      22.969  39.145  45.172  0.00  0.00    +0.000 C 
ATOM     17  C   UNL     1      24.153  40.040  47.100  0.00  0.00    +0.000 C 
ATOM     18  C   UNL     1      24.276  39.053  45.949  0.00  0.00    +0.000 C 
BRANCH  15  19
ATOM     19  C   UNL     1      22.417  41.597  47.999  0.00  0.00    +0.000 C 
ATOM     20  O   UNL     1      21.309  42.055  48.263  0.00  0.00    +0.000 OA
BRANCH  19  21
ATOM     21  O   UNL     1      23.590  42.200  48.332  0.00  0.00    +0.000 OA
ATOM     22  C   UNL     1      23.689  42.548  49.714  0.00  0.00    +0.000 C 
ENDBRANCH  19  21
ENDBRANCH  15  19
ENDBRANCH   1  14
TORSDOF 5
ENDMDL
