MODEL 1
REMARK VINA RESULT:      -7.8      0.000      0.000
REMARK  Name = 347791
REMARK  4 active torsions:
REMARK  status: ('A' for Active; 'I' for Inactive)
REMARK    1  A    between atoms: C_4  and  O_7
REMARK    2  A    between atoms: C_8  and  S_11
REMARK    3  A    between atoms: S_11  and  N_14
REMARK    4  A    between atoms: C_15  and  C_17
REMARK                            x       y       z     vdW  Elec       q    Type
REMARK                         _______ _______ _______ _____ _____    ______ ____
ROOT
ATOM      1 CL   UNL     1      24.117  38.540  45.919  0.00  0.00    +0.000 Cl
ATOM      2  C   UNL     1      23.233  39.943  46.432  0.00  0.00    +0.000 A 
ATOM      3  C   UNL     1      23.590  40.663  47.585  0.00  0.00    +0.000 A 
ATOM      4  C   UNL     1      22.126  40.339  45.661  0.00  0.00    +0.000 A 
ATOM      5 CL   UNL     1      24.975  40.197  48.520  0.00  0.00    +0.000 Cl
ATOM      6  C   UNL     1      22.816  41.767  47.964  0.00  0.00    +0.000 A 
ATOM      7  C   UNL     1      21.379  41.453  46.037  0.00  0.00    +0.000 A 
ATOM      8 CL   UNL     1      23.156  42.702  49.379  0.00  0.00    +0.000 Cl
ATOM      9  C   UNL     1      21.708  42.155  47.201  0.00  0.00    +0.000 A 
ENDROOT
BRANCH   7  10
ATOM     10  S   UNL     1      19.962  41.952  45.103  0.00  0.00    +0.000 S 
ATOM     11  O   UNL     1      19.431  43.139  45.728  0.00  0.00    +0.000 OA
ATOM     12  O   UNL     1      20.325  41.963  43.695  0.00  0.00    +0.000 OA
BRANCH  10  13
ATOM     13  N   UNL     1      18.874  40.681  45.259  0.00  0.00    +0.000 NA
ATOM     14  C   UNL     1      17.508  40.694  44.676  0.00  0.00    +0.000 C 
ATOM     15  C   UNL     1      18.782  40.066  46.610  0.00  0.00    +0.000 C 
ATOM     16  C   UNL     1      16.606  40.861  45.898  0.00  0.00    +0.000 C 
ATOM     17  C   UNL     1      17.304  40.065  46.984  0.00  0.00    +0.000 C 
BRANCH  14  18
ATOM     18  C   UNL     1      17.030  41.586  43.554  0.00  0.00    +0.000 C 
ATOM     19  O   UNL     1      16.907  41.181  42.404  0.00  0.00    +0.000 OA
ATOM     20  O   UNL     1      16.677  42.845  43.876  0.00  0.00    +0.000 OA
ENDBRANCH  14  18
ENDBRANCH  10  13
ENDBRANCH   7  10
BRANCH   4  21
ATOM     21  O   UNL     1      21.779  39.628  44.545  0.00  0.00    +0.000 OA
ATOM     22  H   UNL     1      22.094  39.891  43.702  0.00  0.00    +0.000 HD
ENDBRANCH   4  21
TORSDOF 4
ENDMDL
MODEL 2
REMARK VINA RESULT:      -7.1      2.264      2.944
REMARK  Name = 347791
REMARK  4 active torsions:
REMARK  status: ('A' for Active; 'I' for Inactive)
REMARK    1  A    between atoms: C_4  and  O_7
REMARK    2  A    between atoms: C_8  and  S_11
REMARK    3  A    between atoms: S_11  and  N_14
REMARK    4  A    between atoms: C_15  and  C_17
REMARK                            x       y       z     vdW  Elec       q    Type
REMARK                         _______ _______ _______ _____ _____    ______ ____
ROOT
ATOM      1 CL   UNL     1      22.265  39.480  43.368  0.00  0.00    +0.000 Cl
ATOM      2  C   UNL     1      21.307  40.041  44.702  0.00  0.00    +0.000 A 
ATOM      3  C   UNL     1      21.869  40.778  45.760  0.00  0.00    +0.000 A 
ATOM      4  C   UNL     1      19.938  39.724  44.706  0.00  0.00    +0.000 A 
ATOM      5 CL   UNL     1      23.552  41.199  45.743  0.00  0.00    +0.000 Cl
ATOM      6  C   UNL     1      21.049  41.172  46.824  0.00  0.00    +0.000 A 
ATOM      7  C   UNL     1      19.129  40.144  45.760  0.00  0.00    +0.000 A 
ATOM      8 CL   UNL     1      21.649  42.057  48.184  0.00  0.00    +0.000 Cl
ATOM      9  C   UNL     1      19.687  40.848  46.831  0.00  0.00    +0.000 A 
ENDROOT
BRANCH   7  10
ATOM     10  S   UNL     1      17.410  39.729  45.804  0.00  0.00    +0.000 S 
ATOM     11  O   UNL     1      17.155  38.834  44.702  0.00  0.00    +0.000 OA
ATOM     12  O   UNL     1      17.071  39.337  47.163  0.00  0.00    +0.000 OA
BRANCH  10  13
ATOM     13  N   UNL     1      16.609  41.186  45.561  0.00  0.00    +0.000 NA
ATOM     14  C   UNL     1      16.748  42.003  44.328  0.00  0.00    +0.000 C 
ATOM     15  C   UNL     1      16.589  42.119  46.720  0.00  0.00    +0.000 C 
ATOM     16  C   UNL     1      17.582  43.197  44.790  0.00  0.00    +0.000 C 
ATOM     17  C   UNL     1      17.101  43.459  46.204  0.00  0.00    +0.000 C 
BRANCH  14  18
ATOM     18  C   UNL     1      17.245  41.512  42.989  0.00  0.00    +0.000 C 
ATOM     19  O   UNL     1      18.392  41.711  42.603  0.00  0.00    +0.000 OA
ATOM     20  O   UNL     1      16.392  40.780  42.247  0.00  0.00    +0.000 OA
ENDBRANCH  14  18
ENDBRANCH  10  13
ENDBRANCH   7  10
BRANCH   4  21
ATOM     21  O   UNL     1      19.400  38.998  43.678  0.00  0.00    +0.000 OA
ATOM     22  H   UNL     1      18.654  38.452  43.829  0.00  0.00    +0.000 HD
ENDBRANCH   4  21
TORSDOF 4
ENDMDL
MODEL 3
REMARK VINA RESULT:      -7.0      3.919      6.366
REMARK  Name = 347791
REMARK  4 active torsions:
REMARK  status: ('A' for Active; 'I' for Inactive)
REMARK    1  A    between atoms: C_4  and  O_7
REMARK    2  A    between atoms: C_8  and  S_11
REMARK    3  A    between atoms: S_11  and  N_14
REMARK    4  A    between atoms: C_15  and  C_17
REMARK                            x       y       z     vdW  Elec       q    Type
REMARK                         _______ _______ _______ _____ _____    ______ ____
ROOT
ATOM      1 CL   UNL     1      16.819  39.068  44.938  0.00  0.00    +0.000 Cl
ATOM      2  C   UNL     1      17.914  40.379  44.628  0.00  0.00    +0.000 A 
ATOM      3  C   UNL     1      17.778  41.208  43.501  0.00  0.00    +0.000 A 
ATOM      4  C   UNL     1      18.965  40.585  45.539  0.00  0.00    +0.000 A 
ATOM      5 CL   UNL     1      16.463  40.978  42.392  0.00  0.00    +0.000 Cl
ATOM      6  C   UNL     1      18.714  42.228  43.290  0.00  0.00    +0.000 A 
ATOM      7  C   UNL     1      19.876  41.618  45.328  0.00  0.00    +0.000 A 
ATOM      8 CL   UNL     1      18.650  43.284  41.922  0.00  0.00    +0.000 Cl
ATOM      9  C   UNL     1      19.767  42.426  44.193  0.00  0.00    +0.000 A 
ENDROOT
BRANCH   7  10
ATOM     10  S   UNL     1      21.226  41.876  46.442  0.00  0.00    +0.000 S 
ATOM     11  O   UNL     1      21.946  43.038  45.981  0.00  0.00    +0.000 OA
ATOM     12  O   UNL     1      20.713  41.820  47.801  0.00  0.00    +0.000 OA
BRANCH  10  13
ATOM     13  N   UNL     1      22.184  40.504  46.284  0.00  0.00    +0.000 NA
ATOM     14  C   UNL     1      23.551  40.388  46.852  0.00  0.00    +0.000 C 
ATOM     15  C   UNL     1      22.201  39.874  44.936  0.00  0.00    +0.000 C 
ATOM     16  C   UNL     1      24.451  40.458  45.620  0.00  0.00    +0.000 C 
ATOM     17  C   UNL     1      23.667  39.727  44.547  0.00  0.00    +0.000 C 
BRANCH  14  18
ATOM     18  C   UNL     1      24.126  41.236  47.962  0.00  0.00    +0.000 C 
ATOM     19  O   UNL     1      23.768  41.117  49.129  0.00  0.00    +0.000 OA
ATOM     20  O   UNL     1      25.107  42.098  47.634  0.00  0.00    +0.000 OA
ENDBRANCH  14  18
ENDBRANCH  10  13
ENDBRANCH   7  10
BRANCH   4  21
ATOM     21  O   UNL     1      19.097  39.767  46.629  0.00  0.00    +0.000 OA
ATOM     22  H   UNL     1      19.284  40.134  47.471  0.00  0.00    +0.000 HD
ENDBRANCH   4  21
TORSDOF 4
ENDMDL
MODEL 4
REMARK VINA RESULT:      -6.9      1.917      2.554
REMARK  Name = 347791
REMARK  4 active torsions:
REMARK  status: ('A' for Active; 'I' for Inactive)
REMARK    1  A    between atoms: C_4  and  O_7
REMARK    2  A    between atoms: C_8  and  S_11
REMARK    3  A    between atoms: S_11  and  N_14
REMARK    4  A    between atoms: C_15  and  C_17
REMARK                            x       y       z     vdW  Elec       q    Type
REMARK                         _______ _______ _______ _____ _____    ______ ____
ROOT
ATOM      1 CL   UNL     1      25.058  39.536  45.770  0.00  0.00    +0.000 Cl
ATOM      2  C   UNL     1      23.907  40.461  46.682  0.00  0.00    +0.000 A 
ATOM      3  C   UNL     1      24.291  41.242  47.786  0.00  0.00    +0.000 A 
ATOM      4  C   UNL     1      22.558  40.398  46.292  0.00  0.00    +0.000 A 
ATOM      5 CL   UNL     1      25.960  41.348  48.251  0.00  0.00    +0.000 Cl
ATOM      6  C   UNL     1      23.310  41.938  48.501  0.00  0.00    +0.000 A 
ATOM      7  C   UNL     1      21.594  41.115  46.999  0.00  0.00    +0.000 A 
ATOM      8 CL   UNL     1      23.676  42.904  49.889  0.00  0.00    +0.000 Cl
ATOM      9  C   UNL     1      21.964  41.867  48.118  0.00  0.00    +0.000 A 
ENDROOT
BRANCH   7  10
ATOM     10  S   UNL     1      19.886  41.025  46.548  0.00  0.00    +0.000 S 
ATOM     11  O   UNL     1      19.698  39.795  45.819  0.00  0.00    +0.000 OA
ATOM     12  O   UNL     1      19.088  41.310  47.730  0.00  0.00    +0.000 OA
BRANCH  10  13
ATOM     13  N   UNL     1      19.640  42.341  45.532  0.00  0.00    +0.000 NA
ATOM     14  C   UNL     1      18.295  42.869  45.185  0.00  0.00    +0.000 C 
ATOM     15  C   UNL     1      20.469  42.376  44.298  0.00  0.00    +0.000 C 
ATOM     16  C   UNL     1      18.114  42.442  43.730  0.00  0.00    +0.000 C 
ATOM     17  C   UNL     1      19.504  42.563  43.134  0.00  0.00    +0.000 C 
BRANCH  14  18
ATOM     18  C   UNL     1      17.020  42.628  45.958  0.00  0.00    +0.000 C 
ATOM     19  O   UNL     1      16.538  43.471  46.706  0.00  0.00    +0.000 OA
ATOM     20  O   UNL     1      16.383  41.459  45.747  0.00  0.00    +0.000 OA
ENDBRANCH  14  18
ENDBRANCH  10  13
ENDBRANCH   7  10
BRANCH   4  21
ATOM     21  O   UNL     1      22.189  39.628  45.222  0.00  0.00    +0.000 OA
ATOM     22  H   UNL     1      21.876  38.755  45.357  0.00  0.00    +0.000 HD
ENDBRANCH   4  21
TORSDOF 4
ENDMDL
MODEL 5
REMARK VINA RESULT:      -6.8      1.776      1.978
REMARK  Name = 347791
REMARK  4 active torsions:
REMARK  status: ('A' for Active; 'I' for Inactive)
REMARK    1  A    between atoms: C_4  and  O_7
REMARK    2  A    between atoms: C_8  and  S_11
REMARK    3  A    between atoms: S_11  and  N_14
REMARK    4  A    between atoms: C_15  and  C_17
REMARK                            x       y       z     vdW  Elec       q    Type
REMARK                         _______ _______ _______ _____ _____    ______ ____
ROOT
ATOM      1 CL   UNL     1      25.355  39.918  45.552  0.00  0.00    +0.000 Cl
ATOM      2  C   UNL     1      24.029  40.750  46.303  0.00  0.00    +0.000 A 
ATOM      3  C   UNL     1      24.152  41.349  47.569  0.00  0.00    +0.000 A 
ATOM      4  C   UNL     1      22.808  40.800  45.608  0.00  0.00    +0.000 A 
ATOM      5 CL   UNL     1      25.667  41.318  48.414  0.00  0.00    +0.000 Cl
ATOM      6  C   UNL     1      23.036  41.977  48.134  0.00  0.00    +0.000 A 
ATOM      7  C   UNL     1      21.712  41.449  46.174  0.00  0.00    +0.000 A 
ATOM      8 CL   UNL     1      23.076  42.719  49.696  0.00  0.00    +0.000 Cl
ATOM      9  C   UNL     1      21.817  42.018  47.446  0.00  0.00    +0.000 A 
ENDROOT
BRANCH   7  10
ATOM     10  S   UNL     1      20.155  41.496  45.335  0.00  0.00    +0.000 S 
ATOM     11  O   UNL     1      20.166  42.654  44.474  0.00  0.00    +0.000 OA
ATOM     12  O   UNL     1      19.892  40.175  44.787  0.00  0.00    +0.000 OA
BRANCH  10  13
ATOM     13  N   UNL     1      19.015  41.694  46.554  0.00  0.00    +0.000 NA
ATOM     14  C   UNL     1      17.682  41.040  46.544  0.00  0.00    +0.000 C 
ATOM     15  C   UNL     1      18.833  43.083  47.055  0.00  0.00    +0.000 C 
ATOM     16  C   UNL     1      16.726  42.195  46.251  0.00  0.00    +0.000 C 
ATOM     17  C   UNL     1      17.339  43.376  46.978  0.00  0.00    +0.000 C 
BRANCH  14  18
ATOM     18  C   UNL     1      17.294  39.827  45.732  0.00  0.00    +0.000 C 
ATOM     19  O   UNL     1      17.490  38.684  46.128  0.00  0.00    +0.000 OA
ATOM     20  O   UNL     1      16.657  40.045  44.565  0.00  0.00    +0.000 OA
ENDBRANCH  14  18
ENDBRANCH  10  13
ENDBRANCH   7  10
BRANCH   4  21
ATOM     21  O   UNL     1      22.693  40.207  44.380  0.00  0.00    +0.000 OA
ATOM     22  H   UNL     1      21.863  40.183  43.946  0.00  0.00    +0.000 HD
ENDBRANCH   4  21
TORSDOF 4
ENDMDL
MODEL 6
REMARK VINA RESULT:      -6.7      0.681      2.247
REMARK  Name = 347791
REMARK  4 active torsions:
REMARK  status: ('A' for Active; 'I' for Inactive)
REMARK    1  A    between atoms: C_4  and  O_7
REMARK    2  A    between atoms: C_8  and  S_11
REMARK    3  A    between atoms: S_11  and  N_14
REMARK    4  A    between atoms: C_15  and  C_17
REMARK                            x       y       z     vdW  Elec       q    Type
REMARK                         _______ _______ _______ _____ _____    ______ ____
ROOT
ATOM      1 CL   UNL     1      22.755  42.517  49.176  0.00  0.00    +0.000 Cl
ATOM      2  C   UNL     1      22.592  41.539  47.752  0.00  0.00    +0.000 A 
ATOM      3  C   UNL     1      23.492  40.499  47.460  0.00  0.00    +0.000 A 
ATOM      4  C   UNL     1      21.529  41.826  46.877  0.00  0.00    +0.000 A 
ATOM      5 CL   UNL     1      24.786  40.122  48.553  0.00  0.00    +0.000 Cl
ATOM      6  C   UNL     1      23.326  39.769  46.277  0.00  0.00    +0.000 A 
ATOM      7  C   UNL     1      21.362  41.074  45.716  0.00  0.00    +0.000 A 
ATOM      8 CL   UNL     1      24.394  38.489  45.814  0.00  0.00    +0.000 Cl
ATOM      9  C   UNL     1      22.272  40.061  45.402  0.00  0.00    +0.000 A 
ENDROOT
BRANCH   7  10
ATOM     10  S   UNL     1      20.053  41.437  44.583  0.00  0.00    +0.000 S 
ATOM     11  O   UNL     1      19.666  42.809  44.798  0.00  0.00    +0.000 OA
ATOM     12  O   UNL     1      20.456  40.985  43.261  0.00  0.00    +0.000 OA
BRANCH  10  13
ATOM     13  N   UNL     1      18.801  40.407  45.029  0.00  0.00    +0.000 NA
ATOM     14  C   UNL     1      17.388  40.608  44.616  0.00  0.00    +0.000 C 
ATOM     15  C   UNL     1      18.797  39.964  46.448  0.00  0.00    +0.000 C 
ATOM     16  C   UNL     1      16.706  41.062  45.906  0.00  0.00    +0.000 C 
ATOM     17  C   UNL     1      17.407  40.270  46.993  0.00  0.00    +0.000 C 
BRANCH  14  18
ATOM     18  C   UNL     1      16.913  41.449  43.455  0.00  0.00    +0.000 C 
ATOM     19  O   UNL     1      16.700  40.973  42.346  0.00  0.00    +0.000 OA
ATOM     20  O   UNL     1      16.665  42.751  43.698  0.00  0.00    +0.000 OA
ENDBRANCH  14  18
ENDBRANCH  10  13
ENDBRANCH   7  10
BRANCH   4  21
ATOM     21  O   UNL     1      20.662  42.845  47.164  0.00  0.00    +0.000 OA
ATOM     22  H   UNL     1      20.288  42.916  48.020  0.00  0.00    +0.000 HD
ENDBRANCH   4  21
TORSDOF 4
ENDMDL
MODEL 7
REMARK VINA RESULT:      -6.6      1.923      3.420
REMARK  Name = 347791
REMARK  4 active torsions:
REMARK  status: ('A' for Active; 'I' for Inactive)
REMARK    1  A    between atoms: C_4  and  O_7
REMARK    2  A    between atoms: C_8  and  S_11
REMARK    3  A    between atoms: S_11  and  N_14
REMARK    4  A    between atoms: C_15  and  C_17
REMARK                            x       y       z     vdW  Elec       q    Type
REMARK                         _______ _______ _______ _____ _____    ______ ____
ROOT
ATOM      1 CL   UNL     1      23.048  42.840  49.563  0.00  0.00    +0.000 Cl
ATOM      2  C   UNL     1      23.008  41.867  48.126  0.00  0.00    +0.000 A 
ATOM      3  C   UNL     1      24.176  41.313  47.573  0.00  0.00    +0.000 A 
ATOM      4  C   UNL     1      21.761  41.655  47.512  0.00  0.00    +0.000 A 
ATOM      5 CL   UNL     1      25.712  41.545  48.345  0.00  0.00    +0.000 Cl
ATOM      6  C   UNL     1      24.081  40.566  46.393  0.00  0.00    +0.000 A 
ATOM      7  C   UNL     1      21.679  40.890  46.351  0.00  0.00    +0.000 A 
ATOM      8 CL   UNL     1      25.460  39.866  45.619  0.00  0.00    +0.000 Cl
ATOM      9  C   UNL     1      22.839  40.363  45.776  0.00  0.00    +0.000 A 
ENDROOT
BRANCH   7  10
ATOM     10  S   UNL     1      20.126  40.636  45.541  0.00  0.00    +0.000 S 
ATOM     11  O   UNL     1      20.337  39.653  44.507  0.00  0.00    +0.000 OA
ATOM     12  O   UNL     1      19.110  40.426  46.559  0.00  0.00    +0.000 OA
BRANCH  10  13
ATOM     13  N   UNL     1      19.751  42.124  44.855  0.00  0.00    +0.000 NA
ATOM     14  C   UNL     1      18.531  42.900  45.196  0.00  0.00    +0.000 C 
ATOM     15  C   UNL     1      19.959  42.234  43.386  0.00  0.00    +0.000 C 
ATOM     16  C   UNL     1      17.659  42.751  43.950  0.00  0.00    +0.000 C 
ATOM     17  C   UNL     1      18.651  42.756  42.803  0.00  0.00    +0.000 C 
BRANCH  14  18
ATOM     18  C   UNL     1      17.691  42.731  46.440  0.00  0.00    +0.000 C 
ATOM     19  O   UNL     1      18.010  43.221  47.517  0.00  0.00    +0.000 OA
ATOM     20  O   UNL     1      16.526  42.067  46.311  0.00  0.00    +0.000 OA
ENDBRANCH  14  18
ENDBRANCH  10  13
ENDBRANCH   7  10
BRANCH   4  21
ATOM     21  O   UNL     1      20.630  42.205  48.051  0.00  0.00    +0.000 OA
ATOM     22  H   UNL     1      20.563  43.134  48.154  0.00  0.00    +0.000 HD
ENDBRANCH   4  21
TORSDOF 4
ENDMDL
MODEL 8
REMARK VINA RESULT:      -6.6      2.341      3.679
REMARK  Name = 347791
REMARK  4 active torsions:
REMARK  status: ('A' for Active; 'I' for Inactive)
REMARK    1  A    between atoms: C_4  and  O_7
REMARK    2  A    between atoms: C_8  and  S_11
REMARK    3  A    between atoms: S_11  and  N_14
REMARK    4  A    between atoms: C_15  and  C_17
REMARK                            x       y       z     vdW  Elec       q    Type
REMARK                         _______ _______ _______ _____ _____    ______ ____
ROOT
ATOM      1 CL   UNL     1      21.832  41.985  47.940  0.00  0.00    +0.000 Cl
ATOM      2  C   UNL     1      21.056  41.121  46.649  0.00  0.00    +0.000 A 
ATOM      3  C   UNL     1      21.759  40.716  45.501  0.00  0.00    +0.000 A 
ATOM      4  C   UNL     1      19.683  40.846  46.777  0.00  0.00    +0.000 A 
ATOM      5 CL   UNL     1      23.459  41.025  45.354  0.00  0.00    +0.000 Cl
ATOM      6  C   UNL     1      21.067  40.052  44.480  0.00  0.00    +0.000 A 
ATOM      7  C   UNL     1      19.013  40.164  45.763  0.00  0.00    +0.000 A 
ATOM      8 CL   UNL     1      21.834  39.537  43.018  0.00  0.00    +0.000 Cl
ATOM      9  C   UNL     1      19.697  39.786  44.604  0.00  0.00    +0.000 A 
ENDROOT
BRANCH   7  10
ATOM     10  S   UNL     1      17.280  39.834  45.885  0.00  0.00    +0.000 S 
ATOM     11  O   UNL     1      16.947  38.894  44.844  0.00  0.00    +0.000 OA
ATOM     12  O   UNL     1      16.969  39.534  47.274  0.00  0.00    +0.000 OA
BRANCH  10  13
ATOM     13  N   UNL     1      16.538  41.313  45.586  0.00  0.00    +0.000 NA
ATOM     14  C   UNL     1      16.701  42.070  44.319  0.00  0.00    +0.000 C 
ATOM     15  C   UNL     1      16.567  42.293  46.704  0.00  0.00    +0.000 C 
ATOM     16  C   UNL     1      17.587  43.246  44.723  0.00  0.00    +0.000 C 
ATOM     17  C   UNL     1      17.130  43.587  46.128  0.00  0.00    +0.000 C 
BRANCH  14  18
ATOM     18  C   UNL     1      17.165  41.502  42.998  0.00  0.00    +0.000 C 
ATOM     19  O   UNL     1      16.494  40.698  42.360  0.00  0.00    +0.000 OA
ATOM     20  O   UNL     1      18.330  41.963  42.504  0.00  0.00    +0.000 OA
ENDBRANCH  14  18
ENDBRANCH  10  13
ENDBRANCH   7  10
BRANCH   4  21
ATOM     21  O   UNL     1      19.004  41.252  47.894  0.00  0.00    +0.000 OA
ATOM     22  H   UNL     1      18.071  41.173  47.930  0.00  0.00    +0.000 HD
ENDBRANCH   4  21
TORSDOF 4
ENDMDL
MODEL 9
REMARK VINA RESULT:      -6.6      1.857      2.517
REMARK  Name = 347791
REMARK  4 active torsions:
REMARK  status: ('A' for Active; 'I' for Inactive)
REMARK    1  A    between atoms: C_4  and  O_7
REMARK    2  A    between atoms: C_8  and  S_11
REMARK    3  A    between atoms: S_11  and  N_14
REMARK    4  A    between atoms: C_15  and  C_17
REMARK                            x       y       z     vdW  Elec       q    Type
REMARK                         _______ _______ _______ _____ _____    ______ ____
ROOT
ATOM      1 CL   UNL     1      23.704  38.956  44.636  0.00  0.00    +0.000 Cl
ATOM      2  C   UNL     1      23.223  40.110  45.840  0.00  0.00    +0.000 A 
ATOM      3  C   UNL     1      24.159  40.734  46.683  0.00  0.00    +0.000 A 
ATOM      4  C   UNL     1      21.853  40.399  45.962  0.00  0.00    +0.000 A 
ATOM      5 CL   UNL     1      25.854  40.404  46.514  0.00  0.00    +0.000 Cl
ATOM      6  C   UNL     1      23.705  41.631  47.657  0.00  0.00    +0.000 A 
ATOM      7  C   UNL     1      21.417  41.312  46.920  0.00  0.00    +0.000 A 
ATOM      8 CL   UNL     1      24.772  42.430  48.759  0.00  0.00    +0.000 Cl
ATOM      9  C   UNL     1      22.338  41.912  47.784  0.00  0.00    +0.000 A 
ENDROOT
BRANCH   7  10
ATOM     10  S   UNL     1      19.695  41.668  47.115  0.00  0.00    +0.000 S 
ATOM     11  O   UNL     1      18.989  40.411  47.072  0.00  0.00    +0.000 OA
ATOM     12  O   UNL     1      19.541  42.560  48.253  0.00  0.00    +0.000 OA
BRANCH  10  13
ATOM     13  N   UNL     1      19.294  42.601  45.776  0.00  0.00    +0.000 NA
ATOM     14  C   UNL     1      18.107  42.342  44.921  0.00  0.00    +0.000 C 
ATOM     15  C   UNL     1      20.422  42.973  44.881  0.00  0.00    +0.000 C 
ATOM     16  C   UNL     1      18.715  41.786  43.635  0.00  0.00    +0.000 C 
ATOM     17  C   UNL     1      20.008  42.562  43.472  0.00  0.00    +0.000 C 
BRANCH  14  18
ATOM     18  C   UNL     1      16.892  41.533  45.311  0.00  0.00    +0.000 C 
ATOM     19  O   UNL     1      16.258  41.757  46.337  0.00  0.00    +0.000 OA
ATOM     20  O   UNL     1      16.482  40.583  44.450  0.00  0.00    +0.000 OA
ENDBRANCH  14  18
ENDBRANCH  10  13
ENDBRANCH   7  10
BRANCH   4  21
ATOM     21  O   UNL     1      20.947  39.781  45.143  0.00  0.00    +0.000 OA
ATOM     22  H   UNL     1      21.243  39.291  44.401  0.00  0.00    +0.000 HD
ENDBRANCH   4  21
TORSDOF 4
ENDMDL
