MODEL 1
REMARK VINA RESULT:      -7.9      0.000      0.000
REMARK  Name = 348320
REMARK  5 active torsions:
REMARK  status: ('A' for Active; 'I' for Inactive)
REMARK    1  A    between atoms: C_3  and  C_6
REMARK    2  A    between atoms: C_7  and  N_9
REMARK    3  A    between atoms: C_8  and  S_10
REMARK    4  A    between atoms: S_10  and  N_13
REMARK    5  A    between atoms: C_14  and  C_16
REMARK                            x       y       z     vdW  Elec       q    Type
REMARK                         _______ _______ _______ _____ _____    ______ ____
ROOT
ATOM      1 CL   UNL     1      24.614  41.059  47.965  0.00  0.00    +0.000 Cl
ATOM      2  C   UNL     1      23.350  41.023  46.787  0.00  0.00    +0.000 A 
ATOM      3  C   UNL     1      23.192  39.960  45.892  0.00  0.00    +0.000 A 
ATOM      4  C   UNL     1      22.454  42.099  46.773  0.00  0.00    +0.000 A 
ATOM      5  C   UNL     1      22.129  40.020  44.971  0.00  0.00    +0.000 A 
ATOM      6  C   UNL     1      24.056  38.729  45.892  0.00  0.00    +0.000 C 
ATOM      7  C   UNL     1      21.331  42.113  45.930  0.00  0.00    +0.000 A 
ATOM      8  C   UNL     1      21.207  41.084  44.984  0.00  0.00    +0.000 A 
ENDROOT
BRANCH   7   9
ATOM      9  N   UNL     1      20.517  43.254  45.945  0.00  0.00    +0.000 N 
ATOM     10  H   UNL     1      19.688  43.260  46.475  0.00  0.00    +0.000 HD
ATOM     11  H   UNL     1      20.775  44.049  45.425  0.00  0.00    +0.000 HD
ENDBRANCH   7   9
BRANCH   8  12
ATOM     12  S   UNL     1      19.716  40.885  44.034  0.00  0.00    +0.000 S 
ATOM     13  O   UNL     1      19.463  42.135  43.346  0.00  0.00    +0.000 OA
ATOM     14  O   UNL     1      19.822  39.662  43.267  0.00  0.00    +0.000 OA
BRANCH  12  15
ATOM     15  N   UNL     1      18.450  40.634  45.081  0.00  0.00    +0.000 NA
ATOM     16  C   UNL     1      17.203  41.415  45.125  0.00  0.00    +0.000 C 
ATOM     17  C   UNL     1      18.172  39.282  45.604  0.00  0.00    +0.000 C 
ATOM     18  C   UNL     1      16.667  40.957  46.492  0.00  0.00    +0.000 C 
ATOM     19  C   UNL     1      16.941  39.460  46.495  0.00  0.00    +0.000 C 
BRANCH  16  20
ATOM     20  C   UNL     1      17.172  42.925  45.114  0.00  0.00    +0.000 C 
ATOM     21  O   UNL     1      16.656  43.569  44.206  0.00  0.00    +0.000 OA
ATOM     22  O   UNL     1      17.644  43.528  46.222  0.00  0.00    +0.000 OA
ENDBRANCH  16  20
ENDBRANCH  12  15
ENDBRANCH   8  12
TORSDOF 4
ENDMDL
MODEL 2
REMARK VINA RESULT:      -7.8      2.809      5.679
REMARK  Name = 348320
REMARK  5 active torsions:
REMARK  status: ('A' for Active; 'I' for Inactive)
REMARK    1  A    between atoms: C_3  and  C_6
REMARK    2  A    between atoms: C_7  and  N_9
REMARK    3  A    between atoms: C_8  and  S_10
REMARK    4  A    between atoms: S_10  and  N_13
REMARK    5  A    between atoms: C_14  and  C_16
REMARK                            x       y       z     vdW  Elec       q    Type
REMARK                         _______ _______ _______ _____ _____    ______ ____
ROOT
ATOM      1 CL   UNL     1      16.456  36.561  45.464  0.00  0.00    +0.000 Cl
ATOM      2  C   UNL     1      17.279  38.067  45.262  0.00  0.00    +0.000 A 
ATOM      3  C   UNL     1      17.033  39.170  46.086  0.00  0.00    +0.000 A 
ATOM      4  C   UNL     1      18.239  38.143  44.246  0.00  0.00    +0.000 A 
ATOM      5  C   UNL     1      17.757  40.353  45.845  0.00  0.00    +0.000 A 
ATOM      6  C   UNL     1      16.081  39.151  47.250  0.00  0.00    +0.000 C 
ATOM      7  C   UNL     1      19.039  39.284  44.071  0.00  0.00    +0.000 A 
ATOM      8  C   UNL     1      18.749  40.416  44.848  0.00  0.00    +0.000 A 
ENDROOT
BRANCH   7   9
ATOM      9  N   UNL     1      19.938  39.292  42.996  0.00  0.00    +0.000 N 
ATOM     10  H   UNL     1      20.629  39.990  42.938  0.00  0.00    +0.000 HD
ATOM     11  H   UNL     1      19.877  38.601  42.298  0.00  0.00    +0.000 HD
ENDBRANCH   7   9
BRANCH   8  12
ATOM     12  S   UNL     1      19.840  41.821  44.867  0.00  0.00    +0.000 S 
ATOM     13  O   UNL     1      20.487  41.892  43.572  0.00  0.00    +0.000 OA
ATOM     14  O   UNL     1      19.101  42.967  45.354  0.00  0.00    +0.000 OA
BRANCH  12  15
ATOM     15  N   UNL     1      21.028  41.556  45.998  0.00  0.00    +0.000 NA
ATOM     16  C   UNL     1      22.449  41.304  45.709  0.00  0.00    +0.000 C 
ATOM     17  C   UNL     1      20.924  42.157  47.342  0.00  0.00    +0.000 C 
ATOM     18  C   UNL     1      22.895  40.775  47.083  0.00  0.00    +0.000 C 
ATOM     19  C   UNL     1      22.196  41.706  48.064  0.00  0.00    +0.000 C 
BRANCH  16  20
ATOM     20  C   UNL     1      22.919  40.311  44.672  0.00  0.00    +0.000 C 
ATOM     21  O   UNL     1      22.330  39.259  44.450  0.00  0.00    +0.000 OA
ATOM     22  O   UNL     1      23.966  40.703  43.920  0.00  0.00    +0.000 OA
ENDBRANCH  16  20
ENDBRANCH  12  15
ENDBRANCH   8  12
TORSDOF 4
ENDMDL
MODEL 3
REMARK VINA RESULT:      -7.8      1.878      3.385
REMARK  Name = 348320
REMARK  5 active torsions:
REMARK  status: ('A' for Active; 'I' for Inactive)
REMARK    1  A    between atoms: C_3  and  C_6
REMARK    2  A    between atoms: C_7  and  N_9
REMARK    3  A    between atoms: C_8  and  S_10
REMARK    4  A    between atoms: S_10  and  N_13
REMARK    5  A    between atoms: C_14  and  C_16
REMARK                            x       y       z     vdW  Elec       q    Type
REMARK                         _______ _______ _______ _____ _____    ______ ____
ROOT
ATOM      1 CL   UNL     1      24.567  40.255  46.002  0.00  0.00    +0.000 Cl
ATOM      2  C   UNL     1      22.872  40.336  45.671  0.00  0.00    +0.000 A 
ATOM      3  C   UNL     1      21.961  40.894  46.573  0.00  0.00    +0.000 A 
ATOM      4  C   UNL     1      22.434  39.842  44.437  0.00  0.00    +0.000 A 
ATOM      5  C   UNL     1      20.600  40.918  46.212  0.00  0.00    +0.000 A 
ATOM      6  C   UNL     1      22.353  41.521  47.882  0.00  0.00    +0.000 C 
ATOM      7  C   UNL     1      21.096  39.961  44.027  0.00  0.00    +0.000 A 
ATOM      8  C   UNL     1      20.167  40.456  44.955  0.00  0.00    +0.000 A 
ENDROOT
BRANCH   7   9
ATOM      9  N   UNL     1      20.736  39.391  42.799  0.00  0.00    +0.000 N 
ATOM     10  H   UNL     1      21.224  38.608  42.457  0.00  0.00    +0.000 HD
ATOM     11  H   UNL     1      19.995  39.774  42.277  0.00  0.00    +0.000 HD
ENDBRANCH   7   9
BRANCH   8  12
ATOM     12  S   UNL     1      18.505  40.858  44.464  0.00  0.00    +0.000 S 
ATOM     13  O   UNL     1      18.296  42.267  44.735  0.00  0.00    +0.000 OA
ATOM     14  O   UNL     1      18.288  40.353  43.124  0.00  0.00    +0.000 OA
BRANCH  12  15
ATOM     15  N   UNL     1      17.448  40.010  45.426  0.00  0.00    +0.000 NA
ATOM     16  C   UNL     1      17.548  38.580  45.760  0.00  0.00    +0.000 C 
ATOM     17  C   UNL     1      16.716  40.692  46.511  0.00  0.00    +0.000 C 
ATOM     18  C   UNL     1      16.132  38.351  46.315  0.00  0.00    +0.000 C 
ATOM     19  C   UNL     1      15.882  39.589  47.165  0.00  0.00    +0.000 C 
BRANCH  16  20
ATOM     20  C   UNL     1      17.805  37.505  44.729  0.00  0.00    +0.000 C 
ATOM     21  O   UNL     1      18.794  37.508  44.005  0.00  0.00    +0.000 OA
ATOM     22  O   UNL     1      16.936  36.475  44.729  0.00  0.00    +0.000 OA
ENDBRANCH  16  20
ENDBRANCH  12  15
ENDBRANCH   8  12
TORSDOF 4
ENDMDL
MODEL 4
REMARK VINA RESULT:      -7.8      1.879      2.929
REMARK  Name = 348320
REMARK  5 active torsions:
REMARK  status: ('A' for Active; 'I' for Inactive)
REMARK    1  A    between atoms: C_3  and  C_6
REMARK    2  A    between atoms: C_7  and  N_9
REMARK    3  A    between atoms: C_8  and  S_10
REMARK    4  A    between atoms: S_10  and  N_13
REMARK    5  A    between atoms: C_14  and  C_16
REMARK                            x       y       z     vdW  Elec       q    Type
REMARK                         _______ _______ _______ _____ _____    ______ ____
ROOT
ATOM      1 CL   UNL     1      24.616  37.965  45.965  0.00  0.00    +0.000 Cl
ATOM      2  C   UNL     1      23.361  39.123  45.700  0.00  0.00    +0.000 A 
ATOM      3  C   UNL     1      23.078  40.142  46.614  0.00  0.00    +0.000 A 
ATOM      4  C   UNL     1      22.638  39.024  44.504  0.00  0.00    +0.000 A 
ATOM      5  C   UNL     1      22.037  41.040  46.308  0.00  0.00    +0.000 A 
ATOM      6  C   UNL     1      23.855  40.372  47.881  0.00  0.00    +0.000 C 
ATOM      7  C   UNL     1      21.674  39.979  44.144  0.00  0.00    +0.000 A 
ATOM      8  C   UNL     1      21.338  40.962  45.088  0.00  0.00    +0.000 A 
ENDROOT
BRANCH   7   9
ATOM      9  N   UNL     1      20.963  39.773  42.954  0.00  0.00    +0.000 N 
ATOM     10  H   UNL     1      21.342  39.204  42.247  0.00  0.00    +0.000 HD
ATOM     11  H   UNL     1      20.084  40.198  42.827  0.00  0.00    +0.000 HD
ENDBRANCH   7   9
BRANCH   8  12
ATOM     12  S   UNL     1      20.306  42.343  44.648  0.00  0.00    +0.000 S 
ATOM     13  O   UNL     1      20.837  43.517  45.311  0.00  0.00    +0.000 OA
ATOM     14  O   UNL     1      20.143  42.353  43.209  0.00  0.00    +0.000 OA
BRANCH  12  15
ATOM     15  N   UNL     1      18.782  42.081  45.257  0.00  0.00    +0.000 NA
ATOM     16  C   UNL     1      18.108  40.776  45.354  0.00  0.00    +0.000 C 
ATOM     17  C   UNL     1      18.235  42.967  46.303  0.00  0.00    +0.000 C 
ATOM     18  C   UNL     1      16.669  41.254  45.613  0.00  0.00    +0.000 C 
ATOM     19  C   UNL     1      16.850  42.393  46.608  0.00  0.00    +0.000 C 
BRANCH  16  20
ATOM     20  C   UNL     1      18.053  39.786  44.214  0.00  0.00    +0.000 C 
ATOM     21  O   UNL     1      17.733  40.108  43.075  0.00  0.00    +0.000 OA
ATOM     22  O   UNL     1      18.490  38.543  44.496  0.00  0.00    +0.000 OA
ENDBRANCH  16  20
ENDBRANCH  12  15
ENDBRANCH   8  12
TORSDOF 4
ENDMDL
MODEL 5
REMARK VINA RESULT:      -7.7      1.879      3.303
REMARK  Name = 348320
REMARK  5 active torsions:
REMARK  status: ('A' for Active; 'I' for Inactive)
REMARK    1  A    between atoms: C_3  and  C_6
REMARK    2  A    between atoms: C_7  and  N_9
REMARK    3  A    between atoms: C_8  and  S_10
REMARK    4  A    between atoms: S_10  and  N_13
REMARK    5  A    between atoms: C_14  and  C_16
REMARK                            x       y       z     vdW  Elec       q    Type
REMARK                         _______ _______ _______ _____ _____    ______ ____
ROOT
ATOM      1 CL   UNL     1      25.083  39.886  45.704  0.00  0.00    +0.000 Cl
ATOM      2  C   UNL     1      23.416  40.296  45.902  0.00  0.00    +0.000 A 
ATOM      3  C   UNL     1      22.808  40.365  47.159  0.00  0.00    +0.000 A 
ATOM      4  C   UNL     1      22.685  40.589  44.745  0.00  0.00    +0.000 A 
ATOM      5  C   UNL     1      21.444  40.710  47.219  0.00  0.00    +0.000 A 
ATOM      6  C   UNL     1      23.536  40.145  48.457  0.00  0.00    +0.000 C 
ATOM      7  C   UNL     1      21.356  41.039  44.806  0.00  0.00    +0.000 A 
ATOM      8  C   UNL     1      20.721  41.043  46.057  0.00  0.00    +0.000 A 
ENDROOT
BRANCH   7   9
ATOM      9  N   UNL     1      20.685  41.259  43.596  0.00  0.00    +0.000 N 
ATOM     10  H   UNL     1      21.096  40.979  42.747  0.00  0.00    +0.000 HD
ATOM     11  H   UNL     1      19.802  41.695  43.595  0.00  0.00    +0.000 HD
ENDBRANCH   7   9
BRANCH   8  12
ATOM     12  S   UNL     1      19.128  41.805  46.276  0.00  0.00    +0.000 S 
ATOM     13  O   UNL     1      18.506  41.198  47.436  0.00  0.00    +0.000 OA
ATOM     14  O   UNL     1      19.299  43.242  46.233  0.00  0.00    +0.000 OA
BRANCH  12  15
ATOM     15  N   UNL     1      18.180  41.439  44.961  0.00  0.00    +0.000 NA
ATOM     16  C   UNL     1      17.443  40.182  44.756  0.00  0.00    +0.000 C 
ATOM     17  C   UNL     1      17.488  42.512  44.220  0.00  0.00    +0.000 C 
ATOM     18  C   UNL     1      17.120  40.321  43.258  0.00  0.00    +0.000 C 
ATOM     19  C   UNL     1      16.716  41.783  43.118  0.00  0.00    +0.000 C 
BRANCH  16  20
ATOM     20  C   UNL     1      18.061  38.818  44.957  0.00  0.00    +0.000 C 
ATOM     21  O   UNL     1      17.629  38.011  45.773  0.00  0.00    +0.000 OA
ATOM     22  O   UNL     1      19.049  38.492  44.101  0.00  0.00    +0.000 OA
ENDBRANCH  16  20
ENDBRANCH  12  15
ENDBRANCH   8  12
TORSDOF 4
ENDMDL
MODEL 6
REMARK VINA RESULT:      -7.6      3.127      5.257
REMARK  Name = 348320
REMARK  5 active torsions:
REMARK  status: ('A' for Active; 'I' for Inactive)
REMARK    1  A    between atoms: C_3  and  C_6
REMARK    2  A    between atoms: C_7  and  N_9
REMARK    3  A    between atoms: C_8  and  S_10
REMARK    4  A    between atoms: S_10  and  N_13
REMARK    5  A    between atoms: C_14  and  C_16
REMARK                            x       y       z     vdW  Elec       q    Type
REMARK                         _______ _______ _______ _____ _____    ______ ____
ROOT
ATOM      1 CL   UNL     1      16.757  36.096  45.461  0.00  0.00    +0.000 Cl
ATOM      2  C   UNL     1      17.247  37.722  45.141  0.00  0.00    +0.000 A 
ATOM      3  C   UNL     1      16.688  38.817  45.808  0.00  0.00    +0.000 A 
ATOM      4  C   UNL     1      18.260  37.913  44.194  0.00  0.00    +0.000 A 
ATOM      5  C   UNL     1      17.155  40.104  45.480  0.00  0.00    +0.000 A 
ATOM      6  C   UNL     1      15.655  38.699  46.895  0.00  0.00    +0.000 C 
ATOM      7  C   UNL     1      18.805  39.182  43.942  0.00  0.00    +0.000 A 
ATOM      8  C   UNL     1      18.201  40.290  44.556  0.00  0.00    +0.000 A 
ENDROOT
BRANCH   7   9
ATOM      9  N   UNL     1      19.779  39.288  42.940  0.00  0.00    +0.000 N 
ATOM     10  H   UNL     1      19.872  40.124  42.429  0.00  0.00    +0.000 HD
ATOM     11  H   UNL     1      20.371  38.525  42.747  0.00  0.00    +0.000 HD
ENDBRANCH   7   9
BRANCH   8  12
ATOM     12  S   UNL     1      18.951  41.902  44.484  0.00  0.00    +0.000 S 
ATOM     13  O   UNL     1      20.346  41.722  44.134  0.00  0.00    +0.000 OA
ATOM     14  O   UNL     1      18.119  42.758  43.666  0.00  0.00    +0.000 OA
BRANCH  12  15
ATOM     15  N   UNL     1      18.908  42.574  46.004  0.00  0.00    +0.000 NA
ATOM     16  C   UNL     1      20.048  42.686  46.927  0.00  0.00    +0.000 C 
ATOM     17  C   UNL     1      17.949  43.653  46.314  0.00  0.00    +0.000 C 
ATOM     18  C   UNL     1      19.290  43.014  48.225  0.00  0.00    +0.000 C 
ATOM     19  C   UNL     1      18.233  44.012  47.774  0.00  0.00    +0.000 C 
BRANCH  16  20
ATOM     20  C   UNL     1      20.983  41.538  47.231  0.00  0.00    +0.000 C 
ATOM     21  O   UNL     1      20.621  40.367  47.202  0.00  0.00    +0.000 OA
ATOM     22  O   UNL     1      22.274  41.870  47.426  0.00  0.00    +0.000 OA
ENDBRANCH  16  20
ENDBRANCH  12  15
ENDBRANCH   8  12
TORSDOF 4
ENDMDL
MODEL 7
REMARK VINA RESULT:      -7.4      2.927      5.453
REMARK  Name = 348320
REMARK  5 active torsions:
REMARK  status: ('A' for Active; 'I' for Inactive)
REMARK    1  A    between atoms: C_3  and  C_6
REMARK    2  A    between atoms: C_7  and  N_9
REMARK    3  A    between atoms: C_8  and  S_10
REMARK    4  A    between atoms: S_10  and  N_13
REMARK    5  A    between atoms: C_14  and  C_16
REMARK                            x       y       z     vdW  Elec       q    Type
REMARK                         _______ _______ _______ _____ _____    ______ ____
ROOT
ATOM      1 CL   UNL     1      15.633  39.217  46.862  0.00  0.00    +0.000 Cl
ATOM      2  C   UNL     1      17.014  39.864  46.049  0.00  0.00    +0.000 A 
ATOM      3  C   UNL     1      17.325  41.227  46.072  0.00  0.00    +0.000 A 
ATOM      4  C   UNL     1      17.844  38.960  45.375  0.00  0.00    +0.000 A 
ATOM      5  C   UNL     1      18.474  41.658  45.382  0.00  0.00    +0.000 A 
ATOM      6  C   UNL     1      16.536  42.254  46.837  0.00  0.00    +0.000 C 
ATOM      7  C   UNL     1      19.047  39.368  44.778  0.00  0.00    +0.000 A 
ATOM      8  C   UNL     1      19.328  40.742  44.738  0.00  0.00    +0.000 A 
ENDROOT
BRANCH   7   9
ATOM      9  N   UNL     1      19.790  38.405  44.080  0.00  0.00    +0.000 N 
ATOM     10  H   UNL     1      20.401  37.807  44.567  0.00  0.00    +0.000 HD
ATOM     11  H   UNL     1      19.700  38.328  43.103  0.00  0.00    +0.000 HD
ENDBRANCH   7   9
BRANCH   8  12
ATOM     12  S   UNL     1      20.920  41.340  44.213  0.00  0.00    +0.000 S 
ATOM     13  O   UNL     1      21.142  40.869  42.861  0.00  0.00    +0.000 OA
ATOM     14  O   UNL     1      20.990  42.759  44.492  0.00  0.00    +0.000 OA
BRANCH  12  15
ATOM     15  N   UNL     1      22.088  40.649  45.173  0.00  0.00    +0.000 NA
ATOM     16  C   UNL     1      22.048  40.552  46.641  0.00  0.00    +0.000 C 
ATOM     17  C   UNL     1      22.921  39.546  44.655  0.00  0.00    +0.000 C 
ATOM     18  C   UNL     1      23.519  40.192  46.910  0.00  0.00    +0.000 C 
ATOM     19  C   UNL     1      23.839  39.176  45.822  0.00  0.00    +0.000 C 
BRANCH  16  20
ATOM     20  C   UNL     1      21.699  41.717  47.538  0.00  0.00    +0.000 C 
ATOM     21  O   UNL     1      20.545  42.092  47.714  0.00  0.00    +0.000 OA
ATOM     22  O   UNL     1      22.725  42.250  48.229  0.00  0.00    +0.000 OA
ENDBRANCH  16  20
ENDBRANCH  12  15
ENDBRANCH   8  12
TORSDOF 4
ENDMDL
MODEL 8
REMARK VINA RESULT:      -7.3      1.621      2.468
REMARK  Name = 348320
REMARK  5 active torsions:
REMARK  status: ('A' for Active; 'I' for Inactive)
REMARK    1  A    between atoms: C_3  and  C_6
REMARK    2  A    between atoms: C_7  and  N_9
REMARK    3  A    between atoms: C_8  and  S_10
REMARK    4  A    between atoms: S_10  and  N_13
REMARK    5  A    between atoms: C_14  and  C_16
REMARK                            x       y       z     vdW  Elec       q    Type
REMARK                         _______ _______ _______ _____ _____    ______ ____
ROOT
ATOM      1 CL   UNL     1      25.521  40.717  47.642  0.00  0.00    +0.000 Cl
ATOM      2  C   UNL     1      23.915  41.096  47.127  0.00  0.00    +0.000 A 
ATOM      3  C   UNL     1      23.030  41.832  47.921  0.00  0.00    +0.000 A 
ATOM      4  C   UNL     1      23.528  40.658  45.855  0.00  0.00    +0.000 A 
ATOM      5  C   UNL     1      21.742  42.093  47.414  0.00  0.00    +0.000 A 
ATOM      6  C   UNL     1      23.388  42.409  49.263  0.00  0.00    +0.000 C 
ATOM      7  C   UNL     1      22.286  41.008  45.301  0.00  0.00    +0.000 A 
ATOM      8  C   UNL     1      21.369  41.686  46.118  0.00  0.00    +0.000 A 
ENDROOT
BRANCH   7   9
ATOM      9  N   UNL     1      21.961  40.482  44.043  0.00  0.00    +0.000 N 
ATOM     10  H   UNL     1      22.621  40.509  43.313  0.00  0.00    +0.000 HD
ATOM     11  H   UNL     1      21.073  40.087  43.889  0.00  0.00    +0.000 HD
ENDBRANCH   7   9
BRANCH   8  12
ATOM     12  S   UNL     1      19.871  42.371  45.447  0.00  0.00    +0.000 S 
ATOM     13  O   UNL     1      19.522  43.530  46.243  0.00  0.00    +0.000 OA
ATOM     14  O   UNL     1      20.036  42.516  44.015  0.00  0.00    +0.000 OA
BRANCH  12  15
ATOM     15  N   UNL     1      18.649  41.259  45.633  0.00  0.00    +0.000 NA
ATOM     16  C   UNL     1      17.766  40.765  44.565  0.00  0.00    +0.000 C 
ATOM     17  C   UNL     1      18.738  40.223  46.681  0.00  0.00    +0.000 C 
ATOM     18  C   UNL     1      16.672  40.110  45.425  0.00  0.00    +0.000 C 
ATOM     19  C   UNL     1      17.460  39.399  46.516  0.00  0.00    +0.000 C 
BRANCH  16  20
ATOM     20  C   UNL     1      17.074  41.675  43.576  0.00  0.00    +0.000 C 
ATOM     21  O   UNL     1      16.700  42.805  43.869  0.00  0.00    +0.000 OA
ATOM     22  O   UNL     1      16.994  41.213  42.313  0.00  0.00    +0.000 OA
ENDBRANCH  16  20
ENDBRANCH  12  15
ENDBRANCH   8  12
TORSDOF 4
ENDMDL
MODEL 9
REMARK VINA RESULT:      -7.1      2.750      5.181
REMARK  Name = 348320
REMARK  5 active torsions:
REMARK  status: ('A' for Active; 'I' for Inactive)
REMARK    1  A    between atoms: C_3  and  C_6
REMARK    2  A    between atoms: C_7  and  N_9
REMARK    3  A    between atoms: C_8  and  S_10
REMARK    4  A    between atoms: S_10  and  N_13
REMARK    5  A    between atoms: C_14  and  C_16
REMARK                            x       y       z     vdW  Elec       q    Type
REMARK                         _______ _______ _______ _____ _____    ______ ____
ROOT
ATOM      1 CL   UNL     1      16.749  36.249  45.451  0.00  0.00    +0.000 Cl
ATOM      2  C   UNL     1      17.292  37.852  45.102  0.00  0.00    +0.000 A 
ATOM      3  C   UNL     1      16.704  38.983  45.677  0.00  0.00    +0.000 A 
ATOM      4  C   UNL     1      18.379  37.987  44.229  0.00  0.00    +0.000 A 
ATOM      5  C   UNL     1      17.219  40.247  45.334  0.00  0.00    +0.000 A 
ATOM      6  C   UNL     1      15.588  38.927  46.685  0.00  0.00    +0.000 C 
ATOM      7  C   UNL     1      18.965  39.235  43.968  0.00  0.00    +0.000 A 
ATOM      8  C   UNL     1      18.336  40.378  44.487  0.00  0.00    +0.000 A 
ENDROOT
BRANCH   7   9
ATOM      9  N   UNL     1      20.015  39.283  43.042  0.00  0.00    +0.000 N 
ATOM     10  H   UNL     1      20.947  39.325  43.356  0.00  0.00    +0.000 HD
ATOM     11  H   UNL     1      19.821  39.275  42.077  0.00  0.00    +0.000 HD
ENDBRANCH   7   9
BRANCH   8  12
ATOM     12  S   UNL     1      19.119  41.973  44.407  0.00  0.00    +0.000 S 
ATOM     13  O   UNL     1      19.705  42.110  43.089  0.00  0.00    +0.000 OA
ATOM     14  O   UNL     1      18.177  42.969  44.873  0.00  0.00    +0.000 OA
BRANCH  12  15
ATOM     15  N   UNL     1      20.366  42.007  45.506  0.00  0.00    +0.000 NA
ATOM     16  C   UNL     1      20.276  41.613  46.921  0.00  0.00    +0.000 C 
ATOM     17  C   UNL     1      21.760  41.817  45.057  0.00  0.00    +0.000 C 
ATOM     18  C   UNL     1      21.589  42.226  47.437  0.00  0.00    +0.000 C 
ATOM     19  C   UNL     1      22.590  41.890  46.340  0.00  0.00    +0.000 C 
BRANCH  16  20
ATOM     20  C   UNL     1      19.172  42.080  47.841  0.00  0.00    +0.000 C 
ATOM     21  O   UNL     1      19.152  43.203  48.333  0.00  0.00    +0.000 OA
ATOM     22  O   UNL     1      18.142  41.225  48.000  0.00  0.00    +0.000 OA
ENDBRANCH  16  20
ENDBRANCH  12  15
ENDBRANCH   8  12
TORSDOF 4
ENDMDL
