MODEL 1
REMARK VINA RESULT:      -7.6      0.000      0.000
REMARK  Name = 347799
REMARK  4 active torsions:
REMARK  status: ('A' for Active; 'I' for Inactive)
REMARK    1  A    between atoms: C_3  and  O_5
REMARK    2  A    between atoms: C_6  and  S_8
REMARK    3  A    between atoms: S_8  and  N_13
REMARK    4  A    between atoms: C_14  and  C_16
REMARK                            x       y       z     vdW  Elec       q    Type
REMARK                         _______ _______ _______ _____ _____    ______ ____
ROOT
ATOM      1 CL   UNL     1      24.085  38.463  46.156  0.00  0.00    +0.000 Cl
ATOM      2  C   UNL     1      23.239  39.861  46.716  0.00  0.00    +0.000 A 
ATOM      3  C   UNL     1      22.139  40.351  45.999  0.00  0.00    +0.000 A 
ATOM      4  C   UNL     1      23.689  40.506  47.866  0.00  0.00    +0.000 A 
ATOM      5  C   UNL     1      21.482  41.496  46.447  0.00  0.00    +0.000 A 
ATOM      6  C   UNL     1      23.040  41.661  48.295  0.00  0.00    +0.000 A 
ATOM      7  C   UNL     1      21.940  42.161  47.595  0.00  0.00    +0.000 A 
ATOM      8 CL   UNL     1      23.615  42.485  49.691  0.00  0.00    +0.000 Cl
ENDROOT
BRANCH   5   9
ATOM      9  S   UNL     1      20.076  42.140  45.568  0.00  0.00    +0.000 S 
ATOM     10  O   UNL     1      19.545  43.238  46.343  0.00  0.00    +0.000 OA
ATOM     11  O   UNL     1      20.456  42.347  44.186  0.00  0.00    +0.000 OA
BRANCH   9  12
ATOM     12  N   UNL     1      18.958  40.879  45.580  0.00  0.00    +0.000 NA
ATOM     13  C   UNL     1      17.621  41.000  44.946  0.00  0.00    +0.000 C 
ATOM     14  C   UNL     1      18.845  40.060  46.802  0.00  0.00    +0.000 C 
ATOM     15  C   UNL     1      16.619  40.428  45.954  0.00  0.00    +0.000 C 
ATOM     16  C   UNL     1      17.395  40.170  47.231  0.00  0.00    +0.000 C 
BRANCH  13  17
ATOM     17  C   UNL     1      17.184  42.317  44.457  0.00  0.00    +0.000 C 
ATOM     18  N   UNL     1      16.834  43.381  44.132  0.00  0.00    +0.000 NA
ENDBRANCH  13  17
ENDBRANCH   9  12
ENDBRANCH   5   9
BRANCH   3  19
ATOM     19  O   UNL     1      21.743  39.735  44.844  0.00  0.00    +0.000 OA
ATOM     20  H   UNL     1      21.334  40.234  44.163  0.00  0.00    +0.000 HD
ENDBRANCH   3  19
TORSDOF 4
ENDMDL
MODEL 2
REMARK VINA RESULT:      -6.9      3.480      5.748
REMARK  Name = 347799
REMARK  4 active torsions:
REMARK  status: ('A' for Active; 'I' for Inactive)
REMARK    1  A    between atoms: C_3  and  O_5
REMARK    2  A    between atoms: C_6  and  S_8
REMARK    3  A    between atoms: S_8  and  N_13
REMARK    4  A    between atoms: C_14  and  C_16
REMARK                            x       y       z     vdW  Elec       q    Type
REMARK                         _______ _______ _______ _____ _____    ______ ____
ROOT
ATOM      1 CL   UNL     1      16.576  38.948  46.273  0.00  0.00    +0.000 Cl
ATOM      2  C   UNL     1      17.395  40.427  45.920  0.00  0.00    +0.000 A 
ATOM      3  C   UNL     1      18.724  40.609  46.327  0.00  0.00    +0.000 A 
ATOM      4  C   UNL     1      16.704  41.439  45.258  0.00  0.00    +0.000 A 
ATOM      5  C   UNL     1      19.365  41.818  46.059  0.00  0.00    +0.000 A 
ATOM      6  C   UNL     1      17.345  42.651  45.014  0.00  0.00    +0.000 A 
ATOM      7  C   UNL     1      18.670  42.848  45.408  0.00  0.00    +0.000 A 
ATOM      8 CL   UNL     1      16.486  43.920  44.233  0.00  0.00    +0.000 Cl
ENDROOT
BRANCH   5   9
ATOM      9  S   UNL     1      21.054  42.079  46.551  0.00  0.00    +0.000 S 
ATOM     10  O   UNL     1      21.553  43.213  45.806  0.00  0.00    +0.000 OA
ATOM     11  O   UNL     1      21.115  42.082  47.998  0.00  0.00    +0.000 OA
BRANCH   9  12
ATOM     12  N   UNL     1      21.863  40.694  46.035  0.00  0.00    +0.000 NA
ATOM     13  C   UNL     1      23.189  40.304  46.575  0.00  0.00    +0.000 C 
ATOM     14  C   UNL     1      21.798  40.342  44.603  0.00  0.00    +0.000 C 
ATOM     15  C   UNL     1      24.045  39.916  45.365  0.00  0.00    +0.000 C 
ATOM     16  C   UNL     1      23.239  40.285  44.134  0.00  0.00    +0.000 C 
BRANCH  13  17
ATOM     17  C   UNL     1      23.906  41.247  47.448  0.00  0.00    +0.000 C 
ATOM     18  N   UNL     1      24.530  41.961  48.126  0.00  0.00    +0.000 NA
ENDBRANCH  13  17
ENDBRANCH   9  12
ENDBRANCH   5   9
BRANCH   3  19
ATOM     19  O   UNL     1      19.370  39.624  47.021  0.00  0.00    +0.000 OA
ATOM     20  H   UNL     1      18.898  39.097  47.636  0.00  0.00    +0.000 HD
ENDBRANCH   3  19
TORSDOF 4
ENDMDL
MODEL 3
REMARK VINA RESULT:      -6.8      3.402      5.776
REMARK  Name = 347799
REMARK  4 active torsions:
REMARK  status: ('A' for Active; 'I' for Inactive)
REMARK    1  A    between atoms: C_3  and  O_5
REMARK    2  A    between atoms: C_6  and  S_8
REMARK    3  A    between atoms: S_8  and  N_13
REMARK    4  A    between atoms: C_14  and  C_16
REMARK                            x       y       z     vdW  Elec       q    Type
REMARK                         _______ _______ _______ _____ _____    ______ ____
ROOT
ATOM      1 CL   UNL     1      17.203  41.301  42.215  0.00  0.00    +0.000 Cl
ATOM      2  C   UNL     1      17.575  41.045  43.882  0.00  0.00    +0.000 A 
ATOM      3  C   UNL     1      18.772  41.539  44.419  0.00  0.00    +0.000 A 
ATOM      4  C   UNL     1      16.684  40.315  44.667  0.00  0.00    +0.000 A 
ATOM      5  C   UNL     1      19.072  41.301  45.759  0.00  0.00    +0.000 A 
ATOM      6  C   UNL     1      17.003  40.065  46.000  0.00  0.00    +0.000 A 
ATOM      7  C   UNL     1      18.189  40.553  46.552  0.00  0.00    +0.000 A 
ATOM      8 CL   UNL     1      15.929  39.131  46.965  0.00  0.00    +0.000 Cl
ENDROOT
BRANCH   5   9
ATOM      9  S   UNL     1      20.577  41.922  46.476  0.00  0.00    +0.000 S 
ATOM     10  O   UNL     1      21.033  43.018  45.650  0.00  0.00    +0.000 OA
ATOM     11  O   UNL     1      20.358  42.128  47.893  0.00  0.00    +0.000 OA
BRANCH   9  12
ATOM     12  N   UNL     1      21.669  40.647  46.335  0.00  0.00    +0.000 NA
ATOM     13  C   UNL     1      22.813  40.477  47.265  0.00  0.00    +0.000 C 
ATOM     14  C   UNL     1      22.077  40.226  44.981  0.00  0.00    +0.000 C 
ATOM     15  C   UNL     1      24.031  40.164  46.391  0.00  0.00    +0.000 C 
ATOM     16  C   UNL     1      23.587  40.357  44.953  0.00  0.00    +0.000 C 
BRANCH  13  17
ATOM     17  C   UNL     1      23.115  41.553  48.224  0.00  0.00    +0.000 C 
ATOM     18  N   UNL     1      23.401  42.366  49.008  0.00  0.00    +0.000 NA
ENDBRANCH  13  17
ENDBRANCH   9  12
ENDBRANCH   5   9
BRANCH   3  19
ATOM     19  O   UNL     1      19.658  42.207  43.620  0.00  0.00    +0.000 OA
ATOM     20  H   UNL     1      20.573  42.193  43.821  0.00  0.00    +0.000 HD
ENDBRANCH   3  19
TORSDOF 4
ENDMDL
MODEL 4
REMARK VINA RESULT:      -6.7      3.187      5.273
REMARK  Name = 347799
REMARK  4 active torsions:
REMARK  status: ('A' for Active; 'I' for Inactive)
REMARK    1  A    between atoms: C_3  and  O_5
REMARK    2  A    between atoms: C_6  and  S_8
REMARK    3  A    between atoms: S_8  and  N_13
REMARK    4  A    between atoms: C_14  and  C_16
REMARK                            x       y       z     vdW  Elec       q    Type
REMARK                         _______ _______ _______ _____ _____    ______ ____
ROOT
ATOM      1 CL   UNL     1      16.501  38.408  45.622  0.00  0.00    +0.000 Cl
ATOM      2  C   UNL     1      17.370  39.898  45.706  0.00  0.00    +0.000 A 
ATOM      3  C   UNL     1      18.692  39.969  45.246  0.00  0.00    +0.000 A 
ATOM      4  C   UNL     1      16.746  41.012  46.266  0.00  0.00    +0.000 A 
ATOM      5  C   UNL     1      19.390  41.171  45.345  0.00  0.00    +0.000 A 
ATOM      6  C   UNL     1      17.459  42.203  46.379  0.00  0.00    +0.000 A 
ATOM      7  C   UNL     1      18.775  42.292  45.923  0.00  0.00    +0.000 A 
ATOM      8 CL   UNL     1      16.709  43.570  47.106  0.00  0.00    +0.000 Cl
ENDROOT
BRANCH   5   9
ATOM      9  S   UNL     1      21.066  41.299  44.761  0.00  0.00    +0.000 S 
ATOM     10  O   UNL     1      21.064  40.959  43.356  0.00  0.00    +0.000 OA
ATOM     11  O   UNL     1      21.607  42.570  45.197  0.00  0.00    +0.000 OA
BRANCH   9  12
ATOM     12  N   UNL     1      21.899  40.103  45.606  0.00  0.00    +0.000 NA
ATOM     13  C   UNL     1      22.214  40.227  47.051  0.00  0.00    +0.000 C 
ATOM     14  C   UNL     1      23.011  39.413  44.923  0.00  0.00    +0.000 C 
ATOM     15  C   UNL     1      23.679  39.807  47.206  0.00  0.00    +0.000 C 
ATOM     16  C   UNL     1      24.227  39.637  45.801  0.00  0.00    +0.000 C 
BRANCH  13  17
ATOM     17  C   UNL     1      21.960  41.510  47.725  0.00  0.00    +0.000 C 
ATOM     18  N   UNL     1      21.778  42.499  48.316  0.00  0.00    +0.000 NA
ENDBRANCH  13  17
ENDBRANCH   9  12
ENDBRANCH   5   9
BRANCH   3  19
ATOM     19  O   UNL     1      19.305  38.853  44.748  0.00  0.00    +0.000 OA
ATOM     20  H   UNL     1      19.230  38.644  43.837  0.00  0.00    +0.000 HD
ENDBRANCH   3  19
TORSDOF 4
ENDMDL
MODEL 5
REMARK VINA RESULT:      -6.6      1.350      2.569
REMARK  Name = 347799
REMARK  4 active torsions:
REMARK  status: ('A' for Active; 'I' for Inactive)
REMARK    1  A    between atoms: C_3  and  O_5
REMARK    2  A    between atoms: C_6  and  S_8
REMARK    3  A    between atoms: S_8  and  N_13
REMARK    4  A    between atoms: C_14  and  C_16
REMARK                            x       y       z     vdW  Elec       q    Type
REMARK                         _______ _______ _______ _____ _____    ______ ____
ROOT
ATOM      1 CL   UNL     1      22.928  42.474  49.138  0.00  0.00    +0.000 Cl
ATOM      2  C   UNL     1      22.648  41.514  47.730  0.00  0.00    +0.000 A 
ATOM      3  C   UNL     1      21.480  41.694  46.977  0.00  0.00    +0.000 A 
ATOM      4  C   UNL     1      23.583  40.541  47.380  0.00  0.00    +0.000 A 
ATOM      5  C   UNL     1      21.254  40.894  45.858  0.00  0.00    +0.000 A 
ATOM      6  C   UNL     1      23.339  39.733  46.273  0.00  0.00    +0.000 A 
ATOM      7  C   UNL     1      22.182  39.901  45.509  0.00  0.00    +0.000 A 
ATOM      8 CL   UNL     1      24.468  38.504  45.858  0.00  0.00    +0.000 Cl
ENDROOT
BRANCH   5   9
ATOM      9  S   UNL     1      19.787  41.102  44.874  0.00  0.00    +0.000 S 
ATOM     10  O   UNL     1      19.226  42.395  45.198  0.00  0.00    +0.000 OA
ATOM     11  O   UNL     1      20.108  40.779  43.499  0.00  0.00    +0.000 OA
BRANCH   9  12
ATOM     12  N   UNL     1      18.737  39.904  45.422  0.00  0.00    +0.000 NA
ATOM     13  C   UNL     1      17.544  39.481  44.646  0.00  0.00    +0.000 C 
ATOM     14  C   UNL     1      18.421  39.859  46.862  0.00  0.00    +0.000 C 
ATOM     15  C   UNL     1      16.388  39.405  45.648  0.00  0.00    +0.000 C 
ATOM     16  C   UNL     1      16.912  39.981  46.950  0.00  0.00    +0.000 C 
BRANCH  13  17
ATOM     17  C   UNL     1      17.160  40.256  43.455  0.00  0.00    +0.000 C 
ATOM     18  N   UNL     1      16.801  40.889  42.545  0.00  0.00    +0.000 NA
ENDBRANCH  13  17
ENDBRANCH   9  12
ENDBRANCH   5   9
BRANCH   3  19
ATOM     19  O   UNL     1      20.549  42.617  47.366  0.00  0.00    +0.000 OA
ATOM     20  H   UNL     1      19.834  42.830  46.798  0.00  0.00    +0.000 HD
ENDBRANCH   3  19
TORSDOF 4
ENDMDL
MODEL 6
REMARK VINA RESULT:      -6.4      2.322      2.840
REMARK  Name = 347799
REMARK  4 active torsions:
REMARK  status: ('A' for Active; 'I' for Inactive)
REMARK    1  A    between atoms: C_3  and  O_5
REMARK    2  A    between atoms: C_6  and  S_8
REMARK    3  A    between atoms: S_8  and  N_13
REMARK    4  A    between atoms: C_14  and  C_16
REMARK                            x       y       z     vdW  Elec       q    Type
REMARK                         _______ _______ _______ _____ _____    ______ ____
ROOT
ATOM      1 CL   UNL     1      23.528  40.461  44.247  0.00  0.00    +0.000 Cl
ATOM      2  C   UNL     1      22.047  40.665  45.110  0.00  0.00    +0.000 A 
ATOM      3  C   UNL     1      20.862  40.102  44.616  0.00  0.00    +0.000 A 
ATOM      4  C   UNL     1      22.046  41.423  46.280  0.00  0.00    +0.000 A 
ATOM      5  C   UNL     1      19.668  40.297  45.309  0.00  0.00    +0.000 A 
ATOM      6  C   UNL     1      20.845  41.630  46.954  0.00  0.00    +0.000 A 
ATOM      7  C   UNL     1      19.657  41.073  46.478  0.00  0.00    +0.000 A 
ATOM      8 CL   UNL     1      20.830  42.597  48.376  0.00  0.00    +0.000 Cl
ENDROOT
BRANCH   5   9
ATOM      9  S   UNL     1      18.147  39.588  44.717  0.00  0.00    +0.000 S 
ATOM     10  O   UNL     1      18.301  39.353  43.299  0.00  0.00    +0.000 OA
ATOM     11  O   UNL     1      17.779  38.496  45.596  0.00  0.00    +0.000 OA
BRANCH   9  12
ATOM     12  N   UNL     1      17.000  40.801  44.944  0.00  0.00    +0.000 NA
ATOM     13  C   UNL     1      17.037  42.077  44.187  0.00  0.00    +0.000 C 
ATOM     14  C   UNL     1      16.525  41.063  46.316  0.00  0.00    +0.000 C 
ATOM     15  C   UNL     1      16.800  43.189  45.213  0.00  0.00    +0.000 C 
ATOM     16  C   UNL     1      16.827  42.526  46.577  0.00  0.00    +0.000 C 
BRANCH  13  17
ATOM     17  C   UNL     1      18.212  42.373  43.351  0.00  0.00    +0.000 C 
ATOM     18  N   UNL     1      19.118  42.668  42.680  0.00  0.00    +0.000 NA
ENDBRANCH  13  17
ENDBRANCH   9  12
ENDBRANCH   5   9
BRANCH   3  19
ATOM     19  O   UNL     1      20.871  39.405  43.440  0.00  0.00    +0.000 OA
ATOM     20  H   UNL     1      21.498  39.616  42.775  0.00  0.00    +0.000 HD
ENDBRANCH   3  19
TORSDOF 4
ENDMDL
MODEL 7
REMARK VINA RESULT:      -6.3      3.440      5.866
REMARK  Name = 347799
REMARK  4 active torsions:
REMARK  status: ('A' for Active; 'I' for Inactive)
REMARK    1  A    between atoms: C_3  and  O_5
REMARK    2  A    between atoms: C_6  and  S_8
REMARK    3  A    between atoms: S_8  and  N_13
REMARK    4  A    between atoms: C_14  and  C_16
REMARK                            x       y       z     vdW  Elec       q    Type
REMARK                         _______ _______ _______ _____ _____    ______ ____
ROOT
ATOM      1 CL   UNL     1      16.635  43.610  44.329  0.00  0.00    +0.000 Cl
ATOM      2  C   UNL     1      17.459  42.506  45.369  0.00  0.00    +0.000 A 
ATOM      3  C   UNL     1      18.829  42.664  45.621  0.00  0.00    +0.000 A 
ATOM      4  C   UNL     1      16.748  41.442  45.922  0.00  0.00    +0.000 A 
ATOM      5  C   UNL     1      19.487  41.749  46.441  0.00  0.00    +0.000 A 
ATOM      6  C   UNL     1      17.418  40.521  46.723  0.00  0.00    +0.000 A 
ATOM      7  C   UNL     1      18.781  40.666  46.988  0.00  0.00    +0.000 A 
ATOM      8 CL   UNL     1      16.557  39.183  47.376  0.00  0.00    +0.000 Cl
ENDROOT
BRANCH   5   9
ATOM      9  S   UNL     1      21.222  41.927  46.791  0.00  0.00    +0.000 S 
ATOM     10  O   UNL     1      21.724  43.002  45.965  0.00  0.00    +0.000 OA
ATOM     11  O   UNL     1      21.397  41.977  48.228  0.00  0.00    +0.000 OA
BRANCH   9  12
ATOM     12  N   UNL     1      21.907  40.479  46.270  0.00  0.00    +0.000 NA
ATOM     13  C   UNL     1      23.259  40.042  46.700  0.00  0.00    +0.000 C 
ATOM     14  C   UNL     1      21.687  40.067  44.870  0.00  0.00    +0.000 C 
ATOM     15  C   UNL     1      23.973  39.556  45.435  0.00  0.00    +0.000 C 
ATOM     16  C   UNL     1      23.070  39.912  44.270  0.00  0.00    +0.000 C 
BRANCH  13  17
ATOM     17  C   UNL     1      24.104  40.984  47.453  0.00  0.00    +0.000 C 
ATOM     18  N   UNL     1      24.819  41.721  48.003  0.00  0.00    +0.000 NA
ENDBRANCH  13  17
ENDBRANCH   9  12
ENDBRANCH   5   9
BRANCH   3  19
ATOM     19  O   UNL     1      19.521  43.684  45.028  0.00  0.00    +0.000 OA
ATOM     20  H   UNL     1      20.444  43.603  44.887  0.00  0.00    +0.000 HD
ENDBRANCH   3  19
TORSDOF 4
ENDMDL
MODEL 8
REMARK VINA RESULT:      -6.2      3.142      5.661
REMARK  Name = 347799
REMARK  4 active torsions:
REMARK  status: ('A' for Active; 'I' for Inactive)
REMARK    1  A    between atoms: C_3  and  O_5
REMARK    2  A    between atoms: C_6  and  S_8
REMARK    3  A    between atoms: S_8  and  N_13
REMARK    4  A    between atoms: C_14  and  C_16
REMARK                            x       y       z     vdW  Elec       q    Type
REMARK                         _______ _______ _______ _____ _____    ______ ____
ROOT
ATOM      1 CL   UNL     1      16.696  43.324  46.982  0.00  0.00    +0.000 Cl
ATOM      2  C   UNL     1      17.481  41.911  46.377  0.00  0.00    +0.000 A 
ATOM      3  C   UNL     1      18.775  41.998  45.846  0.00  0.00    +0.000 A 
ATOM      4  C   UNL     1      16.795  40.698  46.396  0.00  0.00    +0.000 A 
ATOM      5  C   UNL     1      19.387  40.854  45.336  0.00  0.00    +0.000 A 
ATOM      6  C   UNL     1      17.407  39.564  45.865  0.00  0.00    +0.000 A 
ATOM      7  C   UNL     1      18.697  39.633  45.336  0.00  0.00    +0.000 A 
ATOM      8 CL   UNL     1      16.551  38.072  45.848  0.00  0.00    +0.000 Cl
ENDROOT
BRANCH   5   9
ATOM      9  S   UNL     1      21.033  40.927  44.664  0.00  0.00    +0.000 S 
ATOM     10  O   UNL     1      20.976  40.404  43.318  0.00  0.00    +0.000 OA
ATOM     11  O   UNL     1      21.567  42.252  44.903  0.00  0.00    +0.000 OA
BRANCH   9  12
ATOM     12  N   UNL     1      21.926  39.865  45.620  0.00  0.00    +0.000 NA
ATOM     13  C   UNL     1      22.226  40.146  47.047  0.00  0.00    +0.000 C 
ATOM     14  C   UNL     1      23.077  39.175  45.008  0.00  0.00    +0.000 C 
ATOM     15  C   UNL     1      23.712  39.824  47.241  0.00  0.00    +0.000 C 
ATOM     16  C   UNL     1      24.275  39.549  45.860  0.00  0.00    +0.000 C 
BRANCH  13  17
ATOM     17  C   UNL     1      21.899  41.473  47.594  0.00  0.00    +0.000 C 
ATOM     18  N   UNL     1      21.602  42.493  48.072  0.00  0.00    +0.000 NA
ENDBRANCH  13  17
ENDBRANCH   9  12
ENDBRANCH   5   9
BRANCH   3  19
ATOM     19  O   UNL     1      19.413  43.207  45.788  0.00  0.00    +0.000 OA
ATOM     20  H   UNL     1      18.948  43.969  45.502  0.00  0.00    +0.000 HD
ENDBRANCH   3  19
TORSDOF 4
ENDMDL
MODEL 9
REMARK VINA RESULT:      -6.1      1.804      3.372
REMARK  Name = 347799
REMARK  4 active torsions:
REMARK  status: ('A' for Active; 'I' for Inactive)
REMARK    1  A    between atoms: C_3  and  O_5
REMARK    2  A    between atoms: C_6  and  S_8
REMARK    3  A    between atoms: S_8  and  N_13
REMARK    4  A    between atoms: C_14  and  C_16
REMARK                            x       y       z     vdW  Elec       q    Type
REMARK                         _______ _______ _______ _____ _____    ______ ____
ROOT
ATOM      1 CL   UNL     1      22.855  42.801  49.412  0.00  0.00    +0.000 Cl
ATOM      2  C   UNL     1      22.810  41.827  47.986  0.00  0.00    +0.000 A 
ATOM      3  C   UNL     1      21.581  41.517  47.386  0.00  0.00    +0.000 A 
ATOM      4  C   UNL     1      24.005  41.332  47.469  0.00  0.00    +0.000 A 
ATOM      5  C   UNL     1      21.557  40.708  46.251  0.00  0.00    +0.000 A 
ATOM      6  C   UNL     1      23.969  40.507  46.347  0.00  0.00    +0.000 A 
ATOM      7  C   UNL     1      22.755  40.192  45.734  0.00  0.00    +0.000 A 
ATOM      8 CL   UNL     1      25.436  39.859  45.726  0.00  0.00    +0.000 Cl
ENDROOT
BRANCH   5   9
ATOM      9  S   UNL     1      20.017  40.304  45.457  0.00  0.00    +0.000 S 
ATOM     10  O   UNL     1      20.323  39.477  44.311  0.00  0.00    +0.000 OA
ATOM     11  O   UNL     1      19.093  39.828  46.465  0.00  0.00    +0.000 OA
BRANCH   9  12
ATOM     12  N   UNL     1      19.422  41.783  44.913  0.00  0.00    +0.000 NA
ATOM     13  C   UNL     1      18.037  41.940  44.403  0.00  0.00    +0.000 C 
ATOM     14  C   UNL     1      20.326  42.657  44.141  0.00  0.00    +0.000 C 
ATOM     15  C   UNL     1      18.147  42.765  43.116  0.00  0.00    +0.000 C 
ATOM     16  C   UNL     1      19.628  42.894  42.816  0.00  0.00    +0.000 C 
BRANCH  13  17
ATOM     17  C   UNL     1      17.218  40.736  44.189  0.00  0.00    +0.000 C 
ATOM     18  N   UNL     1      16.616  39.760  43.978  0.00  0.00    +0.000 NA
ENDBRANCH  13  17
ENDBRANCH   9  12
ENDBRANCH   5   9
BRANCH   3  19
ATOM     19  O   UNL     1      20.415  41.969  47.938  0.00  0.00    +0.000 OA
ATOM     20  H   UNL     1      20.019  42.756  47.618  0.00  0.00    +0.000 HD
ENDBRANCH   3  19
TORSDOF 4
ENDMDL
