MODEL 1
REMARK VINA RESULT:      -8.2      0.000      0.000
REMARK  Name = 347794
REMARK  4 active torsions:
REMARK  status: ('A' for Active; 'I' for Inactive)
REMARK    1  A    between atoms: C_3  and  O_5
REMARK    2  A    between atoms: C_6  and  S_8
REMARK    3  A    between atoms: S_8  and  N_13
REMARK    4  A    between atoms: C_14  and  C_16
REMARK                            x       y       z     vdW  Elec       q    Type
REMARK                         _______ _______ _______ _____ _____    ______ ____
ROOT
ATOM      1  S   UNL     1      20.181  42.294  45.922  0.00  0.00    +0.000 S 
ATOM      2  O   UNL     1      19.586  43.135  46.940  0.00  0.00    +0.000 OA
ATOM      3  O   UNL     1      20.611  42.873  44.672  0.00  0.00    +0.000 OA
ENDROOT
BRANCH   1   8
ATOM      4 CL   UNL     1      24.145  38.477  46.042  0.00  0.00    +0.000 Cl
ATOM      5  C   UNL     1      23.342  39.844  46.729  0.00  0.00    +0.000 A 
ATOM      6  C   UNL     1      22.159  40.332  46.153  0.00  0.00    +0.000 A 
ATOM      7  C   UNL     1      23.904  40.457  47.847  0.00  0.00    +0.000 A 
ATOM      8  C   UNL     1      21.529  41.443  46.712  0.00  0.00    +0.000 A 
ATOM      9  C   UNL     1      23.262  41.555  48.410  0.00  0.00    +0.000 A 
ATOM     10  C   UNL     1      22.081  42.047  47.855  0.00  0.00    +0.000 A 
ATOM     11 CL   UNL     1      23.949  42.332  49.781  0.00  0.00    +0.000 Cl
BRANCH   6  12
ATOM     12  O   UNL     1      21.636  39.701  45.061  0.00  0.00    +0.000 OA
ATOM     13  H   UNL     1      21.336  38.816  45.128  0.00  0.00    +0.000 HD
ENDBRANCH   6  12
ENDBRANCH   1   8
BRANCH   1  14
ATOM     14  N   UNL     1      19.018  41.064  45.582  0.00  0.00    +0.000 NA
ATOM     15  C   UNL     1      18.021  41.430  44.497  0.00  0.00    +0.000 C 
ATOM     16  C   UNL     1      18.209  40.698  46.804  0.00  0.00    +0.000 C 
ATOM     17  C   UNL     1      16.751  41.822  45.231  0.00  0.00    +0.000 C 
ATOM     18  C   UNL     1      16.746  40.959  46.475  0.00  0.00    +0.000 C 
BRANCH  15  19
ATOM     19  C   UNL     1      17.819  40.213  43.597  0.00  0.00    +0.000 C 
ATOM     20  O   UNL     1      16.772  39.917  43.044  0.00  0.00    +0.000 OA
ATOM     21  O   UNL     1      18.954  39.474  43.469  0.00  0.00    +0.000 OA
ENDBRANCH  15  19
ENDBRANCH   1  14
TORSDOF 4
ENDMDL
MODEL 2
REMARK VINA RESULT:      -7.3      3.145      5.387
REMARK  Name = 347794
REMARK  4 active torsions:
REMARK  status: ('A' for Active; 'I' for Inactive)
REMARK    1  A    between atoms: C_3  and  O_5
REMARK    2  A    between atoms: C_6  and  S_8
REMARK    3  A    between atoms: S_8  and  N_13
REMARK    4  A    between atoms: C_14  and  C_16
REMARK                            x       y       z     vdW  Elec       q    Type
REMARK                         _______ _______ _______ _____ _____    ______ ____
ROOT
ATOM      1  S   UNL     1      19.604  42.650  46.631  0.00  0.00    +0.000 S 
ATOM      2  O   UNL     1      19.404  44.014  46.186  0.00  0.00    +0.000 OA
ATOM      3  O   UNL     1      19.725  42.364  48.040  0.00  0.00    +0.000 OA
ENDROOT
BRANCH   1   8
ATOM      4 CL   UNL     1      16.699  40.794  42.340  0.00  0.00    +0.000 Cl
ATOM      5  C   UNL     1      17.070  40.793  44.028  0.00  0.00    +0.000 A 
ATOM      6  C   UNL     1      17.984  41.720  44.550  0.00  0.00    +0.000 A 
ATOM      7  C   UNL     1      16.459  39.845  44.847  0.00  0.00    +0.000 A 
ATOM      8  C   UNL     1      18.282  41.700  45.913  0.00  0.00    +0.000 A 
ATOM      9  C   UNL     1      16.748  39.840  46.206  0.00  0.00    +0.000 A 
ATOM     10  C   UNL     1      17.648  40.761  46.743  0.00  0.00    +0.000 A 
ATOM     11 CL   UNL     1      16.015  38.668  47.229  0.00  0.00    +0.000 Cl
BRANCH   6  12
ATOM     12  O   UNL     1      18.558  42.638  43.718  0.00  0.00    +0.000 OA
ATOM     13  H   UNL     1      18.958  43.407  44.071  0.00  0.00    +0.000 HD
ENDBRANCH   6  12
ENDBRANCH   1   8
BRANCH   1  14
ATOM     14  N   UNL     1      21.032  42.095  45.837  0.00  0.00    +0.000 NA
ATOM     15  C   UNL     1      21.174  40.585  45.789  0.00  0.00    +0.000 C 
ATOM     16  C   UNL     1      22.286  42.624  46.494  0.00  0.00    +0.000 C 
ATOM     17  C   UNL     1      22.168  40.238  46.883  0.00  0.00    +0.000 C 
ATOM     18  C   UNL     1      23.109  41.423  46.935  0.00  0.00    +0.000 C 
BRANCH  15  19
ATOM     19  C   UNL     1      21.675  40.190  44.402  0.00  0.00    +0.000 C 
ATOM     20  O   UNL     1      22.457  39.281  44.172  0.00  0.00    +0.000 OA
ATOM     21  O   UNL     1      21.147  40.972  43.423  0.00  0.00    +0.000 OA
ENDBRANCH  15  19
ENDBRANCH   1  14
TORSDOF 4
ENDMDL
MODEL 3
REMARK VINA RESULT:      -7.2      3.070      5.302
REMARK  Name = 347794
REMARK  4 active torsions:
REMARK  status: ('A' for Active; 'I' for Inactive)
REMARK    1  A    between atoms: C_3  and  O_5
REMARK    2  A    between atoms: C_6  and  S_8
REMARK    3  A    between atoms: S_8  and  N_13
REMARK    4  A    between atoms: C_14  and  C_16
REMARK                            x       y       z     vdW  Elec       q    Type
REMARK                         _______ _______ _______ _____ _____    ______ ____
ROOT
ATOM      1  S   UNL     1      20.285  41.165  43.811  0.00  0.00    +0.000 S 
ATOM      2  O   UNL     1      20.537  39.864  43.225  0.00  0.00    +0.000 OA
ATOM      3  O   UNL     1      20.203  42.331  42.965  0.00  0.00    +0.000 OA
ENDROOT
BRANCH   1   8
ATOM      4 CL   UNL     1      16.587  38.168  46.575  0.00  0.00    +0.000 Cl
ATOM      5  C   UNL     1      17.234  39.694  46.086  0.00  0.00    +0.000 A 
ATOM      6  C   UNL     1      18.282  39.750  45.154  0.00  0.00    +0.000 A 
ATOM      7  C   UNL     1      16.707  40.855  46.647  0.00  0.00    +0.000 A 
ATOM      8  C   UNL     1      18.801  40.988  44.777  0.00  0.00    +0.000 A 
ATOM      9  C   UNL     1      17.217  42.087  46.255  0.00  0.00    +0.000 A 
ATOM     10  C   UNL     1      18.254  42.161  45.324  0.00  0.00    +0.000 A 
ATOM     11 CL   UNL     1      16.588  43.530  46.948  0.00  0.00    +0.000 Cl
BRANCH   6  12
ATOM     12  O   UNL     1      18.769  38.590  44.622  0.00  0.00    +0.000 OA
ATOM     13  H   UNL     1      19.476  38.142  45.041  0.00  0.00    +0.000 HD
ENDBRANCH   6  12
ENDBRANCH   1   8
BRANCH   1  14
ATOM     14  N   UNL     1      21.541  41.417  44.968  0.00  0.00    +0.000 NA
ATOM     15  C   UNL     1      21.774  40.244  45.903  0.00  0.00    +0.000 C 
ATOM     16  C   UNL     1      21.269  42.618  45.844  0.00  0.00    +0.000 C 
ATOM     17  C   UNL     1      21.091  40.624  47.205  0.00  0.00    +0.000 C 
ATOM     18  C   UNL     1      21.228  42.130  47.284  0.00  0.00    +0.000 C 
BRANCH  15  19
ATOM     19  C   UNL     1      23.279  40.053  46.071  0.00  0.00    +0.000 C 
ATOM     20  O   UNL     1      24.129  40.462  45.296  0.00  0.00    +0.000 OA
ATOM     21  O   UNL     1      23.586  39.364  47.202  0.00  0.00    +0.000 OA
ENDBRANCH  15  19
ENDBRANCH   1  14
TORSDOF 4
ENDMDL
MODEL 4
REMARK VINA RESULT:      -7.2      3.469      5.801
REMARK  Name = 347794
REMARK  4 active torsions:
REMARK  status: ('A' for Active; 'I' for Inactive)
REMARK    1  A    between atoms: C_3  and  O_5
REMARK    2  A    between atoms: C_6  and  S_8
REMARK    3  A    between atoms: S_8  and  N_13
REMARK    4  A    between atoms: C_14  and  C_16
REMARK                            x       y       z     vdW  Elec       q    Type
REMARK                         _______ _______ _______ _____ _____    ______ ____
ROOT
ATOM      1  S   UNL     1      21.052  41.903  46.380  0.00  0.00    +0.000 S 
ATOM      2  O   UNL     1      21.534  42.901  45.448  0.00  0.00    +0.000 OA
ATOM      3  O   UNL     1      21.245  42.090  47.798  0.00  0.00    +0.000 OA
ENDROOT
BRANCH   1   8
ATOM      4 CL   UNL     1      16.207  39.377  47.043  0.00  0.00    +0.000 Cl
ATOM      5  C   UNL     1      17.170  40.646  46.375  0.00  0.00    +0.000 A 
ATOM      6  C   UNL     1      18.563  40.639  46.545  0.00  0.00    +0.000 A 
ATOM      7  C   UNL     1      16.534  41.677  45.686  0.00  0.00    +0.000 A 
ATOM      8  C   UNL     1      19.327  41.677  46.009  0.00  0.00    +0.000 A 
ATOM      9  C   UNL     1      17.302  42.699  45.140  0.00  0.00    +0.000 A 
ATOM     10  C   UNL     1      18.688  42.704  45.293  0.00  0.00    +0.000 A 
ATOM     11 CL   UNL     1      16.532  43.987  44.300  0.00  0.00    +0.000 Cl
BRANCH   6  12
ATOM     12  O   UNL     1      19.151  39.609  47.221  0.00  0.00    +0.000 OA
ATOM     13  H   UNL     1      19.710  39.009  46.769  0.00  0.00    +0.000 HD
ENDBRANCH   6  12
ENDBRANCH   1   8
BRANCH   1  14
ATOM     14  N   UNL     1      21.804  40.419  45.918  0.00  0.00    +0.000 NA
ATOM     15  C   UNL     1      23.320  40.440  45.986  0.00  0.00    +0.000 C 
ATOM     16  C   UNL     1      21.441  40.017  44.508  0.00  0.00    +0.000 C 
ATOM     17  C   UNL     1      23.785  40.620  44.551  0.00  0.00    +0.000 C 
ATOM     18  C   UNL     1      22.737  39.915  43.717  0.00  0.00    +0.000 C 
BRANCH  15  19
ATOM     19  C   UNL     1      23.795  39.120  46.588  0.00  0.00    +0.000 C 
ATOM     20  O   UNL     1      24.495  38.300  46.016  0.00  0.00    +0.000 OA
ATOM     21  O   UNL     1      23.348  38.945  47.860  0.00  0.00    +0.000 OA
ENDBRANCH  15  19
ENDBRANCH   1  14
TORSDOF 4
ENDMDL
MODEL 5
REMARK VINA RESULT:      -7.1      1.645      3.261
REMARK  Name = 347794
REMARK  4 active torsions:
REMARK  status: ('A' for Active; 'I' for Inactive)
REMARK    1  A    between atoms: C_3  and  O_5
REMARK    2  A    between atoms: C_6  and  S_8
REMARK    3  A    between atoms: S_8  and  N_13
REMARK    4  A    between atoms: C_14  and  C_16
REMARK                            x       y       z     vdW  Elec       q    Type
REMARK                         _______ _______ _______ _____ _____    ______ ____
ROOT
ATOM      1  S   UNL     1      20.336  40.959  43.889  0.00  0.00    +0.000 S 
ATOM      2  O   UNL     1      20.475  42.262  43.271  0.00  0.00    +0.000 OA
ATOM      3  O   UNL     1      20.341  39.771  43.070  0.00  0.00    +0.000 OA
ENDROOT
BRANCH   1   8
ATOM      4 CL   UNL     1      22.589  42.447  48.685  0.00  0.00    +0.000 Cl
ATOM      5  C   UNL     1      22.544  41.432  47.287  0.00  0.00    +0.000 A 
ATOM      6  C   UNL     1      21.638  41.700  46.249  0.00  0.00    +0.000 A 
ATOM      7  C   UNL     1      23.407  40.340  47.224  0.00  0.00    +0.000 A 
ATOM      8  C   UNL     1      21.605  40.866  45.132  0.00  0.00    +0.000 A 
ATOM      9  C   UNL     1      23.382  39.522  46.101  0.00  0.00    +0.000 A 
ATOM     10  C   UNL     1      22.493  39.779  45.057  0.00  0.00    +0.000 A 
ATOM     11 CL   UNL     1      24.430  38.162  46.013  0.00  0.00    +0.000 Cl
BRANCH   6  12
ATOM     12  O   UNL     1      20.811  42.783  46.344  0.00  0.00    +0.000 OA
ATOM     13  H   UNL     1      20.080  42.766  46.930  0.00  0.00    +0.000 HD
ENDBRANCH   6  12
ENDBRANCH   1   8
BRANCH   1  14
ATOM     14  N   UNL     1      18.853  41.006  44.771  0.00  0.00    +0.000 NA
ATOM     15  C   UNL     1      18.521  39.720  45.505  0.00  0.00    +0.000 C 
ATOM     16  C   UNL     1      17.673  41.308  43.876  0.00  0.00    +0.000 C 
ATOM     17  C   UNL     1      17.484  39.020  44.643  0.00  0.00    +0.000 C 
ATOM     18  C   UNL     1      16.702  40.143  43.997  0.00  0.00    +0.000 C 
BRANCH  15  19
ATOM     19  C   UNL     1      17.981  40.078  46.887  0.00  0.00    +0.000 C 
ATOM     20  O   UNL     1      17.090  39.479  47.468  0.00  0.00    +0.000 OA
ATOM     21  O   UNL     1      18.610  41.159  47.420  0.00  0.00    +0.000 OA
ENDBRANCH  15  19
ENDBRANCH   1  14
TORSDOF 4
ENDMDL
MODEL 6
REMARK VINA RESULT:      -7.0      3.253      5.803
REMARK  Name = 347794
REMARK  4 active torsions:
REMARK  status: ('A' for Active; 'I' for Inactive)
REMARK    1  A    between atoms: C_3  and  O_5
REMARK    2  A    between atoms: C_6  and  S_8
REMARK    3  A    between atoms: S_8  and  N_13
REMARK    4  A    between atoms: C_14  and  C_16
REMARK                            x       y       z     vdW  Elec       q    Type
REMARK                         _______ _______ _______ _____ _____    ______ ____
ROOT
ATOM      1  S   UNL     1      20.566  41.877  46.219  0.00  0.00    +0.000 S 
ATOM      2  O   UNL     1      21.045  42.847  45.256  0.00  0.00    +0.000 OA
ATOM      3  O   UNL     1      20.547  42.208  47.624  0.00  0.00    +0.000 OA
ENDROOT
BRANCH   1   8
ATOM      4 CL   UNL     1      16.760  41.124  42.315  0.00  0.00    +0.000 Cl
ATOM      5  C   UNL     1      17.304  40.960  43.946  0.00  0.00    +0.000 A 
ATOM      6  C   UNL     1      18.512  41.548  44.351  0.00  0.00    +0.000 A 
ATOM      7  C   UNL     1      16.530  40.219  44.838  0.00  0.00    +0.000 A 
ATOM      8  C   UNL     1      18.943  41.398  45.669  0.00  0.00    +0.000 A 
ATOM      9  C   UNL     1      16.957  40.087  46.154  0.00  0.00    +0.000 A 
ATOM     10  C   UNL     1      18.151  40.672  46.574  0.00  0.00    +0.000 A 
ATOM     11 CL   UNL     1      16.022  39.164  47.264  0.00  0.00    +0.000 Cl
BRANCH   6  12
ATOM     12  O   UNL     1      19.240  42.271  43.450  0.00  0.00    +0.000 OA
ATOM     13  H   UNL     1      18.830  42.950  42.951  0.00  0.00    +0.000 HD
ENDBRANCH   6  12
ENDBRANCH   1   8
BRANCH   1  14
ATOM     14  N   UNL     1      21.542  40.470  46.004  0.00  0.00    +0.000 NA
ATOM     15  C   UNL     1      23.027  40.754  45.869  0.00  0.00    +0.000 C 
ATOM     16  C   UNL     1      21.140  39.686  44.776  0.00  0.00    +0.000 C 
ATOM     17  C   UNL     1      23.322  40.657  44.382  0.00  0.00    +0.000 C 
ATOM     18  C   UNL     1      22.357  39.610  43.867  0.00  0.00    +0.000 C 
BRANCH  15  19
ATOM     19  C   UNL     1      23.793  39.714  46.682  0.00  0.00    +0.000 C 
ATOM     20  O   UNL     1      23.360  39.133  47.664  0.00  0.00    +0.000 OA
ATOM     21  O   UNL     1      25.041  39.494  46.188  0.00  0.00    +0.000 OA
ENDBRANCH  15  19
ENDBRANCH   1  14
TORSDOF 4
ENDMDL
MODEL 7
REMARK VINA RESULT:      -7.0      3.315      5.631
REMARK  Name = 347794
REMARK  4 active torsions:
REMARK  status: ('A' for Active; 'I' for Inactive)
REMARK    1  A    between atoms: C_3  and  O_5
REMARK    2  A    between atoms: C_6  and  S_8
REMARK    3  A    between atoms: S_8  and  N_13
REMARK    4  A    between atoms: C_14  and  C_16
REMARK                            x       y       z     vdW  Elec       q    Type
REMARK                         _______ _______ _______ _____ _____    ______ ____
ROOT
ATOM      1  S   UNL     1      19.715  42.406  46.469  0.00  0.00    +0.000 S 
ATOM      2  O   UNL     1      19.506  43.720  45.895  0.00  0.00    +0.000 OA
ATOM      3  O   UNL     1      19.601  42.218  47.895  0.00  0.00    +0.000 OA
ENDROOT
BRANCH   1   8
ATOM      4 CL   UNL     1      15.924  38.419  46.313  0.00  0.00    +0.000 Cl
ATOM      5  C   UNL     1      16.866  39.639  45.533  0.00  0.00    +0.000 A 
ATOM      6  C   UNL     1      17.865  40.321  46.244  0.00  0.00    +0.000 A 
ATOM      7  C   UNL     1      16.600  39.939  44.199  0.00  0.00    +0.000 A 
ATOM      8  C   UNL     1      18.611  41.311  45.604  0.00  0.00    +0.000 A 
ATOM      9  C   UNL     1      17.357  40.915  43.562  0.00  0.00    +0.000 A 
ATOM     10  C   UNL     1      18.359  41.597  44.251  0.00  0.00    +0.000 A 
ATOM     11 CL   UNL     1      17.032  41.308  41.919  0.00  0.00    +0.000 Cl
BRANCH   6  12
ATOM     12  O   UNL     1      18.102  39.995  47.549  0.00  0.00    +0.000 OA
ATOM     13  H   UNL     1      18.944  39.680  47.809  0.00  0.00    +0.000 HD
ENDBRANCH   6  12
ENDBRANCH   1   8
BRANCH   1  14
ATOM     14  N   UNL     1      21.297  41.919  45.979  0.00  0.00    +0.000 NA
ATOM     15  C   UNL     1      21.524  40.419  46.003  0.00  0.00    +0.000 C 
ATOM     16  C   UNL     1      22.371  42.531  46.850  0.00  0.00    +0.000 C 
ATOM     17  C   UNL     1      22.305  40.149  47.277  0.00  0.00    +0.000 C 
ATOM     18  C   UNL     1      23.154  41.387  47.475  0.00  0.00    +0.000 C 
BRANCH  15  19
ATOM     19  C   UNL     1      22.304  40.029  44.750  0.00  0.00    +0.000 C 
ATOM     20  O   UNL     1      23.233  39.238  44.721  0.00  0.00    +0.000 OA
ATOM     21  O   UNL     1      21.847  40.668  43.640  0.00  0.00    +0.000 OA
ENDBRANCH  15  19
ENDBRANCH   1  14
TORSDOF 4
ENDMDL
MODEL 8
REMARK VINA RESULT:      -7.0      1.200      2.504
REMARK  Name = 347794
REMARK  4 active torsions:
REMARK  status: ('A' for Active; 'I' for Inactive)
REMARK    1  A    between atoms: C_3  and  O_5
REMARK    2  A    between atoms: C_6  and  S_8
REMARK    3  A    between atoms: S_8  and  N_13
REMARK    4  A    between atoms: C_14  and  C_16
REMARK                            x       y       z     vdW  Elec       q    Type
REMARK                         _______ _______ _______ _____ _____    ______ ____
ROOT
ATOM      1  S   UNL     1      19.925  42.214  46.606  0.00  0.00    +0.000 S 
ATOM      2  O   UNL     1      19.643  42.243  48.027  0.00  0.00    +0.000 OA
ATOM      3  O   UNL     1      19.762  43.410  45.816  0.00  0.00    +0.000 OA
ENDROOT
BRANCH   1   8
ATOM      4 CL   UNL     1      24.983  41.229  48.541  0.00  0.00    +0.000 Cl
ATOM      5  C   UNL     1      23.767  41.045  47.328  0.00  0.00    +0.000 A 
ATOM      6  C   UNL     1      22.556  41.747  47.429  0.00  0.00    +0.000 A 
ATOM      7  C   UNL     1      24.008  40.176  46.265  0.00  0.00    +0.000 A 
ATOM      8  C   UNL     1      21.579  41.580  46.447  0.00  0.00    +0.000 A 
ATOM      9  C   UNL     1      23.038  40.026  45.282  0.00  0.00    +0.000 A 
ATOM     10  C   UNL     1      21.832  40.722  45.363  0.00  0.00    +0.000 A 
ATOM     11 CL   UNL     1      23.313  38.946  43.971  0.00  0.00    +0.000 Cl
BRANCH   6  12
ATOM     12  O   UNL     1      22.358  42.594  48.482  0.00  0.00    +0.000 OA
ATOM     13  H   UNL     1      21.565  43.088  48.544  0.00  0.00    +0.000 HD
ENDBRANCH   6  12
ENDBRANCH   1   8
BRANCH   1  14
ATOM     14  N   UNL     1      18.911  40.982  45.946  0.00  0.00    +0.000 NA
ATOM     15  C   UNL     1      18.010  41.452  44.819  0.00  0.00    +0.000 C 
ATOM     16  C   UNL     1      18.009  40.371  46.992  0.00  0.00    +0.000 C 
ATOM     17  C   UNL     1      16.640  41.637  45.448  0.00  0.00    +0.000 C 
ATOM     18  C   UNL     1      16.574  40.586  46.536  0.00  0.00    +0.000 C 
BRANCH  15  19
ATOM     19  C   UNL     1      18.008  40.387  43.725  0.00  0.00    +0.000 C 
ATOM     20  O   UNL     1      18.931  39.623  43.489  0.00  0.00    +0.000 OA
ATOM     21  O   UNL     1      16.843  40.372  43.024  0.00  0.00    +0.000 OA
ENDBRANCH  15  19
ENDBRANCH   1  14
TORSDOF 4
ENDMDL
MODEL 9
REMARK VINA RESULT:      -6.9      1.487      2.216
REMARK  Name = 347794
REMARK  4 active torsions:
REMARK  status: ('A' for Active; 'I' for Inactive)
REMARK    1  A    between atoms: C_3  and  O_5
REMARK    2  A    between atoms: C_6  and  S_8
REMARK    3  A    between atoms: S_8  and  N_13
REMARK    4  A    between atoms: C_14  and  C_16
REMARK                            x       y       z     vdW  Elec       q    Type
REMARK                         _______ _______ _______ _____ _____    ______ ____
ROOT
ATOM      1  S   UNL     1      20.649  41.882  44.594  0.00  0.00    +0.000 S 
ATOM      2  O   UNL     1      20.746  43.309  44.818  0.00  0.00    +0.000 OA
ATOM      3  O   UNL     1      20.912  41.340  43.282  0.00  0.00    +0.000 OA
ENDROOT
BRANCH   1   8
ATOM      4 CL   UNL     1      24.281  38.071  46.202  0.00  0.00    +0.000 Cl
ATOM      5  C   UNL     1      23.382  39.519  46.489  0.00  0.00    +0.000 A 
ATOM      6  C   UNL     1      22.414  39.944  45.566  0.00  0.00    +0.000 A 
ATOM      7  C   UNL     1      23.653  40.257  47.640  0.00  0.00    +0.000 A 
ATOM      8  C   UNL     1      21.704  41.121  45.807  0.00  0.00    +0.000 A 
ATOM      9  C   UNL     1      22.931  41.420  47.882  0.00  0.00    +0.000 A 
ATOM     10  C   UNL     1      21.960  41.852  46.979  0.00  0.00    +0.000 A 
ATOM     11 CL   UNL     1      23.263  42.351  49.289  0.00  0.00    +0.000 Cl
BRANCH   6  12
ATOM     12  O   UNL     1      22.172  39.191  44.453  0.00  0.00    +0.000 OA
ATOM     13  H   UNL     1      22.880  38.762  44.014  0.00  0.00    +0.000 HD
ENDBRANCH   6  12
ENDBRANCH   1   8
BRANCH   1  14
ATOM     14  N   UNL     1      19.046  41.436  45.057  0.00  0.00    +0.000 NA
ATOM     15  C   UNL     1      18.931  40.041  45.644  0.00  0.00    +0.000 C 
ATOM     16  C   UNL     1      18.085  41.494  43.892  0.00  0.00    +0.000 C 
ATOM     17  C   UNL     1      18.384  39.176  44.522  0.00  0.00    +0.000 C 
ATOM     18  C   UNL     1      17.493  40.103  43.723  0.00  0.00    +0.000 C 
BRANCH  15  19
ATOM     19  C   UNL     1      17.991  40.099  46.845  0.00  0.00    +0.000 C 
ATOM     20  O   UNL     1      17.109  39.289  47.084  0.00  0.00    +0.000 OA
ATOM     21  O   UNL     1      18.241  41.171  47.643  0.00  0.00    +0.000 OA
ENDBRANCH  15  19
ENDBRANCH   1  14
TORSDOF 4
ENDMDL
