MODEL 1
REMARK VINA RESULT:      -7.8      0.000      0.000
REMARK  Name = 347791
REMARK  4 active torsions:
REMARK  status: ('A' for Active; 'I' for Inactive)
REMARK    1  A    between atoms: C_4  and  O_7
REMARK    2  A    between atoms: C_8  and  S_11
REMARK    3  A    between atoms: S_11  and  N_14
REMARK    4  A    between atoms: C_15  and  C_17
REMARK                            x       y       z     vdW  Elec       q    Type
REMARK                         _______ _______ _______ _____ _____    ______ ____
ROOT
ATOM      1 CL   UNL     1      24.124  38.554  45.918  0.00  0.00    +0.000 Cl
ATOM      2  C   UNL     1      23.235  39.952  46.441  0.00  0.00    +0.000 A 
ATOM      3  C   UNL     1      23.602  40.674  47.590  0.00  0.00    +0.000 A 
ATOM      4  C   UNL     1      22.122  40.344  45.680  0.00  0.00    +0.000 A 
ATOM      5 CL   UNL     1      24.998  40.214  48.512  0.00  0.00    +0.000 Cl
ATOM      6  C   UNL     1      22.821  41.772  47.980  0.00  0.00    +0.000 A 
ATOM      7  C   UNL     1      21.373  41.453  46.065  0.00  0.00    +0.000 A 
ATOM      8 CL   UNL     1      23.171  42.705  49.394  0.00  0.00    +0.000 Cl
ATOM      9  C   UNL     1      21.706  42.153  47.229  0.00  0.00    +0.000 A 
ENDROOT
BRANCH   7  10
ATOM     10  S   UNL     1      19.945  41.953  45.142  0.00  0.00    +0.000 S 
ATOM     11  O   UNL     1      19.402  43.122  45.800  0.00  0.00    +0.000 OA
ATOM     12  O   UNL     1      20.307  42.003  43.739  0.00  0.00    +0.000 OA
BRANCH  10  13
ATOM     13  N   UNL     1      18.872  40.672  45.273  0.00  0.00    +0.000 NA
ATOM     14  C   UNL     1      17.514  40.672  44.667  0.00  0.00    +0.000 C 
ATOM     15  C   UNL     1      18.757  40.056  46.624  0.00  0.00    +0.000 C 
ATOM     16  C   UNL     1      16.585  40.825  45.870  0.00  0.00    +0.000 C 
ATOM     17  C   UNL     1      17.272  40.037  46.969  0.00  0.00    +0.000 C 
BRANCH  14  18
ATOM     18  C   UNL     1      17.048  41.561  43.540  0.00  0.00    +0.000 C 
ATOM     19  O   UNL     1      16.919  41.149  42.393  0.00  0.00    +0.000 OA
ATOM     20  O   UNL     1      16.711  42.829  43.852  0.00  0.00    +0.000 OA
ENDBRANCH  14  18
ENDBRANCH  10  13
ENDBRANCH   7  10
BRANCH   4  21
ATOM     21  O   UNL     1      21.768  39.634  44.564  0.00  0.00    +0.000 OA
ATOM     22  H   UNL     1      20.866  39.431  44.405  0.00  0.00    +0.000 HD
ENDBRANCH   4  21
TORSDOF 4
ENDMDL
MODEL 2
REMARK VINA RESULT:      -7.0      3.912      6.373
REMARK  Name = 347791
REMARK  4 active torsions:
REMARK  status: ('A' for Active; 'I' for Inactive)
REMARK    1  A    between atoms: C_4  and  O_7
REMARK    2  A    between atoms: C_8  and  S_11
REMARK    3  A    between atoms: S_11  and  N_14
REMARK    4  A    between atoms: C_15  and  C_17
REMARK                            x       y       z     vdW  Elec       q    Type
REMARK                         _______ _______ _______ _____ _____    ______ ____
ROOT
ATOM      1 CL   UNL     1      16.949  38.897  44.950  0.00  0.00    +0.000 Cl
ATOM      2  C   UNL     1      17.992  40.254  44.647  0.00  0.00    +0.000 A 
ATOM      3  C   UNL     1      17.801  41.099  43.540  0.00  0.00    +0.000 A 
ATOM      4  C   UNL     1      19.048  40.482  45.543  0.00  0.00    +0.000 A 
ATOM      5 CL   UNL     1      16.476  40.841  42.451  0.00  0.00    +0.000 Cl
ATOM      6  C   UNL     1      18.700  42.156  43.330  0.00  0.00    +0.000 A 
ATOM      7  C   UNL     1      19.915  41.552  45.335  0.00  0.00    +0.000 A 
ATOM      8 CL   UNL     1      18.570  43.232  41.982  0.00  0.00    +0.000 Cl
ATOM      9  C   UNL     1      19.758  42.375  44.216  0.00  0.00    +0.000 A 
ENDROOT
BRANCH   7  10
ATOM     10  S   UNL     1      21.276  41.848  46.433  0.00  0.00    +0.000 S 
ATOM     11  O   UNL     1      21.965  43.024  45.948  0.00  0.00    +0.000 OA
ATOM     12  O   UNL     1      20.779  41.798  47.794  0.00  0.00    +0.000 OA
BRANCH  10  13
ATOM     13  N   UNL     1      22.261  40.502  46.276  0.00  0.00    +0.000 NA
ATOM     14  C   UNL     1      23.621  40.403  46.871  0.00  0.00    +0.000 C 
ATOM     15  C   UNL     1      22.327  39.899  44.915  0.00  0.00    +0.000 C 
ATOM     16  C   UNL     1      24.550  40.513  45.664  0.00  0.00    +0.000 C 
ATOM     17  C   UNL     1      23.806  39.788  44.559  0.00  0.00    +0.000 C 
BRANCH  14  18
ATOM     18  C   UNL     1      24.151  41.244  48.008  0.00  0.00    +0.000 C 
ATOM     19  O   UNL     1      23.792  41.076  49.167  0.00  0.00    +0.000 OA
ATOM     20  O   UNL     1      25.096  42.158  47.712  0.00  0.00    +0.000 OA
ENDBRANCH  14  18
ENDBRANCH  10  13
ENDBRANCH   7  10
BRANCH   4  21
ATOM     21  O   UNL     1      19.231  39.653  46.617  0.00  0.00    +0.000 OA
ATOM     22  H   UNL     1      18.563  39.038  46.852  0.00  0.00    +0.000 HD
ENDBRANCH   4  21
TORSDOF 4
ENDMDL
MODEL 3
REMARK VINA RESULT:      -7.0      1.922      2.482
REMARK  Name = 347791
REMARK  4 active torsions:
REMARK  status: ('A' for Active; 'I' for Inactive)
REMARK    1  A    between atoms: C_4  and  O_7
REMARK    2  A    between atoms: C_8  and  S_11
REMARK    3  A    between atoms: S_11  and  N_14
REMARK    4  A    between atoms: C_15  and  C_17
REMARK                            x       y       z     vdW  Elec       q    Type
REMARK                         _______ _______ _______ _____ _____    ______ ____
ROOT
ATOM      1 CL   UNL     1      24.900  39.548  45.891  0.00  0.00    +0.000 Cl
ATOM      2  C   UNL     1      23.884  40.568  46.863  0.00  0.00    +0.000 A 
ATOM      3  C   UNL     1      24.403  41.344  47.913  0.00  0.00    +0.000 A 
ATOM      4  C   UNL     1      22.511  40.593  46.572  0.00  0.00    +0.000 A 
ATOM      5 CL   UNL     1      26.105  41.343  48.253  0.00  0.00    +0.000 Cl
ATOM      6  C   UNL     1      23.524  42.119  48.684  0.00  0.00    +0.000 A 
ATOM      7  C   UNL     1      21.654  41.389  47.329  0.00  0.00    +0.000 A 
ATOM      8 CL   UNL     1      24.059  43.083  50.017  0.00  0.00    +0.000 Cl
ATOM      9  C   UNL     1      22.155  42.133  48.402  0.00  0.00    +0.000 A 
ENDROOT
BRANCH   7  10
ATOM     10  S   UNL     1      19.911  41.417  47.005  0.00  0.00    +0.000 S 
ATOM     11  O   UNL     1      19.541  40.090  46.562  0.00  0.00    +0.000 OA
ATOM     12  O   UNL     1      19.248  42.023  48.143  0.00  0.00    +0.000 OA
BRANCH  10  13
ATOM     13  N   UNL     1      19.720  42.513  45.751  0.00  0.00    +0.000 NA
ATOM     14  C   UNL     1      18.425  42.759  45.064  0.00  0.00    +0.000 C 
ATOM     15  C   UNL     1      20.783  42.499  44.707  0.00  0.00    +0.000 C 
ATOM     16  C   UNL     1      18.615  42.103  43.697  0.00  0.00    +0.000 C 
ATOM     17  C   UNL     1      20.073  42.358  43.365  0.00  0.00    +0.000 C 
BRANCH  14  18
ATOM     18  C   UNL     1      17.057  42.426  45.610  0.00  0.00    +0.000 C 
ATOM     19  O   UNL     1      16.451  41.413  45.281  0.00  0.00    +0.000 OA
ATOM     20  O   UNL     1      16.543  43.258  46.536  0.00  0.00    +0.000 OA
ENDBRANCH  14  18
ENDBRANCH  10  13
ENDBRANCH   7  10
BRANCH   4  21
ATOM     21  O   UNL     1      22.010  39.832  45.549  0.00  0.00    +0.000 OA
ATOM     22  H   UNL     1      22.341  38.967  45.404  0.00  0.00    +0.000 HD
ENDBRANCH   4  21
TORSDOF 4
ENDMDL
MODEL 4
REMARK VINA RESULT:      -6.7      1.771      2.771
REMARK  Name = 347791
REMARK  4 active torsions:
REMARK  status: ('A' for Active; 'I' for Inactive)
REMARK    1  A    between atoms: C_4  and  O_7
REMARK    2  A    between atoms: C_8  and  S_11
REMARK    3  A    between atoms: S_11  and  N_14
REMARK    4  A    between atoms: C_15  and  C_17
REMARK                            x       y       z     vdW  Elec       q    Type
REMARK                         _______ _______ _______ _____ _____    ______ ____
ROOT
ATOM      1 CL   UNL     1      24.881  41.733  48.629  0.00  0.00    +0.000 Cl
ATOM      2  C   UNL     1      23.685  41.378  47.420  0.00  0.00    +0.000 A 
ATOM      3  C   UNL     1      23.978  40.578  46.303  0.00  0.00    +0.000 A 
ATOM      4  C   UNL     1      22.402  41.923  47.588  0.00  0.00    +0.000 A 
ATOM      5 CL   UNL     1      25.552  39.873  46.111  0.00  0.00    +0.000 Cl
ATOM      6  C   UNL     1      22.978  40.359  45.343  0.00  0.00    +0.000 A 
ATOM      7  C   UNL     1      21.412  41.674  46.640  0.00  0.00    +0.000 A 
ATOM      8 CL   UNL     1      23.248  39.416  43.918  0.00  0.00    +0.000 Cl
ATOM      9  C   UNL     1      21.705  40.913  45.505  0.00  0.00    +0.000 A 
ENDROOT
BRANCH   7  10
ATOM     10  S   UNL     1      19.792  42.374  46.809  0.00  0.00    +0.000 S 
ATOM     11  O   UNL     1      19.476  42.375  48.221  0.00  0.00    +0.000 OA
ATOM     12  O   UNL     1      19.750  43.607  46.047  0.00  0.00    +0.000 OA
BRANCH  10  13
ATOM     13  N   UNL     1      18.776  41.320  45.995  0.00  0.00    +0.000 NA
ATOM     14  C   UNL     1      17.394  41.671  45.572  0.00  0.00    +0.000 C 
ATOM     15  C   UNL     1      18.741  39.922  46.510  0.00  0.00    +0.000 C 
ATOM     16  C   UNL     1      16.512  40.874  46.531  0.00  0.00    +0.000 C 
ATOM     17  C   UNL     1      17.274  39.579  46.743  0.00  0.00    +0.000 C 
BRANCH  14  18
ATOM     18  C   UNL     1      16.847  43.069  45.411  0.00  0.00    +0.000 C 
ATOM     19  O   UNL     1      16.671  43.579  44.311  0.00  0.00    +0.000 OA
ATOM     20  O   UNL     1      16.492  43.727  46.533  0.00  0.00    +0.000 OA
ENDBRANCH  14  18
ENDBRANCH  10  13
ENDBRANCH   7  10
BRANCH   4  21
ATOM     21  O   UNL     1      22.123  42.705  48.677  0.00  0.00    +0.000 OA
ATOM     22  H   UNL     1      22.766  42.815  49.351  0.00  0.00    +0.000 HD
ENDBRANCH   4  21
TORSDOF 4
ENDMDL
MODEL 5
REMARK VINA RESULT:      -6.7      0.695      2.251
REMARK  Name = 347791
REMARK  4 active torsions:
REMARK  status: ('A' for Active; 'I' for Inactive)
REMARK    1  A    between atoms: C_4  and  O_7
REMARK    2  A    between atoms: C_8  and  S_11
REMARK    3  A    between atoms: S_11  and  N_14
REMARK    4  A    between atoms: C_15  and  C_17
REMARK                            x       y       z     vdW  Elec       q    Type
REMARK                         _______ _______ _______ _____ _____    ______ ____
ROOT
ATOM      1 CL   UNL     1      22.760  42.537  49.175  0.00  0.00    +0.000 Cl
ATOM      2  C   UNL     1      22.599  41.547  47.757  0.00  0.00    +0.000 A 
ATOM      3  C   UNL     1      23.499  40.504  47.477  0.00  0.00    +0.000 A 
ATOM      4  C   UNL     1      21.536  41.823  46.882  0.00  0.00    +0.000 A 
ATOM      5 CL   UNL     1      24.792  40.137  48.574  0.00  0.00    +0.000 Cl
ATOM      6  C   UNL     1      23.336  39.765  46.296  0.00  0.00    +0.000 A 
ATOM      7  C   UNL     1      21.372  41.062  45.727  0.00  0.00    +0.000 A 
ATOM      8 CL   UNL     1      24.408  38.484  45.846  0.00  0.00    +0.000 Cl
ATOM      9  C   UNL     1      22.285  40.049  45.419  0.00  0.00    +0.000 A 
ENDROOT
BRANCH   7  10
ATOM     10  S   UNL     1      20.057  41.407  44.588  0.00  0.00    +0.000 S 
ATOM     11  O   UNL     1      19.673  42.787  44.791  0.00  0.00    +0.000 OA
ATOM     12  O   UNL     1      20.461  40.942  43.276  0.00  0.00    +0.000 OA
BRANCH  10  13
ATOM     13  N   UNL     1      18.806  40.391  45.048  0.00  0.00    +0.000 NA
ATOM     14  C   UNL     1      17.391  40.591  44.636  0.00  0.00    +0.000 C 
ATOM     15  C   UNL     1      18.799  39.974  46.478  0.00  0.00    +0.000 C 
ATOM     16  C   UNL     1      16.709  41.067  45.917  0.00  0.00    +0.000 C 
ATOM     17  C   UNL     1      17.409  40.293  47.018  0.00  0.00    +0.000 C 
BRANCH  14  18
ATOM     18  C   UNL     1      16.920  41.416  43.463  0.00  0.00    +0.000 C 
ATOM     19  O   UNL     1      16.702  40.923  42.363  0.00  0.00    +0.000 OA
ATOM     20  O   UNL     1      16.680  42.724  43.684  0.00  0.00    +0.000 OA
ENDBRANCH  14  18
ENDBRANCH  10  13
ENDBRANCH   7  10
BRANCH   4  21
ATOM     21  O   UNL     1      20.664  42.842  47.158  0.00  0.00    +0.000 OA
ATOM     22  H   UNL     1      20.303  43.351  46.459  0.00  0.00    +0.000 HD
ENDBRANCH   4  21
TORSDOF 4
ENDMDL
MODEL 6
REMARK VINA RESULT:      -6.6      2.331      3.670
REMARK  Name = 347791
REMARK  4 active torsions:
REMARK  status: ('A' for Active; 'I' for Inactive)
REMARK    1  A    between atoms: C_4  and  O_7
REMARK    2  A    between atoms: C_8  and  S_11
REMARK    3  A    between atoms: S_11  and  N_14
REMARK    4  A    between atoms: C_15  and  C_17
REMARK                            x       y       z     vdW  Elec       q    Type
REMARK                         _______ _______ _______ _____ _____    ______ ____
ROOT
ATOM      1 CL   UNL     1      21.822  42.019  47.953  0.00  0.00    +0.000 Cl
ATOM      2  C   UNL     1      21.057  41.144  46.661  0.00  0.00    +0.000 A 
ATOM      3  C   UNL     1      21.771  40.735  45.522  0.00  0.00    +0.000 A 
ATOM      4  C   UNL     1      19.688  40.861  46.782  0.00  0.00    +0.000 A 
ATOM      5 CL   UNL     1      23.472  41.052  45.385  0.00  0.00    +0.000 Cl
ATOM      6  C   UNL     1      21.088  40.064  44.496  0.00  0.00    +0.000 A 
ATOM      7  C   UNL     1      19.029  40.170  45.767  0.00  0.00    +0.000 A 
ATOM      8 CL   UNL     1      21.869  39.546  43.043  0.00  0.00    +0.000 Cl
ATOM      9  C   UNL     1      19.721  39.793  44.613  0.00  0.00    +0.000 A 
ENDROOT
BRANCH   7  10
ATOM     10  S   UNL     1      17.294  39.824  45.879  0.00  0.00    +0.000 S 
ATOM     11  O   UNL     1      16.981  38.883  44.825  0.00  0.00    +0.000 OA
ATOM     12  O   UNL     1      16.982  39.511  47.259  0.00  0.00    +0.000 OA
BRANCH  10  13
ATOM     13  N   UNL     1      16.538  41.290  45.580  0.00  0.00    +0.000 NA
ATOM     14  C   UNL     1      16.697  42.054  44.314  0.00  0.00    +0.000 C 
ATOM     15  C   UNL     1      16.561  42.274  46.699  0.00  0.00    +0.000 C 
ATOM     16  C   UNL     1      17.571  43.240  44.718  0.00  0.00    +0.000 C 
ATOM     17  C   UNL     1      17.111  43.574  46.124  0.00  0.00    +0.000 C 
BRANCH  14  18
ATOM     18  C   UNL     1      17.169  41.491  42.995  0.00  0.00    +0.000 C 
ATOM     19  O   UNL     1      16.509  40.681  42.356  0.00  0.00    +0.000 OA
ATOM     20  O   UNL     1      18.331  41.964  42.502  0.00  0.00    +0.000 OA
ENDBRANCH  14  18
ENDBRANCH  10  13
ENDBRANCH   7  10
BRANCH   4  21
ATOM     21  O   UNL     1      18.996  41.266  47.893  0.00  0.00    +0.000 OA
ATOM     22  H   UNL     1      18.906  40.687  48.624  0.00  0.00    +0.000 HD
ENDBRANCH   4  21
TORSDOF 4
ENDMDL
MODEL 7
REMARK VINA RESULT:      -6.5      3.578      5.694
REMARK  Name = 347791
REMARK  4 active torsions:
REMARK  status: ('A' for Active; 'I' for Inactive)
REMARK    1  A    between atoms: C_4  and  O_7
REMARK    2  A    between atoms: C_8  and  S_11
REMARK    3  A    between atoms: S_11  and  N_14
REMARK    4  A    between atoms: C_15  and  C_17
REMARK                            x       y       z     vdW  Elec       q    Type
REMARK                         _______ _______ _______ _____ _____    ______ ____
ROOT
ATOM      1 CL   UNL     1      16.715  36.925  45.541  0.00  0.00    +0.000 Cl
ATOM      2  C   UNL     1      17.357  38.539  45.524  0.00  0.00    +0.000 A 
ATOM      3  C   UNL     1      16.699  39.603  46.165  0.00  0.00    +0.000 A 
ATOM      4  C   UNL     1      18.560  38.759  44.836  0.00  0.00    +0.000 A 
ATOM      5 CL   UNL     1      15.230  39.329  47.047  0.00  0.00    +0.000 Cl
ATOM      6  C   UNL     1      17.250  40.890  46.083  0.00  0.00    +0.000 A 
ATOM      7  C   UNL     1      19.109  40.038  44.786  0.00  0.00    +0.000 A 
ATOM      8 CL   UNL     1      16.502  42.269  46.812  0.00  0.00    +0.000 Cl
ATOM      9  C   UNL     1      18.442  41.110  45.387  0.00  0.00    +0.000 A 
ENDROOT
BRANCH   7  10
ATOM     10  S   UNL     1      20.612  40.351  43.899  0.00  0.00    +0.000 S 
ATOM     11  O   UNL     1      20.593  39.510  42.722  0.00  0.00    +0.000 OA
ATOM     12  O   UNL     1      20.773  41.787  43.773  0.00  0.00    +0.000 OA
BRANCH  10  13
ATOM     13  N   UNL     1      21.836  39.862  44.933  0.00  0.00    +0.000 NA
ATOM     14  C   UNL     1      22.349  40.695  46.054  0.00  0.00    +0.000 C 
ATOM     15  C   UNL     1      23.012  39.211  44.288  0.00  0.00    +0.000 C 
ATOM     16  C   UNL     1      23.724  41.145  45.565  0.00  0.00    +0.000 C 
ATOM     17  C   UNL     1      24.247  39.954  44.785  0.00  0.00    +0.000 C 
BRANCH  14  18
ATOM     18  C   UNL     1      21.626  41.853  46.697  0.00  0.00    +0.000 C 
ATOM     19  O   UNL     1      20.903  41.710  47.676  0.00  0.00    +0.000 OA
ATOM     20  O   UNL     1      21.854  43.082  46.192  0.00  0.00    +0.000 OA
ENDBRANCH  14  18
ENDBRANCH  10  13
ENDBRANCH   7  10
BRANCH   4  21
ATOM     21  O   UNL     1      19.194  37.719  44.209  0.00  0.00    +0.000 OA
ATOM     22  H   UNL     1      18.734  36.918  44.049  0.00  0.00    +0.000 HD
ENDBRANCH   4  21
TORSDOF 4
ENDMDL
MODEL 8
REMARK VINA RESULT:      -6.4      3.425      5.476
REMARK  Name = 347791
REMARK  4 active torsions:
REMARK  status: ('A' for Active; 'I' for Inactive)
REMARK    1  A    between atoms: C_4  and  O_7
REMARK    2  A    between atoms: C_8  and  S_11
REMARK    3  A    between atoms: S_11  and  N_14
REMARK    4  A    between atoms: C_15  and  C_17
REMARK                            x       y       z     vdW  Elec       q    Type
REMARK                         _______ _______ _______ _____ _____    ______ ____
ROOT
ATOM      1 CL   UNL     1      17.460  37.109  45.342  0.00  0.00    +0.000 Cl
ATOM      2  C   UNL     1      17.843  38.803  45.399  0.00  0.00    +0.000 A 
ATOM      3  C   UNL     1      17.050  39.716  46.114  0.00  0.00    +0.000 A 
ATOM      4  C   UNL     1      18.976  39.243  44.697  0.00  0.00    +0.000 A 
ATOM      5 CL   UNL     1      15.669  39.171  47.013  0.00  0.00    +0.000 Cl
ATOM      6  C   UNL     1      17.392  41.077  46.091  0.00  0.00    +0.000 A 
ATOM      7  C   UNL     1      19.318  40.593  44.706  0.00  0.00    +0.000 A 
ATOM      8 CL   UNL     1      16.463  42.283  46.913  0.00  0.00    +0.000 Cl
ATOM      9  C   UNL     1      18.514  41.515  45.381  0.00  0.00    +0.000 A 
ENDROOT
BRANCH   7  10
ATOM     10  S   UNL     1      20.727  41.182  43.804  0.00  0.00    +0.000 S 
ATOM     11  O   UNL     1      21.246  40.061  43.050  0.00  0.00    +0.000 OA
ATOM     12  O   UNL     1      20.352  42.409  43.129  0.00  0.00    +0.000 OA
BRANCH  10  13
ATOM     13  N   UNL     1      21.831  41.645  44.976  0.00  0.00    +0.000 NA
ATOM     14  C   UNL     1      22.714  40.689  45.697  0.00  0.00    +0.000 C 
ATOM     15  C   UNL     1      21.344  42.640  45.972  0.00  0.00    +0.000 C 
ATOM     16  C   UNL     1      22.114  40.637  47.101  0.00  0.00    +0.000 C 
ATOM     17  C   UNL     1      21.633  42.054  47.350  0.00  0.00    +0.000 C 
BRANCH  14  18
ATOM     18  C   UNL     1      23.072  39.297  45.237  0.00  0.00    +0.000 C 
ATOM     19  O   UNL     1      22.760  38.874  44.130  0.00  0.00    +0.000 OA
ATOM     20  O   UNL     1      23.816  38.543  46.070  0.00  0.00    +0.000 OA
ENDBRANCH  14  18
ENDBRANCH  10  13
ENDBRANCH   7  10
BRANCH   4  21
ATOM     21  O   UNL     1      19.743  38.348  43.999  0.00  0.00    +0.000 OA
ATOM     22  H   UNL     1      20.491  38.648  43.519  0.00  0.00    +0.000 HD
ENDBRANCH   4  21
TORSDOF 4
ENDMDL
MODEL 9
REMARK VINA RESULT:      -6.2      3.787      6.353
REMARK  Name = 347791
REMARK  4 active torsions:
REMARK  status: ('A' for Active; 'I' for Inactive)
REMARK    1  A    between atoms: C_4  and  O_7
REMARK    2  A    between atoms: C_8  and  S_11
REMARK    3  A    between atoms: S_11  and  N_14
REMARK    4  A    between atoms: C_15  and  C_17
REMARK                            x       y       z     vdW  Elec       q    Type
REMARK                         _______ _______ _______ _____ _____    ______ ____
ROOT
ATOM      1 CL   UNL     1      18.547  42.199  42.516  0.00  0.00    +0.000 Cl
ATOM      2  C   UNL     1      18.765  41.522  44.101  0.00  0.00    +0.000 A 
ATOM      3  C   UNL     1      17.890  40.551  44.617  0.00  0.00    +0.000 A 
ATOM      4  C   UNL     1      19.847  41.983  44.867  0.00  0.00    +0.000 A 
ATOM      5 CL   UNL     1      16.572  39.953  43.659  0.00  0.00    +0.000 Cl
ATOM      6  C   UNL     1      18.098  40.072  45.919  0.00  0.00    +0.000 A 
ATOM      7  C   UNL     1      20.057  41.476  46.148  0.00  0.00    +0.000 A 
ATOM      8 CL   UNL     1      17.060  38.899  46.655  0.00  0.00    +0.000 Cl
ATOM      9  C   UNL     1      19.169  40.540  46.685  0.00  0.00    +0.000 A 
ENDROOT
BRANCH   7  10
ATOM     10  S   UNL     1      21.398  42.061  47.150  0.00  0.00    +0.000 S 
ATOM     11  O   UNL     1      22.190  42.947  46.324  0.00  0.00    +0.000 OA
ATOM     12  O   UNL     1      20.852  42.525  48.411  0.00  0.00    +0.000 OA
BRANCH  10  13
ATOM     13  N   UNL     1      22.283  40.691  47.533  0.00  0.00    +0.000 NA
ATOM     14  C   UNL     1      23.615  40.731  48.194  0.00  0.00    +0.000 C 
ATOM     15  C   UNL     1      22.340  39.638  46.481  0.00  0.00    +0.000 C 
ATOM     16  C   UNL     1      24.582  40.344  47.076  0.00  0.00    +0.000 C 
ATOM     17  C   UNL     1      23.815  39.317  46.264  0.00  0.00    +0.000 C 
BRANCH  14  18
ATOM     18  C   UNL     1      24.177  41.889  48.982  0.00  0.00    +0.000 C 
ATOM     19  O   UNL     1      23.644  42.302  50.005  0.00  0.00    +0.000 OA
ATOM     20  O   UNL     1      25.338  42.423  48.555  0.00  0.00    +0.000 OA
ENDBRANCH  14  18
ENDBRANCH  10  13
ENDBRANCH   7  10
BRANCH   4  21
ATOM     21  O   UNL     1      20.694  42.932  44.361  0.00  0.00    +0.000 OA
ATOM     22  H   UNL     1      20.607  43.827  44.627  0.00  0.00    +0.000 HD
ENDBRANCH   4  21
TORSDOF 4
ENDMDL
