MODEL 1
REMARK VINA RESULT:      -7.8      0.000      0.000
REMARK  Name = 347791
REMARK  4 active torsions:
REMARK  status: ('A' for Active; 'I' for Inactive)
REMARK    1  A    between atoms: C_4  and  O_7
REMARK    2  A    between atoms: C_8  and  S_11
REMARK    3  A    between atoms: S_11  and  N_14
REMARK    4  A    between atoms: C_15  and  C_17
REMARK                            x       y       z     vdW  Elec       q    Type
REMARK                         _______ _______ _______ _____ _____    ______ ____
ROOT
ATOM      1 CL   UNL     1      24.136  38.586  45.891  0.00  0.00    +0.000 Cl
ATOM      2  C   UNL     1      23.240  39.971  46.432  0.00  0.00    +0.000 A 
ATOM      3  C   UNL     1      23.603  40.684  47.586  0.00  0.00    +0.000 A 
ATOM      4  C   UNL     1      22.121  40.361  45.677  0.00  0.00    +0.000 A 
ATOM      5 CL   UNL     1      25.014  40.234  48.492  0.00  0.00    +0.000 Cl
ATOM      6  C   UNL     1      22.813  41.766  47.997  0.00  0.00    +0.000 A 
ATOM      7  C   UNL     1      21.363  41.462  46.077  0.00  0.00    +0.000 A 
ATOM      8 CL   UNL     1      23.158  42.687  49.417  0.00  0.00    +0.000 Cl
ATOM      9  C   UNL     1      21.687  42.143  47.254  0.00  0.00    +0.000 A 
ENDROOT
BRANCH   7  10
ATOM     10  S   UNL     1      19.936  41.962  45.158  0.00  0.00    +0.000 S 
ATOM     11  O   UNL     1      19.396  43.137  45.809  0.00  0.00    +0.000 OA
ATOM     12  O   UNL     1      20.299  42.008  43.750  0.00  0.00    +0.000 OA
BRANCH  10  13
ATOM     13  N   UNL     1      18.860  40.685  45.288  0.00  0.00    +0.000 NA
ATOM     14  C   UNL     1      17.508  40.670  44.672  0.00  0.00    +0.000 C 
ATOM     15  C   UNL     1      18.751  40.044  46.623  0.00  0.00    +0.000 C 
ATOM     16  C   UNL     1      16.571  40.800  45.872  0.00  0.00    +0.000 C 
ATOM     17  C   UNL     1      17.270  40.027  46.976  0.00  0.00    +0.000 C 
BRANCH  14  18
ATOM     18  C   UNL     1      17.032  41.553  43.544  0.00  0.00    +0.000 C 
ATOM     19  O   UNL     1      16.883  41.125  42.405  0.00  0.00    +0.000 OA
ATOM     20  O   UNL     1      16.698  42.821  43.844  0.00  0.00    +0.000 OA
ENDBRANCH  14  18
ENDBRANCH  10  13
ENDBRANCH   7  10
BRANCH   4  21
ATOM     21  O   UNL     1      21.769  39.661  44.556  0.00  0.00    +0.000 OA
ATOM     22  H   UNL     1      20.871  39.437  44.406  0.00  0.00    +0.000 HD
ENDBRANCH   4  21
TORSDOF 4
ENDMDL
MODEL 2
REMARK VINA RESULT:      -7.0      1.965      2.512
REMARK  Name = 347791
REMARK  4 active torsions:
REMARK  status: ('A' for Active; 'I' for Inactive)
REMARK    1  A    between atoms: C_4  and  O_7
REMARK    2  A    between atoms: C_8  and  S_11
REMARK    3  A    between atoms: S_11  and  N_14
REMARK    4  A    between atoms: C_15  and  C_17
REMARK                            x       y       z     vdW  Elec       q    Type
REMARK                         _______ _______ _______ _____ _____    ______ ____
ROOT
ATOM      1 CL   UNL     1      24.913  39.583  45.885  0.00  0.00    +0.000 Cl
ATOM      2  C   UNL     1      23.899  40.596  46.864  0.00  0.00    +0.000 A 
ATOM      3  C   UNL     1      24.417  41.372  47.913  0.00  0.00    +0.000 A 
ATOM      4  C   UNL     1      22.523  40.615  46.577  0.00  0.00    +0.000 A 
ATOM      5 CL   UNL     1      26.122  41.389  48.236  0.00  0.00    +0.000 Cl
ATOM      6  C   UNL     1      23.539  42.135  48.696  0.00  0.00    +0.000 A 
ATOM      7  C   UNL     1      21.665  41.406  47.342  0.00  0.00    +0.000 A 
ATOM      8 CL   UNL     1      24.075  43.098  50.027  0.00  0.00    +0.000 Cl
ATOM      9  C   UNL     1      22.166  42.138  48.422  0.00  0.00    +0.000 A 
ENDROOT
BRANCH   7  10
ATOM     10  S   UNL     1      19.925  41.431  47.019  0.00  0.00    +0.000 S 
ATOM     11  O   UNL     1      19.551  40.102  46.579  0.00  0.00    +0.000 OA
ATOM     12  O   UNL     1      19.263  42.037  48.164  0.00  0.00    +0.000 OA
BRANCH  10  13
ATOM     13  N   UNL     1      19.727  42.529  45.770  0.00  0.00    +0.000 NA
ATOM     14  C   UNL     1      18.418  42.848  45.143  0.00  0.00    +0.000 C 
ATOM     15  C   UNL     1      20.744  42.495  44.689  0.00  0.00    +0.000 C 
ATOM     16  C   UNL     1      18.522  42.205  43.761  0.00  0.00    +0.000 C 
ATOM     17  C   UNL     1      19.980  42.377  43.378  0.00  0.00    +0.000 C 
BRANCH  14  18
ATOM     18  C   UNL     1      17.056  42.583  45.738  0.00  0.00    +0.000 C 
ATOM     19  O   UNL     1      16.438  41.550  45.506  0.00  0.00    +0.000 OA
ATOM     20  O   UNL     1      16.567  43.490  46.603  0.00  0.00    +0.000 OA
ENDBRANCH  14  18
ENDBRANCH  10  13
ENDBRANCH   7  10
BRANCH   4  21
ATOM     21  O   UNL     1      22.022  39.854  45.557  0.00  0.00    +0.000 OA
ATOM     22  H   UNL     1      22.582  39.261  45.097  0.00  0.00    +0.000 HD
ENDBRANCH   4  21
TORSDOF 4
ENDMDL
MODEL 3
REMARK VINA RESULT:      -7.0      3.918      6.384
REMARK  Name = 347791
REMARK  4 active torsions:
REMARK  status: ('A' for Active; 'I' for Inactive)
REMARK    1  A    between atoms: C_4  and  O_7
REMARK    2  A    between atoms: C_8  and  S_11
REMARK    3  A    between atoms: S_11  and  N_14
REMARK    4  A    between atoms: C_15  and  C_17
REMARK                            x       y       z     vdW  Elec       q    Type
REMARK                         _______ _______ _______ _____ _____    ______ ____
ROOT
ATOM      1 CL   UNL     1      16.919  38.961  44.900  0.00  0.00    +0.000 Cl
ATOM      2  C   UNL     1      17.979  40.304  44.604  0.00  0.00    +0.000 A 
ATOM      3  C   UNL     1      17.813  41.150  43.496  0.00  0.00    +0.000 A 
ATOM      4  C   UNL     1      19.029  40.521  45.513  0.00  0.00    +0.000 A 
ATOM      5 CL   UNL     1      16.488  40.914  42.399  0.00  0.00    +0.000 Cl
ATOM      6  C   UNL     1      18.729  42.189  43.287  0.00  0.00    +0.000 A 
ATOM      7  C   UNL     1      19.913  41.580  45.313  0.00  0.00    +0.000 A 
ATOM      8 CL   UNL     1      18.628  43.265  41.938  0.00  0.00    +0.000 Cl
ATOM      9  C   UNL     1      19.785  42.393  44.183  0.00  0.00    +0.000 A 
ENDROOT
BRANCH   7  10
ATOM     10  S   UNL     1      21.257  41.863  46.430  0.00  0.00    +0.000 S 
ATOM     11  O   UNL     1      21.939  43.061  45.985  0.00  0.00    +0.000 OA
ATOM     12  O   UNL     1      20.741  41.775  47.787  0.00  0.00    +0.000 OA
BRANCH  10  13
ATOM     13  N   UNL     1      22.258  40.531  46.258  0.00  0.00    +0.000 NA
ATOM     14  C   UNL     1      23.620  40.434  46.841  0.00  0.00    +0.000 C 
ATOM     15  C   UNL     1      22.301  39.904  44.913  0.00  0.00    +0.000 C 
ATOM     16  C   UNL     1      24.536  40.530  45.622  0.00  0.00    +0.000 C 
ATOM     17  C   UNL     1      23.771  39.812  44.525  0.00  0.00    +0.000 C 
BRANCH  14  18
ATOM     18  C   UNL     1      24.169  41.274  47.970  0.00  0.00    +0.000 C 
ATOM     19  O   UNL     1      23.777  41.144  49.124  0.00  0.00    +0.000 OA
ATOM     20  O   UNL     1      25.169  42.127  47.681  0.00  0.00    +0.000 OA
ENDBRANCH  14  18
ENDBRANCH  10  13
ENDBRANCH   7  10
BRANCH   4  21
ATOM     21  O   UNL     1      19.190  39.691  46.589  0.00  0.00    +0.000 OA
ATOM     22  H   UNL     1      18.509  39.091  46.824  0.00  0.00    +0.000 HD
ENDBRANCH   4  21
TORSDOF 4
ENDMDL
MODEL 4
REMARK VINA RESULT:      -6.7      0.708      2.254
REMARK  Name = 347791
REMARK  4 active torsions:
REMARK  status: ('A' for Active; 'I' for Inactive)
REMARK    1  A    between atoms: C_4  and  O_7
REMARK    2  A    between atoms: C_8  and  S_11
REMARK    3  A    between atoms: S_11  and  N_14
REMARK    4  A    between atoms: C_15  and  C_17
REMARK                            x       y       z     vdW  Elec       q    Type
REMARK                         _______ _______ _______ _____ _____    ______ ____
ROOT
ATOM      1 CL   UNL     1      22.751  42.534  49.164  0.00  0.00    +0.000 Cl
ATOM      2  C   UNL     1      22.598  41.536  47.752  0.00  0.00    +0.000 A 
ATOM      3  C   UNL     1      23.493  40.489  47.484  0.00  0.00    +0.000 A 
ATOM      4  C   UNL     1      21.541  41.813  46.867  0.00  0.00    +0.000 A 
ATOM      5 CL   UNL     1      24.768  40.113  48.600  0.00  0.00    +0.000 Cl
ATOM      6  C   UNL     1      23.343  39.748  46.303  0.00  0.00    +0.000 A 
ATOM      7  C   UNL     1      21.382  41.046  45.713  0.00  0.00    +0.000 A 
ATOM      8 CL   UNL     1      24.410  38.460  45.869  0.00  0.00    +0.000 Cl
ATOM      9  C   UNL     1      22.302  40.036  45.413  0.00  0.00    +0.000 A 
ENDROOT
BRANCH   7  10
ATOM     10  S   UNL     1      20.075  41.387  44.570  0.00  0.00    +0.000 S 
ATOM     11  O   UNL     1      19.712  42.779  44.735  0.00  0.00    +0.000 OA
ATOM     12  O   UNL     1      20.476  40.886  43.264  0.00  0.00    +0.000 OA
BRANCH  10  13
ATOM     13  N   UNL     1      18.808  40.400  45.045  0.00  0.00    +0.000 NA
ATOM     14  C   UNL     1      17.394  40.609  44.640  0.00  0.00    +0.000 C 
ATOM     15  C   UNL     1      18.807  39.959  46.462  0.00  0.00    +0.000 C 
ATOM     16  C   UNL     1      16.723  41.080  45.929  0.00  0.00    +0.000 C 
ATOM     17  C   UNL     1      17.436  40.308  47.024  0.00  0.00    +0.000 C 
BRANCH  14  18
ATOM     18  C   UNL     1      16.914  41.437  43.472  0.00  0.00    +0.000 C 
ATOM     19  O   UNL     1      16.666  40.935  42.381  0.00  0.00    +0.000 OA
ATOM     20  O   UNL     1      16.689  42.745  43.687  0.00  0.00    +0.000 OA
ENDBRANCH  14  18
ENDBRANCH  10  13
ENDBRANCH   7  10
BRANCH   4  21
ATOM     21  O   UNL     1      20.674  42.838  47.130  0.00  0.00    +0.000 OA
ATOM     22  H   UNL     1      19.751  42.678  47.148  0.00  0.00    +0.000 HD
ENDBRANCH   4  21
TORSDOF 4
ENDMDL
MODEL 5
REMARK VINA RESULT:      -6.7      1.936      3.430
REMARK  Name = 347791
REMARK  4 active torsions:
REMARK  status: ('A' for Active; 'I' for Inactive)
REMARK    1  A    between atoms: C_4  and  O_7
REMARK    2  A    between atoms: C_8  and  S_11
REMARK    3  A    between atoms: S_11  and  N_14
REMARK    4  A    between atoms: C_15  and  C_17
REMARK                            x       y       z     vdW  Elec       q    Type
REMARK                         _______ _______ _______ _____ _____    ______ ____
ROOT
ATOM      1 CL   UNL     1      23.052  42.851  49.580  0.00  0.00    +0.000 Cl
ATOM      2  C   UNL     1      23.017  41.882  48.140  0.00  0.00    +0.000 A 
ATOM      3  C   UNL     1      24.184  41.329  47.591  0.00  0.00    +0.000 A 
ATOM      4  C   UNL     1      21.771  41.669  47.526  0.00  0.00    +0.000 A 
ATOM      5 CL   UNL     1      25.717  41.549  48.376  0.00  0.00    +0.000 Cl
ATOM      6  C   UNL     1      24.097  40.593  46.401  0.00  0.00    +0.000 A 
ATOM      7  C   UNL     1      21.693  40.906  46.361  0.00  0.00    +0.000 A 
ATOM      8 CL   UNL     1      25.479  39.898  45.631  0.00  0.00    +0.000 Cl
ATOM      9  C   UNL     1      22.859  40.397  45.779  0.00  0.00    +0.000 A 
ENDROOT
BRANCH   7  10
ATOM     10  S   UNL     1      20.141  40.640  45.553  0.00  0.00    +0.000 S 
ATOM     11  O   UNL     1      20.358  39.646  44.522  0.00  0.00    +0.000 OA
ATOM     12  O   UNL     1      19.131  40.423  46.578  0.00  0.00    +0.000 OA
BRANCH  10  13
ATOM     13  N   UNL     1      19.749  42.114  44.861  0.00  0.00    +0.000 NA
ATOM     14  C   UNL     1      18.536  42.899  45.207  0.00  0.00    +0.000 C 
ATOM     15  C   UNL     1      19.956  42.234  43.396  0.00  0.00    +0.000 C 
ATOM     16  C   UNL     1      17.657  42.759  43.966  0.00  0.00    +0.000 C 
ATOM     17  C   UNL     1      18.643  42.737  42.812  0.00  0.00    +0.000 C 
BRANCH  14  18
ATOM     18  C   UNL     1      17.700  42.745  46.456  0.00  0.00    +0.000 C 
ATOM     19  O   UNL     1      18.033  43.247  47.524  0.00  0.00    +0.000 OA
ATOM     20  O   UNL     1      16.527  42.098  46.343  0.00  0.00    +0.000 OA
ENDBRANCH  14  18
ENDBRANCH  10  13
ENDBRANCH   7  10
BRANCH   4  21
ATOM     21  O   UNL     1      20.637  42.214  48.062  0.00  0.00    +0.000 OA
ATOM     22  H   UNL     1      20.154  41.744  48.714  0.00  0.00    +0.000 HD
ENDBRANCH   4  21
TORSDOF 4
ENDMDL
MODEL 6
REMARK VINA RESULT:      -6.7      2.312      3.655
REMARK  Name = 347791
REMARK  4 active torsions:
REMARK  status: ('A' for Active; 'I' for Inactive)
REMARK    1  A    between atoms: C_4  and  O_7
REMARK    2  A    between atoms: C_8  and  S_11
REMARK    3  A    between atoms: S_11  and  N_14
REMARK    4  A    between atoms: C_15  and  C_17
REMARK                            x       y       z     vdW  Elec       q    Type
REMARK                         _______ _______ _______ _____ _____    ______ ____
ROOT
ATOM      1 CL   UNL     1      21.880  42.106  47.968  0.00  0.00    +0.000 Cl
ATOM      2  C   UNL     1      21.110  41.206  46.700  0.00  0.00    +0.000 A 
ATOM      3  C   UNL     1      21.814  40.773  45.565  0.00  0.00    +0.000 A 
ATOM      4  C   UNL     1      19.740  40.924  46.837  0.00  0.00    +0.000 A 
ATOM      5 CL   UNL     1      23.517  41.077  45.417  0.00  0.00    +0.000 Cl
ATOM      6  C   UNL     1      21.126  40.089  44.554  0.00  0.00    +0.000 A 
ATOM      7  C   UNL     1      19.074  40.212  45.840  0.00  0.00    +0.000 A 
ATOM      8 CL   UNL     1      21.896  39.541  43.108  0.00  0.00    +0.000 Cl
ATOM      9  C   UNL     1      19.757  39.824  44.683  0.00  0.00    +0.000 A 
ENDROOT
BRANCH   7  10
ATOM     10  S   UNL     1      17.344  39.862  45.976  0.00  0.00    +0.000 S 
ATOM     11  O   UNL     1      17.028  38.867  44.973  0.00  0.00    +0.000 OA
ATOM     12  O   UNL     1      17.045  39.610  47.377  0.00  0.00    +0.000 OA
BRANCH  10  13
ATOM     13  N   UNL     1      16.575  41.307  45.620  0.00  0.00    +0.000 NA
ATOM     14  C   UNL     1      16.674  42.000  44.310  0.00  0.00    +0.000 C 
ATOM     15  C   UNL     1      16.595  42.346  46.680  0.00  0.00    +0.000 C 
ATOM     16  C   UNL     1      17.532  43.225  44.622  0.00  0.00    +0.000 C 
ATOM     17  C   UNL     1      17.124  43.617  46.030  0.00  0.00    +0.000 C 
BRANCH  14  18
ATOM     18  C   UNL     1      17.108  41.380  43.003  0.00  0.00    +0.000 C 
ATOM     19  O   UNL     1      16.427  40.539  42.427  0.00  0.00    +0.000 OA
ATOM     20  O   UNL     1      18.241  41.840  42.443  0.00  0.00    +0.000 OA
ENDBRANCH  14  18
ENDBRANCH  10  13
ENDBRANCH   7  10
BRANCH   4  21
ATOM     21  O   UNL     1      19.057  41.352  47.942  0.00  0.00    +0.000 OA
ATOM     22  H   UNL     1      19.516  41.512  48.744  0.00  0.00    +0.000 HD
ENDBRANCH   4  21
TORSDOF 4
ENDMDL
MODEL 7
REMARK VINA RESULT:      -6.6      3.593      5.709
REMARK  Name = 347791
REMARK  4 active torsions:
REMARK  status: ('A' for Active; 'I' for Inactive)
REMARK    1  A    between atoms: C_4  and  O_7
REMARK    2  A    between atoms: C_8  and  S_11
REMARK    3  A    between atoms: S_11  and  N_14
REMARK    4  A    between atoms: C_15  and  C_17
REMARK                            x       y       z     vdW  Elec       q    Type
REMARK                         _______ _______ _______ _____ _____    ______ ____
ROOT
ATOM      1 CL   UNL     1      16.744  36.913  45.553  0.00  0.00    +0.000 Cl
ATOM      2  C   UNL     1      17.372  38.531  45.519  0.00  0.00    +0.000 A 
ATOM      3  C   UNL     1      16.709  39.597  46.148  0.00  0.00    +0.000 A 
ATOM      4  C   UNL     1      18.576  38.751  44.829  0.00  0.00    +0.000 A 
ATOM      5 CL   UNL     1      15.247  39.319  47.044  0.00  0.00    +0.000 Cl
ATOM      6  C   UNL     1      17.242  40.889  46.047  0.00  0.00    +0.000 A 
ATOM      7  C   UNL     1      19.115  40.036  44.764  0.00  0.00    +0.000 A 
ATOM      8 CL   UNL     1      16.486  42.269  46.760  0.00  0.00    +0.000 Cl
ATOM      9  C   UNL     1      18.432  41.111  45.343  0.00  0.00    +0.000 A 
ENDROOT
BRANCH   7  10
ATOM     10  S   UNL     1      20.618  40.346  43.883  0.00  0.00    +0.000 S 
ATOM     11  O   UNL     1      20.595  39.522  42.692  0.00  0.00    +0.000 OA
ATOM     12  O   UNL     1      20.787  41.787  43.773  0.00  0.00    +0.000 OA
BRANCH  10  13
ATOM     13  N   UNL     1      21.841  39.842  44.910  0.00  0.00    +0.000 NA
ATOM     14  C   UNL     1      22.355  40.646  46.048  0.00  0.00    +0.000 C 
ATOM     15  C   UNL     1      23.003  39.169  44.277  0.00  0.00    +0.000 C 
ATOM     16  C   UNL     1      23.743  41.077  45.579  0.00  0.00    +0.000 C 
ATOM     17  C   UNL     1      24.247  39.896  44.769  0.00  0.00    +0.000 C 
BRANCH  14  18
ATOM     18  C   UNL     1      21.649  41.804  46.713  0.00  0.00    +0.000 C 
ATOM     19  O   UNL     1      20.839  41.634  47.618  0.00  0.00    +0.000 OA
ATOM     20  O   UNL     1      21.996  43.046  46.333  0.00  0.00    +0.000 OA
ENDBRANCH  14  18
ENDBRANCH  10  13
ENDBRANCH   7  10
BRANCH   4  21
ATOM     21  O   UNL     1      19.216  37.711  44.213  0.00  0.00    +0.000 OA
ATOM     22  H   UNL     1      19.496  37.794  43.323  0.00  0.00    +0.000 HD
ENDBRANCH   4  21
TORSDOF 4
ENDMDL
MODEL 8
REMARK VINA RESULT:      -6.5      3.431      5.491
REMARK  Name = 347791
REMARK  4 active torsions:
REMARK  status: ('A' for Active; 'I' for Inactive)
REMARK    1  A    between atoms: C_4  and  O_7
REMARK    2  A    between atoms: C_8  and  S_11
REMARK    3  A    between atoms: S_11  and  N_14
REMARK    4  A    between atoms: C_15  and  C_17
REMARK                            x       y       z     vdW  Elec       q    Type
REMARK                         _______ _______ _______ _____ _____    ______ ____
ROOT
ATOM      1 CL   UNL     1      17.460  37.108  45.337  0.00  0.00    +0.000 Cl
ATOM      2  C   UNL     1      17.840  38.800  45.399  0.00  0.00    +0.000 A 
ATOM      3  C   UNL     1      17.049  39.712  46.117  0.00  0.00    +0.000 A 
ATOM      4  C   UNL     1      18.974  39.242  44.696  0.00  0.00    +0.000 A 
ATOM      5 CL   UNL     1      15.677  39.162  47.027  0.00  0.00    +0.000 Cl
ATOM      6  C   UNL     1      17.382  41.073  46.091  0.00  0.00    +0.000 A 
ATOM      7  C   UNL     1      19.315  40.594  44.707  0.00  0.00    +0.000 A 
ATOM      8 CL   UNL     1      16.456  42.276  46.916  0.00  0.00    +0.000 Cl
ATOM      9  C   UNL     1      18.501  41.515  45.375  0.00  0.00    +0.000 A 
ENDROOT
BRANCH   7  10
ATOM     10  S   UNL     1      20.724  41.181  43.811  0.00  0.00    +0.000 S 
ATOM     11  O   UNL     1      21.240  40.067  43.044  0.00  0.00    +0.000 OA
ATOM     12  O   UNL     1      20.350  42.419  43.144  0.00  0.00    +0.000 OA
BRANCH  10  13
ATOM     13  N   UNL     1      21.831  41.636  44.984  0.00  0.00    +0.000 NA
ATOM     14  C   UNL     1      22.724  40.688  45.696  0.00  0.00    +0.000 C 
ATOM     15  C   UNL     1      21.373  42.648  45.970  0.00  0.00    +0.000 C 
ATOM     16  C   UNL     1      22.144  40.650  47.110  0.00  0.00    +0.000 C 
ATOM     17  C   UNL     1      21.652  42.065  47.348  0.00  0.00    +0.000 C 
BRANCH  14  18
ATOM     18  C   UNL     1      23.085  39.292  45.246  0.00  0.00    +0.000 C 
ATOM     19  O   UNL     1      22.765  38.865  44.142  0.00  0.00    +0.000 OA
ATOM     20  O   UNL     1      23.845  38.549  46.070  0.00  0.00    +0.000 OA
ENDBRANCH  14  18
ENDBRANCH  10  13
ENDBRANCH   7  10
BRANCH   4  21
ATOM     21  O   UNL     1      19.738  38.350  43.994  0.00  0.00    +0.000 OA
ATOM     22  H   UNL     1      19.872  37.484  44.327  0.00  0.00    +0.000 HD
ENDBRANCH   4  21
TORSDOF 4
ENDMDL
MODEL 9
REMARK VINA RESULT:      -6.3      1.912      3.429
REMARK  Name = 347791
REMARK  4 active torsions:
REMARK  status: ('A' for Active; 'I' for Inactive)
REMARK    1  A    between atoms: C_4  and  O_7
REMARK    2  A    between atoms: C_8  and  S_11
REMARK    3  A    between atoms: S_11  and  N_14
REMARK    4  A    between atoms: C_15  and  C_17
REMARK                            x       y       z     vdW  Elec       q    Type
REMARK                         _______ _______ _______ _____ _____    ______ ____
ROOT
ATOM      1 CL   UNL     1      21.848  42.361  48.088  0.00  0.00    +0.000 Cl
ATOM      2  C   UNL     1      21.401  41.700  46.546  0.00  0.00    +0.000 A 
ATOM      3  C   UNL     1      22.165  40.706  45.916  0.00  0.00    +0.000 A 
ATOM      4  C   UNL     1      20.238  42.199  45.934  0.00  0.00    +0.000 A 
ATOM      5 CL   UNL     1      23.574  40.053  46.693  0.00  0.00    +0.000 Cl
ATOM      6  C   UNL     1      21.777  40.245  44.650  0.00  0.00    +0.000 A 
ATOM      7  C   UNL     1      19.843  41.707  44.690  0.00  0.00    +0.000 A 
ATOM      8 CL   UNL     1      22.667  39.047  43.780  0.00  0.00    +0.000 Cl
ATOM      9  C   UNL     1      20.629  40.756  44.032  0.00  0.00    +0.000 A 
ENDROOT
BRANCH   7  10
ATOM     10  S   UNL     1      18.396  42.333  43.885  0.00  0.00    +0.000 S 
ATOM     11  O   UNL     1      17.992  43.528  44.597  0.00  0.00    +0.000 OA
ATOM     12  O   UNL     1      18.663  42.388  42.456  0.00  0.00    +0.000 OA
BRANCH  10  13
ATOM     13  N   UNL     1      17.240  41.135  44.067  0.00  0.00    +0.000 NA
ATOM     14  C   UNL     1      16.812  40.585  45.378  0.00  0.00    +0.000 C 
ATOM     15  C   UNL     1      17.299  40.006  43.105  0.00  0.00    +0.000 C 
ATOM     16  C   UNL     1      17.407  39.178  45.383  0.00  0.00    +0.000 C 
ATOM     17  C   UNL     1      17.316  38.730  43.936  0.00  0.00    +0.000 C 
BRANCH  14  18
ATOM     18  C   UNL     1      17.008  41.236  46.726  0.00  0.00    +0.000 C 
ATOM     19  O   UNL     1      16.437  42.278  47.032  0.00  0.00    +0.000 OA
ATOM     20  O   UNL     1      17.777  40.592  47.623  0.00  0.00    +0.000 OA
ENDBRANCH  14  18
ENDBRANCH  10  13
ENDBRANCH   7  10
BRANCH   4  21
ATOM     21  O   UNL     1      19.499  43.171  46.550  0.00  0.00    +0.000 OA
ATOM     22  H   UNL     1      19.760  44.069  46.487  0.00  0.00    +0.000 HD
ENDBRANCH   4  21
TORSDOF 4
ENDMDL
