MODEL 1
REMARK VINA RESULT:      -7.8      0.000      0.000
REMARK  Name = 347791
REMARK  4 active torsions:
REMARK  status: ('A' for Active; 'I' for Inactive)
REMARK    1  A    between atoms: C_4  and  O_7
REMARK    2  A    between atoms: C_8  and  S_11
REMARK    3  A    between atoms: S_11  and  N_14
REMARK    4  A    between atoms: C_15  and  C_17
REMARK                            x       y       z     vdW  Elec       q    Type
REMARK                         _______ _______ _______ _____ _____    ______ ____
ROOT
ATOM      1 CL   UNL     1      24.118  38.545  45.918  0.00  0.00    +0.000 Cl
ATOM      2  C   UNL     1      23.231  39.947  46.436  0.00  0.00    +0.000 A 
ATOM      3  C   UNL     1      23.587  40.663  47.587  0.00  0.00    +0.000 A 
ATOM      4  C   UNL     1      22.124  40.342  45.664  0.00  0.00    +0.000 A 
ATOM      5 CL   UNL     1      24.972  40.199  48.524  0.00  0.00    +0.000 Cl
ATOM      6  C   UNL     1      22.809  41.767  47.970  0.00  0.00    +0.000 A 
ATOM      7  C   UNL     1      21.373  41.452  46.043  0.00  0.00    +0.000 A 
ATOM      8 CL   UNL     1      23.148  42.697  49.389  0.00  0.00    +0.000 Cl
ATOM      9  C   UNL     1      21.700  42.152  47.209  0.00  0.00    +0.000 A 
ENDROOT
BRANCH   7  10
ATOM     10  S   UNL     1      19.953  41.948  45.116  0.00  0.00    +0.000 S 
ATOM     11  O   UNL     1      19.423  43.129  45.755  0.00  0.00    +0.000 OA
ATOM     12  O   UNL     1      20.308  41.971  43.709  0.00  0.00    +0.000 OA
BRANCH  10  13
ATOM     13  N   UNL     1      18.865  40.676  45.270  0.00  0.00    +0.000 NA
ATOM     14  C   UNL     1      17.510  40.684  44.664  0.00  0.00    +0.000 C 
ATOM     15  C   UNL     1      18.749  40.075  46.624  0.00  0.00    +0.000 C 
ATOM     16  C   UNL     1      16.583  40.856  45.866  0.00  0.00    +0.000 C 
ATOM     17  C   UNL     1      17.264  40.070  46.970  0.00  0.00    +0.000 C 
BRANCH  14  18
ATOM     18  C   UNL     1      17.052  41.572  43.531  0.00  0.00    +0.000 C 
ATOM     19  O   UNL     1      16.934  41.159  42.384  0.00  0.00    +0.000 OA
ATOM     20  O   UNL     1      16.703  42.836  43.835  0.00  0.00    +0.000 OA
ENDBRANCH  14  18
ENDBRANCH  10  13
ENDBRANCH   7  10
BRANCH   4  21
ATOM     21  O   UNL     1      21.777  39.631  44.546  0.00  0.00    +0.000 OA
ATOM     22  H   UNL     1      20.905  39.302  44.452  0.00  0.00    +0.000 HD
ENDBRANCH   4  21
TORSDOF 4
ENDMDL
MODEL 2
REMARK VINA RESULT:      -7.1      2.319      2.990
REMARK  Name = 347791
REMARK  4 active torsions:
REMARK  status: ('A' for Active; 'I' for Inactive)
REMARK    1  A    between atoms: C_4  and  O_7
REMARK    2  A    between atoms: C_8  and  S_11
REMARK    3  A    between atoms: S_11  and  N_14
REMARK    4  A    between atoms: C_15  and  C_17
REMARK                            x       y       z     vdW  Elec       q    Type
REMARK                         _______ _______ _______ _____ _____    ______ ____
ROOT
ATOM      1 CL   UNL     1      21.981  39.505  43.103  0.00  0.00    +0.000 Cl
ATOM      2  C   UNL     1      21.163  40.027  44.545  0.00  0.00    +0.000 A 
ATOM      3  C   UNL     1      21.839  40.693  45.578  0.00  0.00    +0.000 A 
ATOM      4  C   UNL     1      19.789  39.750  44.654  0.00  0.00    +0.000 A 
ATOM      5 CL   UNL     1      23.528  41.066  45.434  0.00  0.00    +0.000 Cl
ATOM      6  C   UNL     1      21.127  41.059  46.731  0.00  0.00    +0.000 A 
ATOM      7  C   UNL     1      19.091  40.138  45.794  0.00  0.00    +0.000 A 
ATOM      8 CL   UNL     1      21.875  41.855  48.072  0.00  0.00    +0.000 Cl
ATOM      9  C   UNL     1      19.763  40.772  46.845  0.00  0.00    +0.000 A 
ENDROOT
BRANCH   7  10
ATOM     10  S   UNL     1      17.372  39.768  45.978  0.00  0.00    +0.000 S 
ATOM     11  O   UNL     1      17.037  38.802  44.959  0.00  0.00    +0.000 OA
ATOM     12  O   UNL     1      17.111  39.482  47.376  0.00  0.00    +0.000 OA
BRANCH  10  13
ATOM     13  N   UNL     1      16.579  41.219  45.675  0.00  0.00    +0.000 NA
ATOM     14  C   UNL     1      16.680  41.950  44.387  0.00  0.00    +0.000 C 
ATOM     15  C   UNL     1      16.619  42.226  46.767  0.00  0.00    +0.000 C 
ATOM     16  C   UNL     1      17.541  43.164  44.732  0.00  0.00    +0.000 C 
ATOM     17  C   UNL     1      17.120  43.523  46.144  0.00  0.00    +0.000 C 
BRANCH  14  18
ATOM     18  C   UNL     1      17.124  41.364  43.068  0.00  0.00    +0.000 C 
ATOM     19  O   UNL     1      16.467  40.516  42.476  0.00  0.00    +0.000 OA
ATOM     20  O   UNL     1      18.247  41.857  42.516  0.00  0.00    +0.000 OA
ENDBRANCH  14  18
ENDBRANCH  10  13
ENDBRANCH   7  10
BRANCH   4  21
ATOM     21  O   UNL     1      19.139  39.092  43.644  0.00  0.00    +0.000 OA
ATOM     22  H   UNL     1      18.259  38.794  43.770  0.00  0.00    +0.000 HD
ENDBRANCH   4  21
TORSDOF 4
ENDMDL
MODEL 3
REMARK VINA RESULT:      -7.0      3.916      6.366
REMARK  Name = 347791
REMARK  4 active torsions:
REMARK  status: ('A' for Active; 'I' for Inactive)
REMARK    1  A    between atoms: C_4  and  O_7
REMARK    2  A    between atoms: C_8  and  S_11
REMARK    3  A    between atoms: S_11  and  N_14
REMARK    4  A    between atoms: C_15  and  C_17
REMARK                            x       y       z     vdW  Elec       q    Type
REMARK                         _______ _______ _______ _____ _____    ______ ____
ROOT
ATOM      1 CL   UNL     1      16.889  39.001  44.909  0.00  0.00    +0.000 Cl
ATOM      2  C   UNL     1      17.960  40.339  44.623  0.00  0.00    +0.000 A 
ATOM      3  C   UNL     1      17.806  41.186  43.515  0.00  0.00    +0.000 A 
ATOM      4  C   UNL     1      19.008  40.546  45.538  0.00  0.00    +0.000 A 
ATOM      5 CL   UNL     1      16.495  40.954  42.402  0.00  0.00    +0.000 Cl
ATOM      6  C   UNL     1      18.724  42.229  43.323  0.00  0.00    +0.000 A 
ATOM      7  C   UNL     1      19.900  41.598  45.346  0.00  0.00    +0.000 A 
ATOM      8 CL   UNL     1      18.637  43.308  41.974  0.00  0.00    +0.000 Cl
ATOM      9  C   UNL     1      19.774  42.427  44.226  0.00  0.00    +0.000 A 
ENDROOT
BRANCH   7  10
ATOM     10  S   UNL     1      21.249  41.859  46.457  0.00  0.00    +0.000 S 
ATOM     11  O   UNL     1      21.954  43.032  45.997  0.00  0.00    +0.000 OA
ATOM     12  O   UNL     1      20.744  41.791  47.816  0.00  0.00    +0.000 OA
BRANCH  10  13
ATOM     13  N   UNL     1      22.224  40.500  46.286  0.00  0.00    +0.000 NA
ATOM     14  C   UNL     1      23.594  40.403  46.848  0.00  0.00    +0.000 C 
ATOM     15  C   UNL     1      22.246  39.877  44.937  0.00  0.00    +0.000 C 
ATOM     16  C   UNL     1      24.492  40.486  45.615  0.00  0.00    +0.000 C 
ATOM     17  C   UNL     1      23.713  39.747  44.544  0.00  0.00    +0.000 C 
BRANCH  14  18
ATOM     18  C   UNL     1      24.160  41.263  47.954  0.00  0.00    +0.000 C 
ATOM     19  O   UNL     1      23.769  41.178  49.112  0.00  0.00    +0.000 OA
ATOM     20  O   UNL     1      25.173  42.090  47.640  0.00  0.00    +0.000 OA
ENDBRANCH  14  18
ENDBRANCH  10  13
ENDBRANCH   7  10
BRANCH   4  21
ATOM     21  O   UNL     1      19.157  39.709  46.611  0.00  0.00    +0.000 OA
ATOM     22  H   UNL     1      19.184  40.061  47.479  0.00  0.00    +0.000 HD
ENDBRANCH   4  21
TORSDOF 4
ENDMDL
MODEL 4
REMARK VINA RESULT:      -7.0      1.913      2.469
REMARK  Name = 347791
REMARK  4 active torsions:
REMARK  status: ('A' for Active; 'I' for Inactive)
REMARK    1  A    between atoms: C_4  and  O_7
REMARK    2  A    between atoms: C_8  and  S_11
REMARK    3  A    between atoms: S_11  and  N_14
REMARK    4  A    between atoms: C_15  and  C_17
REMARK                            x       y       z     vdW  Elec       q    Type
REMARK                         _______ _______ _______ _____ _____    ______ ____
ROOT
ATOM      1 CL   UNL     1      25.023  39.509  45.787  0.00  0.00    +0.000 Cl
ATOM      2  C   UNL     1      23.889  40.457  46.701  0.00  0.00    +0.000 A 
ATOM      3  C   UNL     1      24.291  41.239  47.794  0.00  0.00    +0.000 A 
ATOM      4  C   UNL     1      22.537  40.410  46.317  0.00  0.00    +0.000 A 
ATOM      5 CL   UNL     1      25.963  41.327  48.251  0.00  0.00    +0.000 Cl
ATOM      6  C   UNL     1      23.321  41.957  48.511  0.00  0.00    +0.000 A 
ATOM      7  C   UNL     1      21.588  41.143  47.024  0.00  0.00    +0.000 A 
ATOM      8 CL   UNL     1      23.710  42.925  49.890  0.00  0.00    +0.000 Cl
ATOM      9  C   UNL     1      21.974  41.899  48.136  0.00  0.00    +0.000 A 
ENDROOT
BRANCH   7  10
ATOM     10  S   UNL     1      19.876  41.072  46.590  0.00  0.00    +0.000 S 
ATOM     11  O   UNL     1      19.671  39.830  45.884  0.00  0.00    +0.000 OA
ATOM     12  O   UNL     1      19.091  41.385  47.770  0.00  0.00    +0.000 OA
BRANCH  10  13
ATOM     13  N   UNL     1      19.636  42.370  45.550  0.00  0.00    +0.000 NA
ATOM     14  C   UNL     1      18.292  42.846  45.137  0.00  0.00    +0.000 C 
ATOM     15  C   UNL     1      20.518  42.422  44.355  0.00  0.00    +0.000 C 
ATOM     16  C   UNL     1      18.190  42.408  43.677  0.00  0.00    +0.000 C 
ATOM     17  C   UNL     1      19.601  42.573  43.146  0.00  0.00    +0.000 C 
BRANCH  14  18
ATOM     18  C   UNL     1      16.993  42.559  45.851  0.00  0.00    +0.000 C 
ATOM     19  O   UNL     1      16.388  41.504  45.706  0.00  0.00    +0.000 OA
ATOM     20  O   UNL     1      16.545  43.482  46.721  0.00  0.00    +0.000 OA
ENDBRANCH  14  18
ENDBRANCH  10  13
ENDBRANCH   7  10
BRANCH   4  21
ATOM     21  O   UNL     1      22.151  39.637  45.255  0.00  0.00    +0.000 OA
ATOM     22  H   UNL     1      21.408  39.883  44.741  0.00  0.00    +0.000 HD
ENDBRANCH   4  21
TORSDOF 4
ENDMDL
MODEL 5
REMARK VINA RESULT:      -6.7      1.423      1.787
REMARK  Name = 347791
REMARK  4 active torsions:
REMARK  status: ('A' for Active; 'I' for Inactive)
REMARK    1  A    between atoms: C_4  and  O_7
REMARK    2  A    between atoms: C_8  and  S_11
REMARK    3  A    between atoms: S_11  and  N_14
REMARK    4  A    between atoms: C_15  and  C_17
REMARK                            x       y       z     vdW  Elec       q    Type
REMARK                         _______ _______ _______ _____ _____    ______ ____
ROOT
ATOM      1 CL   UNL     1      24.655  38.432  45.844  0.00  0.00    +0.000 Cl
ATOM      2  C   UNL     1      23.481  39.670  46.172  0.00  0.00    +0.000 A 
ATOM      3  C   UNL     1      23.598  40.526  47.278  0.00  0.00    +0.000 A 
ATOM      4  C   UNL     1      22.389  39.786  45.294  0.00  0.00    +0.000 A 
ATOM      5 CL   UNL     1      24.961  40.408  48.346  0.00  0.00    +0.000 Cl
ATOM      6  C   UNL     1      22.599  41.484  47.506  0.00  0.00    +0.000 A 
ATOM      7  C   UNL     1      21.416  40.755  45.520  0.00  0.00    +0.000 A 
ATOM      8 CL   UNL     1      22.636  42.564  48.856  0.00  0.00    +0.000 Cl
ATOM      9  C   UNL     1      21.506  41.591  46.639  0.00  0.00    +0.000 A 
ENDROOT
BRANCH   7  10
ATOM     10  S   UNL     1      20.011  40.899  44.457  0.00  0.00    +0.000 S 
ATOM     11  O   UNL     1      20.299  41.956  43.517  0.00  0.00    +0.000 OA
ATOM     12  O   UNL     1      19.656  39.573  43.985  0.00  0.00    +0.000 OA
BRANCH  10  13
ATOM     13  N   UNL     1      18.746  41.356  45.464  0.00  0.00    +0.000 NA
ATOM     14  C   UNL     1      17.331  40.980  45.219  0.00  0.00    +0.000 C 
ATOM     15  C   UNL     1      18.761  42.765  45.935  0.00  0.00    +0.000 C 
ATOM     16  C   UNL     1      16.684  42.292  44.778  0.00  0.00    +0.000 C 
ATOM     17  C   UNL     1      17.389  43.345  45.610  0.00  0.00    +0.000 C 
BRANCH  14  18
ATOM     18  C   UNL     1      16.856  39.851  44.335  0.00  0.00    +0.000 C 
ATOM     19  O   UNL     1      16.648  38.724  44.769  0.00  0.00    +0.000 OA
ATOM     20  O   UNL     1      16.596  40.138  43.046  0.00  0.00    +0.000 OA
ENDBRANCH  14  18
ENDBRANCH  10  13
ENDBRANCH   7  10
BRANCH   4  21
ATOM     21  O   UNL     1      22.277  38.941  44.222  0.00  0.00    +0.000 OA
ATOM     22  H   UNL     1      21.844  39.228  43.443  0.00  0.00    +0.000 HD
ENDBRANCH   4  21
TORSDOF 4
ENDMDL
MODEL 6
REMARK VINA RESULT:      -6.7      0.657      2.246
REMARK  Name = 347791
REMARK  4 active torsions:
REMARK  status: ('A' for Active; 'I' for Inactive)
REMARK    1  A    between atoms: C_4  and  O_7
REMARK    2  A    between atoms: C_8  and  S_11
REMARK    3  A    between atoms: S_11  and  N_14
REMARK    4  A    between atoms: C_15  and  C_17
REMARK                            x       y       z     vdW  Elec       q    Type
REMARK                         _______ _______ _______ _____ _____    ______ ____
ROOT
ATOM      1 CL   UNL     1      22.796  42.528  49.226  0.00  0.00    +0.000 Cl
ATOM      2  C   UNL     1      22.615  41.549  47.802  0.00  0.00    +0.000 A 
ATOM      3  C   UNL     1      23.507  40.509  47.501  0.00  0.00    +0.000 A 
ATOM      4  C   UNL     1      21.541  41.838  46.941  0.00  0.00    +0.000 A 
ATOM      5 CL   UNL     1      24.815  40.128  48.577  0.00  0.00    +0.000 Cl
ATOM      6  C   UNL     1      23.325  39.777  46.318  0.00  0.00    +0.000 A 
ATOM      7  C   UNL     1      21.360  41.089  45.782  0.00  0.00    +0.000 A 
ATOM      8 CL   UNL     1      24.387  38.497  45.843  0.00  0.00    +0.000 Cl
ATOM      9  C   UNL     1      22.264  40.073  45.456  0.00  0.00    +0.000 A 
ENDROOT
BRANCH   7  10
ATOM     10  S   UNL     1      20.043  41.455  44.661  0.00  0.00    +0.000 S 
ATOM     11  O   UNL     1      19.649  42.822  44.903  0.00  0.00    +0.000 OA
ATOM     12  O   UNL     1      20.441  41.030  43.331  0.00  0.00    +0.000 OA
BRANCH  10  13
ATOM     13  N   UNL     1      18.798  40.412  45.095  0.00  0.00    +0.000 NA
ATOM     14  C   UNL     1      17.394  40.586  44.645  0.00  0.00    +0.000 C 
ATOM     15  C   UNL     1      18.764  39.993  46.521  0.00  0.00    +0.000 C 
ATOM     16  C   UNL     1      16.668  41.046  45.909  0.00  0.00    +0.000 C 
ATOM     17  C   UNL     1      17.354  40.281  47.024  0.00  0.00    +0.000 C 
BRANCH  14  18
ATOM     18  C   UNL     1      16.939  41.409  43.463  0.00  0.00    +0.000 C 
ATOM     19  O   UNL     1      16.711  40.909  42.369  0.00  0.00    +0.000 OA
ATOM     20  O   UNL     1      16.719  42.721  43.668  0.00  0.00    +0.000 OA
ENDBRANCH  14  18
ENDBRANCH  10  13
ENDBRANCH   7  10
BRANCH   4  21
ATOM     21  O   UNL     1      20.680  42.860  47.237  0.00  0.00    +0.000 OA
ATOM     22  H   UNL     1      20.101  42.788  47.971  0.00  0.00    +0.000 HD
ENDBRANCH   4  21
TORSDOF 4
ENDMDL
MODEL 7
REMARK VINA RESULT:      -6.6      1.899      3.413
REMARK  Name = 347791
REMARK  4 active torsions:
REMARK  status: ('A' for Active; 'I' for Inactive)
REMARK    1  A    between atoms: C_4  and  O_7
REMARK    2  A    between atoms: C_8  and  S_11
REMARK    3  A    between atoms: S_11  and  N_14
REMARK    4  A    between atoms: C_15  and  C_17
REMARK                            x       y       z     vdW  Elec       q    Type
REMARK                         _______ _______ _______ _____ _____    ______ ____
ROOT
ATOM      1 CL   UNL     1      23.029  42.809  49.530  0.00  0.00    +0.000 Cl
ATOM      2  C   UNL     1      22.996  41.829  48.095  0.00  0.00    +0.000 A 
ATOM      3  C   UNL     1      24.162  41.265  47.558  0.00  0.00    +0.000 A 
ATOM      4  C   UNL     1      21.752  41.622  47.473  0.00  0.00    +0.000 A 
ATOM      5 CL   UNL     1      25.694  41.490  48.341  0.00  0.00    +0.000 Cl
ATOM      6  C   UNL     1      24.072  40.510  46.378  0.00  0.00    +0.000 A 
ATOM      7  C   UNL     1      21.674  40.853  46.314  0.00  0.00    +0.000 A 
ATOM      8 CL   UNL     1      25.455  39.800  45.620  0.00  0.00    +0.000 Cl
ATOM      9  C   UNL     1      22.836  40.316  45.752  0.00  0.00    +0.000 A 
ENDROOT
BRANCH   7  10
ATOM     10  S   UNL     1      20.131  40.609  45.488  0.00  0.00    +0.000 S 
ATOM     11  O   UNL     1      20.362  39.645  44.439  0.00  0.00    +0.000 OA
ATOM     12  O   UNL     1      19.106  40.376  46.488  0.00  0.00    +0.000 OA
BRANCH  10  13
ATOM     13  N   UNL     1      19.753  42.105  44.818  0.00  0.00    +0.000 NA
ATOM     14  C   UNL     1      18.529  42.868  45.166  0.00  0.00    +0.000 C 
ATOM     15  C   UNL     1      19.965  42.237  43.354  0.00  0.00    +0.000 C 
ATOM     16  C   UNL     1      17.661  42.740  43.915  0.00  0.00    +0.000 C 
ATOM     17  C   UNL     1      18.659  42.767  42.773  0.00  0.00    +0.000 C 
BRANCH  14  18
ATOM     18  C   UNL     1      17.682  42.668  46.401  0.00  0.00    +0.000 C 
ATOM     19  O   UNL     1      17.989  43.143  47.487  0.00  0.00    +0.000 OA
ATOM     20  O   UNL     1      16.523  42.000  46.257  0.00  0.00    +0.000 OA
ENDBRANCH  14  18
ENDBRANCH  10  13
ENDBRANCH   7  10
BRANCH   4  21
ATOM     21  O   UNL     1      20.619  42.183  47.999  0.00  0.00    +0.000 OA
ATOM     22  H   UNL     1      20.127  42.803  47.498  0.00  0.00    +0.000 HD
ENDBRANCH   4  21
TORSDOF 4
ENDMDL
MODEL 8
REMARK VINA RESULT:      -6.5      3.574      5.687
REMARK  Name = 347791
REMARK  4 active torsions:
REMARK  status: ('A' for Active; 'I' for Inactive)
REMARK    1  A    between atoms: C_4  and  O_7
REMARK    2  A    between atoms: C_8  and  S_11
REMARK    3  A    between atoms: S_11  and  N_14
REMARK    4  A    between atoms: C_15  and  C_17
REMARK                            x       y       z     vdW  Elec       q    Type
REMARK                         _______ _______ _______ _____ _____    ______ ____
ROOT
ATOM      1 CL   UNL     1      16.711  36.914  45.529  0.00  0.00    +0.000 Cl
ATOM      2  C   UNL     1      17.352  38.530  45.515  0.00  0.00    +0.000 A 
ATOM      3  C   UNL     1      16.694  39.592  46.151  0.00  0.00    +0.000 A 
ATOM      4  C   UNL     1      18.561  38.748  44.830  0.00  0.00    +0.000 A 
ATOM      5 CL   UNL     1      15.219  39.321  47.025  0.00  0.00    +0.000 Cl
ATOM      6  C   UNL     1      17.247  40.880  46.074  0.00  0.00    +0.000 A 
ATOM      7  C   UNL     1      19.110  40.026  44.780  0.00  0.00    +0.000 A 
ATOM      8 CL   UNL     1      16.497  42.259  46.799  0.00  0.00    +0.000 Cl
ATOM      9  C   UNL     1      18.443  41.099  45.382  0.00  0.00    +0.000 A 
ENDROOT
BRANCH   7  10
ATOM     10  S   UNL     1      20.607  40.339  43.894  0.00  0.00    +0.000 S 
ATOM     11  O   UNL     1      20.587  39.497  42.722  0.00  0.00    +0.000 OA
ATOM     12  O   UNL     1      20.771  41.775  43.764  0.00  0.00    +0.000 OA
BRANCH  10  13
ATOM     13  N   UNL     1      21.838  39.852  44.930  0.00  0.00    +0.000 NA
ATOM     14  C   UNL     1      22.336  40.685  46.053  0.00  0.00    +0.000 C 
ATOM     15  C   UNL     1      23.015  39.210  44.290  0.00  0.00    +0.000 C 
ATOM     16  C   UNL     1      23.712  41.144  45.574  0.00  0.00    +0.000 C 
ATOM     17  C   UNL     1      24.244  39.956  44.796  0.00  0.00    +0.000 C 
BRANCH  14  18
ATOM     18  C   UNL     1      21.602  41.841  46.691  0.00  0.00    +0.000 C 
ATOM     19  O   UNL     1      20.867  41.693  47.660  0.00  0.00    +0.000 OA
ATOM     20  O   UNL     1      21.837  43.072  46.201  0.00  0.00    +0.000 OA
ENDBRANCH  14  18
ENDBRANCH  10  13
ENDBRANCH   7  10
BRANCH   4  21
ATOM     21  O   UNL     1      19.194  37.707  44.204  0.00  0.00    +0.000 OA
ATOM     22  H   UNL     1      18.874  36.833  44.310  0.00  0.00    +0.000 HD
ENDBRANCH   4  21
TORSDOF 4
ENDMDL
MODEL 9
REMARK VINA RESULT:      -6.4      2.056      2.895
REMARK  Name = 347791
REMARK  4 active torsions:
REMARK  status: ('A' for Active; 'I' for Inactive)
REMARK    1  A    between atoms: C_4  and  O_7
REMARK    2  A    between atoms: C_8  and  S_11
REMARK    3  A    between atoms: S_11  and  N_14
REMARK    4  A    between atoms: C_15  and  C_17
REMARK                            x       y       z     vdW  Elec       q    Type
REMARK                         _______ _______ _______ _____ _____    ______ ____
ROOT
ATOM      1 CL   UNL     1      24.724  40.772  46.974  0.00  0.00    +0.000 Cl
ATOM      2  C   UNL     1      23.053  41.186  46.738  0.00  0.00    +0.000 A 
ATOM      3  C   UNL     1      22.310  41.852  47.724  0.00  0.00    +0.000 A 
ATOM      4  C   UNL     1      22.454  40.820  45.520  0.00  0.00    +0.000 A 
ATOM      5 CL   UNL     1      23.054  42.335  49.215  0.00  0.00    +0.000 Cl
ATOM      6  C   UNL     1      20.955  42.129  47.484  0.00  0.00    +0.000 A 
ATOM      7  C   UNL     1      21.114  41.120  45.287  0.00  0.00    +0.000 A 
ATOM      8 CL   UNL     1      19.947  42.919  48.647  0.00  0.00    +0.000 Cl
ATOM      9  C   UNL     1      20.356  41.753  46.277  0.00  0.00    +0.000 A 
ENDROOT
BRANCH   7  10
ATOM     10  S   UNL     1      20.323  40.637  43.782  0.00  0.00    +0.000 S 
ATOM     11  O   UNL     1      20.979  41.351  42.712  0.00  0.00    +0.000 OA
ATOM     12  O   UNL     1      20.237  39.188  43.753  0.00  0.00    +0.000 OA
BRANCH  10  13
ATOM     13  N   UNL     1      18.735  41.164  43.935  0.00  0.00    +0.000 NA
ATOM     14  C   UNL     1      17.654  40.336  44.525  0.00  0.00    +0.000 C 
ATOM     15  C   UNL     1      18.166  41.876  42.761  0.00  0.00    +0.000 C 
ATOM     16  C   UNL     1      16.797  39.954  43.319  0.00  0.00    +0.000 C 
ATOM     17  C   UNL     1      16.850  41.182  42.429  0.00  0.00    +0.000 C 
BRANCH  14  18
ATOM     18  C   UNL     1      17.847  39.133  45.418  0.00  0.00    +0.000 C 
ATOM     19  O   UNL     1      18.239  39.235  46.574  0.00  0.00    +0.000 OA
ATOM     20  O   UNL     1      17.504  37.930  44.922  0.00  0.00    +0.000 OA
ENDBRANCH  14  18
ENDBRANCH  10  13
ENDBRANCH   7  10
BRANCH   4  21
ATOM     21  O   UNL     1      23.183  40.162  44.566  0.00  0.00    +0.000 OA
ATOM     22  H   UNL     1      22.826  39.407  44.141  0.00  0.00    +0.000 HD
ENDBRANCH   4  21
TORSDOF 4
ENDMDL
