MODEL 1
REMARK VINA RESULT:      -7.8      0.000      0.000
REMARK  Name = 347530
REMARK  3 active torsions:
REMARK  status: ('A' for Active; 'I' for Inactive)
REMARK    1  A    between atoms: C_6  and  S_9
REMARK    2  A    between atoms: S_9  and  N_12
REMARK    3  A    between atoms: C_13  and  C_15
REMARK                            x       y       z     vdW  Elec       q    Type
REMARK                         _______ _______ _______ _____ _____    ______ ____
ROOT
ATOM      1  S   UNL     1      20.084  42.010  45.239  0.00  0.00    +0.000 S 
ATOM      2  O   UNL     1      19.545  43.133  45.971  0.00  0.00    +0.000 OA
ATOM      3  O   UNL     1      20.445  42.117  43.835  0.00  0.00    +0.000 OA
ENDROOT
BRANCH   1   9
ATOM      4 CL   UNL     1      24.197  38.518  45.993  0.00  0.00    +0.000 Cl
ATOM      5  C   UNL     1      23.297  39.896  46.497  0.00  0.00    +0.000 A 
ATOM      6  C   UNL     1      23.649  40.557  47.673  0.00  0.00    +0.000 A 
ATOM      7  C   UNL     1      22.224  40.336  45.725  0.00  0.00    +0.000 A 
ATOM      8  C   UNL     1      22.925  41.678  48.073  0.00  0.00    +0.000 A 
ATOM      9  C   UNL     1      21.486  41.439  46.160  0.00  0.00    +0.000 A 
ATOM     10 CL   UNL     1      23.373  42.517  49.506  0.00  0.00    +0.000 Cl
ATOM     11  C   UNL     1      21.841  42.127  47.324  0.00  0.00    +0.000 A 
ENDBRANCH   1   9
BRANCH   1  12
ATOM     12  N   UNL     1      19.007  40.716  45.338  0.00  0.00    +0.000 NA
ATOM     13  C   UNL     1      17.643  40.810  44.740  0.00  0.00    +0.000 C 
ATOM     14  C   UNL     1      18.846  40.125  46.695  0.00  0.00    +0.000 C 
ATOM     15  C   UNL     1      16.734  41.057  45.942  0.00  0.00    +0.000 C 
ATOM     16  C   UNL     1      17.370  40.247  47.056  0.00  0.00    +0.000 C 
BRANCH  13  17
ATOM     17  C   UNL     1      17.321  41.738  43.587  0.00  0.00    +0.000 C 
ATOM     18  O   UNL     1      17.497  41.422  42.415  0.00  0.00    +0.000 OA
ATOM     19  O   UNL     1      16.832  42.954  43.910  0.00  0.00    +0.000 OA
ENDBRANCH  13  17
ENDBRANCH   1  12
TORSDOF 3
ENDMDL
MODEL 2
REMARK VINA RESULT:      -7.8      0.039      2.071
REMARK  Name = 347530
REMARK  3 active torsions:
REMARK  status: ('A' for Active; 'I' for Inactive)
REMARK    1  A    between atoms: C_6  and  S_9
REMARK    2  A    between atoms: S_9  and  N_12
REMARK    3  A    between atoms: C_13  and  C_15
REMARK                            x       y       z     vdW  Elec       q    Type
REMARK                         _______ _______ _______ _____ _____    ______ ____
ROOT
ATOM      1  S   UNL     1      20.079  42.000  45.243  0.00  0.00    +0.000 S 
ATOM      2  O   UNL     1      19.517  43.134  45.940  0.00  0.00    +0.000 OA
ATOM      3  O   UNL     1      20.471  42.081  43.846  0.00  0.00    +0.000 OA
ENDROOT
BRANCH   1   9
ATOM      4 CL   UNL     1      23.409  42.509  49.525  0.00  0.00    +0.000 Cl
ATOM      5  C   UNL     1      22.936  41.683  48.091  0.00  0.00    +0.000 A 
ATOM      6  C   UNL     1      23.677  40.586  47.652  0.00  0.00    +0.000 A 
ATOM      7  C   UNL     1      21.819  42.119  47.382  0.00  0.00    +0.000 A 
ATOM      8  C   UNL     1      23.286  39.912  46.496  0.00  0.00    +0.000 A 
ATOM      9  C   UNL     1      21.463  41.456  46.206  0.00  0.00    +0.000 A 
ATOM     10 CL   UNL     1      24.175  38.539  45.966  0.00  0.00    +0.000 Cl
ATOM     11  C   UNL     1      22.181  40.340  45.766  0.00  0.00    +0.000 A 
ENDBRANCH   1   9
BRANCH   1  12
ATOM     12  N   UNL     1      19.008  40.701  45.344  0.00  0.00    +0.000 NA
ATOM     13  C   UNL     1      17.648  40.784  44.735  0.00  0.00    +0.000 C 
ATOM     14  C   UNL     1      18.839  40.121  46.705  0.00  0.00    +0.000 C 
ATOM     15  C   UNL     1      16.728  41.036  45.928  0.00  0.00    +0.000 C 
ATOM     16  C   UNL     1      17.360  40.239  47.054  0.00  0.00    +0.000 C 
BRANCH  13  17
ATOM     17  C   UNL     1      17.331  41.701  43.572  0.00  0.00    +0.000 C 
ATOM     18  O   UNL     1      17.521  41.377  42.404  0.00  0.00    +0.000 OA
ATOM     19  O   UNL     1      16.828  42.914  43.881  0.00  0.00    +0.000 OA
ENDBRANCH  13  17
ENDBRANCH   1  12
TORSDOF 3
ENDMDL
MODEL 3
REMARK VINA RESULT:      -7.7      3.622      6.016
REMARK  Name = 347530
REMARK  3 active torsions:
REMARK  status: ('A' for Active; 'I' for Inactive)
REMARK    1  A    between atoms: C_6  and  S_9
REMARK    2  A    between atoms: S_9  and  N_12
REMARK    3  A    between atoms: C_13  and  C_15
REMARK                            x       y       z     vdW  Elec       q    Type
REMARK                         _______ _______ _______ _____ _____    ______ ____
ROOT
ATOM      1  S   UNL     1      21.120  41.997  46.686  0.00  0.00    +0.000 S 
ATOM      2  O   UNL     1      21.571  43.069  45.830  0.00  0.00    +0.000 OA
ATOM      3  O   UNL     1      21.344  42.022  48.122  0.00  0.00    +0.000 OA
ENDROOT
BRANCH   1   9
ATOM      4 CL   UNL     1      16.435  39.290  47.315  0.00  0.00    +0.000 Cl
ATOM      5  C   UNL     1      17.322  40.601  46.641  0.00  0.00    +0.000 A 
ATOM      6  C   UNL     1      16.681  41.506  45.796  0.00  0.00    +0.000 A 
ATOM      7  C   UNL     1      18.675  40.744  46.945  0.00  0.00    +0.000 A 
ATOM      8  C   UNL     1      17.399  42.572  45.260  0.00  0.00    +0.000 A 
ATOM      9  C   UNL     1      19.389  41.797  46.369  0.00  0.00    +0.000 A 
ATOM     10 CL   UNL     1      16.606  43.711  44.243  0.00  0.00    +0.000 Cl
ATOM     11  C   UNL     1      18.754  42.727  45.540  0.00  0.00    +0.000 A 
ENDBRANCH   1   9
BRANCH   1  12
ATOM     12  N   UNL     1      21.779  40.541  46.146  0.00  0.00    +0.000 NA
ATOM     13  C   UNL     1      23.222  40.227  46.367  0.00  0.00    +0.000 C 
ATOM     14  C   UNL     1      21.471  40.190  44.732  0.00  0.00    +0.000 C 
ATOM     15  C   UNL     1      23.865  40.488  45.007  0.00  0.00    +0.000 C 
ATOM     16  C   UNL     1      22.807  40.055  44.010  0.00  0.00    +0.000 C 
BRANCH  13  17
ATOM     17  C   UNL     1      24.023  40.834  47.500  0.00  0.00    +0.000 C 
ATOM     18  O   UNL     1      24.653  41.880  47.377  0.00  0.00    +0.000 OA
ATOM     19  O   UNL     1      24.020  40.161  48.669  0.00  0.00    +0.000 OA
ENDBRANCH  13  17
ENDBRANCH   1  12
TORSDOF 3
ENDMDL
MODEL 4
REMARK VINA RESULT:      -7.7      3.624      6.097
REMARK  Name = 347530
REMARK  3 active torsions:
REMARK  status: ('A' for Active; 'I' for Inactive)
REMARK    1  A    between atoms: C_6  and  S_9
REMARK    2  A    between atoms: S_9  and  N_12
REMARK    3  A    between atoms: C_13  and  C_15
REMARK                            x       y       z     vdW  Elec       q    Type
REMARK                         _______ _______ _______ _____ _____    ______ ____
ROOT
ATOM      1  S   UNL     1      21.142  41.984  46.702  0.00  0.00    +0.000 S 
ATOM      2  O   UNL     1      21.632  43.061  45.873  0.00  0.00    +0.000 OA
ATOM      3  O   UNL     1      21.329  41.987  48.143  0.00  0.00    +0.000 OA
ENDROOT
BRANCH   1   9
ATOM      4 CL   UNL     1      16.589  43.717  44.265  0.00  0.00    +0.000 Cl
ATOM      5  C   UNL     1      17.406  42.582  45.268  0.00  0.00    +0.000 A 
ATOM      6  C   UNL     1      16.693  41.529  45.841  0.00  0.00    +0.000 A 
ATOM      7  C   UNL     1      18.772  42.728  45.500  0.00  0.00    +0.000 A 
ATOM      8  C   UNL     1      17.360  40.606  46.644  0.00  0.00    +0.000 A 
ATOM      9  C   UNL     1      19.417  41.816  46.338  0.00  0.00    +0.000 A 
ATOM     10 CL   UNL     1      16.493  39.286  47.327  0.00  0.00    +0.000 Cl
ATOM     11  C   UNL     1      18.721  40.741  46.899  0.00  0.00    +0.000 A 
ENDBRANCH   1   9
BRANCH   1  12
ATOM     12  N   UNL     1      21.793  40.526  46.158  0.00  0.00    +0.000 NA
ATOM     13  C   UNL     1      23.236  40.208  46.368  0.00  0.00    +0.000 C 
ATOM     14  C   UNL     1      21.472  40.175  44.747  0.00  0.00    +0.000 C 
ATOM     15  C   UNL     1      23.869  40.466  45.003  0.00  0.00    +0.000 C 
ATOM     16  C   UNL     1      22.802  40.035  44.015  0.00  0.00    +0.000 C 
BRANCH  13  17
ATOM     17  C   UNL     1      24.048  40.815  47.493  0.00  0.00    +0.000 C 
ATOM     18  O   UNL     1      24.696  41.847  47.358  0.00  0.00    +0.000 OA
ATOM     19  O   UNL     1      24.035  40.154  48.670  0.00  0.00    +0.000 OA
ENDBRANCH  13  17
ENDBRANCH   1  12
TORSDOF 3
ENDMDL
MODEL 5
REMARK VINA RESULT:      -7.0      1.929      2.507
REMARK  Name = 347530
REMARK  3 active torsions:
REMARK  status: ('A' for Active; 'I' for Inactive)
REMARK    1  A    between atoms: C_6  and  S_9
REMARK    2  A    between atoms: S_9  and  N_12
REMARK    3  A    between atoms: C_13  and  C_15
REMARK                            x       y       z     vdW  Elec       q    Type
REMARK                         _______ _______ _______ _____ _____    ______ ____
ROOT
ATOM      1  S   UNL     1      19.800  41.546  47.124  0.00  0.00    +0.000 S 
ATOM      2  O   UNL     1      19.127  40.292  46.877  0.00  0.00    +0.000 OA
ATOM      3  O   UNL     1      19.333  42.474  48.141  0.00  0.00    +0.000 OA
ENDROOT
BRANCH   1   9
ATOM      4 CL   UNL     1      24.168  38.373  46.395  0.00  0.00    +0.000 Cl
ATOM      5  C   UNL     1      23.425  39.748  47.115  0.00  0.00    +0.000 A 
ATOM      6  C   UNL     1      24.159  40.549  47.990  0.00  0.00    +0.000 A 
ATOM      7  C   UNL     1      22.097  40.047  46.819  0.00  0.00    +0.000 A 
ATOM      8  C   UNL     1      23.559  41.668  48.563  0.00  0.00    +0.000 A 
ATOM      9  C   UNL     1      21.499  41.150  47.431  0.00  0.00    +0.000 A 
ATOM     10 CL   UNL     1      24.467  42.679  49.618  0.00  0.00    +0.000 Cl
ATOM     11  C   UNL     1      22.229  41.977  48.291  0.00  0.00    +0.000 A 
ENDBRANCH   1   9
BRANCH   1  12
ATOM     12  N   UNL     1      19.866  42.432  45.691  0.00  0.00    +0.000 NA
ATOM     13  C   UNL     1      18.654  42.587  44.832  0.00  0.00    +0.000 C 
ATOM     14  C   UNL     1      20.998  42.092  44.785  0.00  0.00    +0.000 C 
ATOM     15  C   UNL     1      18.887  41.600  43.690  0.00  0.00    +0.000 C 
ATOM     16  C   UNL     1      20.386  41.650  43.461  0.00  0.00    +0.000 C 
BRANCH  13  17
ATOM     17  C   UNL     1      17.247  42.492  45.385  0.00  0.00    +0.000 C 
ATOM     18  O   UNL     1      16.758  43.361  46.098  0.00  0.00    +0.000 OA
ATOM     19  O   UNL     1      16.545  41.387  45.059  0.00  0.00    +0.000 OA
ENDBRANCH  13  17
ENDBRANCH   1  12
TORSDOF 3
ENDMDL
MODEL 6
REMARK VINA RESULT:      -7.0      1.940      3.238
REMARK  Name = 347530
REMARK  3 active torsions:
REMARK  status: ('A' for Active; 'I' for Inactive)
REMARK    1  A    between atoms: C_6  and  S_9
REMARK    2  A    between atoms: S_9  and  N_12
REMARK    3  A    between atoms: C_13  and  C_15
REMARK                            x       y       z     vdW  Elec       q    Type
REMARK                         _______ _______ _______ _____ _____    ______ ____
ROOT
ATOM      1  S   UNL     1      19.817  41.539  47.140  0.00  0.00    +0.000 S 
ATOM      2  O   UNL     1      19.168  40.274  46.885  0.00  0.00    +0.000 OA
ATOM      3  O   UNL     1      19.324  42.459  48.151  0.00  0.00    +0.000 OA
ENDROOT
BRANCH   1   9
ATOM      4 CL   UNL     1      24.577  42.697  49.524  0.00  0.00    +0.000 Cl
ATOM      5  C   UNL     1      23.621  41.685  48.512  0.00  0.00    +0.000 A 
ATOM      6  C   UNL     1      24.202  40.574  47.903  0.00  0.00    +0.000 A 
ATOM      7  C   UNL     1      22.276  41.987  48.310  0.00  0.00    +0.000 A 
ATOM      8  C   UNL     1      23.424  39.750  47.093  0.00  0.00    +0.000 A 
ATOM      9  C   UNL     1      21.519  41.172  47.466  0.00  0.00    +0.000 A 
ATOM     10 CL   UNL     1      24.126  38.359  46.363  0.00  0.00    +0.000 Cl
ATOM     11  C   UNL     1      22.081  40.041  46.867  0.00  0.00    +0.000 A 
ENDBRANCH   1   9
BRANCH   1  12
ATOM     12  N   UNL     1      19.884  42.426  45.707  0.00  0.00    +0.000 NA
ATOM     13  C   UNL     1      18.674  42.581  44.847  0.00  0.00    +0.000 C 
ATOM     14  C   UNL     1      21.018  42.088  44.803  0.00  0.00    +0.000 C 
ATOM     15  C   UNL     1      18.909  41.595  43.705  0.00  0.00    +0.000 C 
ATOM     16  C   UNL     1      20.408  41.647  43.477  0.00  0.00    +0.000 C 
BRANCH  13  17
ATOM     17  C   UNL     1      17.266  42.484  45.397  0.00  0.00    +0.000 C 
ATOM     18  O   UNL     1      16.770  43.359  46.099  0.00  0.00    +0.000 OA
ATOM     19  O   UNL     1      16.571  41.371  45.083  0.00  0.00    +0.000 OA
ENDBRANCH  13  17
ENDBRANCH   1  12
TORSDOF 3
ENDMDL
MODEL 7
REMARK VINA RESULT:      -6.7      3.339      5.395
REMARK  Name = 347530
REMARK  3 active torsions:
REMARK  status: ('A' for Active; 'I' for Inactive)
REMARK    1  A    between atoms: C_6  and  S_9
REMARK    2  A    between atoms: S_9  and  N_12
REMARK    3  A    between atoms: C_13  and  C_15
REMARK                            x       y       z     vdW  Elec       q    Type
REMARK                         _______ _______ _______ _____ _____    ______ ____
ROOT
ATOM      1  S   UNL     1      21.091  40.400  44.766  0.00  0.00    +0.000 S 
ATOM      2  O   UNL     1      21.833  39.284  44.225  0.00  0.00    +0.000 OA
ATOM      3  O   UNL     1      21.370  41.768  44.363  0.00  0.00    +0.000 OA
ENDROOT
BRANCH   1   9
ATOM      4 CL   UNL     1      16.527  37.666  45.937  0.00  0.00    +0.000 Cl
ATOM      5  C   UNL     1      17.366  38.837  44.996  0.00  0.00    +0.000 A 
ATOM      6  C   UNL     1      16.700  39.497  43.964  0.00  0.00    +0.000 A 
ATOM      7  C   UNL     1      18.703  39.113  45.273  0.00  0.00    +0.000 A 
ATOM      8  C   UNL     1      17.378  40.453  43.210  0.00  0.00    +0.000 A 
ATOM      9  C   UNL     1      19.378  40.047  44.484  0.00  0.00    +0.000 A 
ATOM     10 CL   UNL     1      16.554  41.294  41.956  0.00  0.00    +0.000 Cl
ATOM     11  C   UNL     1      18.718  40.735  43.462  0.00  0.00    +0.000 A 
ENDBRANCH   1   9
BRANCH   1  12
ATOM     12  N   UNL     1      21.214  40.384  46.448  0.00  0.00    +0.000 NA
ATOM     13  C   UNL     1      20.679  41.513  47.264  0.00  0.00    +0.000 C 
ATOM     14  C   UNL     1      22.567  40.065  46.984  0.00  0.00    +0.000 C 
ATOM     15  C   UNL     1      21.924  42.312  47.644  0.00  0.00    +0.000 C 
ATOM     16  C   UNL     1      22.994  41.255  47.836  0.00  0.00    +0.000 C 
BRANCH  13  17
ATOM     17  C   UNL     1      19.557  42.408  46.779  0.00  0.00    +0.000 C 
ATOM     18  O   UNL     1      19.762  43.442  46.151  0.00  0.00    +0.000 OA
ATOM     19  O   UNL     1      18.301  42.017  47.078  0.00  0.00    +0.000 OA
ENDBRANCH  13  17
ENDBRANCH   1  12
TORSDOF 3
ENDMDL
MODEL 8
REMARK VINA RESULT:      -6.7      3.304      5.382
REMARK  Name = 347530
REMARK  3 active torsions:
REMARK  status: ('A' for Active; 'I' for Inactive)
REMARK    1  A    between atoms: C_6  and  S_9
REMARK    2  A    between atoms: S_9  and  N_12
REMARK    3  A    between atoms: C_13  and  C_15
REMARK                            x       y       z     vdW  Elec       q    Type
REMARK                         _______ _______ _______ _____ _____    ______ ____
ROOT
ATOM      1  S   UNL     1      21.108  40.414  44.757  0.00  0.00    +0.000 S 
ATOM      2  O   UNL     1      21.856  39.299  44.225  0.00  0.00    +0.000 OA
ATOM      3  O   UNL     1      21.390  41.782  44.358  0.00  0.00    +0.000 OA
ENDROOT
BRANCH   1   9
ATOM      4 CL   UNL     1      16.478  41.232  42.004  0.00  0.00    +0.000 Cl
ATOM      5  C   UNL     1      17.354  40.424  43.246  0.00  0.00    +0.000 A 
ATOM      6  C   UNL     1      16.701  39.499  44.059  0.00  0.00    +0.000 A 
ATOM      7  C   UNL     1      18.707  40.703  43.427  0.00  0.00    +0.000 A 
ATOM      8  C   UNL     1      17.415  38.838  45.057  0.00  0.00    +0.000 A 
ATOM      9  C   UNL     1      19.398  40.060  44.456  0.00  0.00    +0.000 A 
ATOM     10 CL   UNL     1      16.623  37.671  46.043  0.00  0.00    +0.000 Cl
ATOM     11  C   UNL     1      18.764  39.111  45.264  0.00  0.00    +0.000 A 
ENDBRANCH   1   9
BRANCH   1  12
ATOM     12  N   UNL     1      21.211  40.398  46.441  0.00  0.00    +0.000 NA
ATOM     13  C   UNL     1      20.677  41.533  47.250  0.00  0.00    +0.000 C 
ATOM     14  C   UNL     1      22.553  40.066  46.992  0.00  0.00    +0.000 C 
ATOM     15  C   UNL     1      21.926  42.319  47.644  0.00  0.00    +0.000 C 
ATOM     16  C   UNL     1      22.983  41.251  47.849  0.00  0.00    +0.000 C 
BRANCH  13  17
ATOM     17  C   UNL     1      19.571  42.439  46.751  0.00  0.00    +0.000 C 
ATOM     18  O   UNL     1      19.794  43.491  46.162  0.00  0.00    +0.000 OA
ATOM     19  O   UNL     1      18.306  42.035  46.994  0.00  0.00    +0.000 OA
ENDBRANCH  13  17
ENDBRANCH   1  12
TORSDOF 3
ENDMDL
MODEL 9
REMARK VINA RESULT:      -6.5      3.428      5.827
REMARK  Name = 347530
REMARK  3 active torsions:
REMARK  status: ('A' for Active; 'I' for Inactive)
REMARK    1  A    between atoms: C_6  and  S_9
REMARK    2  A    between atoms: S_9  and  N_12
REMARK    3  A    between atoms: C_13  and  C_15
REMARK                            x       y       z     vdW  Elec       q    Type
REMARK                         _______ _______ _______ _____ _____    ______ ____
ROOT
ATOM      1  S   UNL     1      20.898  40.768  44.558  0.00  0.00    +0.000 S 
ATOM      2  O   UNL     1      21.149  39.392  44.923  0.00  0.00    +0.000 OA
ATOM      3  O   UNL     1      21.139  41.254  43.210  0.00  0.00    +0.000 OA
ENDROOT
BRANCH   1   9
ATOM      4 CL   UNL     1      16.465  43.930  44.414  0.00  0.00    +0.000 Cl
ATOM      5  C   UNL     1      17.265  42.505  44.953  0.00  0.00    +0.000 A 
ATOM      6  C   UNL     1      16.598  41.616  45.794  0.00  0.00    +0.000 A 
ATOM      7  C   UNL     1      18.574  42.255  44.544  0.00  0.00    +0.000 A 
ATOM      8  C   UNL     1      17.244  40.458  46.220  0.00  0.00    +0.000 A 
ATOM      9  C   UNL     1      19.220  41.108  45.010  0.00  0.00    +0.000 A 
ATOM     10 CL   UNL     1      16.416  39.340  47.232  0.00  0.00    +0.000 Cl
ATOM     11  C   UNL     1      18.555  40.194  45.834  0.00  0.00    +0.000 A 
ENDBRANCH   1   9
BRANCH   1  12
ATOM     12  N   UNL     1      21.783  41.781  45.576  0.00  0.00    +0.000 NA
ATOM     13  C   UNL     1      23.119  41.365  46.094  0.00  0.00    +0.000 C 
ATOM     14  C   UNL     1      21.026  42.342  46.729  0.00  0.00    +0.000 C 
ATOM     15  C   UNL     1      22.836  40.937  47.532  0.00  0.00    +0.000 C 
ATOM     16  C   UNL     1      21.749  41.890  47.992  0.00  0.00    +0.000 C 
BRANCH  13  17
ATOM     17  C   UNL     1      24.000  40.369  45.369  0.00  0.00    +0.000 C 
ATOM     18  O   UNL     1      24.381  40.540  44.216  0.00  0.00    +0.000 OA
ATOM     19  O   UNL     1      24.347  39.260  46.056  0.00  0.00    +0.000 OA
ENDBRANCH  13  17
ENDBRANCH   1  12
TORSDOF 3
ENDMDL
