MODEL 1
REMARK VINA RESULT:      -7.7      0.000      0.000
REMARK  Name = 348376
REMARK  5 active torsions:
REMARK  status: ('A' for Active; 'I' for Inactive)
REMARK    1  A    between atoms: C_3  and  C_6
REMARK    2  A    between atoms: C_7  and  S_9
REMARK    3  A    between atoms: C_8  and  N_10
REMARK    4  A    between atoms: S_9  and  N_13
REMARK    5  A    between atoms: C_14  and  C_16
REMARK                            x       y       z     vdW  Elec       q    Type
REMARK                         _______ _______ _______ _____ _____    ______ ____
ROOT
ATOM      1 CL   UNL     1      23.910  40.339  48.185  0.00  0.00    +0.000 Cl
ATOM      2  C   UNL     1      23.052  40.108  46.705  0.00  0.00    +0.000 A 
ATOM      3  C   UNL     1      23.419  39.135  45.770  0.00  0.00    +0.000 A 
ATOM      4  C   UNL     1      21.967  40.948  46.457  0.00  0.00    +0.000 A 
ATOM      5  C   UNL     1      22.682  39.049  44.570  0.00  0.00    +0.000 A 
ATOM      6  C   UNL     1      24.560  38.175  45.959  0.00  0.00    +0.000 C 
ATOM      7  C   UNL     1      21.233  40.825  45.265  0.00  0.00    +0.000 A 
ATOM      8  C   UNL     1      21.567  39.861  44.308  0.00  0.00    +0.000 A 
ENDROOT
BRANCH   7   9
ATOM      9  S   UNL     1      19.860  41.924  45.064  0.00  0.00    +0.000 S 
ATOM     10  O   UNL     1      19.783  42.752  46.247  0.00  0.00    +0.000 OA
ATOM     11  O   UNL     1      19.858  42.503  43.732  0.00  0.00    +0.000 OA
BRANCH   9  12
ATOM     12  N   UNL     1      18.511  40.899  45.079  0.00  0.00    +0.000 NA
ATOM     13  C   UNL     1      17.126  41.440  45.205  0.00  0.00    +0.000 C 
ATOM     14  C   UNL     1      18.647  39.706  45.955  0.00  0.00    +0.000 C 
ATOM     15  C   UNL     1      16.555  40.769  46.458  0.00  0.00    +0.000 C 
ATOM     16  C   UNL     1      17.269  39.436  46.530  0.00  0.00    +0.000 C 
BRANCH  13  17
ATOM     17  C   UNL     1      16.832  42.928  45.230  0.00  0.00    +0.000 C 
ATOM     18  O   UNL     1      16.750  43.606  44.214  0.00  0.00    +0.000 OA
ATOM     19  O   UNL     1      16.637  43.474  46.451  0.00  0.00    +0.000 OA
ENDBRANCH  13  17
ENDBRANCH   9  12
ENDBRANCH   7   9
BRANCH   8  20
ATOM     20  N   UNL     1      21.015  39.811  43.022  0.00  0.00    +0.000 N 
ATOM     21  H   UNL     1      21.076  40.594  42.428  0.00  0.00    +0.000 HD
ATOM     22  H   UNL     1      20.564  38.992  42.711  0.00  0.00    +0.000 HD
ENDBRANCH   8  20
TORSDOF 4
ENDMDL
MODEL 2
REMARK VINA RESULT:      -7.6      2.886      4.633
REMARK  Name = 348376
REMARK  5 active torsions:
REMARK  status: ('A' for Active; 'I' for Inactive)
REMARK    1  A    between atoms: C_3  and  C_6
REMARK    2  A    between atoms: C_7  and  S_9
REMARK    3  A    between atoms: C_8  and  N_10
REMARK    4  A    between atoms: S_9  and  N_13
REMARK    5  A    between atoms: C_14  and  C_16
REMARK                            x       y       z     vdW  Elec       q    Type
REMARK                         _______ _______ _______ _____ _____    ______ ____
ROOT
ATOM      1 CL   UNL     1      15.565  39.190  47.035  0.00  0.00    +0.000 Cl
ATOM      2  C   UNL     1      16.799  39.218  45.828  0.00  0.00    +0.000 A 
ATOM      3  C   UNL     1      17.353  38.050  45.294  0.00  0.00    +0.000 A 
ATOM      4  C   UNL     1      17.250  40.468  45.402  0.00  0.00    +0.000 A 
ATOM      5  C   UNL     1      18.386  38.174  44.341  0.00  0.00    +0.000 A 
ATOM      6  C   UNL     1      16.920  36.663  45.678  0.00  0.00    +0.000 C 
ATOM      7  C   UNL     1      18.262  40.564  44.432  0.00  0.00    +0.000 A 
ATOM      8  C   UNL     1      18.836  39.418  43.872  0.00  0.00    +0.000 A 
ENDROOT
BRANCH   7   9
ATOM      9  S   UNL     1      18.739  42.198  43.946  0.00  0.00    +0.000 S 
ATOM     10  O   UNL     1      19.980  42.092  43.210  0.00  0.00    +0.000 OA
ATOM     11  O   UNL     1      17.601  42.926  43.412  0.00  0.00    +0.000 OA
BRANCH   9  12
ATOM     12  N   UNL     1      19.088  42.974  45.409  0.00  0.00    +0.000 NA
ATOM     13  C   UNL     1      20.067  42.402  46.380  0.00  0.00    +0.000 C 
ATOM     14  C   UNL     1      17.897  43.462  46.154  0.00  0.00    +0.000 C 
ATOM     15  C   UNL     1      19.273  42.216  47.676  0.00  0.00    +0.000 C 
ATOM     16  C   UNL     1      18.217  43.301  47.629  0.00  0.00    +0.000 C 
BRANCH  13  17
ATOM     17  C   UNL     1      20.875  41.153  46.080  0.00  0.00    +0.000 C 
ATOM     18  O   UNL     1      21.761  41.122  45.236  0.00  0.00    +0.000 OA
ATOM     19  O   UNL     1      20.577  40.062  46.819  0.00  0.00    +0.000 OA
ENDBRANCH  13  17
ENDBRANCH   9  12
ENDBRANCH   7   9
BRANCH   8  20
ATOM     20  N   UNL     1      19.976  39.432  43.059  0.00  0.00    +0.000 N 
ATOM     21  H   UNL     1      20.560  40.224  43.042  0.00  0.00    +0.000 HD
ATOM     22  H   UNL     1      20.194  38.649  42.503  0.00  0.00    +0.000 HD
ENDBRANCH   8  20
TORSDOF 4
ENDMDL
MODEL 3
REMARK VINA RESULT:      -7.0      2.061      2.722
REMARK  Name = 348376
REMARK  5 active torsions:
REMARK  status: ('A' for Active; 'I' for Inactive)
REMARK    1  A    between atoms: C_3  and  C_6
REMARK    2  A    between atoms: C_7  and  S_9
REMARK    3  A    between atoms: C_8  and  N_10
REMARK    4  A    between atoms: S_9  and  N_13
REMARK    5  A    between atoms: C_14  and  C_16
REMARK                            x       y       z     vdW  Elec       q    Type
REMARK                         _______ _______ _______ _____ _____    ______ ____
ROOT
ATOM      1 CL   UNL     1      23.517  42.596  49.446  0.00  0.00    +0.000 Cl
ATOM      2  C   UNL     1      23.196  41.639  48.046  0.00  0.00    +0.000 A 
ATOM      3  C   UNL     1      24.212  41.008  47.321  0.00  0.00    +0.000 A 
ATOM      4  C   UNL     1      21.867  41.524  47.639  0.00  0.00    +0.000 A 
ATOM      5  C   UNL     1      23.857  40.280  46.166  0.00  0.00    +0.000 A 
ATOM      6  C   UNL     1      25.668  41.061  47.692  0.00  0.00    +0.000 C 
ATOM      7  C   UNL     1      21.536  40.772  46.500  0.00  0.00    +0.000 A 
ATOM      8  C   UNL     1      22.524  40.122  45.752  0.00  0.00    +0.000 A 
ENDROOT
BRANCH   7   9
ATOM      9  S   UNL     1      19.818  40.670  46.089  0.00  0.00    +0.000 S 
ATOM     10  O   UNL     1      19.640  39.526  45.222  0.00  0.00    +0.000 OA
ATOM     11  O   UNL     1      18.996  40.859  47.272  0.00  0.00    +0.000 OA
BRANCH   9  12
ATOM     12  N   UNL     1      19.538  42.055  45.157  0.00  0.00    +0.000 NA
ATOM     13  C   UNL     1      18.155  42.558  44.906  0.00  0.00    +0.000 C 
ATOM     14  C   UNL     1      20.313  42.120  43.891  0.00  0.00    +0.000 C 
ATOM     15  C   UNL     1      18.011  42.568  43.381  0.00  0.00    +0.000 C 
ATOM     16  C   UNL     1      19.418  42.801  42.872  0.00  0.00    +0.000 C 
BRANCH  13  17
ATOM     17  C   UNL     1      16.931  41.924  45.541  0.00  0.00    +0.000 C 
ATOM     18  O   UNL     1      16.437  40.880  45.136  0.00  0.00    +0.000 OA
ATOM     19  O   UNL     1      16.417  42.570  46.611  0.00  0.00    +0.000 OA
ENDBRANCH  13  17
ENDBRANCH   9  12
ENDBRANCH   7   9
BRANCH   8  20
ATOM     20  N   UNL     1      22.297  39.528  44.504  0.00  0.00    +0.000 N 
ATOM     21  H   UNL     1      22.860  38.777  44.206  0.00  0.00    +0.000 HD
ATOM     22  H   UNL     1      21.575  39.862  43.923  0.00  0.00    +0.000 HD
ENDBRANCH   8  20
TORSDOF 4
ENDMDL
MODEL 4
REMARK VINA RESULT:      -6.9      1.736      2.420
REMARK  Name = 348376
REMARK  5 active torsions:
REMARK  status: ('A' for Active; 'I' for Inactive)
REMARK    1  A    between atoms: C_3  and  C_6
REMARK    2  A    between atoms: C_7  and  S_9
REMARK    3  A    between atoms: C_8  and  N_10
REMARK    4  A    between atoms: S_9  and  N_13
REMARK    5  A    between atoms: C_14  and  C_16
REMARK                            x       y       z     vdW  Elec       q    Type
REMARK                         _______ _______ _______ _____ _____    ______ ____
ROOT
ATOM      1 CL   UNL     1      24.448  38.498  46.124  0.00  0.00    +0.000 Cl
ATOM      2  C   UNL     1      23.435  39.897  46.138  0.00  0.00    +0.000 A 
ATOM      3  C   UNL     1      23.664  40.979  46.993  0.00  0.00    +0.000 A 
ATOM      4  C   UNL     1      22.349  39.909  45.263  0.00  0.00    +0.000 A 
ATOM      5  C   UNL     1      22.759  42.060  46.961  0.00  0.00    +0.000 A 
ATOM      6  C   UNL     1      24.817  41.063  47.954  0.00  0.00    +0.000 C 
ATOM      7  C   UNL     1      21.476  41.009  45.233  0.00  0.00    +0.000 A 
ATOM      8  C   UNL     1      21.675  42.112  46.069  0.00  0.00    +0.000 A 
ENDROOT
BRANCH   7   9
ATOM      9  S   UNL     1      20.146  40.932  44.067  0.00  0.00    +0.000 S 
ATOM     10  O   UNL     1      19.739  42.289  43.774  0.00  0.00    +0.000 OA
ATOM     11  O   UNL     1      20.446  39.985  43.008  0.00  0.00    +0.000 OA
BRANCH   9  12
ATOM     12  N   UNL     1      18.884  40.207  44.935  0.00  0.00    +0.000 NA
ATOM     13  C   UNL     1      17.455  40.499  44.619  0.00  0.00    +0.000 C 
ATOM     14  C   UNL     1      19.065  40.206  46.410  0.00  0.00    +0.000 C 
ATOM     15  C   UNL     1      16.869  41.044  45.925  0.00  0.00    +0.000 C 
ATOM     16  C   UNL     1      17.681  40.373  47.012  0.00  0.00    +0.000 C 
BRANCH  13  17
ATOM     17  C   UNL     1      17.042  41.378  43.454  0.00  0.00    +0.000 C 
ATOM     18  O   UNL     1      17.020  40.981  42.296  0.00  0.00    +0.000 OA
ATOM     19  O   UNL     1      16.671  42.640  43.766  0.00  0.00    +0.000 OA
ENDBRANCH  13  17
ENDBRANCH   9  12
ENDBRANCH   7   9
BRANCH   8  20
ATOM     20  N   UNL     1      20.744  43.145  46.238  0.00  0.00    +0.000 N 
ATOM     21  H   UNL     1      19.783  42.964  46.130  0.00  0.00    +0.000 HD
ATOM     22  H   UNL     1      21.051  44.053  46.463  0.00  0.00    +0.000 HD
ENDBRANCH   8  20
TORSDOF 4
ENDMDL
MODEL 5
REMARK VINA RESULT:      -6.8      2.439      3.494
REMARK  Name = 348376
REMARK  5 active torsions:
REMARK  status: ('A' for Active; 'I' for Inactive)
REMARK    1  A    between atoms: C_3  and  C_6
REMARK    2  A    between atoms: C_7  and  S_9
REMARK    3  A    between atoms: C_8  and  N_10
REMARK    4  A    between atoms: S_9  and  N_13
REMARK    5  A    between atoms: C_14  and  C_16
REMARK                            x       y       z     vdW  Elec       q    Type
REMARK                         _______ _______ _______ _____ _____    ______ ____
ROOT
ATOM      1 CL   UNL     1      25.213  39.851  46.103  0.00  0.00    +0.000 Cl
ATOM      2  C   UNL     1      23.740  40.635  46.546  0.00  0.00    +0.000 A 
ATOM      3  C   UNL     1      23.688  41.638  47.519  0.00  0.00    +0.000 A 
ATOM      4  C   UNL     1      22.574  40.219  45.902  0.00  0.00    +0.000 A 
ATOM      5  C   UNL     1      22.432  42.192  47.843  0.00  0.00    +0.000 A 
ATOM      6  C   UNL     1      24.892  42.162  48.251  0.00  0.00    +0.000 C 
ATOM      7  C   UNL     1      21.339  40.805  46.225  0.00  0.00    +0.000 A 
ATOM      8  C   UNL     1      21.248  41.815  47.189  0.00  0.00    +0.000 A 
ENDROOT
BRANCH   7   9
ATOM      9  S   UNL     1      19.928  40.222  45.329  0.00  0.00    +0.000 S 
ATOM     10  O   UNL     1      20.411  39.461  44.197  0.00  0.00    +0.000 OA
ATOM     11  O   UNL     1      18.933  39.680  46.237  0.00  0.00    +0.000 OA
BRANCH   9  12
ATOM     12  N   UNL     1      19.219  41.634  44.719  0.00  0.00    +0.000 NA
ATOM     13  C   UNL     1      17.805  41.650  44.243  0.00  0.00    +0.000 C 
ATOM     14  C   UNL     1      20.063  42.388  43.757  0.00  0.00    +0.000 C 
ATOM     15  C   UNL     1      17.887  42.107  42.784  0.00  0.00    +0.000 C 
ATOM     16  C   UNL     1      19.116  42.991  42.735  0.00  0.00    +0.000 C 
BRANCH  13  17
ATOM     17  C   UNL     1      16.892  40.443  44.360  0.00  0.00    +0.000 C 
ATOM     18  O   UNL     1      16.171  40.247  45.330  0.00  0.00    +0.000 OA
ATOM     19  O   UNL     1      16.897  39.592  43.311  0.00  0.00    +0.000 OA
ENDBRANCH  13  17
ENDBRANCH   9  12
ENDBRANCH   7   9
BRANCH   8  20
ATOM     20  N   UNL     1      20.039  42.300  47.702  0.00  0.00    +0.000 N 
ATOM     21  H   UNL     1      19.234  42.314  47.137  0.00  0.00    +0.000 HD
ATOM     22  H   UNL     1      19.994  42.629  48.630  0.00  0.00    +0.000 HD
ENDBRANCH   8  20
TORSDOF 4
ENDMDL
MODEL 6
REMARK VINA RESULT:      -6.8      3.173      6.018
REMARK  Name = 348376
REMARK  5 active torsions:
REMARK  status: ('A' for Active; 'I' for Inactive)
REMARK    1  A    between atoms: C_3  and  C_6
REMARK    2  A    between atoms: C_7  and  S_9
REMARK    3  A    between atoms: C_8  and  N_10
REMARK    4  A    between atoms: S_9  and  N_13
REMARK    5  A    between atoms: C_14  and  C_16
REMARK                            x       y       z     vdW  Elec       q    Type
REMARK                         _______ _______ _______ _____ _____    ______ ____
ROOT
ATOM      1 CL   UNL     1      18.946  43.310  42.107  0.00  0.00    +0.000 Cl
ATOM      2  C   UNL     1      18.984  42.244  43.465  0.00  0.00    +0.000 A 
ATOM      3  C   UNL     1      18.017  41.254  43.668  0.00  0.00    +0.000 A 
ATOM      4  C   UNL     1      20.020  42.414  44.383  0.00  0.00    +0.000 A 
ATOM      5  C   UNL     1      18.108  40.459  44.829  0.00  0.00    +0.000 A 
ATOM      6  C   UNL     1      16.876  40.987  42.726  0.00  0.00    +0.000 C 
ATOM      7  C   UNL     1      20.103  41.591  45.519  0.00  0.00    +0.000 A 
ATOM      8  C   UNL     1      19.157  40.587  45.753  0.00  0.00    +0.000 A 
ENDROOT
BRANCH   7   9
ATOM      9  S   UNL     1      21.472  41.874  46.603  0.00  0.00    +0.000 S 
ATOM     10  O   UNL     1      22.320  42.872  45.989  0.00  0.00    +0.000 OA
ATOM     11  O   UNL     1      21.020  42.006  47.977  0.00  0.00    +0.000 OA
BRANCH   9  12
ATOM     12  N   UNL     1      22.322  40.409  46.579  0.00  0.00    +0.000 NA
ATOM     13  C   UNL     1      23.603  40.241  47.326  0.00  0.00    +0.000 C 
ATOM     14  C   UNL     1      22.462  39.794  45.234  0.00  0.00    +0.000 C 
ATOM     15  C   UNL     1      24.630  39.847  46.261  0.00  0.00    +0.000 C 
ATOM     16  C   UNL     1      23.821  39.118  45.209  0.00  0.00    +0.000 C 
BRANCH  13  17
ATOM     17  C   UNL     1      24.171  41.325  48.223  0.00  0.00    +0.000 C 
ATOM     18  O   UNL     1      23.821  41.477  49.386  0.00  0.00    +0.000 OA
ATOM     19  O   UNL     1      25.118  42.116  47.670  0.00  0.00    +0.000 OA
ENDBRANCH  13  17
ENDBRANCH   9  12
ENDBRANCH   7   9
BRANCH   8  20
ATOM     20  N   UNL     1      19.060  39.868  46.952  0.00  0.00    +0.000 N 
ATOM     21  H   UNL     1      18.175  39.641  47.319  0.00  0.00    +0.000 HD
ATOM     22  H   UNL     1      19.876  39.590  47.427  0.00  0.00    +0.000 HD
ENDBRANCH   8  20
TORSDOF 4
ENDMDL
MODEL 7
REMARK VINA RESULT:      -6.5      2.118      2.936
REMARK  Name = 348376
REMARK  5 active torsions:
REMARK  status: ('A' for Active; 'I' for Inactive)
REMARK    1  A    between atoms: C_3  and  C_6
REMARK    2  A    between atoms: C_7  and  S_9
REMARK    3  A    between atoms: C_8  and  N_10
REMARK    4  A    between atoms: S_9  and  N_13
REMARK    5  A    between atoms: C_14  and  C_16
REMARK                            x       y       z     vdW  Elec       q    Type
REMARK                         _______ _______ _______ _____ _____    ______ ____
ROOT
ATOM      1 CL   UNL     1      22.558  39.197  44.008  0.00  0.00    +0.000 Cl
ATOM      2  C   UNL     1      21.667  40.546  44.614  0.00  0.00    +0.000 A 
ATOM      3  C   UNL     1      22.151  41.364  45.640  0.00  0.00    +0.000 A 
ATOM      4  C   UNL     1      20.415  40.793  44.049  0.00  0.00    +0.000 A 
ATOM      5  C   UNL     1      21.333  42.418  46.097  0.00  0.00    +0.000 A 
ATOM      6  C   UNL     1      23.492  41.186  46.296  0.00  0.00    +0.000 C 
ATOM      7  C   UNL     1      19.631  41.866  44.505  0.00  0.00    +0.000 A 
ATOM      8  C   UNL     1      20.083  42.708  45.526  0.00  0.00    +0.000 A 
ENDROOT
BRANCH   7   9
ATOM      9  S   UNL     1      18.072  42.104  43.701  0.00  0.00    +0.000 S 
ATOM     10  O   UNL     1      17.430  43.244  44.317  0.00  0.00    +0.000 OA
ATOM     11  O   UNL     1      18.218  42.005  42.259  0.00  0.00    +0.000 OA
BRANCH   9  12
ATOM     12  N   UNL     1      17.178  40.731  44.129  0.00  0.00    +0.000 NA
ATOM     13  C   UNL     1      16.789  40.467  45.546  0.00  0.00    +0.000 C 
ATOM     14  C   UNL     1      17.649  39.464  43.512  0.00  0.00    +0.000 C 
ATOM     15  C   UNL     1      17.395  39.098  45.870  0.00  0.00    +0.000 C 
ATOM     16  C   UNL     1      17.419  38.373  44.541  0.00  0.00    +0.000 C 
BRANCH  13  17
ATOM     17  C   UNL     1      17.083  41.447  46.667  0.00  0.00    +0.000 C 
ATOM     18  O   UNL     1      16.439  42.473  46.838  0.00  0.00    +0.000 OA
ATOM     19  O   UNL     1      18.096  41.112  47.497  0.00  0.00    +0.000 OA
ENDBRANCH  13  17
ENDBRANCH   9  12
ENDBRANCH   7   9
BRANCH   8  20
ATOM     20  N   UNL     1      19.282  43.664  46.164  0.00  0.00    +0.000 N 
ATOM     21  H   UNL     1      18.577  43.378  46.788  0.00  0.00    +0.000 HD
ATOM     22  H   UNL     1      19.425  44.622  45.989  0.00  0.00    +0.000 HD
ENDBRANCH   8  20
TORSDOF 4
ENDMDL
MODEL 8
REMARK VINA RESULT:      -6.5      2.543      5.511
REMARK  Name = 348376
REMARK  5 active torsions:
REMARK  status: ('A' for Active; 'I' for Inactive)
REMARK    1  A    between atoms: C_3  and  C_6
REMARK    2  A    between atoms: C_7  and  S_9
REMARK    3  A    between atoms: C_8  and  N_10
REMARK    4  A    between atoms: S_9  and  N_13
REMARK    5  A    between atoms: C_14  and  C_16
REMARK                            x       y       z     vdW  Elec       q    Type
REMARK                         _______ _______ _______ _____ _____    ______ ____
ROOT
ATOM      1 CL   UNL     1      17.460  37.304  45.437  0.00  0.00    +0.000 Cl
ATOM      2  C   UNL     1      17.573  39.013  45.655  0.00  0.00    +0.000 A 
ATOM      3  C   UNL     1      16.618  39.742  46.372  0.00  0.00    +0.000 A 
ATOM      4  C   UNL     1      18.659  39.663  45.069  0.00  0.00    +0.000 A 
ATOM      5  C   UNL     1      16.773  41.141  46.462  0.00  0.00    +0.000 A 
ATOM      6  C   UNL     1      15.427  39.127  47.051  0.00  0.00    +0.000 C 
ATOM      7  C   UNL     1      18.804  41.055  45.195  0.00  0.00    +0.000 A 
ATOM      8  C   UNL     1      17.873  41.817  45.908  0.00  0.00    +0.000 A 
ENDROOT
BRANCH   7   9
ATOM      9  S   UNL     1      20.233  41.773  44.435  0.00  0.00    +0.000 S 
ATOM     10  O   UNL     1      20.004  41.801  43.007  0.00  0.00    +0.000 OA
ATOM     11  O   UNL     1      20.656  42.960  45.157  0.00  0.00    +0.000 OA
BRANCH   9  12
ATOM     12  N   UNL     1      21.461  40.643  44.725  0.00  0.00    +0.000 NA
ATOM     13  C   UNL     1      22.119  40.535  46.060  0.00  0.00    +0.000 C 
ATOM     14  C   UNL     1      22.501  40.570  43.665  0.00  0.00    +0.000 C 
ATOM     15  C   UNL     1      23.606  40.775  45.786  0.00  0.00    +0.000 C 
ATOM     16  C   UNL     1      23.813  40.279  44.370  0.00  0.00    +0.000 C 
BRANCH  13  17
ATOM     17  C   UNL     1      21.670  41.353  47.257  0.00  0.00    +0.000 C 
ATOM     18  O   UNL     1      20.585  41.195  47.800  0.00  0.00    +0.000 OA
ATOM     19  O   UNL     1      22.555  42.265  47.717  0.00  0.00    +0.000 OA
ENDBRANCH  13  17
ENDBRANCH   9  12
ENDBRANCH   7   9
BRANCH   8  20
ATOM     20  N   UNL     1      17.842  43.217  45.907  0.00  0.00    +0.000 N 
ATOM     21  H   UNL     1      17.672  43.706  46.744  0.00  0.00    +0.000 HD
ATOM     22  H   UNL     1      17.990  43.713  45.069  0.00  0.00    +0.000 HD
ENDBRANCH   8  20
TORSDOF 4
ENDMDL
MODEL 9
REMARK VINA RESULT:      -6.3      3.096      5.862
REMARK  Name = 348376
REMARK  5 active torsions:
REMARK  status: ('A' for Active; 'I' for Inactive)
REMARK    1  A    between atoms: C_3  and  C_6
REMARK    2  A    between atoms: C_7  and  S_9
REMARK    3  A    between atoms: C_8  and  N_10
REMARK    4  A    between atoms: S_9  and  N_13
REMARK    5  A    between atoms: C_14  and  C_16
REMARK                            x       y       z     vdW  Elec       q    Type
REMARK                         _______ _______ _______ _____ _____    ______ ____
ROOT
ATOM      1 CL   UNL     1      16.744  39.466  47.171  0.00  0.00    +0.000 Cl
ATOM      2  C   UNL     1      17.983  40.133  46.170  0.00  0.00    +0.000 A 
ATOM      3  C   UNL     1      17.874  40.184  44.777  0.00  0.00    +0.000 A 
ATOM      4  C   UNL     1      19.127  40.617  46.804  0.00  0.00    +0.000 A 
ATOM      5  C   UNL     1      18.956  40.710  44.040  0.00  0.00    +0.000 A 
ATOM      6  C   UNL     1      16.674  39.703  44.009  0.00  0.00    +0.000 C 
ATOM      7  C   UNL     1      20.180  41.160  46.049  0.00  0.00    +0.000 A 
ATOM      8  C   UNL     1      20.106  41.232  44.654  0.00  0.00    +0.000 A 
ENDROOT
BRANCH   7   9
ATOM      9  S   UNL     1      21.573  41.768  46.956  0.00  0.00    +0.000 S 
ATOM     10  O   UNL     1      22.338  42.617  46.069  0.00  0.00    +0.000 OA
ATOM     11  O   UNL     1      21.168  42.221  48.275  0.00  0.00    +0.000 OA
BRANCH   9  12
ATOM     12  N   UNL     1      22.503  40.385  47.252  0.00  0.00    +0.000 NA
ATOM     13  C   UNL     1      23.773  40.454  48.034  0.00  0.00    +0.000 C 
ATOM     14  C   UNL     1      22.710  39.509  46.069  0.00  0.00    +0.000 C 
ATOM     15  C   UNL     1      24.846  39.906  47.089  0.00  0.00    +0.000 C 
ATOM     16  C   UNL     1      24.104  38.925  46.205  0.00  0.00    +0.000 C 
BRANCH  13  17
ATOM     17  C   UNL     1      24.257  41.735  48.688  0.00  0.00    +0.000 C 
ATOM     18  O   UNL     1      23.860  42.114  49.781  0.00  0.00    +0.000 OA
ATOM     19  O   UNL     1      25.184  42.437  48.000  0.00  0.00    +0.000 OA
ENDBRANCH  13  17
ENDBRANCH   9  12
ENDBRANCH   7   9
BRANCH   8  20
ATOM     20  N   UNL     1      21.186  41.570  43.829  0.00  0.00    +0.000 N 
ATOM     21  H   UNL     1      21.947  40.954  43.736  0.00  0.00    +0.000 HD
ATOM     22  H   UNL     1      21.184  42.426  43.342  0.00  0.00    +0.000 HD
ENDBRANCH   8  20
TORSDOF 4
ENDMDL
