MODEL 1
REMARK VINA RESULT:      -7.5      0.000      0.000
REMARK  Name = 347847
REMARK  4 active torsions:
REMARK  status: ('A' for Active; 'I' for Inactive)
REMARK    1  A    between atoms: C_3  and  O_5
REMARK    2  A    between atoms: C_6  and  S_8
REMARK    3  A    between atoms: S_8  and  N_13
REMARK    4  A    between atoms: C_14  and  C_16
REMARK                            x       y       z     vdW  Elec       q    Type
REMARK                         _______ _______ _______ _____ _____    ______ ____
ROOT
ATOM      1  S   UNL     1      20.719  40.501  44.403  0.00  0.00    +0.000 S 
ATOM      2  O   UNL     1      20.873  39.119  43.992  0.00  0.00    +0.000 OA
ATOM      3  O   UNL     1      20.733  41.544  43.406  0.00  0.00    +0.000 OA
ENDROOT
BRANCH   1   8
ATOM      4 CL   UNL     1      16.695  43.370  46.783  0.00  0.00    +0.000 Cl
ATOM      5  C   UNL     1      17.393  41.860  46.319  0.00  0.00    +0.000 A 
ATOM      6  C   UNL     1      18.687  41.818  45.774  0.00  0.00    +0.000 A 
ATOM      7  C   UNL     1      16.647  40.696  46.481  0.00  0.00    +0.000 A 
ATOM      8  C   UNL     1      19.227  40.597  45.369  0.00  0.00    +0.000 A 
ATOM      9  C   UNL     1      17.204  39.478  46.107  0.00  0.00    +0.000 A 
ATOM     10  C   UNL     1      18.481  39.421  45.545  0.00  0.00    +0.000 A 
ATOM     11 CL   UNL     1      16.293  38.032  46.304  0.00  0.00    +0.000 Cl
BRANCH   6  12
ATOM     12  O   UNL     1      19.410  42.972  45.670  0.00  0.00    +0.000 OA
ATOM     13  H   UNL     1      18.970  43.795  45.591  0.00  0.00    +0.000 HD
ENDBRANCH   6  12
ENDBRANCH   1   8
BRANCH   1  14
ATOM     14  N   UNL     1      21.987  40.826  45.450  0.00  0.00    +0.000 NA
ATOM     15  C   UNL     1      21.843  40.516  46.904  0.00  0.00    +0.000 C 
ATOM     16  C   UNL     1      23.359  40.619  44.979  0.00  0.00    +0.000 C 
ATOM     17  C   UNL     1      22.797  39.384  47.265  0.00  0.00    +0.000 C 
ATOM     18  S   UNL     1      24.133  39.396  46.044  0.00  0.00    +0.000 S 
BRANCH  15  19
ATOM     19  C   UNL     1      22.125  41.777  47.719  0.00  0.00    +0.000 C 
ATOM     20  O   UNL     1      23.212  42.081  48.181  0.00  0.00    +0.000 OA
ATOM     21  O   UNL     1      21.011  42.523  47.938  0.00  0.00    +0.000 OA
ENDBRANCH  15  19
ENDBRANCH   1  14
TORSDOF 4
ENDMDL
MODEL 2
REMARK VINA RESULT:      -7.4      1.574      3.225
REMARK  Name = 347847
REMARK  4 active torsions:
REMARK  status: ('A' for Active; 'I' for Inactive)
REMARK    1  A    between atoms: C_3  and  O_5
REMARK    2  A    between atoms: C_6  and  S_8
REMARK    3  A    between atoms: S_8  and  N_13
REMARK    4  A    between atoms: C_14  and  C_16
REMARK                            x       y       z     vdW  Elec       q    Type
REMARK                         _______ _______ _______ _____ _____    ______ ____
ROOT
ATOM      1  S   UNL     1      20.990  41.784  44.971  0.00  0.00    +0.000 S 
ATOM      2  O   UNL     1      21.139  41.383  43.587  0.00  0.00    +0.000 OA
ATOM      3  O   UNL     1      21.405  43.106  45.376  0.00  0.00    +0.000 OA
ENDROOT
BRANCH   1   8
ATOM      4 CL   UNL     1      16.771  38.464  46.095  0.00  0.00    +0.000 Cl
ATOM      5  C   UNL     1      17.462  40.046  46.021  0.00  0.00    +0.000 A 
ATOM      6  C   UNL     1      18.723  40.239  45.437  0.00  0.00    +0.000 A 
ATOM      7  C   UNL     1      16.752  41.114  46.562  0.00  0.00    +0.000 A 
ATOM      8  C   UNL     1      19.287  41.514  45.415  0.00  0.00    +0.000 A 
ATOM      9  C   UNL     1      17.305  42.390  46.508  0.00  0.00    +0.000 A 
ATOM     10  C   UNL     1      18.567  42.595  45.948  0.00  0.00    +0.000 A 
ATOM     11 CL   UNL     1      16.439  43.719  47.171  0.00  0.00    +0.000 Cl
BRANCH   6  12
ATOM     12  O   UNL     1      19.373  39.177  44.873  0.00  0.00    +0.000 OA
ATOM     13  H   UNL     1      18.883  38.503  44.443  0.00  0.00    +0.000 HD
ENDBRANCH   6  12
ENDBRANCH   1   8
BRANCH   1  14
ATOM     14  N   UNL     1      21.897  40.704  45.877  0.00  0.00    +0.000 NA
ATOM     15  C   UNL     1      23.340  40.497  45.553  0.00  0.00    +0.000 C 
ATOM     16  C   UNL     1      21.638  40.602  47.316  0.00  0.00    +0.000 C 
ATOM     17  C   UNL     1      24.187  41.039  46.697  0.00  0.00    +0.000 C 
ATOM     18  S   UNL     1      23.153  41.029  48.183  0.00  0.00    +0.000 S 
BRANCH  15  19
ATOM     19  C   UNL     1      23.594  39.009  45.313  0.00  0.00    +0.000 C 
ATOM     20  O   UNL     1      24.351  38.316  45.972  0.00  0.00    +0.000 OA
ATOM     21  O   UNL     1      22.926  38.527  44.233  0.00  0.00    +0.000 OA
ENDBRANCH  15  19
ENDBRANCH   1  14
TORSDOF 4
ENDMDL
MODEL 3
REMARK VINA RESULT:      -7.3      1.827      3.086
REMARK  Name = 347847
REMARK  4 active torsions:
REMARK  status: ('A' for Active; 'I' for Inactive)
REMARK    1  A    between atoms: C_3  and  O_5
REMARK    2  A    between atoms: C_6  and  S_8
REMARK    3  A    between atoms: S_8  and  N_13
REMARK    4  A    between atoms: C_14  and  C_16
REMARK                            x       y       z     vdW  Elec       q    Type
REMARK                         _______ _______ _______ _____ _____    ______ ____
ROOT
ATOM      1  S   UNL     1      20.529  42.089  46.529  0.00  0.00    +0.000 S 
ATOM      2  O   UNL     1      21.002  43.192  45.716  0.00  0.00    +0.000 OA
ATOM      3  O   UNL     1      20.428  42.253  47.959  0.00  0.00    +0.000 OA
ENDROOT
BRANCH   1   8
ATOM      4 CL   UNL     1      17.187  41.116  42.290  0.00  0.00    +0.000 Cl
ATOM      5  C   UNL     1      17.531  41.042  43.981  0.00  0.00    +0.000 A 
ATOM      6  C   UNL     1      18.673  41.675  44.497  0.00  0.00    +0.000 A 
ATOM      7  C   UNL     1      16.667  40.336  44.813  0.00  0.00    +0.000 A 
ATOM      8  C   UNL     1      18.961  41.578  45.859  0.00  0.00    +0.000 A 
ATOM      9  C   UNL     1      16.940  40.272  46.175  0.00  0.00    +0.000 A 
ATOM     10  C   UNL     1      18.083  40.879  46.701  0.00  0.00    +0.000 A 
ATOM     11 CL   UNL     1      15.880  39.404  47.214  0.00  0.00    +0.000 Cl
BRANCH   6  12
ATOM     12  O   UNL     1      19.476  42.398  43.662  0.00  0.00    +0.000 OA
ATOM     13  H   UNL     1      20.396  42.459  43.833  0.00  0.00    +0.000 HD
ENDBRANCH   6  12
ENDBRANCH   1   8
BRANCH   1  14
ATOM     14  N   UNL     1      21.594  40.820  46.270  0.00  0.00    +0.000 NA
ATOM     15  C   UNL     1      22.557  40.885  45.131  0.00  0.00    +0.000 C 
ATOM     16  C   UNL     1      22.166  40.134  47.433  0.00  0.00    +0.000 C 
ATOM     17  C   UNL     1      23.972  41.000  45.684  0.00  0.00    +0.000 C 
ATOM     18  S   UNL     1      23.952  40.312  47.358  0.00  0.00    +0.000 S 
BRANCH  15  19
ATOM     19  C   UNL     1      22.388  39.643  44.257  0.00  0.00    +0.000 C 
ATOM     20  O   UNL     1      23.117  38.665  44.287  0.00  0.00    +0.000 OA
ATOM     21  O   UNL     1      21.358  39.753  43.378  0.00  0.00    +0.000 OA
ENDBRANCH  15  19
ENDBRANCH   1  14
TORSDOF 4
ENDMDL
MODEL 4
REMARK VINA RESULT:      -7.3      3.193      5.712
REMARK  Name = 347847
REMARK  4 active torsions:
REMARK  status: ('A' for Active; 'I' for Inactive)
REMARK    1  A    between atoms: C_3  and  O_5
REMARK    2  A    between atoms: C_6  and  S_8
REMARK    3  A    between atoms: S_8  and  N_13
REMARK    4  A    between atoms: C_14  and  C_16
REMARK                            x       y       z     vdW  Elec       q    Type
REMARK                         _______ _______ _______ _____ _____    ______ ____
ROOT
ATOM      1  S   UNL     1      20.776  42.119  45.213  0.00  0.00    +0.000 S 
ATOM      2  O   UNL     1      20.961  43.535  45.462  0.00  0.00    +0.000 OA
ATOM      3  O   UNL     1      20.900  41.612  43.867  0.00  0.00    +0.000 OA
ENDROOT
BRANCH   1   8
ATOM      4 CL   UNL     1      24.308  38.050  46.241  0.00  0.00    +0.000 Cl
ATOM      5  C   UNL     1      23.527  39.518  46.710  0.00  0.00    +0.000 A 
ATOM      6  C   UNL     1      22.483  40.042  45.932  0.00  0.00    +0.000 A 
ATOM      7  C   UNL     1      23.962  40.173  47.859  0.00  0.00    +0.000 A 
ATOM      8  C   UNL     1      21.885  41.247  46.300  0.00  0.00    +0.000 A 
ATOM      9  C   UNL     1      23.338  41.356  48.240  0.00  0.00    +0.000 A 
ATOM     10  C   UNL     1      22.312  41.901  47.466  0.00  0.00    +0.000 A 
ATOM     11 CL   UNL     1      23.864  42.175  49.658  0.00  0.00    +0.000 Cl
BRANCH   6  12
ATOM     12  O   UNL     1      22.050  39.351  44.836  0.00  0.00    +0.000 OA
ATOM     13  H   UNL     1      21.220  38.916  44.855  0.00  0.00    +0.000 HD
ENDBRANCH   6  12
ENDBRANCH   1   8
BRANCH   1  14
ATOM     14  N   UNL     1      19.221  41.748  45.719  0.00  0.00    +0.000 NA
ATOM     15  C   UNL     1      18.091  41.824  44.747  0.00  0.00    +0.000 C 
ATOM     16  C   UNL     1      19.037  40.666  46.691  0.00  0.00    +0.000 C 
ATOM     17  C   UNL     1      17.560  40.419  44.494  0.00  0.00    +0.000 C 
ATOM     18  S   UNL     1      17.998  39.412  45.933  0.00  0.00    +0.000 S 
BRANCH  15  19
ATOM     19  C   UNL     1      17.009  42.749  45.304  0.00  0.00    +0.000 C 
ATOM     20  O   UNL     1      16.501  42.643  46.408  0.00  0.00    +0.000 OA
ATOM     21  O   UNL     1      16.610  43.692  44.411  0.00  0.00    +0.000 OA
ENDBRANCH  15  19
ENDBRANCH   1  14
TORSDOF 4
ENDMDL
MODEL 5
REMARK VINA RESULT:      -7.3      3.136      5.624
REMARK  Name = 347847
REMARK  4 active torsions:
REMARK  status: ('A' for Active; 'I' for Inactive)
REMARK    1  A    between atoms: C_3  and  O_5
REMARK    2  A    between atoms: C_6  and  S_8
REMARK    3  A    between atoms: S_8  and  N_13
REMARK    4  A    between atoms: C_14  and  C_16
REMARK                            x       y       z     vdW  Elec       q    Type
REMARK                         _______ _______ _______ _____ _____    ______ ____
ROOT
ATOM      1  S   UNL     1      20.606  41.654  44.501  0.00  0.00    +0.000 S 
ATOM      2  O   UNL     1      20.382  43.041  44.854  0.00  0.00    +0.000 OA
ATOM      3  O   UNL     1      21.072  41.325  43.175  0.00  0.00    +0.000 OA
ENDROOT
BRANCH   1   8
ATOM      4 CL   UNL     1      24.441  38.056  46.062  0.00  0.00    +0.000 Cl
ATOM      5  C   UNL     1      23.479  39.458  46.371  0.00  0.00    +0.000 A 
ATOM      6  C   UNL     1      22.453  39.819  45.484  0.00  0.00    +0.000 A 
ATOM      7  C   UNL     1      23.750  40.223  47.502  0.00  0.00    +0.000 A 
ATOM      8  C   UNL     1      21.706  40.973  45.724  0.00  0.00    +0.000 A 
ATOM      9  C   UNL     1      22.980  41.354  47.754  0.00  0.00    +0.000 A 
ATOM     10  C   UNL     1      21.969  41.738  46.871  0.00  0.00    +0.000 A 
ATOM     11 CL   UNL     1      23.303  42.308  49.148  0.00  0.00    +0.000 Cl
BRANCH   6  12
ATOM     12  O   UNL     1      22.182  39.021  44.408  0.00  0.00    +0.000 OA
ATOM     13  H   UNL     1      21.334  39.045  44.009  0.00  0.00    +0.000 HD
ENDBRANCH   6  12
ENDBRANCH   1   8
BRANCH   1  14
ATOM     14  N   UNL     1      19.135  40.873  44.695  0.00  0.00    +0.000 NA
ATOM     15  C   UNL     1      18.009  41.578  45.377  0.00  0.00    +0.000 C 
ATOM     16  C   UNL     1      18.661  39.990  43.626  0.00  0.00    +0.000 C 
ATOM     17  C   UNL     1      16.905  41.846  44.362  0.00  0.00    +0.000 C 
ATOM     18  S   UNL     1      17.090  40.629  43.034  0.00  0.00    +0.000 S 
BRANCH  15  19
ATOM     19  C   UNL     1      17.513  40.725  46.544  0.00  0.00    +0.000 C 
ATOM     20  O   UNL     1      16.344  40.449  46.758  0.00  0.00    +0.000 OA
ATOM     21  O   UNL     1      18.514  40.340  47.378  0.00  0.00    +0.000 OA
ENDBRANCH  15  19
ENDBRANCH   1  14
TORSDOF 4
ENDMDL
MODEL 6
REMARK VINA RESULT:      -7.3      1.776      3.181
REMARK  Name = 347847
REMARK  4 active torsions:
REMARK  status: ('A' for Active; 'I' for Inactive)
REMARK    1  A    between atoms: C_3  and  O_5
REMARK    2  A    between atoms: C_6  and  S_8
REMARK    3  A    between atoms: S_8  and  N_13
REMARK    4  A    between atoms: C_14  and  C_16
REMARK                            x       y       z     vdW  Elec       q    Type
REMARK                         _______ _______ _______ _____ _____    ______ ____
ROOT
ATOM      1  S   UNL     1      20.669  40.460  44.199  0.00  0.00    +0.000 S 
ATOM      2  O   UNL     1      20.889  39.304  43.354  0.00  0.00    +0.000 OA
ATOM      3  O   UNL     1      20.926  41.781  43.677  0.00  0.00    +0.000 OA
ENDROOT
BRANCH   1   8
ATOM      4 CL   UNL     1      16.310  37.562  45.839  0.00  0.00    +0.000 Cl
ATOM      5  C   UNL     1      17.121  39.074  45.636  0.00  0.00    +0.000 A 
ATOM      6  C   UNL     1      18.335  39.136  44.933  0.00  0.00    +0.000 A 
ATOM      7  C   UNL     1      16.559  40.218  46.195  0.00  0.00    +0.000 A 
ATOM      8  C   UNL     1      18.999  40.355  44.807  0.00  0.00    +0.000 A 
ATOM      9  C   UNL     1      17.209  41.438  46.036  0.00  0.00    +0.000 A 
ATOM     10  C   UNL     1      18.426  41.513  45.356  0.00  0.00    +0.000 A 
ATOM     11 CL   UNL     1      16.523  42.860  46.719  0.00  0.00    +0.000 Cl
BRANCH   6  12
ATOM     12  O   UNL     1      18.837  38.002  44.358  0.00  0.00    +0.000 OA
ATOM     13  H   UNL     1      18.285  37.254  44.237  0.00  0.00    +0.000 HD
ENDBRANCH   6  12
ENDBRANCH   1   8
BRANCH   1  14
ATOM     14  N   UNL     1      21.673  40.272  45.529  0.00  0.00    +0.000 NA
ATOM     15  C   UNL     1      23.073  40.790  45.477  0.00  0.00    +0.000 C 
ATOM     16  C   UNL     1      21.094  40.392  46.870  0.00  0.00    +0.000 C 
ATOM     17  C   UNL     1      23.208  41.950  46.455  0.00  0.00    +0.000 C 
ATOM     18  S   UNL     1      21.923  41.746  47.713  0.00  0.00    +0.000 S 
BRANCH  15  19
ATOM     19  C   UNL     1      24.043  39.656  45.803  0.00  0.00    +0.000 C 
ATOM     20  O   UNL     1      23.767  38.468  45.761  0.00  0.00    +0.000 OA
ATOM     21  O   UNL     1      25.258  40.103  46.214  0.00  0.00    +0.000 OA
ENDBRANCH  15  19
ENDBRANCH   1  14
TORSDOF 4
ENDMDL
MODEL 7
REMARK VINA RESULT:      -7.2      1.530      2.195
REMARK  Name = 347847
REMARK  4 active torsions:
REMARK  status: ('A' for Active; 'I' for Inactive)
REMARK    1  A    between atoms: C_3  and  O_5
REMARK    2  A    between atoms: C_6  and  S_8
REMARK    3  A    between atoms: S_8  and  N_13
REMARK    4  A    between atoms: C_14  and  C_16
REMARK                            x       y       z     vdW  Elec       q    Type
REMARK                         _______ _______ _______ _____ _____    ______ ____
ROOT
ATOM      1  S   UNL     1      20.715  40.509  44.674  0.00  0.00    +0.000 S 
ATOM      2  O   UNL     1      20.682  39.288  43.895  0.00  0.00    +0.000 OA
ATOM      3  O   UNL     1      21.019  41.760  44.021  0.00  0.00    +0.000 OA
ENDROOT
BRANCH   1   8
ATOM      4 CL   UNL     1      16.638  43.442  46.880  0.00  0.00    +0.000 Cl
ATOM      5  C   UNL     1      17.309  41.925  46.398  0.00  0.00    +0.000 A 
ATOM      6  C   UNL     1      18.638  41.851  45.950  0.00  0.00    +0.000 A 
ATOM      7  C   UNL     1      16.507  40.788  46.449  0.00  0.00    +0.000 A 
ATOM      8  C   UNL     1      19.158  40.627  45.530  0.00  0.00    +0.000 A 
ATOM      9  C   UNL     1      17.042  39.565  46.060  0.00  0.00    +0.000 A 
ATOM     10  C   UNL     1      18.355  39.477  45.594  0.00  0.00    +0.000 A 
ATOM     11 CL   UNL     1      16.062  38.153  46.120  0.00  0.00    +0.000 Cl
BRANCH   6  12
ATOM     12  O   UNL     1      19.413  42.976  45.956  0.00  0.00    +0.000 OA
ATOM     13  H   UNL     1      20.272  42.951  46.330  0.00  0.00    +0.000 HD
ENDBRANCH   6  12
ENDBRANCH   1   8
BRANCH   1  14
ATOM     14  N   UNL     1      21.890  40.289  45.850  0.00  0.00    +0.000 NA
ATOM     15  C   UNL     1      23.282  40.770  45.602  0.00  0.00    +0.000 C 
ATOM     16  C   UNL     1      21.508  40.419  47.259  0.00  0.00    +0.000 C 
ATOM     17  C   UNL     1      23.585  41.922  46.551  0.00  0.00    +0.000 C 
ATOM     18  S   UNL     1      22.483  41.747  47.977  0.00  0.00    +0.000 S 
BRANCH  15  19
ATOM     19  C   UNL     1      24.257  39.608  45.789  0.00  0.00    +0.000 C 
ATOM     20  O   UNL     1      23.961  38.428  45.701  0.00  0.00    +0.000 OA
ATOM     21  O   UNL     1      25.506  40.018  46.130  0.00  0.00    +0.000 OA
ENDBRANCH  15  19
ENDBRANCH   1  14
TORSDOF 4
ENDMDL
MODEL 8
REMARK VINA RESULT:      -7.1      2.953      5.158
REMARK  Name = 347847
REMARK  4 active torsions:
REMARK  status: ('A' for Active; 'I' for Inactive)
REMARK    1  A    between atoms: C_3  and  O_5
REMARK    2  A    between atoms: C_6  and  S_8
REMARK    3  A    between atoms: S_8  and  N_13
REMARK    4  A    between atoms: C_14  and  C_16
REMARK                            x       y       z     vdW  Elec       q    Type
REMARK                         _______ _______ _______ _____ _____    ______ ____
ROOT
ATOM      1  S   UNL     1      20.428  41.040  44.472  0.00  0.00    +0.000 S 
ATOM      2  O   UNL     1      20.575  42.335  43.838  0.00  0.00    +0.000 OA
ATOM      3  O   UNL     1      20.209  39.871  43.655  0.00  0.00    +0.000 OA
ENDROOT
BRANCH   1   8
ATOM      4 CL   UNL     1      23.360  42.189  48.963  0.00  0.00    +0.000 Cl
ATOM      5  C   UNL     1      23.082  41.231  47.553  0.00  0.00    +0.000 A 
ATOM      6  C   UNL     1      22.092  41.603  46.630  0.00  0.00    +0.000 A 
ATOM      7  C   UNL     1      23.844  40.082  47.361  0.00  0.00    +0.000 A 
ATOM      8  C   UNL     1      21.852  40.802  45.514  0.00  0.00    +0.000 A 
ATOM      9  C   UNL     1      23.623  39.305  46.228  0.00  0.00    +0.000 A 
ATOM     10  C   UNL     1      22.629  39.651  45.311  0.00  0.00    +0.000 A 
ATOM     11 CL   UNL     1      24.559  37.884  45.977  0.00  0.00    +0.000 Cl
BRANCH   6  12
ATOM     12  O   UNL     1      21.393  42.760  46.825  0.00  0.00    +0.000 OA
ATOM     13  H   UNL     1      20.458  42.738  46.886  0.00  0.00    +0.000 HD
ENDBRANCH   6  12
ENDBRANCH   1   8
BRANCH   1  14
ATOM     14  N   UNL     1      19.104  41.162  45.493  0.00  0.00    +0.000 NA
ATOM     15  C   UNL     1      17.965  42.054  45.124  0.00  0.00    +0.000 C 
ATOM     16  C   UNL     1      18.652  39.962  46.203  0.00  0.00    +0.000 C 
ATOM     17  C   UNL     1      16.740  41.198  44.830  0.00  0.00    +0.000 C 
ATOM     18  S   UNL     1      16.957  39.630  45.708  0.00  0.00    +0.000 S 
BRANCH  15  19
ATOM     19  C   UNL     1      17.709  43.041  46.262  0.00  0.00    +0.000 C 
ATOM     20  O   UNL     1      16.637  43.194  46.824  0.00  0.00    +0.000 OA
ATOM     21  O   UNL     1      18.798  43.796  46.561  0.00  0.00    +0.000 OA
ENDBRANCH  15  19
ENDBRANCH   1  14
TORSDOF 4
ENDMDL
MODEL 9
REMARK VINA RESULT:      -7.0      1.605      3.515
REMARK  Name = 347847
REMARK  4 active torsions:
REMARK  status: ('A' for Active; 'I' for Inactive)
REMARK    1  A    between atoms: C_3  and  O_5
REMARK    2  A    between atoms: C_6  and  S_8
REMARK    3  A    between atoms: S_8  and  N_13
REMARK    4  A    between atoms: C_14  and  C_16
REMARK                            x       y       z     vdW  Elec       q    Type
REMARK                         _______ _______ _______ _____ _____    ______ ____
ROOT
ATOM      1  S   UNL     1      21.012  42.168  46.604  0.00  0.00    +0.000 S 
ATOM      2  O   UNL     1      21.521  43.242  45.773  0.00  0.00    +0.000 OA
ATOM      3  O   UNL     1      21.059  42.299  48.041  0.00  0.00    +0.000 OA
ENDROOT
BRANCH   1   8
ATOM      4 CL   UNL     1      16.389  39.222  46.789  0.00  0.00    +0.000 Cl
ATOM      5  C   UNL     1      17.271  40.604  46.244  0.00  0.00    +0.000 A 
ATOM      6  C   UNL     1      18.650  40.702  46.485  0.00  0.00    +0.000 A 
ATOM      7  C   UNL     1      16.587  41.618  45.578  0.00  0.00    +0.000 A 
ATOM      8  C   UNL     1      19.346  41.839  46.073  0.00  0.00    +0.000 A 
ATOM      9  C   UNL     1      17.292  42.734  45.139  0.00  0.00    +0.000 A 
ATOM     10  C   UNL     1      18.661  42.855  45.389  0.00  0.00    +0.000 A 
ATOM     11 CL   UNL     1      16.460  43.993  44.314  0.00  0.00    +0.000 Cl
BRANCH   6  12
ATOM     12  O   UNL     1      19.300  39.670  47.101  0.00  0.00    +0.000 OA
ATOM     13  H   UNL     1      19.943  39.847  47.760  0.00  0.00    +0.000 HD
ENDBRANCH   6  12
ENDBRANCH   1   8
BRANCH   1  14
ATOM     14  N   UNL     1      21.913  40.807  46.221  0.00  0.00    +0.000 NA
ATOM     15  C   UNL     1      22.666  40.758  44.932  0.00  0.00    +0.000 C 
ATOM     16  C   UNL     1      22.622  40.108  47.296  0.00  0.00    +0.000 C 
ATOM     17  C   UNL     1      24.160  40.768  45.231  0.00  0.00    +0.000 C 
ATOM     18  S   UNL     1      24.376  40.130  46.911  0.00  0.00    +0.000 S 
BRANCH  15  19
ATOM     19  C   UNL     1      22.251  39.511  44.153  0.00  0.00    +0.000 C 
ATOM     20  O   UNL     1      22.893  38.476  44.099  0.00  0.00    +0.000 OA
ATOM     21  O   UNL     1      21.096  39.684  43.458  0.00  0.00    +0.000 OA
ENDBRANCH  15  19
ENDBRANCH   1  14
TORSDOF 4
ENDMDL
