MODEL 1
REMARK VINA RESULT:      -7.9      0.000      0.000
REMARK  Name = 348320
REMARK  5 active torsions:
REMARK  status: ('A' for Active; 'I' for Inactive)
REMARK    1  A    between atoms: C_3  and  C_6
REMARK    2  A    between atoms: C_7  and  N_9
REMARK    3  A    between atoms: C_8  and  S_10
REMARK    4  A    between atoms: S_10  and  N_13
REMARK    5  A    between atoms: C_14  and  C_16
REMARK                            x       y       z     vdW  Elec       q    Type
REMARK                         _______ _______ _______ _____ _____    ______ ____
ROOT
ATOM      1 CL   UNL     1      24.628  41.095  47.946  0.00  0.00    +0.000 Cl
ATOM      2  C   UNL     1      23.362  41.045  46.774  0.00  0.00    +0.000 A 
ATOM      3  C   UNL     1      23.198  39.971  45.891  0.00  0.00    +0.000 A 
ATOM      4  C   UNL     1      22.460  42.123  46.754  0.00  0.00    +0.000 A 
ATOM      5  C   UNL     1      22.131  40.021  44.976  0.00  0.00    +0.000 A 
ATOM      6  C   UNL     1      24.066  38.742  45.901  0.00  0.00    +0.000 C 
ATOM      7  C   UNL     1      21.338  42.122  45.912  0.00  0.00    +0.000 A 
ATOM      8  C   UNL     1      21.209  41.084  44.981  0.00  0.00    +0.000 A 
ENDROOT
BRANCH   7   9
ATOM      9  N   UNL     1      20.522  43.268  45.916  0.00  0.00    +0.000 N 
ATOM     10  H   UNL     1      20.786  44.059  46.441  0.00  0.00    +0.000 HD
ATOM     11  H   UNL     1      19.689  43.280  45.393  0.00  0.00    +0.000 HD
ENDBRANCH   7   9
BRANCH   8  12
ATOM     12  S   UNL     1      19.714  40.879  44.034  0.00  0.00    +0.000 S 
ATOM     13  O   UNL     1      19.461  42.126  43.343  0.00  0.00    +0.000 OA
ATOM     14  O   UNL     1      19.822  39.651  43.272  0.00  0.00    +0.000 OA
BRANCH  12  15
ATOM     15  N   UNL     1      18.452  40.634  45.089  0.00  0.00    +0.000 NA
ATOM     16  C   UNL     1      17.203  41.417  45.129  0.00  0.00    +0.000 C 
ATOM     17  C   UNL     1      18.171  39.283  45.614  0.00  0.00    +0.000 C 
ATOM     18  C   UNL     1      16.663  40.962  46.492  0.00  0.00    +0.000 C 
ATOM     19  C   UNL     1      16.938  39.466  46.503  0.00  0.00    +0.000 C 
BRANCH  16  20
ATOM     20  C   UNL     1      17.176  42.925  45.111  0.00  0.00    +0.000 C 
ATOM     21  O   UNL     1      16.652  43.566  44.206  0.00  0.00    +0.000 OA
ATOM     22  O   UNL     1      17.658  43.532  46.214  0.00  0.00    +0.000 OA
ENDBRANCH  16  20
ENDBRANCH  12  15
ENDBRANCH   8  12
TORSDOF 4
ENDMDL
MODEL 2
REMARK VINA RESULT:      -7.8      1.891      3.426
REMARK  Name = 348320
REMARK  5 active torsions:
REMARK  status: ('A' for Active; 'I' for Inactive)
REMARK    1  A    between atoms: C_3  and  C_6
REMARK    2  A    between atoms: C_7  and  N_9
REMARK    3  A    between atoms: C_8  and  S_10
REMARK    4  A    between atoms: S_10  and  N_13
REMARK    5  A    between atoms: C_14  and  C_16
REMARK                            x       y       z     vdW  Elec       q    Type
REMARK                         _______ _______ _______ _____ _____    ______ ____
ROOT
ATOM      1 CL   UNL     1      24.499  40.611  45.674  0.00  0.00    +0.000 Cl
ATOM      2  C   UNL     1      22.792  40.608  45.425  0.00  0.00    +0.000 A 
ATOM      3  C   UNL     1      21.898  41.170  46.345  0.00  0.00    +0.000 A 
ATOM      4  C   UNL     1      22.316  40.044  44.229  0.00  0.00    +0.000 A 
ATOM      5  C   UNL     1      20.524  41.125  46.047  0.00  0.00    +0.000 A 
ATOM      6  C   UNL     1      22.327  41.867  47.607  0.00  0.00    +0.000 C 
ATOM      7  C   UNL     1      20.957  40.092  43.887  0.00  0.00    +0.000 A 
ATOM      8  C   UNL     1      20.052  40.591  44.834  0.00  0.00    +0.000 A 
ENDROOT
BRANCH   7   9
ATOM      9  N   UNL     1      20.561  39.450  42.699  0.00  0.00    +0.000 N 
ATOM     10  H   UNL     1      21.242  39.114  42.072  0.00  0.00    +0.000 HD
ATOM     11  H   UNL     1      19.605  39.337  42.497  0.00  0.00    +0.000 HD
ENDBRANCH   7   9
BRANCH   8  12
ATOM     12  S   UNL     1      18.351  40.898  44.407  0.00  0.00    +0.000 S 
ATOM     13  O   UNL     1      18.073  42.290  44.695  0.00  0.00    +0.000 OA
ATOM     14  O   UNL     1      18.117  40.387  43.071  0.00  0.00    +0.000 OA
BRANCH  12  15
ATOM     15  N   UNL     1      17.383  39.986  45.405  0.00  0.00    +0.000 NA
ATOM     16  C   UNL     1      17.580  38.559  45.720  0.00  0.00    +0.000 C 
ATOM     17  C   UNL     1      16.670  40.617  46.532  0.00  0.00    +0.000 C 
ATOM     18  C   UNL     1      16.212  38.247  46.344  0.00  0.00    +0.000 C 
ATOM     19  C   UNL     1      15.932  39.462  47.215  0.00  0.00    +0.000 C 
BRANCH  16  20
ATOM     20  C   UNL     1      17.848  37.512  44.668  0.00  0.00    +0.000 C 
ATOM     21  O   UNL     1      18.829  37.548  43.935  0.00  0.00    +0.000 OA
ATOM     22  O   UNL     1      17.002  36.461  44.660  0.00  0.00    +0.000 OA
ENDBRANCH  16  20
ENDBRANCH  12  15
ENDBRANCH   8  12
TORSDOF 4
ENDMDL
MODEL 3
REMARK VINA RESULT:      -7.8      2.818      5.680
REMARK  Name = 348320
REMARK  5 active torsions:
REMARK  status: ('A' for Active; 'I' for Inactive)
REMARK    1  A    between atoms: C_3  and  C_6
REMARK    2  A    between atoms: C_7  and  N_9
REMARK    3  A    between atoms: C_8  and  S_10
REMARK    4  A    between atoms: S_10  and  N_13
REMARK    5  A    between atoms: C_14  and  C_16
REMARK                            x       y       z     vdW  Elec       q    Type
REMARK                         _______ _______ _______ _____ _____    ______ ____
ROOT
ATOM      1 CL   UNL     1      16.439  36.574  45.469  0.00  0.00    +0.000 Cl
ATOM      2  C   UNL     1      17.262  38.077  45.261  0.00  0.00    +0.000 A 
ATOM      3  C   UNL     1      17.030  39.181  46.090  0.00  0.00    +0.000 A 
ATOM      4  C   UNL     1      18.219  38.151  44.235  0.00  0.00    +0.000 A 
ATOM      5  C   UNL     1      17.757  40.361  45.843  0.00  0.00    +0.000 A 
ATOM      6  C   UNL     1      16.087  39.163  47.261  0.00  0.00    +0.000 C 
ATOM      7  C   UNL     1      19.015  39.291  44.056  0.00  0.00    +0.000 A 
ATOM      8  C   UNL     1      18.738  40.421  44.837  0.00  0.00    +0.000 A 
ENDROOT
BRANCH   7   9
ATOM      9  N   UNL     1      19.905  39.300  42.967  0.00  0.00    +0.000 N 
ATOM     10  H   UNL     1      19.656  39.758  42.131  0.00  0.00    +0.000 HD
ATOM     11  H   UNL     1      20.776  38.848  43.040  0.00  0.00    +0.000 HD
ENDBRANCH   7   9
BRANCH   8  12
ATOM     12  S   UNL     1      19.832  41.826  44.840  0.00  0.00    +0.000 S 
ATOM     13  O   UNL     1      20.498  41.864  43.555  0.00  0.00    +0.000 OA
ATOM     14  O   UNL     1      19.085  42.985  45.289  0.00  0.00    +0.000 OA
BRANCH  12  15
ATOM     15  N   UNL     1      21.002  41.581  45.996  0.00  0.00    +0.000 NA
ATOM     16  C   UNL     1      22.430  41.328  45.731  0.00  0.00    +0.000 C 
ATOM     17  C   UNL     1      20.881  42.212  47.325  0.00  0.00    +0.000 C 
ATOM     18  C   UNL     1      22.862  40.835  47.119  0.00  0.00    +0.000 C 
ATOM     19  C   UNL     1      22.146  41.781  48.072  0.00  0.00    +0.000 C 
BRANCH  16  20
ATOM     20  C   UNL     1      22.914  40.318  44.720  0.00  0.00    +0.000 C 
ATOM     21  O   UNL     1      22.322  39.267  44.501  0.00  0.00    +0.000 OA
ATOM     22  O   UNL     1      23.978  40.693  43.982  0.00  0.00    +0.000 OA
ENDBRANCH  16  20
ENDBRANCH  12  15
ENDBRANCH   8  12
TORSDOF 4
ENDMDL
MODEL 4
REMARK VINA RESULT:      -7.8      1.879      2.928
REMARK  Name = 348320
REMARK  5 active torsions:
REMARK  status: ('A' for Active; 'I' for Inactive)
REMARK    1  A    between atoms: C_3  and  C_6
REMARK    2  A    between atoms: C_7  and  N_9
REMARK    3  A    between atoms: C_8  and  S_10
REMARK    4  A    between atoms: S_10  and  N_13
REMARK    5  A    between atoms: C_14  and  C_16
REMARK                            x       y       z     vdW  Elec       q    Type
REMARK                         _______ _______ _______ _____ _____    ______ ____
ROOT
ATOM      1 CL   UNL     1      24.591  37.959  46.026  0.00  0.00    +0.000 Cl
ATOM      2  C   UNL     1      23.340  39.115  45.747  0.00  0.00    +0.000 A 
ATOM      3  C   UNL     1      23.030  40.123  46.668  0.00  0.00    +0.000 A 
ATOM      4  C   UNL     1      22.649  39.034  44.526  0.00  0.00    +0.000 A 
ATOM      5  C   UNL     1      21.997  41.022  46.345  0.00  0.00    +0.000 A 
ATOM      6  C   UNL     1      23.773  40.333  47.959  0.00  0.00    +0.000 C 
ATOM      7  C   UNL     1      21.692  39.992  44.162  0.00  0.00    +0.000 A 
ATOM      8  C   UNL     1      21.330  40.960  45.108  0.00  0.00    +0.000 A 
ENDROOT
BRANCH   7   9
ATOM      9  N   UNL     1      21.008  39.799  42.948  0.00  0.00    +0.000 N 
ATOM     10  H   UNL     1      21.422  40.080  42.100  0.00  0.00    +0.000 HD
ATOM     11  H   UNL     1      20.116  39.383  42.947  0.00  0.00    +0.000 HD
ENDBRANCH   7   9
BRANCH   8  12
ATOM     12  S   UNL     1      20.299  42.342  44.660  0.00  0.00    +0.000 S 
ATOM     13  O   UNL     1      20.825  43.514  45.329  0.00  0.00    +0.000 OA
ATOM     14  O   UNL     1      20.151  42.351  43.218  0.00  0.00    +0.000 OA
BRANCH  12  15
ATOM     15  N   UNL     1      18.771  42.075  45.259  0.00  0.00    +0.000 NA
ATOM     16  C   UNL     1      18.103  40.765  45.354  0.00  0.00    +0.000 C 
ATOM     17  C   UNL     1      18.218  42.957  46.306  0.00  0.00    +0.000 C 
ATOM     18  C   UNL     1      16.664  41.233  45.616  0.00  0.00    +0.000 C 
ATOM     19  C   UNL     1      16.835  42.373  46.608  0.00  0.00    +0.000 C 
BRANCH  16  20
ATOM     20  C   UNL     1      18.059  39.778  44.214  0.00  0.00    +0.000 C 
ATOM     21  O   UNL     1      17.741  40.099  43.075  0.00  0.00    +0.000 OA
ATOM     22  O   UNL     1      18.508  38.538  44.496  0.00  0.00    +0.000 OA
ENDBRANCH  16  20
ENDBRANCH  12  15
ENDBRANCH   8  12
TORSDOF 4
ENDMDL
MODEL 5
REMARK VINA RESULT:      -7.7      1.857      2.798
REMARK  Name = 348320
REMARK  5 active torsions:
REMARK  status: ('A' for Active; 'I' for Inactive)
REMARK    1  A    between atoms: C_3  and  C_6
REMARK    2  A    between atoms: C_7  and  N_9
REMARK    3  A    between atoms: C_8  and  S_10
REMARK    4  A    between atoms: S_10  and  N_13
REMARK    5  A    between atoms: C_14  and  C_16
REMARK                            x       y       z     vdW  Elec       q    Type
REMARK                         _______ _______ _______ _____ _____    ______ ____
ROOT
ATOM      1 CL   UNL     1      24.928  40.269  45.566  0.00  0.00    +0.000 Cl
ATOM      2  C   UNL     1      23.237  40.541  45.778  0.00  0.00    +0.000 A 
ATOM      3  C   UNL     1      22.597  40.363  47.010  0.00  0.00    +0.000 A 
ATOM      4  C   UNL     1      22.512  40.991  44.662  0.00  0.00    +0.000 A 
ATOM      5  C   UNL     1      21.215  40.618  47.083  0.00  0.00    +0.000 A 
ATOM      6  C   UNL     1      23.311  39.966  48.273  0.00  0.00    +0.000 C 
ATOM      7  C   UNL     1      21.158  41.343  44.761  0.00  0.00    +0.000 A 
ATOM      8  C   UNL     1      20.498  41.100  45.973  0.00  0.00    +0.000 A 
ENDROOT
BRANCH   7   9
ATOM      9  N   UNL     1      20.496  41.726  43.580  0.00  0.00    +0.000 N 
ATOM     10  H   UNL     1      19.581  42.087  43.624  0.00  0.00    +0.000 HD
ATOM     11  H   UNL     1      20.948  41.633  42.712  0.00  0.00    +0.000 HD
ENDBRANCH   7   9
BRANCH   8  12
ATOM     12  S   UNL     1      18.853  41.718  46.264  0.00  0.00    +0.000 S 
ATOM     13  O   UNL     1      18.819  42.255  47.608  0.00  0.00    +0.000 OA
ATOM     14  O   UNL     1      18.482  42.567  45.148  0.00  0.00    +0.000 OA
BRANCH  12  15
ATOM     15  N   UNL     1      17.793  40.439  46.216  0.00  0.00    +0.000 NA
ATOM     16  C   UNL     1      17.792  39.361  45.209  0.00  0.00    +0.000 C 
ATOM     17  C   UNL     1      17.207  39.910  47.463  0.00  0.00    +0.000 C 
ATOM     18  C   UNL     1      16.411  38.752  45.490  0.00  0.00    +0.000 C 
ATOM     19  C   UNL     1      16.330  38.739  47.010  0.00  0.00    +0.000 C 
BRANCH  16  20
ATOM     20  C   UNL     1      17.880  39.620  43.725  0.00  0.00    +0.000 C 
ATOM     21  O   UNL     1      18.883  39.367  43.069  0.00  0.00    +0.000 OA
ATOM     22  O   UNL     1      16.741  40.039  43.137  0.00  0.00    +0.000 OA
ENDBRANCH  16  20
ENDBRANCH  12  15
ENDBRANCH   8  12
TORSDOF 4
ENDMDL
MODEL 6
REMARK VINA RESULT:      -7.7      1.883      3.309
REMARK  Name = 348320
REMARK  5 active torsions:
REMARK  status: ('A' for Active; 'I' for Inactive)
REMARK    1  A    between atoms: C_3  and  C_6
REMARK    2  A    between atoms: C_7  and  N_9
REMARK    3  A    between atoms: C_8  and  S_10
REMARK    4  A    between atoms: S_10  and  N_13
REMARK    5  A    between atoms: C_14  and  C_16
REMARK                            x       y       z     vdW  Elec       q    Type
REMARK                         _______ _______ _______ _____ _____    ______ ____
ROOT
ATOM      1 CL   UNL     1      25.083  40.012  45.696  0.00  0.00    +0.000 Cl
ATOM      2  C   UNL     1      23.408  40.372  45.897  0.00  0.00    +0.000 A 
ATOM      3  C   UNL     1      22.794  40.411  47.155  0.00  0.00    +0.000 A 
ATOM      4  C   UNL     1      22.668  40.664  44.739  0.00  0.00    +0.000 A 
ATOM      5  C   UNL     1      21.423  40.720  47.216  0.00  0.00    +0.000 A 
ATOM      6  C   UNL     1      23.529  40.193  48.450  0.00  0.00    +0.000 C 
ATOM      7  C   UNL     1      21.328  41.073  44.810  0.00  0.00    +0.000 A 
ATOM      8  C   UNL     1      20.692  41.046  46.059  0.00  0.00    +0.000 A 
ENDROOT
BRANCH   7   9
ATOM      9  N   UNL     1      20.648  41.288  43.598  0.00  0.00    +0.000 N 
ATOM     10  H   UNL     1      21.156  41.403  42.762  0.00  0.00    +0.000 HD
ATOM     11  H   UNL     1      19.665  41.323  43.585  0.00  0.00    +0.000 HD
ENDBRANCH   7   9
BRANCH   8  12
ATOM     12  S   UNL     1      19.075  41.758  46.282  0.00  0.00    +0.000 S 
ATOM     13  O   UNL     1      18.464  41.104  47.421  0.00  0.00    +0.000 OA
ATOM     14  O   UNL     1      19.207  43.201  46.276  0.00  0.00    +0.000 OA
BRANCH  12  15
ATOM     15  N   UNL     1      18.150  41.394  44.949  0.00  0.00    +0.000 NA
ATOM     16  C   UNL     1      17.428  40.128  44.725  0.00  0.00    +0.000 C 
ATOM     17  C   UNL     1      17.451  42.465  44.212  0.00  0.00    +0.000 C 
ATOM     18  C   UNL     1      17.112  40.277  43.230  0.00  0.00    +0.000 C 
ATOM     19  C   UNL     1      16.697  41.735  43.098  0.00  0.00    +0.000 C 
BRANCH  16  20
ATOM     20  C   UNL     1      18.060  38.773  44.922  0.00  0.00    +0.000 C 
ATOM     21  O   UNL     1      17.620  37.947  45.714  0.00  0.00    +0.000 OA
ATOM     22  O   UNL     1      19.073  38.473  44.085  0.00  0.00    +0.000 OA
ENDBRANCH  16  20
ENDBRANCH  12  15
ENDBRANCH   8  12
TORSDOF 4
ENDMDL
MODEL 7
REMARK VINA RESULT:      -7.6      3.134      5.262
REMARK  Name = 348320
REMARK  5 active torsions:
REMARK  status: ('A' for Active; 'I' for Inactive)
REMARK    1  A    between atoms: C_3  and  C_6
REMARK    2  A    between atoms: C_7  and  N_9
REMARK    3  A    between atoms: C_8  and  S_10
REMARK    4  A    between atoms: S_10  and  N_13
REMARK    5  A    between atoms: C_14  and  C_16
REMARK                            x       y       z     vdW  Elec       q    Type
REMARK                         _______ _______ _______ _____ _____    ______ ____
ROOT
ATOM      1 CL   UNL     1      16.769  36.076  45.446  0.00  0.00    +0.000 Cl
ATOM      2  C   UNL     1      17.249  37.703  45.131  0.00  0.00    +0.000 A 
ATOM      3  C   UNL     1      16.691  38.795  45.806  0.00  0.00    +0.000 A 
ATOM      4  C   UNL     1      18.265  37.903  44.181  0.00  0.00    +0.000 A 
ATOM      5  C   UNL     1      17.155  40.084  45.483  0.00  0.00    +0.000 A 
ATOM      6  C   UNL     1      15.661  38.666  46.895  0.00  0.00    +0.000 C 
ATOM      7  C   UNL     1      18.798  39.176  43.935  0.00  0.00    +0.000 A 
ATOM      8  C   UNL     1      18.195  40.278  44.556  0.00  0.00    +0.000 A 
ENDROOT
BRANCH   7   9
ATOM      9  N   UNL     1      19.770  39.291  42.924  0.00  0.00    +0.000 N 
ATOM     10  H   UNL     1      19.761  40.068  42.319  0.00  0.00    +0.000 HD
ATOM     11  H   UNL     1      20.458  38.595  42.823  0.00  0.00    +0.000 HD
ENDBRANCH   7   9
BRANCH   8  12
ATOM     12  S   UNL     1      18.939  41.894  44.483  0.00  0.00    +0.000 S 
ATOM     13  O   UNL     1      20.333  41.718  44.132  0.00  0.00    +0.000 OA
ATOM     14  O   UNL     1      18.100  42.745  43.662  0.00  0.00    +0.000 OA
BRANCH  12  15
ATOM     15  N   UNL     1      18.894  42.565  46.003  0.00  0.00    +0.000 NA
ATOM     16  C   UNL     1      20.041  42.692  46.920  0.00  0.00    +0.000 C 
ATOM     17  C   UNL     1      17.929  43.638  46.316  0.00  0.00    +0.000 C 
ATOM     18  C   UNL     1      19.292  43.021  48.220  0.00  0.00    +0.000 C 
ATOM     19  C   UNL     1      18.221  44.005  47.774  0.00  0.00    +0.000 C 
BRANCH  16  20
ATOM     20  C   UNL     1      20.987  41.554  47.218  0.00  0.00    +0.000 C 
ATOM     21  O   UNL     1      20.629  40.382  47.223  0.00  0.00    +0.000 OA
ATOM     22  O   UNL     1      22.283  41.895  47.362  0.00  0.00    +0.000 OA
ENDBRANCH  16  20
ENDBRANCH  12  15
ENDBRANCH   8  12
TORSDOF 4
ENDMDL
MODEL 8
REMARK VINA RESULT:      -7.3      1.300      2.099
REMARK  Name = 348320
REMARK  5 active torsions:
REMARK  status: ('A' for Active; 'I' for Inactive)
REMARK    1  A    between atoms: C_3  and  C_6
REMARK    2  A    between atoms: C_7  and  N_9
REMARK    3  A    between atoms: C_8  and  S_10
REMARK    4  A    between atoms: S_10  and  N_13
REMARK    5  A    between atoms: C_14  and  C_16
REMARK                            x       y       z     vdW  Elec       q    Type
REMARK                         _______ _______ _______ _____ _____    ______ ____
ROOT
ATOM      1 CL   UNL     1      25.541  39.852  46.252  0.00  0.00    +0.000 Cl
ATOM      2  C   UNL     1      23.912  40.328  45.937  0.00  0.00    +0.000 A 
ATOM      3  C   UNL     1      23.230  41.248  46.741  0.00  0.00    +0.000 A 
ATOM      4  C   UNL     1      23.288  39.778  44.804  0.00  0.00    +0.000 A 
ATOM      5  C   UNL     1      21.906  41.577  46.397  0.00  0.00    +0.000 A 
ATOM      6  C   UNL     1      23.849  41.947  47.921  0.00  0.00    +0.000 C 
ATOM      7  C   UNL     1      22.007  40.184  44.405  0.00  0.00    +0.000 A 
ATOM      8  C   UNL     1      21.295  41.051  45.244  0.00  0.00    +0.000 A 
ENDROOT
BRANCH   7   9
ATOM      9  N   UNL     1      21.436  39.537  43.293  0.00  0.00    +0.000 N 
ATOM     10  H   UNL     1      20.818  40.026  42.703  0.00  0.00    +0.000 HD
ATOM     11  H   UNL     1      21.655  38.596  43.106  0.00  0.00    +0.000 HD
ENDBRANCH   7   9
BRANCH   8  12
ATOM     12  S   UNL     1      19.766  41.794  44.713  0.00  0.00    +0.000 S 
ATOM     13  O   UNL     1      19.765  43.168  45.171  0.00  0.00    +0.000 OA
ATOM     14  O   UNL     1      19.589  41.514  43.301  0.00  0.00    +0.000 OA
BRANCH  12  15
ATOM     15  N   UNL     1      18.510  41.018  45.476  0.00  0.00    +0.000 NA
ATOM     16  C   UNL     1      17.101  41.454  45.471  0.00  0.00    +0.000 C 
ATOM     17  C   UNL     1      18.542  39.554  45.665  0.00  0.00    +0.000 C 
ATOM     18  C   UNL     1      16.560  40.576  46.608  0.00  0.00    +0.000 C 
ATOM     19  C   UNL     1      17.218  39.227  46.361  0.00  0.00    +0.000 C 
BRANCH  16  20
ATOM     20  C   UNL     1      16.677  42.874  45.754  0.00  0.00    +0.000 C 
ATOM     21  O   UNL     1      16.582  43.321  46.891  0.00  0.00    +0.000 OA
ATOM     22  O   UNL     1      16.524  43.665  44.673  0.00  0.00    +0.000 OA
ENDBRANCH  16  20
ENDBRANCH  12  15
ENDBRANCH   8  12
TORSDOF 4
ENDMDL
MODEL 9
REMARK VINA RESULT:      -7.1      2.907      5.424
REMARK  Name = 348320
REMARK  5 active torsions:
REMARK  status: ('A' for Active; 'I' for Inactive)
REMARK    1  A    between atoms: C_3  and  C_6
REMARK    2  A    between atoms: C_7  and  N_9
REMARK    3  A    between atoms: C_8  and  S_10
REMARK    4  A    between atoms: S_10  and  N_13
REMARK    5  A    between atoms: C_14  and  C_16
REMARK                            x       y       z     vdW  Elec       q    Type
REMARK                         _______ _______ _______ _____ _____    ______ ____
ROOT
ATOM      1 CL   UNL     1      16.470  36.716  45.603  0.00  0.00    +0.000 Cl
ATOM      2  C   UNL     1      17.272  38.206  45.262  0.00  0.00    +0.000 A 
ATOM      3  C   UNL     1      17.055  39.365  46.017  0.00  0.00    +0.000 A 
ATOM      4  C   UNL     1      18.196  38.212  44.204  0.00  0.00    +0.000 A 
ATOM      5  C   UNL     1      17.763  40.529  45.664  0.00  0.00    +0.000 A 
ATOM      6  C   UNL     1      16.148  39.424  47.215  0.00  0.00    +0.000 C 
ATOM      7  C   UNL     1      18.976  39.343  43.920  0.00  0.00    +0.000 A 
ATOM      8  C   UNL     1      18.712  40.524  44.626  0.00  0.00    +0.000 A 
ENDROOT
BRANCH   7   9
ATOM      9  N   UNL     1      19.832  39.280  42.805  0.00  0.00    +0.000 N 
ATOM     10  H   UNL     1      19.458  39.139  41.905  0.00  0.00    +0.000 HD
ATOM     11  H   UNL     1      20.803  39.377  42.926  0.00  0.00    +0.000 HD
ENDBRANCH   7   9
BRANCH   8  12
ATOM     12  S   UNL     1      19.793  41.934  44.495  0.00  0.00    +0.000 S 
ATOM     13  O   UNL     1      19.907  42.267  43.090  0.00  0.00    +0.000 OA
ATOM     14  O   UNL     1      19.340  42.944  45.432  0.00  0.00    +0.000 OA
BRANCH  12  15
ATOM     15  N   UNL     1      21.306  41.489  45.021  0.00  0.00    +0.000 NA
ATOM     16  C   UNL     1      21.659  41.120  46.404  0.00  0.00    +0.000 C 
ATOM     17  C   UNL     1      22.244  40.812  44.105  0.00  0.00    +0.000 C 
ATOM     18  C   UNL     1      23.190  41.191  46.302  0.00  0.00    +0.000 C 
ATOM     19  C   UNL     1      23.487  40.543  44.958  0.00  0.00    +0.000 C 
BRANCH  16  20
ATOM     20  C   UNL     1      21.247  41.935  47.605  0.00  0.00    +0.000 C 
ATOM     21  O   UNL     1      20.077  42.065  47.945  0.00  0.00    +0.000 OA
ATOM     22  O   UNL     1      22.256  42.416  48.359  0.00  0.00    +0.000 OA
ENDBRANCH  16  20
ENDBRANCH  12  15
ENDBRANCH   8  12
TORSDOF 4
ENDMDL
