MODEL 1
REMARK VINA RESULT:      -8.0      0.000      0.000
REMARK  Name = 347790
REMARK  4 active torsions:
REMARK  status: ('A' for Active; 'I' for Inactive)
REMARK    1  A    between atoms: C_3  and  O_5
REMARK    2  A    between atoms: C_6  and  S_8
REMARK    3  A    between atoms: S_8  and  N_13
REMARK    4  A    between atoms: C_14  and  C_16
REMARK                            x       y       z     vdW  Elec       q    Type
REMARK                         _______ _______ _______ _____ _____    ______ ____
ROOT
ATOM      1  S   UNL     1      20.016  42.057  45.356  0.00  0.00    +0.000 S 
ATOM      2  O   UNL     1      19.464  43.197  46.052  0.00  0.00    +0.000 OA
ATOM      3  O   UNL     1      20.386  42.166  43.957  0.00  0.00    +0.000 OA
ENDROOT
BRANCH   1   8
ATOM      4 BR   UNL     1      24.238  38.423  46.083  0.00  0.00    +0.000 Br
ATOM      5  C   UNL     1      23.239  39.946  46.611  0.00  0.00    +0.000 A 
ATOM      6  C   UNL     1      22.126  40.362  45.869  0.00  0.00    +0.000 A 
ATOM      7  C   UNL     1      23.634  40.645  47.752  0.00  0.00    +0.000 A 
ATOM      8  C   UNL     1      21.412  41.491  46.281  0.00  0.00    +0.000 A 
ATOM      9  C   UNL     1      22.896  41.752  48.165  0.00  0.00    +0.000 A 
ATOM     10  C   UNL     1      21.782  42.176  47.443  0.00  0.00    +0.000 A 
ATOM     11 CL   UNL     1      23.365  42.601  49.585  0.00  0.00    +0.000 Cl
BRANCH   6  12
ATOM     12  O   UNL     1      21.740  39.668  44.759  0.00  0.00    +0.000 OA
ATOM     13  H   UNL     1      22.293  39.651  44.002  0.00  0.00    +0.000 HD
ENDBRANCH   6  12
ENDBRANCH   1   8
BRANCH   1  14
ATOM     14  N   UNL     1      18.931  40.768  45.420  0.00  0.00    +0.000 NA
ATOM     15  C   UNL     1      17.581  40.859  44.809  0.00  0.00    +0.000 C 
ATOM     16  C   UNL     1      18.783  40.101  46.738  0.00  0.00    +0.000 C 
ATOM     17  C   UNL     1      16.657  41.022  46.014  0.00  0.00    +0.000 C 
ATOM     18  C   UNL     1      17.300  40.159  47.085  0.00  0.00    +0.000 C 
BRANCH  15  19
ATOM     19  C   UNL     1      17.252  41.837  43.700  0.00  0.00    +0.000 C 
ATOM     20  O   UNL     1      16.802  42.957  43.918  0.00  0.00    +0.000 OA
ATOM     21  O   UNL     1      17.480  41.419  42.438  0.00  0.00    +0.000 OA
ENDBRANCH  15  19
ENDBRANCH   1  14
TORSDOF 4
ENDMDL
MODEL 2
REMARK VINA RESULT:      -7.5      3.538      5.923
REMARK  Name = 347790
REMARK  4 active torsions:
REMARK  status: ('A' for Active; 'I' for Inactive)
REMARK    1  A    between atoms: C_3  and  O_5
REMARK    2  A    between atoms: C_6  and  S_8
REMARK    3  A    between atoms: S_8  and  N_13
REMARK    4  A    between atoms: C_14  and  C_16
REMARK                            x       y       z     vdW  Elec       q    Type
REMARK                         _______ _______ _______ _____ _____    ______ ____
ROOT
ATOM      1  S   UNL     1      21.070  42.025  46.500  0.00  0.00    +0.000 S 
ATOM      2  O   UNL     1      21.568  43.134  45.718  0.00  0.00    +0.000 OA
ATOM      3  O   UNL     1      21.254  42.008  47.939  0.00  0.00    +0.000 OA
ENDROOT
BRANCH   1   8
ATOM      4 BR   UNL     1      16.307  39.064  46.809  0.00  0.00    +0.000 Br
ATOM      5  C   UNL     1      17.289  40.591  46.260  0.00  0.00    +0.000 A 
ATOM      6  C   UNL     1      18.655  40.702  46.548  0.00  0.00    +0.000 A 
ATOM      7  C   UNL     1      16.625  41.601  45.565  0.00  0.00    +0.000 A 
ATOM      8  C   UNL     1      19.351  41.842  46.134  0.00  0.00    +0.000 A 
ATOM      9  C   UNL     1      17.338  42.718  45.135  0.00  0.00    +0.000 A 
ATOM     10  C   UNL     1      18.699  42.843  45.406  0.00  0.00    +0.000 A 
ATOM     11 CL   UNL     1      16.528  43.954  44.256  0.00  0.00    +0.000 Cl
BRANCH   6  12
ATOM     12  O   UNL     1      19.301  39.705  47.221  0.00  0.00    +0.000 OA
ATOM     13  H   UNL     1      20.234  39.638  47.174  0.00  0.00    +0.000 HD
ENDBRANCH   6  12
ENDBRANCH   1   8
BRANCH   1  14
ATOM     14  N   UNL     1      21.762  40.586  45.956  0.00  0.00    +0.000 NA
ATOM     15  C   UNL     1      23.173  40.240  46.261  0.00  0.00    +0.000 C 
ATOM     16  C   UNL     1      21.510  40.234  44.536  0.00  0.00    +0.000 C 
ATOM     17  C   UNL     1      23.892  40.483  44.936  0.00  0.00    +0.000 C 
ATOM     18  C   UNL     1      22.878  40.055  43.888  0.00  0.00    +0.000 C 
BRANCH  15  19
ATOM     19  C   UNL     1      23.924  40.836  47.435  0.00  0.00    +0.000 C 
ATOM     20  O   UNL     1      24.544  41.890  47.356  0.00  0.00    +0.000 OA
ATOM     21  O   UNL     1      23.881  40.144  48.593  0.00  0.00    +0.000 OA
ENDBRANCH  15  19
ENDBRANCH   1  14
TORSDOF 4
ENDMDL
MODEL 3
REMARK VINA RESULT:      -6.8      1.958      2.457
REMARK  Name = 347790
REMARK  4 active torsions:
REMARK  status: ('A' for Active; 'I' for Inactive)
REMARK    1  A    between atoms: C_3  and  O_5
REMARK    2  A    between atoms: C_6  and  S_8
REMARK    3  A    between atoms: S_8  and  N_13
REMARK    4  A    between atoms: C_14  and  C_16
REMARK                            x       y       z     vdW  Elec       q    Type
REMARK                         _______ _______ _______ _____ _____    ______ ____
ROOT
ATOM      1  S   UNL     1      20.563  41.529  44.800  0.00  0.00    +0.000 S 
ATOM      2  O   UNL     1      20.278  42.906  45.136  0.00  0.00    +0.000 OA
ATOM      3  O   UNL     1      20.866  41.160  43.430  0.00  0.00    +0.000 OA
ENDROOT
BRANCH   1   8
ATOM      4 BR   UNL     1      23.718  42.180  49.401  0.00  0.00    +0.000 Br
ATOM      5  C   UNL     1      23.242  41.239  47.826  0.00  0.00    +0.000 A 
ATOM      6  C   UNL     1      22.208  41.702  47.002  0.00  0.00    +0.000 A 
ATOM      7  C   UNL     1      23.940  40.075  47.502  0.00  0.00    +0.000 A 
ATOM      8  C   UNL     1      21.877  40.984  45.850  0.00  0.00    +0.000 A 
ATOM      9  C   UNL     1      23.617  39.385  46.335  0.00  0.00    +0.000 A 
ATOM     10  C   UNL     1      22.596  39.836  45.501  0.00  0.00    +0.000 A 
ATOM     11 CL   UNL     1      24.492  37.965  45.921  0.00  0.00    +0.000 Cl
BRANCH   6  12
ATOM     12  O   UNL     1      21.535  42.847  47.320  0.00  0.00    +0.000 OA
ATOM     13  H   UNL     1      20.754  42.801  47.836  0.00  0.00    +0.000 HD
ENDBRANCH   6  12
ENDBRANCH   1   8
BRANCH   1  14
ATOM     14  N   UNL     1      19.258  40.553  45.235  0.00  0.00    +0.000 NA
ATOM     15  C   UNL     1      17.881  40.845  44.766  0.00  0.00    +0.000 C 
ATOM     16  C   UNL     1      19.173  40.172  46.668  0.00  0.00    +0.000 C 
ATOM     17  C   UNL     1      17.198  41.419  46.005  0.00  0.00    +0.000 C 
ATOM     18  C   UNL     1      17.801  40.627  47.153  0.00  0.00    +0.000 C 
BRANCH  15  19
ATOM     19  C   UNL     1      17.599  41.669  43.526  0.00  0.00    +0.000 C 
ATOM     20  O   UNL     1      17.622  41.194  42.396  0.00  0.00    +0.000 OA
ATOM     21  O   UNL     1      17.314  42.974  43.720  0.00  0.00    +0.000 OA
ENDBRANCH  15  19
ENDBRANCH   1  14
TORSDOF 4
ENDMDL
MODEL 4
REMARK VINA RESULT:      -6.6      3.355      5.965
REMARK  Name = 347790
REMARK  4 active torsions:
REMARK  status: ('A' for Active; 'I' for Inactive)
REMARK    1  A    between atoms: C_3  and  O_5
REMARK    2  A    between atoms: C_6  and  S_8
REMARK    3  A    between atoms: S_8  and  N_13
REMARK    4  A    between atoms: C_14  and  C_16
REMARK                            x       y       z     vdW  Elec       q    Type
REMARK                         _______ _______ _______ _____ _____    ______ ____
ROOT
ATOM      1  S   UNL     1      20.835  41.601  46.298  0.00  0.00    +0.000 S 
ATOM      2  O   UNL     1      21.203  42.729  45.472  0.00  0.00    +0.000 OA
ATOM      3  O   UNL     1      20.855  41.718  47.743  0.00  0.00    +0.000 OA
ENDROOT
BRANCH   1   8
ATOM      4 BR   UNL     1      16.836  41.254  42.368  0.00  0.00    +0.000 Br
ATOM      5  C   UNL     1      17.501  40.894  44.107  0.00  0.00    +0.000 A 
ATOM      6  C   UNL     1      18.768  41.348  44.495  0.00  0.00    +0.000 A 
ATOM      7  C   UNL     1      16.705  40.167  44.992  0.00  0.00    +0.000 A 
ATOM      8  C   UNL     1      19.232  41.062  45.782  0.00  0.00    +0.000 A 
ATOM      9  C   UNL     1      17.170  39.914  46.281  0.00  0.00    +0.000 A 
ATOM     10  C   UNL     1      18.425  40.365  46.687  0.00  0.00    +0.000 A 
ATOM     11 CL   UNL     1      16.181  39.041  47.383  0.00  0.00    +0.000 Cl
BRANCH   6  12
ATOM     12  O   UNL     1      19.538  42.066  43.627  0.00  0.00    +0.000 OA
ATOM     13  H   UNL     1      19.466  41.917  42.705  0.00  0.00    +0.000 HD
ENDBRANCH   6  12
ENDBRANCH   1   8
BRANCH   1  14
ATOM     14  N   UNL     1      21.839  40.290  45.954  0.00  0.00    +0.000 NA
ATOM     15  C   UNL     1      23.249  40.251  46.416  0.00  0.00    +0.000 C 
ATOM     16  C   UNL     1      21.811  39.792  44.555  0.00  0.00    +0.000 C 
ATOM     17  C   UNL     1      24.047  40.532  45.145  0.00  0.00    +0.000 C 
ATOM     18  C   UNL     1      23.250  39.838  44.054  0.00  0.00    +0.000 C 
BRANCH  15  19
ATOM     19  C   UNL     1      23.745  41.066  47.593  0.00  0.00    +0.000 C 
ATOM     20  O   UNL     1      24.173  42.209  47.472  0.00  0.00    +0.000 OA
ATOM     21  O   UNL     1      23.695  40.473  48.803  0.00  0.00    +0.000 OA
ENDBRANCH  15  19
ENDBRANCH   1  14
TORSDOF 4
ENDMDL
MODEL 5
REMARK VINA RESULT:      -6.5      3.070      5.412
REMARK  Name = 347790
REMARK  4 active torsions:
REMARK  status: ('A' for Active; 'I' for Inactive)
REMARK    1  A    between atoms: C_3  and  O_5
REMARK    2  A    between atoms: C_6  and  S_8
REMARK    3  A    between atoms: S_8  and  N_13
REMARK    4  A    between atoms: C_14  and  C_16
REMARK                            x       y       z     vdW  Elec       q    Type
REMARK                         _______ _______ _______ _____ _____    ______ ____
ROOT
ATOM      1  S   UNL     1      20.841  41.376  44.597  0.00  0.00    +0.000 S 
ATOM      2  O   UNL     1      20.733  41.058  43.191  0.00  0.00    +0.000 OA
ATOM      3  O   UNL     1      21.423  42.637  45.016  0.00  0.00    +0.000 OA
ENDROOT
BRANCH   1   8
ATOM      4 BR   UNL     1      16.411  38.214  45.988  0.00  0.00    +0.000 Br
ATOM      5  C   UNL     1      17.316  39.879  45.920  0.00  0.00    +0.000 A 
ATOM      6  C   UNL     1      18.585  39.979  45.337  0.00  0.00    +0.000 A 
ATOM      7  C   UNL     1      16.694  41.003  46.463  0.00  0.00    +0.000 A 
ATOM      8  C   UNL     1      19.229  41.219  45.306  0.00  0.00    +0.000 A 
ATOM      9  C   UNL     1      17.336  42.238  46.400  0.00  0.00    +0.000 A 
ATOM     10  C   UNL     1      18.596  42.357  45.817  0.00  0.00    +0.000 A 
ATOM     11 CL   UNL     1      16.561  43.630  47.046  0.00  0.00    +0.000 Cl
BRANCH   6  12
ATOM     12  O   UNL     1      19.185  38.876  44.799  0.00  0.00    +0.000 OA
ATOM     13  H   UNL     1      18.707  38.322  44.214  0.00  0.00    +0.000 HD
ENDBRANCH   6  12
ENDBRANCH   1   8
BRANCH   1  14
ATOM     14  N   UNL     1      21.751  40.194  45.383  0.00  0.00    +0.000 NA
ATOM     15  C   UNL     1      22.443  40.473  46.666  0.00  0.00    +0.000 C 
ATOM     16  C   UNL     1      22.683  39.411  44.532  0.00  0.00    +0.000 C 
ATOM     17  C   UNL     1      23.910  40.596  46.259  0.00  0.00    +0.000 C 
ATOM     18  C   UNL     1      24.067  39.571  45.149  0.00  0.00    +0.000 C 
BRANCH  15  19
ATOM     19  C   UNL     1      22.015  41.587  47.599  0.00  0.00    +0.000 C 
ATOM     20  O   UNL     1      20.852  41.741  47.955  0.00  0.00    +0.000 OA
ATOM     21  O   UNL     1      22.985  42.420  48.030  0.00  0.00    +0.000 OA
ENDBRANCH  15  19
ENDBRANCH   1  14
TORSDOF 4
ENDMDL
MODEL 6
REMARK VINA RESULT:      -6.5      3.639      5.739
REMARK  Name = 347790
REMARK  4 active torsions:
REMARK  status: ('A' for Active; 'I' for Inactive)
REMARK    1  A    between atoms: C_3  and  O_5
REMARK    2  A    between atoms: C_6  and  S_8
REMARK    3  A    between atoms: S_8  and  N_13
REMARK    4  A    between atoms: C_14  and  C_16
REMARK                            x       y       z     vdW  Elec       q    Type
REMARK                         _______ _______ _______ _____ _____    ______ ____
ROOT
ATOM      1  S   UNL     1      21.096  40.655  44.258  0.00  0.00    +0.000 S 
ATOM      2  O   UNL     1      21.701  39.512  44.903  0.00  0.00    +0.000 OA
ATOM      3  O   UNL     1      21.495  41.029  42.914  0.00  0.00    +0.000 OA
ENDROOT
BRANCH   1   8
ATOM      4 BR   UNL     1      16.451  39.029  46.965  0.00  0.00    +0.000 Br
ATOM      5  C   UNL     1      17.332  39.739  45.444  0.00  0.00    +0.000 A 
ATOM      6  C   UNL     1      18.724  39.894  45.432  0.00  0.00    +0.000 A 
ATOM      7  C   UNL     1      16.567  40.105  44.336  0.00  0.00    +0.000 A 
ATOM      8  C   UNL     1      19.344  40.425  44.297  0.00  0.00    +0.000 A 
ATOM      9  C   UNL     1      17.202  40.606  43.201  0.00  0.00    +0.000 A 
ATOM     10  C   UNL     1      18.587  40.761  43.170  0.00  0.00    +0.000 A 
ATOM     11 CL   UNL     1      16.265  41.035  41.825  0.00  0.00    +0.000 Cl
BRANCH   6  12
ATOM     12  O   UNL     1      19.467  39.526  46.517  0.00  0.00    +0.000 OA
ATOM     13  H   UNL     1      20.088  40.124  46.882  0.00  0.00    +0.000 HD
ENDBRANCH   6  12
ENDBRANCH   1   8
BRANCH   1  14
ATOM     14  N   UNL     1      21.350  42.038  45.189  0.00  0.00    +0.000 NA
ATOM     15  C   UNL     1      21.969  41.963  46.536  0.00  0.00    +0.000 C 
ATOM     16  C   UNL     1      20.215  42.992  45.268  0.00  0.00    +0.000 C 
ATOM     17  C   UNL     1      20.787  42.173  47.481  0.00  0.00    +0.000 C 
ATOM     18  C   UNL     1      19.910  43.176  46.751  0.00  0.00    +0.000 C 
BRANCH  15  19
ATOM     19  C   UNL     1      22.846  40.806  46.968  0.00  0.00    +0.000 C 
ATOM     20  O   UNL     1      22.445  39.911  47.705  0.00  0.00    +0.000 OA
ATOM     21  O   UNL     1      24.111  40.799  46.499  0.00  0.00    +0.000 OA
ENDBRANCH  15  19
ENDBRANCH   1  14
TORSDOF 4
ENDMDL
MODEL 7
REMARK VINA RESULT:      -6.4      2.571      3.417
REMARK  Name = 347790
REMARK  4 active torsions:
REMARK  status: ('A' for Active; 'I' for Inactive)
REMARK    1  A    between atoms: C_3  and  O_5
REMARK    2  A    between atoms: C_6  and  S_8
REMARK    3  A    between atoms: S_8  and  N_13
REMARK    4  A    between atoms: C_14  and  C_16
REMARK                            x       y       z     vdW  Elec       q    Type
REMARK                         _______ _______ _______ _____ _____    ______ ____
ROOT
ATOM      1  S   UNL     1      19.715  40.827  46.519  0.00  0.00    +0.000 S 
ATOM      2  O   UNL     1      19.374  39.680  45.707  0.00  0.00    +0.000 OA
ATOM      3  O   UNL     1      18.932  41.144  47.698  0.00  0.00    +0.000 OA
ENDROOT
BRANCH   1   8
ATOM      4 BR   UNL     1      24.134  42.547  49.530  0.00  0.00    +0.000 Br
ATOM      5  C   UNL     1      23.327  41.384  48.268  0.00  0.00    +0.000 A 
ATOM      6  C   UNL     1      21.983  41.544  47.908  0.00  0.00    +0.000 A 
ATOM      7  C   UNL     1      24.097  40.367  47.705  0.00  0.00    +0.000 A 
ATOM      8  C   UNL     1      21.415  40.668  46.979  0.00  0.00    +0.000 A 
ATOM      9  C   UNL     1      23.524  39.519  46.759  0.00  0.00    +0.000 A 
ATOM     10  C   UNL     1      22.190  39.667  46.385  0.00  0.00    +0.000 A 
ATOM     11 CL   UNL     1      24.478  38.279  46.046  0.00  0.00    +0.000 Cl
BRANCH   6  12
ATOM     12  O   UNL     1      21.237  42.548  48.456  0.00  0.00    +0.000 OA
ATOM     13  H   UNL     1      20.344  42.390  48.694  0.00  0.00    +0.000 HD
ENDBRANCH   6  12
ENDBRANCH   1   8
BRANCH   1  14
ATOM     14  N   UNL     1      19.673  42.226  45.579  0.00  0.00    +0.000 NA
ATOM     15  C   UNL     1      18.392  42.791  45.087  0.00  0.00    +0.000 C 
ATOM     16  C   UNL     1      20.652  42.297  44.465  0.00  0.00    +0.000 C 
ATOM     17  C   UNL     1      18.385  42.418  43.606  0.00  0.00    +0.000 C 
ATOM     18  C   UNL     1      19.843  42.532  43.195  0.00  0.00    +0.000 C 
BRANCH  15  19
ATOM     19  C   UNL     1      17.062  42.502  45.754  0.00  0.00    +0.000 C 
ATOM     20  O   UNL     1      16.387  41.515  45.483  0.00  0.00    +0.000 OA
ATOM     21  O   UNL     1      16.644  43.393  46.677  0.00  0.00    +0.000 OA
ENDBRANCH  15  19
ENDBRANCH   1  14
TORSDOF 4
ENDMDL
MODEL 8
REMARK VINA RESULT:      -6.4      2.208      2.899
REMARK  Name = 347790
REMARK  4 active torsions:
REMARK  status: ('A' for Active; 'I' for Inactive)
REMARK    1  A    between atoms: C_3  and  O_5
REMARK    2  A    between atoms: C_6  and  S_8
REMARK    3  A    between atoms: S_8  and  N_13
REMARK    4  A    between atoms: C_14  and  C_16
REMARK                            x       y       z     vdW  Elec       q    Type
REMARK                         _______ _______ _______ _____ _____    ______ ____
ROOT
ATOM      1  S   UNL     1      17.494  39.710  45.924  0.00  0.00    +0.000 S 
ATOM      2  O   UNL     1      17.347  38.804  44.807  0.00  0.00    +0.000 OA
ATOM      3  O   UNL     1      17.088  39.298  47.255  0.00  0.00    +0.000 OA
ENDROOT
BRANCH   1   8
ATOM      4 BR   UNL     1      22.661  39.707  43.720  0.00  0.00    +0.000 Br
ATOM      5  C   UNL     1      21.410  40.252  45.037  0.00  0.00    +0.000 A 
ATOM      6  C   UNL     1      20.082  39.809  44.987  0.00  0.00    +0.000 A 
ATOM      7  C   UNL     1      21.837  41.102  46.056  0.00  0.00    +0.000 A 
ATOM      8  C   UNL     1      19.183  40.232  45.970  0.00  0.00    +0.000 A 
ATOM      9  C   UNL     1      20.936  41.493  47.045  0.00  0.00    +0.000 A 
ATOM     10  C   UNL     1      19.612  41.056  47.014  0.00  0.00    +0.000 A 
ATOM     11 CL   UNL     1      21.466  42.521  48.316  0.00  0.00    +0.000 Cl
BRANCH   6  12
ATOM     12  O   UNL     1      19.673  38.969  43.991  0.00  0.00    +0.000 OA
ATOM     13  H   UNL     1      18.916  38.431  44.116  0.00  0.00    +0.000 HD
ENDBRANCH   6  12
ENDBRANCH   1   8
BRANCH   1  14
ATOM     14  N   UNL     1      16.634  41.130  45.626  0.00  0.00    +0.000 NA
ATOM     15  C   UNL     1      16.753  41.853  44.335  0.00  0.00    +0.000 C 
ATOM     16  C   UNL     1      16.646  42.144  46.711  0.00  0.00    +0.000 C 
ATOM     17  C   UNL     1      17.617  43.062  44.685  0.00  0.00    +0.000 C 
ATOM     18  C   UNL     1      17.176  43.431  46.091  0.00  0.00    +0.000 C 
BRANCH  15  19
ATOM     19  C   UNL     1      17.210  41.175  43.060  0.00  0.00    +0.000 C 
ATOM     20  O   UNL     1      18.367  41.235  42.657  0.00  0.00    +0.000 OA
ATOM     21  O   UNL     1      16.274  40.488  42.372  0.00  0.00    +0.000 OA
ENDBRANCH  15  19
ENDBRANCH   1  14
TORSDOF 4
ENDMDL
MODEL 9
REMARK VINA RESULT:      -6.3      1.867      2.546
REMARK  Name = 347790
REMARK  4 active torsions:
REMARK  status: ('A' for Active; 'I' for Inactive)
REMARK    1  A    between atoms: C_3  and  O_5
REMARK    2  A    between atoms: C_6  and  S_8
REMARK    3  A    between atoms: S_8  and  N_13
REMARK    4  A    between atoms: C_14  and  C_16
REMARK                            x       y       z     vdW  Elec       q    Type
REMARK                         _______ _______ _______ _____ _____    ______ ____
ROOT
ATOM      1  S   UNL     1      19.816  41.240  46.800  0.00  0.00    +0.000 S 
ATOM      2  O   UNL     1      19.547  39.967  46.169  0.00  0.00    +0.000 OA
ATOM      3  O   UNL     1      19.040  41.661  47.951  0.00  0.00    +0.000 OA
ENDROOT
BRANCH   1   8
ATOM      4 BR   UNL     1      25.114  39.673  45.785  0.00  0.00    +0.000 Br
ATOM      5  C   UNL     1      23.821  40.624  46.794  0.00  0.00    +0.000 A 
ATOM      6  C   UNL     1      22.464  40.562  46.454  0.00  0.00    +0.000 A 
ATOM      7  C   UNL     1      24.246  41.386  47.882  0.00  0.00    +0.000 A 
ATOM      8  C   UNL     1      21.534  41.277  47.215  0.00  0.00    +0.000 A 
ATOM      9  C   UNL     1      23.305  42.072  48.647  0.00  0.00    +0.000 A 
ATOM     10  C   UNL     1      21.949  42.016  48.327  0.00  0.00    +0.000 A 
ATOM     11 CL   UNL     1      23.824  42.992  50.003  0.00  0.00    +0.000 Cl
BRANCH   6  12
ATOM     12  O   UNL     1      22.052  39.806  45.394  0.00  0.00    +0.000 OA
ATOM     13  H   UNL     1      22.454  39.921  44.555  0.00  0.00    +0.000 HD
ENDBRANCH   6  12
ENDBRANCH   1   8
BRANCH   1  14
ATOM     14  N   UNL     1      19.638  42.484  45.676  0.00  0.00    +0.000 NA
ATOM     15  C   UNL     1      18.319  42.801  45.072  0.00  0.00    +0.000 C 
ATOM     16  C   UNL     1      20.652  42.539  44.592  0.00  0.00    +0.000 C 
ATOM     17  C   UNL     1      18.432  42.237  43.657  0.00  0.00    +0.000 C 
ATOM     18  C   UNL     1      19.881  42.492  43.278  0.00  0.00    +0.000 C 
BRANCH  15  19
ATOM     19  C   UNL     1      17.008  42.425  45.732  0.00  0.00    +0.000 C 
ATOM     20  O   UNL     1      16.398  41.399  45.455  0.00  0.00    +0.000 OA
ATOM     21  O   UNL     1      16.530  43.284  46.657  0.00  0.00    +0.000 OA
ENDBRANCH  15  19
ENDBRANCH   1  14
TORSDOF 4
ENDMDL
