MODEL 1
REMARK VINA RESULT:      -7.4      0.000      0.000
REMARK  Name = 347848
REMARK  4 active torsions:
REMARK  status: ('A' for Active; 'I' for Inactive)
REMARK    1  A    between atoms: C_3  and  O_5
REMARK    2  A    between atoms: C_6  and  S_8
REMARK    3  A    between atoms: S_8  and  N_13
REMARK    4  A    between atoms: C_14  and  C_16
REMARK                            x       y       z     vdW  Elec       q    Type
REMARK                         _______ _______ _______ _____ _____    ______ ____
ROOT
ATOM      1  S   UNL     1      20.333  42.044  45.178  0.00  0.00    +0.000 S 
ATOM      2  O   UNL     1      20.299  43.479  45.332  0.00  0.00    +0.000 OA
ATOM      3  O   UNL     1      20.468  41.478  43.848  0.00  0.00    +0.000 OA
ENDROOT
BRANCH   1   8
ATOM      4 CL   UNL     1      24.183  38.294  46.259  0.00  0.00    +0.000 Cl
ATOM      5  C   UNL     1      23.341  39.744  46.673  0.00  0.00    +0.000 A 
ATOM      6  C   UNL     1      22.286  40.198  45.871  0.00  0.00    +0.000 A 
ATOM      7  C   UNL     1      23.728  40.450  47.807  0.00  0.00    +0.000 A 
ATOM      8  C   UNL     1      21.638  41.393  46.189  0.00  0.00    +0.000 A 
ATOM      9  C   UNL     1      23.040  41.610  48.151  0.00  0.00    +0.000 A 
ATOM     10  C   UNL     1      21.999  42.087  47.354  0.00  0.00    +0.000 A 
ATOM     11 CL   UNL     1      23.480  42.461  49.580  0.00  0.00    +0.000 Cl
BRANCH   6  12
ATOM     12  O   UNL     1      21.900  39.459  44.790  0.00  0.00    +0.000 OA
ATOM     13  H   UNL     1      21.181  38.863  44.864  0.00  0.00    +0.000 HD
ENDBRANCH   6  12
ENDBRANCH   1   8
BRANCH   1  14
ATOM     14  N   UNL     1      18.918  41.391  45.777  0.00  0.00    +0.000 NA
ATOM     15  C   UNL     1      17.577  41.574  45.171  0.00  0.00    +0.000 C 
ATOM     16  C   UNL     1      18.991  40.148  46.549  0.00  0.00    +0.000 C 
ATOM     17  C   UNL     1      17.038  40.195  44.764  0.00  0.00    +0.000 C 
ATOM     18  S   UNL     1      17.868  38.963  45.790  0.00  0.00    +0.000 S 
BRANCH  15  19
ATOM     19  C   UNL     1      17.344  42.552  44.032  0.00  0.00    +0.000 C 
ATOM     20  O   UNL     1      17.621  42.322  42.863  0.00  0.00    +0.000 OA
ATOM     21  O   UNL     1      16.727  43.698  44.384  0.00  0.00    +0.000 OA
ENDBRANCH  15  19
ENDBRANCH   1  14
TORSDOF 4
ENDMDL
MODEL 2
REMARK VINA RESULT:      -7.3      3.158      5.418
REMARK  Name = 347848
REMARK  4 active torsions:
REMARK  status: ('A' for Active; 'I' for Inactive)
REMARK    1  A    between atoms: C_3  and  O_5
REMARK    2  A    between atoms: C_6  and  S_8
REMARK    3  A    between atoms: S_8  and  N_13
REMARK    4  A    between atoms: C_14  and  C_16
REMARK                            x       y       z     vdW  Elec       q    Type
REMARK                         _______ _______ _______ _____ _____    ______ ____
ROOT
ATOM      1  S   UNL     1      20.429  42.108  46.415  0.00  0.00    +0.000 S 
ATOM      2  O   UNL     1      20.887  43.072  45.444  0.00  0.00    +0.000 OA
ATOM      3  O   UNL     1      20.155  42.546  47.772  0.00  0.00    +0.000 OA
ENDROOT
BRANCH   1   8
ATOM      4 CL   UNL     1      16.808  41.143  42.415  0.00  0.00    +0.000 Cl
ATOM      5  C   UNL     1      17.370  40.881  44.027  0.00  0.00    +0.000 A 
ATOM      6  C   UNL     1      18.499  41.563  44.498  0.00  0.00    +0.000 A 
ATOM      7  C   UNL     1      16.687  39.985  44.843  0.00  0.00    +0.000 A 
ATOM      8  C   UNL     1      18.972  41.314  45.787  0.00  0.00    +0.000 A 
ATOM      9  C   UNL     1      17.129  39.785  46.147  0.00  0.00    +0.000 A 
ATOM     10  C   UNL     1      18.264  40.442  46.627  0.00  0.00    +0.000 A 
ATOM     11 CL   UNL     1      16.261  38.716  47.179  0.00  0.00    +0.000 Cl
BRANCH   6  12
ATOM     12  O   UNL     1      19.120  42.470  43.688  0.00  0.00    +0.000 OA
ATOM     13  H   UNL     1      18.620  42.960  43.065  0.00  0.00    +0.000 HD
ENDBRANCH   6  12
ENDBRANCH   1   8
BRANCH   1  14
ATOM     14  N   UNL     1      21.574  40.904  46.580  0.00  0.00    +0.000 NA
ATOM     15  C   UNL     1      22.116  40.092  45.464  0.00  0.00    +0.000 C 
ATOM     16  C   UNL     1      22.524  40.988  47.692  0.00  0.00    +0.000 C 
ATOM     17  C   UNL     1      23.629  40.340  45.376  0.00  0.00    +0.000 C 
ATOM     18  S   UNL     1      24.185  40.888  47.005  0.00  0.00    +0.000 S 
BRANCH  15  19
ATOM     19  C   UNL     1      21.523  40.159  44.067  0.00  0.00    +0.000 C 
ATOM     20  O   UNL     1      21.790  41.028  43.250  0.00  0.00    +0.000 OA
ATOM     21  O   UNL     1      20.711  39.132  43.745  0.00  0.00    +0.000 OA
ENDBRANCH  15  19
ENDBRANCH   1  14
TORSDOF 4
ENDMDL
MODEL 3
REMARK VINA RESULT:      -7.2      3.278      5.565
REMARK  Name = 347848
REMARK  4 active torsions:
REMARK  status: ('A' for Active; 'I' for Inactive)
REMARK    1  A    between atoms: C_3  and  O_5
REMARK    2  A    between atoms: C_6  and  S_8
REMARK    3  A    between atoms: S_8  and  N_13
REMARK    4  A    between atoms: C_14  and  C_16
REMARK                            x       y       z     vdW  Elec       q    Type
REMARK                         _______ _______ _______ _____ _____    ______ ____
ROOT
ATOM      1  S   UNL     1      20.063  42.302  46.076  0.00  0.00    +0.000 S 
ATOM      2  O   UNL     1      20.578  43.178  45.051  0.00  0.00    +0.000 OA
ATOM      3  O   UNL     1      19.624  42.872  47.338  0.00  0.00    +0.000 OA
ENDROOT
BRANCH   1   8
ATOM      4 CL   UNL     1      16.195  38.439  46.484  0.00  0.00    +0.000 Cl
ATOM      5  C   UNL     1      17.009  39.658  45.571  0.00  0.00    +0.000 A 
ATOM      6  C   UNL     1      18.095  40.347  46.128  0.00  0.00    +0.000 A 
ATOM      7  C   UNL     1      16.570  39.944  44.283  0.00  0.00    +0.000 A 
ATOM      8  C   UNL     1      18.720  41.360  45.400  0.00  0.00    +0.000 A 
ATOM      9  C   UNL     1      17.234  40.915  43.540  0.00  0.00    +0.000 A 
ATOM     10  C   UNL     1      18.305  41.625  44.086  0.00  0.00    +0.000 A 
ATOM     11 CL   UNL     1      16.727  41.240  41.929  0.00  0.00    +0.000 Cl
BRANCH   6  12
ATOM     12  O   UNL     1      18.531  40.011  47.377  0.00  0.00    +0.000 OA
ATOM     13  H   UNL     1      17.917  39.920  48.078  0.00  0.00    +0.000 HD
ENDBRANCH   6  12
ENDBRANCH   1   8
BRANCH   1  14
ATOM     14  N   UNL     1      21.238  41.192  46.496  0.00  0.00    +0.000 NA
ATOM     15  C   UNL     1      21.929  40.289  45.545  0.00  0.00    +0.000 C 
ATOM     16  C   UNL     1      22.062  41.458  47.677  0.00  0.00    +0.000 C 
ATOM     17  C   UNL     1      23.430  40.611  45.576  0.00  0.00    +0.000 C 
ATOM     18  S   UNL     1      23.788  41.374  47.172  0.00  0.00    +0.000 S 
BRANCH  15  19
ATOM     19  C   UNL     1      21.481  40.161  44.099  0.00  0.00    +0.000 C 
ATOM     20  O   UNL     1      21.838  40.911  43.201  0.00  0.00    +0.000 OA
ATOM     21  O   UNL     1      20.698  39.094  43.839  0.00  0.00    +0.000 OA
ENDBRANCH  15  19
ENDBRANCH   1  14
TORSDOF 4
ENDMDL
MODEL 4
REMARK VINA RESULT:      -7.2      3.447      5.913
REMARK  Name = 347848
REMARK  4 active torsions:
REMARK  status: ('A' for Active; 'I' for Inactive)
REMARK    1  A    between atoms: C_3  and  O_5
REMARK    2  A    between atoms: C_6  and  S_8
REMARK    3  A    between atoms: S_8  and  N_13
REMARK    4  A    between atoms: C_14  and  C_16
REMARK                            x       y       z     vdW  Elec       q    Type
REMARK                         _______ _______ _______ _____ _____    ______ ____
ROOT
ATOM      1  S   UNL     1      21.184  41.296  46.918  0.00  0.00    +0.000 S 
ATOM      2  O   UNL     1      21.609  42.531  47.535  0.00  0.00    +0.000 OA
ATOM      3  O   UNL     1      21.503  40.036  47.564  0.00  0.00    +0.000 OA
ENDROOT
BRANCH   1   8
ATOM      4 CL   UNL     1      16.643  43.856  45.221  0.00  0.00    +0.000 Cl
ATOM      5  C   UNL     1      17.420  42.480  45.919  0.00  0.00    +0.000 A 
ATOM      6  C   UNL     1      18.803  42.491  46.142  0.00  0.00    +0.000 A 
ATOM      7  C   UNL     1      16.653  41.369  46.253  0.00  0.00    +0.000 A 
ATOM      8  C   UNL     1      19.429  41.359  46.667  0.00  0.00    +0.000 A 
ATOM      9  C   UNL     1      17.274  40.266  46.831  0.00  0.00    +0.000 A 
ATOM     10  C   UNL     1      18.654  40.251  47.042  0.00  0.00    +0.000 A 
ATOM     11 CL   UNL     1      16.325  38.907  47.292  0.00  0.00    +0.000 Cl
BRANCH   6  12
ATOM     12  O   UNL     1      19.520  43.613  45.846  0.00  0.00    +0.000 OA
ATOM     13  H   UNL     1      20.375  43.732  46.212  0.00  0.00    +0.000 HD
ENDBRANCH   6  12
ENDBRANCH   1   8
BRANCH   1  14
ATOM     14  N   UNL     1      21.862  41.178  45.396  0.00  0.00    +0.000 NA
ATOM     15  C   UNL     1      23.204  40.616  45.108  0.00  0.00    +0.000 C 
ATOM     16  C   UNL     1      20.971  41.058  44.240  0.00  0.00    +0.000 C 
ATOM     17  C   UNL     1      23.031  39.396  44.193  0.00  0.00    +0.000 C 
ATOM     18  S   UNL     1      21.463  39.591  43.318  0.00  0.00    +0.000 S 
BRANCH  15  19
ATOM     19  C   UNL     1      24.177  40.265  46.221  0.00  0.00    +0.000 C 
ATOM     20  O   UNL     1      24.716  41.089  46.946  0.00  0.00    +0.000 OA
ATOM     21  O   UNL     1      24.363  38.944  46.417  0.00  0.00    +0.000 OA
ENDBRANCH  15  19
ENDBRANCH   1  14
TORSDOF 4
ENDMDL
MODEL 5
REMARK VINA RESULT:      -7.1      0.910      2.335
REMARK  Name = 347848
REMARK  4 active torsions:
REMARK  status: ('A' for Active; 'I' for Inactive)
REMARK    1  A    between atoms: C_3  and  O_5
REMARK    2  A    between atoms: C_6  and  S_8
REMARK    3  A    between atoms: S_8  and  N_13
REMARK    4  A    between atoms: C_14  and  C_16
REMARK                            x       y       z     vdW  Elec       q    Type
REMARK                         _______ _______ _______ _____ _____    ______ ____
ROOT
ATOM      1  S   UNL     1      20.190  41.206  44.511  0.00  0.00    +0.000 S 
ATOM      2  O   UNL     1      20.199  42.603  44.145  0.00  0.00    +0.000 OA
ATOM      3  O   UNL     1      20.250  40.200  43.466  0.00  0.00    +0.000 OA
ENDROOT
BRANCH   1   8
ATOM      4 CL   UNL     1      23.019  42.391  49.054  0.00  0.00    +0.000 Cl
ATOM      5  C   UNL     1      22.777  41.420  47.647  0.00  0.00    +0.000 A 
ATOM      6  C   UNL     1      21.739  41.720  46.755  0.00  0.00    +0.000 A 
ATOM      7  C   UNL     1      23.624  40.341  47.416  0.00  0.00    +0.000 A 
ATOM      8  C   UNL     1      21.524  40.906  45.643  0.00  0.00    +0.000 A 
ATOM      9  C   UNL     1      23.440  39.567  46.275  0.00  0.00    +0.000 A 
ATOM     10  C   UNL     1      22.399  39.840  45.385  0.00  0.00    +0.000 A 
ATOM     11 CL   UNL     1      24.514  38.261  45.957  0.00  0.00    +0.000 Cl
BRANCH   6  12
ATOM     12  O   UNL     1      20.954  42.813  46.985  0.00  0.00    +0.000 OA
ATOM     13  H   UNL     1      20.031  42.766  46.834  0.00  0.00    +0.000 HD
ENDBRANCH   6  12
ENDBRANCH   1   8
BRANCH   1  14
ATOM     14  N   UNL     1      18.788  40.864  45.351  0.00  0.00    +0.000 NA
ATOM     15  C   UNL     1      17.417  41.136  44.857  0.00  0.00    +0.000 C 
ATOM     16  C   UNL     1      18.801  39.764  46.318  0.00  0.00    +0.000 C 
ATOM     17  C   UNL     1      16.667  39.800  44.752  0.00  0.00    +0.000 C 
ATOM     18  S   UNL     1      17.457  38.643  45.892  0.00  0.00    +0.000 S 
BRANCH  15  19
ATOM     19  C   UNL     1      17.170  41.941  43.592  0.00  0.00    +0.000 C 
ATOM     20  O   UNL     1      17.101  41.455  42.472  0.00  0.00    +0.000 OA
ATOM     21  O   UNL     1      16.952  43.257  43.790  0.00  0.00    +0.000 OA
ENDBRANCH  15  19
ENDBRANCH   1  14
TORSDOF 4
ENDMDL
MODEL 6
REMARK VINA RESULT:      -7.0      2.425      3.180
REMARK  Name = 347848
REMARK  4 active torsions:
REMARK  status: ('A' for Active; 'I' for Inactive)
REMARK    1  A    between atoms: C_3  and  O_5
REMARK    2  A    between atoms: C_6  and  S_8
REMARK    3  A    between atoms: S_8  and  N_13
REMARK    4  A    between atoms: C_14  and  C_16
REMARK                            x       y       z     vdW  Elec       q    Type
REMARK                         _______ _______ _______ _____ _____    ______ ____
ROOT
ATOM      1  S   UNL     1      17.786  39.711  46.077  0.00  0.00    +0.000 S 
ATOM      2  O   UNL     1      17.698  38.314  45.727  0.00  0.00    +0.000 OA
ATOM      3  O   UNL     1      17.309  40.146  47.377  0.00  0.00    +0.000 OA
ENDROOT
BRANCH   1   8
ATOM      4 CL   UNL     1      22.434  40.138  43.202  0.00  0.00    +0.000 Cl
ATOM      5  C   UNL     1      21.527  40.431  44.642  0.00  0.00    +0.000 A 
ATOM      6  C   UNL     1      20.213  39.959  44.754  0.00  0.00    +0.000 A 
ATOM      7  C   UNL     1      22.119  41.141  45.681  0.00  0.00    +0.000 A 
ATOM      8  C   UNL     1      19.472  40.237  45.904  0.00  0.00    +0.000 A 
ATOM      9  C   UNL     1      21.396  41.365  46.848  0.00  0.00    +0.000 A 
ATOM     10  C   UNL     1      20.079  40.918  46.970  0.00  0.00    +0.000 A 
ATOM     11 CL   UNL     1      22.138  42.199  48.156  0.00  0.00    +0.000 Cl
BRANCH   6  12
ATOM     12  O   UNL     1      19.676  39.225  43.736  0.00  0.00    +0.000 OA
ATOM     13  H   UNL     1      20.138  38.484  43.399  0.00  0.00    +0.000 HD
ENDBRANCH   6  12
ENDBRANCH   1   8
BRANCH   1  14
ATOM     14  N   UNL     1      16.908  40.612  44.978  0.00  0.00    +0.000 NA
ATOM     15  C   UNL     1      16.821  42.092  44.973  0.00  0.00    +0.000 C 
ATOM     16  C   UNL     1      16.680  40.057  43.642  0.00  0.00    +0.000 C 
ATOM     17  C   UNL     1      17.394  42.606  43.645  0.00  0.00    +0.000 C 
ATOM     18  S   UNL     1      17.253  41.269  42.439  0.00  0.00    +0.000 S 
BRANCH  15  19
ATOM     19  C   UNL     1      17.384  42.927  46.110  0.00  0.00    +0.000 C 
ATOM     20  O   UNL     1      18.488  43.455  46.093  0.00  0.00    +0.000 OA
ATOM     21  O   UNL     1      16.541  43.121  47.145  0.00  0.00    +0.000 OA
ENDBRANCH  15  19
ENDBRANCH   1  14
TORSDOF 4
ENDMDL
MODEL 7
REMARK VINA RESULT:      -6.9      1.488      2.849
REMARK  Name = 347848
REMARK  4 active torsions:
REMARK  status: ('A' for Active; 'I' for Inactive)
REMARK    1  A    between atoms: C_3  and  O_5
REMARK    2  A    between atoms: C_6  and  S_8
REMARK    3  A    between atoms: S_8  and  N_13
REMARK    4  A    between atoms: C_14  and  C_16
REMARK                            x       y       z     vdW  Elec       q    Type
REMARK                         _______ _______ _______ _____ _____    ______ ____
ROOT
ATOM      1  S   UNL     1      20.716  41.431  44.525  0.00  0.00    +0.000 S 
ATOM      2  O   UNL     1      20.436  42.830  44.746  0.00  0.00    +0.000 OA
ATOM      3  O   UNL     1      21.125  40.991  43.203  0.00  0.00    +0.000 OA
ENDROOT
BRANCH   1   8
ATOM      4 CL   UNL     1      23.558  42.087  49.166  0.00  0.00    +0.000 Cl
ATOM      5  C   UNL     1      23.208  41.187  47.734  0.00  0.00    +0.000 A 
ATOM      6  C   UNL     1      22.258  41.661  46.820  0.00  0.00    +0.000 A 
ATOM      7  C   UNL     1      23.880  39.991  47.507  0.00  0.00    +0.000 A 
ATOM      8  C   UNL     1      21.950  40.907  45.687  0.00  0.00    +0.000 A 
ATOM      9  C   UNL     1      23.611  39.272  46.346  0.00  0.00    +0.000 A 
ATOM     10  C   UNL     1      22.654  39.720  45.434  0.00  0.00    +0.000 A 
ATOM     11 CL   UNL     1      24.474  37.817  46.033  0.00  0.00    +0.000 Cl
BRANCH   6  12
ATOM     12  O   UNL     1      21.649  42.861  47.049  0.00  0.00    +0.000 OA
ATOM     13  H   UNL     1      20.782  42.885  47.403  0.00  0.00    +0.000 HD
ENDBRANCH   6  12
ENDBRANCH   1   8
BRANCH   1  14
ATOM     14  N   UNL     1      19.350  40.534  44.869  0.00  0.00    +0.000 NA
ATOM     15  C   UNL     1      18.255  40.969  45.769  0.00  0.00    +0.000 C 
ATOM     16  C   UNL     1      18.874  39.573  43.871  0.00  0.00    +0.000 C 
ATOM     17  C   UNL     1      16.958  41.047  44.950  0.00  0.00    +0.000 C 
ATOM     18  S   UNL     1      17.145  39.946  43.530  0.00  0.00    +0.000 S 
BRANCH  15  19
ATOM     19  C   UNL     1      18.375  42.219  46.624  0.00  0.00    +0.000 C 
ATOM     20  O   UNL     1      17.855  43.291  46.349  0.00  0.00    +0.000 OA
ATOM     21  O   UNL     1      19.050  42.053  47.780  0.00  0.00    +0.000 OA
ENDBRANCH  15  19
ENDBRANCH   1  14
TORSDOF 4
ENDMDL
MODEL 8
REMARK VINA RESULT:      -6.9      3.216      5.545
REMARK  Name = 347848
REMARK  4 active torsions:
REMARK  status: ('A' for Active; 'I' for Inactive)
REMARK    1  A    between atoms: C_3  and  O_5
REMARK    2  A    between atoms: C_6  and  S_8
REMARK    3  A    between atoms: S_8  and  N_13
REMARK    4  A    between atoms: C_14  and  C_16
REMARK                            x       y       z     vdW  Elec       q    Type
REMARK                         _______ _______ _______ _____ _____    ______ ____
ROOT
ATOM      1  S   UNL     1      20.897  41.773  45.280  0.00  0.00    +0.000 S 
ATOM      2  O   UNL     1      21.019  41.154  43.981  0.00  0.00    +0.000 OA
ATOM      3  O   UNL     1      21.322  43.150  45.450  0.00  0.00    +0.000 OA
ENDROOT
BRANCH   1   8
ATOM      4 CL   UNL     1      16.371  38.857  46.314  0.00  0.00    +0.000 Cl
ATOM      5  C   UNL     1      17.208  40.367  46.274  0.00  0.00    +0.000 A 
ATOM      6  C   UNL     1      18.526  40.429  45.803  0.00  0.00    +0.000 A 
ATOM      7  C   UNL     1      16.556  41.513  46.719  0.00  0.00    +0.000 A 
ATOM      8  C   UNL     1      19.209  41.646  45.814  0.00  0.00    +0.000 A 
ATOM      9  C   UNL     1      17.223  42.733  46.673  0.00  0.00    +0.000 A 
ATOM     10  C   UNL     1      18.543  42.811  46.223  0.00  0.00    +0.000 A 
ATOM     11 CL   UNL     1      16.407  44.162  47.173  0.00  0.00    +0.000 Cl
BRANCH   6  12
ATOM     12  O   UNL     1      19.122  39.296  45.331  0.00  0.00    +0.000 OA
ATOM     13  H   UNL     1      19.344  39.227  44.423  0.00  0.00    +0.000 HD
ENDBRANCH   6  12
ENDBRANCH   1   8
BRANCH   1  14
ATOM     14  N   UNL     1      21.797  40.908  46.390  0.00  0.00    +0.000 NA
ATOM     15  C   UNL     1      23.020  40.134  46.070  0.00  0.00    +0.000 C 
ATOM     16  C   UNL     1      21.788  41.343  47.788  0.00  0.00    +0.000 C 
ATOM     17  C   UNL     1      24.191  40.730  46.863  0.00  0.00    +0.000 C 
ATOM     18  S   UNL     1      23.498  41.574  48.302  0.00  0.00    +0.000 S 
BRANCH  15  19
ATOM     19  C   UNL     1      23.463  39.900  44.635  0.00  0.00    +0.000 C 
ATOM     20  O   UNL     1      24.240  40.625  44.031  0.00  0.00    +0.000 OA
ATOM     21  O   UNL     1      22.990  38.770  44.072  0.00  0.00    +0.000 OA
ENDBRANCH  15  19
ENDBRANCH   1  14
TORSDOF 4
ENDMDL
MODEL 9
REMARK VINA RESULT:      -6.9      3.375      5.977
REMARK  Name = 347848
REMARK  4 active torsions:
REMARK  status: ('A' for Active; 'I' for Inactive)
REMARK    1  A    between atoms: C_3  and  O_5
REMARK    2  A    between atoms: C_6  and  S_8
REMARK    3  A    between atoms: S_8  and  N_13
REMARK    4  A    between atoms: C_14  and  C_16
REMARK                            x       y       z     vdW  Elec       q    Type
REMARK                         _______ _______ _______ _____ _____    ______ ____
ROOT
ATOM      1  S   UNL     1      20.128  41.416  46.289  0.00  0.00    +0.000 S 
ATOM      2  O   UNL     1      19.851  42.827  46.420  0.00  0.00    +0.000 OA
ATOM      3  O   UNL     1      20.306  40.617  47.488  0.00  0.00    +0.000 OA
ENDROOT
BRANCH   1   8
ATOM      4 CL   UNL     1      16.807  41.350  41.928  0.00  0.00    +0.000 Cl
ATOM      5  C   UNL     1      17.377  40.634  43.393  0.00  0.00    +0.000 A 
ATOM      6  C   UNL     1      18.360  41.278  44.155  0.00  0.00    +0.000 A 
ATOM      7  C   UNL     1      16.848  39.413  43.798  0.00  0.00    +0.000 A 
ATOM      8  C   UNL     1      18.845  40.672  45.315  0.00  0.00    +0.000 A 
ATOM      9  C   UNL     1      17.294  38.842  44.986  0.00  0.00    +0.000 A 
ATOM     10  C   UNL     1      18.286  39.460  45.749  0.00  0.00    +0.000 A 
ATOM     11 CL   UNL     1      16.609  37.357  45.519  0.00  0.00    +0.000 Cl
BRANCH   6  12
ATOM     12  O   UNL     1      18.826  42.497  43.755  0.00  0.00    +0.000 OA
ATOM     13  H   UNL     1      19.523  42.549  43.132  0.00  0.00    +0.000 HD
ENDBRANCH   6  12
ENDBRANCH   1   8
BRANCH   1  14
ATOM     14  N   UNL     1      21.542  41.209  45.425  0.00  0.00    +0.000 NA
ATOM     15  C   UNL     1      22.894  41.103  46.024  0.00  0.00    +0.000 C 
ATOM     16  C   UNL     1      21.476  40.532  44.128  0.00  0.00    +0.000 C 
ATOM     17  C   UNL     1      23.476  39.729  45.664  0.00  0.00    +0.000 C 
ATOM     18  S   UNL     1      22.647  39.164  44.162  0.00  0.00    +0.000 S 
BRANCH  15  19
ATOM     19  C   UNL     1      23.134  41.370  47.500  0.00  0.00    +0.000 C 
ATOM     20  O   UNL     1      22.960  42.455  48.038  0.00  0.00    +0.000 OA
ATOM     21  O   UNL     1      23.494  40.289  48.222  0.00  0.00    +0.000 OA
ENDBRANCH  15  19
ENDBRANCH   1  14
TORSDOF 4
ENDMDL
