REMARK  Name = 
REMARK  3 active torsions:
REMARK  status: ('A' for Active; 'I' for Inactive)
REMARK    1  A    between atoms: C_2  and  C_4
REMARK    2  A    between atoms: C_11  and  C_12
REMARK    3  A    between atoms: N_17  and  C_18
REMARK                            x       y       z     vdW  Elec       q    Type
REMARK                         _______ _______ _______ _____ _____    ______ ____
ROOT
ATOM      1  C   UNL     1       2.844   1.068  -0.754  0.00  0.00    -0.001 A 
ATOM      2  C   UNL     1       2.435   2.364  -0.401  0.00  0.00    +0.012 A 
ATOM      3  C   UNL     1       2.989   3.508  -0.988  0.00  0.00    +0.028 A 
ATOM      4  C   UNL     1       3.983   3.322  -1.957  0.00  0.00    +0.069 A 
ATOM      5  C   UNL     1       4.429   2.053  -2.317  0.00  0.00    +0.090 A 
ATOM      6  C   UNL     1       3.855   0.918  -1.723  0.00  0.00    +0.039 A 
ATOM      7  N   UNL     1       5.432   2.137  -3.247  0.00  0.00    -0.227 NA
ATOM      8  C   UNL     1       5.659   3.423  -3.432  0.00  0.00    +0.145 A 
ATOM      9  N   UNL     1       4.713   4.180  -2.760  0.00  0.00    -0.320 N 
ENDROOT
BRANCH   9  10
ATOM     10  C   UNL     1       4.465   5.607  -2.926  0.00  0.00    +0.089 C 
ATOM     11  C   UNL     1       3.018   5.948  -3.331  0.00  0.00    +0.025 C 
ATOM     12  C   UNL     1       2.847   7.451  -3.553  0.00  0.00    +0.002 C 
ATOM     13  C   UNL     1       3.296   8.251  -2.334  0.00  0.00    +0.000 C 
ATOM     14  C   UNL     1       4.733   7.922  -1.939  0.00  0.00    +0.002 C 
ATOM     15  C   UNL     1       4.930   6.424  -1.713  0.00  0.00    +0.025 C 
ENDBRANCH   9  10
BRANCH   8  16
ATOM     16  C   UNL     1       6.820   3.872  -4.260  0.00  0.00    +0.055 A 
ATOM     17  C   UNL     1       7.431   5.138  -4.430  0.00  0.00    +0.052 A 
ATOM     18  C   UNL     1       8.482   4.946  -5.299  0.00  0.00    +0.195 A 
ATOM     19  O   UNL     1       8.568   3.642  -5.663  0.00  0.00    -0.470 OA
ATOM     20  C   UNL     1       7.567   2.992  -5.016  0.00  0.00    +0.206 A 
ENDBRANCH   8  16
BRANCH   1  22
ATOM     21  O   UNL     1       1.309   0.073   0.769  0.00  0.00    -0.545 OA
ATOM     22  C   UNL     1       2.213  -0.145  -0.099  0.00  0.00    +0.072 C 
ATOM     23  O   UNL     1       2.631  -1.288  -0.464  0.00  0.00    -0.545 OA
ENDBRANCH   1  22
TORSDOF 3
