
 OpenBabel09122219283D

 23 26  0  0  0  0  0  0  0  0999 V2000
   10.3730    4.1510    1.6610 C   0  0  0  0  0  0  0  0  0  0  0  0
   11.0820    3.8230    0.4940 C   0  0  0  0  0  3  0  0  0  0  0  0
   11.0790    2.5290   -0.0420 C   0  0  0  0  0  3  0  0  0  0  0  0
   10.3350    1.5510    0.6300 C   0  0  0  0  0  0  0  0  0  0  0  0
    9.6380    1.8350    1.8010 C   0  0  0  0  0  0  0  0  0  0  0  0
    9.6460    3.1400    2.3180 C   0  0  0  0  0  3  0  0  0  0  0  0
    9.0290    0.7080    2.2880 N   0  0  0  0  0  0  0  0  0  0  0  0
    9.3760   -0.2780    1.4840 C   0  0  0  0  0  0  0  0  0  0  0  0
   10.0680    0.2150    0.3890 N   0  0  0  0  0  0  0  0  0  0  0  0
   10.3870   -0.5090   -0.8350 C   0  0  0  0  0  3  0  0  0  0  0  0
   10.5800    0.3970   -2.0660 C   0  0  0  0  0  2  0  0  0  0  0  0
   10.8440   -0.4300   -3.3250 C   0  0  0  0  0  2  0  0  0  0  0  0
   12.0210   -1.3810   -3.1320 C   0  0  0  0  0  2  0  0  0  0  0  0
   11.8250   -2.2870   -1.9200 C   0  0  0  0  0  2  0  0  0  0  0  0
   11.5580   -1.4830   -0.6490 C   0  0  0  0  0  2  0  0  0  0  0  0
    9.0260   -1.6900    1.8270 C   0  0  0  0  0  0  0  0  0  0  0  0
    8.7740   -2.8280    1.0230 C   0  0  0  0  0  3  0  0  0  0  0  0
    8.5260   -3.8680    1.8910 C   0  0  0  0  0  3  0  0  0  0  0  0
    8.6240   -3.4480    3.1780 O   0  0  0  0  0  0  0  0  0  0  0  0
    8.9440   -2.1300    3.1330 C   0  0  0  0  0  3  0  0  0  0  0  0
   10.3780    5.6980    3.4700 O   0  0  0  0  0  1  0  0  0  0  0  0
   10.3970    5.5660    2.2050 C   0  0  0  0  0  0  0  0  0  0  0  0
   10.4340    6.5150    1.3600 O   0  0  0  0  0  0  0  0  0  0  0  0
  1 22  1  0  0  0  0
  1  6  1  0  0  0  0
  2  1  2  0  0  0  0
  3  2  1  0  0  0  0
  3  4  2  0  0  0  0
  4  5  1  0  0  0  0
  5  7  1  0  0  0  0
  5  6  2  0  0  0  0
  8 16  1  0  0  0  0
  8  7  2  0  0  0  0
  9  4  1  0  0  0  0
  9  8  1  0  0  0  0
 10 15  1  0  0  0  0
 10  9  1  0  0  0  0
 11 10  1  0  0  0  0
 12 13  1  0  0  0  0
 12 11  1  0  0  0  0
 13 14  1  0  0  0  0
 14 15  1  0  0  0  0
 16 20  2  0  0  0  0
 17 16  1  0  0  0  0
 17 18  2  0  0  0  0
 18 19  1  0  0  0  0
 20 19  1  0  0  0  0
 22 21  1  0  0  0  0
 23 22  2  0  0  0  0
M  END
>  <minimizedAffinity>
-6.0595603

$$$$

 OpenBabel09122219283D

 23 26  0  0  0  0  0  0  0  0999 V2000
    9.9700    5.4580    0.4090 C   0  0  0  0  0  0  0  0  0  0  0  0
    9.2430    6.2430   -0.5000 C   0  0  0  0  0  3  0  0  0  0  0  0
    9.1560    7.6360   -0.3830 C   0  0  0  0  0  3  0  0  0  0  0  0
    9.8280    8.2380    0.6880 C   0  0  0  0  0  0  0  0  0  0  0  0
   10.5400    7.4900    1.6220 C   0  0  0  0  0  0  0  0  0  0  0  0
   10.6220    6.0960    1.4820 C   0  0  0  0  0  3  0  0  0  0  0  0
   11.0670    8.3010    2.5930 N   0  0  0  0  0  0  0  0  0  0  0  0
   10.6540    9.5230    2.3200 C   0  0  0  0  0  0  0  0  0  0  0  0
   10.0010    9.5480    1.0980 N   0  0  0  0  0  0  0  0  0  0  0  0
    9.6360   10.7340    0.3320 C   0  0  0  0  0  3  0  0  0  0  0  0
   10.2270   10.7670   -1.0910 C   0  0  0  0  0  2  0  0  0  0  0  0
    9.8610   12.0650   -1.8100 C   0  0  0  0  0  2  0  0  0  0  0  0
    8.3530   12.2930   -1.8190 C   0  0  0  0  0  2  0  0  0  0  0  0
    7.7680   12.2720   -0.4100 C   0  0  0  0  0  2  0  0  0  0  0  0
    8.1220   10.9840    0.3310 C   0  0  0  0  0  2  0  0  0  0  0  0
   10.9030   10.6370    3.2850 C   0  0  0  0  0  0  0  0  0  0  0  0
   10.0260   11.4430    4.0510 C   0  0  0  0  0  3  0  0  0  0  0  0
   10.8240   12.2930    4.7850 C   0  0  0  0  0  3  0  0  0  0  0  0
   12.1350   12.0520    4.5330 O   0  0  0  0  0  0  0  0  0  0  0  0
   12.1770   11.0350    3.6350 C   0  0  0  0  0  3  0  0  0  0  0  0
    9.0930    3.2700    0.7380 O   0  0  0  0  0  1  0  0  0  0  0  0
   10.0440    3.9530    0.2410 C   0  0  0  0  0  0  0  0  0  0  0  0
   11.0470    3.4850   -0.3820 O   0  0  0  0  0  0  0  0  0  0  0  0
  1  6  1  0  0  0  0
  2  3  1  0  0  0  0
  2  1  2  0  0  0  0
  3  4  2  0  0  0  0
  4  9  1  0  0  0  0
  4  5  1  0  0  0  0
  5  7  1  0  0  0  0
  6  5  2  0  0  0  0
  8  7  2  0  0  0  0
  8 16  1  0  0  0  0
  9  8  1  0  0  0  0
 10  9  1  0  0  0  0
 11 10  1  0  0  0  0
 12 11  1  0  0  0  0
 13 12  1  0  0  0  0
 13 14  1  0  0  0  0
 14 15  1  0  0  0  0
 15 10  1  0  0  0  0
 16 20  2  0  0  0  0
 16 17  1  0  0  0  0
 17 18  2  0  0  0  0
 19 18  1  0  0  0  0
 20 19  1  0  0  0  0
 22  1  1  0  0  0  0
 22 21  1  0  0  0  0
 23 22  2  0  0  0  0
M  END
>  <minimizedAffinity>
-5.61774397

$$$$

 OpenBabel09122219283D

 23 26  0  0  0  0  0  0  0  0999 V2000
   10.3380    4.5360    0.7520 C   0  0  0  0  0  0  0  0  0  0  0  0
   11.2530    5.0550    1.6820 C   0  0  0  0  0  3  0  0  0  0  0  0
   11.3710    6.4290    1.9260 C   0  0  0  0  0  3  0  0  0  0  0  0
   10.5350    7.2900    1.2040 C   0  0  0  0  0  0  0  0  0  0  0  0
    9.6310    6.8130    0.2590 C   0  0  0  0  0  0  0  0  0  0  0  0
    9.5210    5.4310    0.0340 C   0  0  0  0  0  3  0  0  0  0  0  0
    8.9640    7.8490   -0.3410 N   0  0  0  0  0  0  0  0  0  0  0  0
    9.4690    8.9570    0.1650 C   0  0  0  0  0  0  0  0  0  0  0  0
   10.3400    8.6590    1.2010 N   0  0  0  0  0  0  0  0  0  0  0  0
   10.8890    9.5990    2.1710 C   0  0  0  0  0  3  0  0  0  0  0  0
   11.9100   10.5880    1.5770 C   0  0  0  0  0  2  0  0  0  0  0  0
   12.4930   11.4960    2.6600 C   0  0  0  0  0  2  0  0  0  0  0  0
   11.3950   12.2160    3.4370 C   0  0  0  0  0  2  0  0  0  0  0  0
   10.3900   11.2360    4.0350 C   0  0  0  0  0  2  0  0  0  0  0  0
    9.7930   10.3160    2.9720 C   0  0  0  0  0  2  0  0  0  0  0  0
    9.0880   10.2870   -0.4010 C   0  0  0  0  0  0  0  0  0  0  0  0
    8.1080   11.2350   -0.0190 C   0  0  0  0  0  3  0  0  0  0  0  0
    8.2290   12.2900   -0.8960 C   0  0  0  0  0  3  0  0  0  0  0  0
    9.2300   12.0610   -1.7820 O   0  0  0  0  0  0  0  0  0  0  0  0
    9.7580   10.8510   -1.4670 C   0  0  0  0  0  3  0  0  0  0  0  0
   10.7970    2.5790   -0.5220 O   0  0  0  0  0  0  0  0  0  0  0  0
   10.2370    3.0410    0.5220 C   0  0  0  0  0  0  0  0  0  0  0  0
    9.6010    2.3600    1.3870 O   0  0  0  0  0  1  0  0  0  0  0  0
  1  2  1  0  0  0  0
  2  3  2  0  0  0  0
  4  3  1  0  0  0  0
  5  4  2  0  0  0  0
  6  5  1  0  0  0  0
  6  1  2  0  0  0  0
  7  8  2  0  0  0  0
  7  5  1  0  0  0  0
  8  9  1  0  0  0  0
  9  4  1  0  0  0  0
  9 10  1  0  0  0  0
 10 15  1  0  0  0  0
 11 10  1  0  0  0  0
 11 12  1  0  0  0  0
 12 13  1  0  0  0  0
 13 14  1  0  0  0  0
 15 14  1  0  0  0  0
 16 17  1  0  0  0  0
 16  8  1  0  0  0  0
 18 17  2  0  0  0  0
 19 20  1  0  0  0  0
 19 18  1  0  0  0  0
 20 16  2  0  0  0  0
 21 22  2  0  0  0  0
 22  1  1  0  0  0  0
 22 23  1  0  0  0  0
M  END
>  <minimizedAffinity>
-5.5170269

$$$$

 OpenBabel09122219283D

 23 26  0  0  0  0  0  0  0  0999 V2000
    9.0460    9.3160    0.7450 C   0  0  0  0  0  0  0  0  0  0  0  0
    9.3540    8.6450   -0.4490 C   0  0  0  0  0  3  0  0  0  0  0  0
    9.8550    7.3380   -0.4640 C   0  0  0  0  0  3  0  0  0  0  0  0
   10.0470    6.7040    0.7700 C   0  0  0  0  0  0  0  0  0  0  0  0
    9.7740    7.3450    1.9750 C   0  0  0  0  0  0  0  0  0  0  0  0
    9.2630    8.6530    1.9690 C   0  0  0  0  0  3  0  0  0  0  0  0
   10.0840    6.5360    3.0370 N   0  0  0  0  0  0  0  0  0  0  0  0
   10.5940    5.4330    2.5250 C   0  0  0  0  0  0  0  0  0  0  0  0
   10.4740    5.4420    1.1450 N   0  0  0  0  0  0  0  0  0  0  0  0
   10.6730    4.3100    0.2480 C   0  0  0  0  0  3  0  0  0  0  0  0
   12.1530    3.9420    0.0240 C   0  0  0  0  0  2  0  0  0  0  0  0
   12.2900    2.7940   -0.9770 C   0  0  0  0  0  2  0  0  0  0  0  0
   11.4640    1.5830   -0.5550 C   0  0  0  0  0  2  0  0  0  0  0  0
    9.9960    1.9450   -0.3430 C   0  0  0  0  0  2  0  0  0  0  0  0
    9.8330    3.0920    0.6520 C   0  0  0  0  0  2  0  0  0  0  0  0
   11.2050    4.4000    3.4180 C   0  0  0  0  0  0  0  0  0  0  0  0
   12.5460    4.1380    3.7860 C   0  0  0  0  0  3  0  0  0  0  0  0
   12.5060    3.0740    4.6600 C   0  0  0  0  0  3  0  0  0  0  0  0
   11.2260    2.6730    4.8650 O   0  0  0  0  0  0  0  0  0  0  0  0
   10.4390    3.4930    4.1210 C   0  0  0  0  0  3  0  0  0  0  0  0
    8.5830   11.4020    1.7930 O   0  0  0  0  0  1  0  0  0  0  0  0
    8.4980   10.7290    0.7170 C   0  0  0  0  0  0  0  0  0  0  0  0
    7.9960   11.1370   -0.3770 O   0  0  0  0  0  0  0  0  0  0  0  0
  1  6  1  0  0  0  0
  2  1  2  0  0  0  0
  3  2  1  0  0  0  0
  3  4  2  0  0  0  0
  4  9  1  0  0  0  0
  4  5  1  0  0  0  0
  5  7  1  0  0  0  0
  6  5  2  0  0  0  0
  8  7  2  0  0  0  0
  8 16  1  0  0  0  0
  9  8  1  0  0  0  0
 10 15  1  0  0  0  0
 10  9  1  0  0  0  0
 11 10  1  0  0  0  0
 12 13  1  0  0  0  0
 12 11  1  0  0  0  0
 13 14  1  0  0  0  0
 14 15  1  0  0  0  0
 16 17  1  0  0  0  0
 16 20  2  0  0  0  0
 17 18  2  0  0  0  0
 18 19  1  0  0  0  0
 20 19  1  0  0  0  0
 22  1  1  0  0  0  0
 22 21  1  0  0  0  0
 23 22  2  0  0  0  0
M  END
>  <minimizedAffinity>
-5.44652605

$$$$

 OpenBabel09122219283D

 23 26  0  0  0  0  0  0  0  0999 V2000
    9.4470   10.5510   -2.6850 C   0  0  0  0  0  0  0  0  0  0  0  0
    9.7990    9.2390   -3.0420 C   0  0  0  0  0  3  0  0  0  0  0  0
   10.2210    8.2960   -2.0980 C   0  0  0  0  0  3  0  0  0  0  0  0
   10.2850    8.7030   -0.7590 C   0  0  0  0  0  0  0  0  0  0  0  0
    9.9640   10.0010   -0.3710 C   0  0  0  0  0  0  0  0  0  0  0  0
    9.5350   10.9300   -1.3310 C   0  0  0  0  0  3  0  0  0  0  0  0
   10.1480   10.1630    0.9780 N   0  0  0  0  0  0  0  0  0  0  0  0
   10.6270    9.0190    1.4270 C   0  0  0  0  0  0  0  0  0  0  0  0
   10.6070    8.0630    0.4240 N   0  0  0  0  0  0  0  0  0  0  0  0
   10.8020    6.6280    0.5890 C   0  0  0  0  0  3  0  0  0  0  0  0
    9.6190    5.7740    0.0950 C   0  0  0  0  0  2  0  0  0  0  0  0
    9.8620    4.2880    0.3600 C   0  0  0  0  0  2  0  0  0  0  0  0
   11.1850    3.8220   -0.2410 C   0  0  0  0  0  2  0  0  0  0  0  0
   12.3590    4.6600    0.2570 C   0  0  0  0  0  2  0  0  0  0  0  0
   12.1390    6.1510    0.0050 C   0  0  0  0  0  2  0  0  0  0  0  0
   11.1080    8.9050    2.8380 C   0  0  0  0  0  0  0  0  0  0  0  0
   11.4980    7.7920    3.6200 C   0  0  0  0  0  3  0  0  0  0  0  0
   11.8730    8.2940    4.8460 C   0  0  0  0  0  3  0  0  0  0  0  0
   11.7550    9.6450    4.8650 O   0  0  0  0  0  0  0  0  0  0  0  0
   11.3050   10.0120    3.6380 C   0  0  0  0  0  3  0  0  0  0  0  0
    9.8770   12.2930   -4.2490 O   0  0  0  0  0  0  0  0  0  0  0  0
    8.9880   11.5400   -3.7380 C   0  0  0  0  0  0  0  0  0  0  0  0
    7.7530   11.5440   -4.0340 O   0  0  0  0  0  1  0  0  0  0  0  0
  1  6  1  0  0  0  0
  2  1  2  0  0  0  0
  2  3  1  0  0  0  0
  3  4  2  0  0  0  0
  4  5  1  0  0  0  0
  4  9  1  0  0  0  0
  5  7  1  0  0  0  0
  6  5  2  0  0  0  0
  7  8  2  0  0  0  0
  8 16  1  0  0  0  0
  9 10  1  0  0  0  0
  9  8  1  0  0  0  0
 11 12  1  0  0  0  0
 11 10  1  0  0  0  0
 13 14  1  0  0  0  0
 13 12  1  0  0  0  0
 15 14  1  0  0  0  0
 15 10  1  0  0  0  0
 16 17  1  0  0  0  0
 16 20  2  0  0  0  0
 17 18  2  0  0  0  0
 18 19  1  0  0  0  0
 20 19  1  0  0  0  0
 21 22  2  0  0  0  0
 22  1  1  0  0  0  0
 23 22  1  0  0  0  0
M  END
>  <minimizedAffinity>
-5.36493921

$$$$

 OpenBabel09122219283D

 23 26  0  0  0  0  0  0  0  0999 V2000
    9.3100    9.3660    0.8030 C   0  0  0  0  0  0  0  0  0  0  0  0
    9.1550    8.9640    2.1400 C   0  0  0  0  0  3  0  0  0  0  0  0
    9.5340    7.6920    2.5860 C   0  0  0  0  0  3  0  0  0  0  0  0
   10.0820    6.8120    1.6450 C   0  0  0  0  0  0  0  0  0  0  0  0
   10.2310    7.1680    0.3070 C   0  0  0  0  0  0  0  0  0  0  0  0
    9.8530    8.4510   -0.1190 C   0  0  0  0  0  3  0  0  0  0  0  0
   10.7460    6.1260   -0.4180 N   0  0  0  0  0  0  0  0  0  0  0  0
   10.8680    5.1160    0.4210 C   0  0  0  0  0  0  0  0  0  0  0  0
   10.5940    5.5290    1.7140 N   0  0  0  0  0  0  0  0  0  0  0  0
   10.8700    4.7890    2.9400 C   0  0  0  0  0  3  0  0  0  0  0  0
   10.3010    3.3570    2.9490 C   0  0  0  0  0  2  0  0  0  0  0  0
   10.5680    2.6650    4.2860 C   0  0  0  0  0  2  0  0  0  0  0  0
   12.0520    2.6850    4.6390 C   0  0  0  0  0  2  0  0  0  0  0  0
   12.6140    4.1040    4.6410 C   0  0  0  0  0  2  0  0  0  0  0  0
   12.3580    4.8180    3.3150 C   0  0  0  0  0  2  0  0  0  0  0  0
   11.2410    3.7580   -0.0830 C   0  0  0  0  0  0  0  0  0  0  0  0
   10.4590    2.6560   -0.5060 C   0  0  0  0  0  3  0  0  0  0  0  0
   11.3480    1.6760   -0.8890 C   0  0  0  0  0  3  0  0  0  0  0  0
   12.6260    2.1090   -0.7450 O   0  0  0  0  0  0  0  0  0  0  0  0
   12.5540    3.3790   -0.2710 C   0  0  0  0  0  3  0  0  0  0  0  0
    8.3310   11.4930    1.2340 O   0  0  0  0  0  1  0  0  0  0  0  0
    8.8930   10.7550    0.3630 C   0  0  0  0  0  0  0  0  0  0  0  0
    9.1350   11.0820   -0.8410 O   0  0  0  0  0  0  0  0  0  0  0  0
  1  2  1  0  0  0  0
  2  3  2  0  0  0  0
  4  9  1  0  0  0  0
  4  3  1  0  0  0  0
  5  4  2  0  0  0  0
  6  5  1  0  0  0  0
  6  1  2  0  0  0  0
  7  5  1  0  0  0  0
  7  8  2  0  0  0  0
  8  9  1  0  0  0  0
  9 10  1  0  0  0  0
 10 11  1  0  0  0  0
 10 15  1  0  0  0  0
 11 12  1  0  0  0  0
 12 13  1  0  0  0  0
 13 14  1  0  0  0  0
 15 14  1  0  0  0  0
 16  8  1  0  0  0  0
 17 16  1  0  0  0  0
 18 19  1  0  0  0  0
 18 17  2  0  0  0  0
 19 20  1  0  0  0  0
 20 16  2  0  0  0  0
 22  1  1  0  0  0  0
 22 21  1  0  0  0  0
 23 22  2  0  0  0  0
M  END
>  <minimizedAffinity>
-5.22382402

$$$$

 OpenBabel09122219283D

 23 26  0  0  0  0  0  0  0  0999 V2000
   10.4230    3.4030    2.9690 C   0  0  0  0  0  0  0  0  0  0  0  0
   10.4730    3.4230    1.5660 C   0  0  0  0  0  3  0  0  0  0  0  0
   10.5160    4.6170    0.8370 C   0  0  0  0  0  3  0  0  0  0  0  0
   10.5070    5.8180    1.5580 C   0  0  0  0  0  0  0  0  0  0  0  0
   10.4370    5.8380    2.9490 C   0  0  0  0  0  0  0  0  0  0  0  0
   10.4030    4.6290    3.6620 C   0  0  0  0  0  3  0  0  0  0  0  0
   10.3970    7.1260    3.4140 N   0  0  0  0  0  0  0  0  0  0  0  0
   10.3850    7.9040    2.3500 C   0  0  0  0  0  0  0  0  0  0  0  0
   10.5780    7.1520    1.2020 N   0  0  0  0  0  0  0  0  0  0  0  0
   10.8860    7.6620   -0.1290 C   0  0  0  0  0  3  0  0  0  0  0  0
    9.6570    8.1770   -0.9020 C   0  0  0  0  0  2  0  0  0  0  0  0
   10.0430    8.6320   -2.3100 C   0  0  0  0  0  2  0  0  0  0  0  0
   11.1630    9.6670   -2.2760 C   0  0  0  0  0  2  0  0  0  0  0  0
   12.3850    9.1540   -1.5190 C   0  0  0  0  0  2  0  0  0  0  0  0
   12.0250    8.6910   -0.1090 C   0  0  0  0  0  2  0  0  0  0  0  0
   10.1660    9.3760    2.4940 C   0  0  0  0  0  0  0  0  0  0  0  0
    9.1930   10.2490    1.9490 C   0  0  0  0  0  3  0  0  0  0  0  0
    9.4710   11.5000    2.4530 C   0  0  0  0  0  3  0  0  0  0  0  0
   10.5420   11.4520    3.2850 O   0  0  0  0  0  0  0  0  0  0  0  0
   10.9490   10.1570    3.3190 C   0  0  0  0  0  3  0  0  0  0  0  0
    9.6360    1.1740    3.2470 O   0  0  0  0  0  0  0  0  0  0  0  0
   10.3840    2.0880    3.7210 C   0  0  0  0  0  0  0  0  0  0  0  0
   11.1010    1.9920    4.7660 O   0  0  0  0  0  1  0  0  0  0  0  0
  1  6  1  0  0  0  0
  1 22  1  0  0  0  0
  2  1  2  0  0  0  0
  3  4  2  0  0  0  0
  3  2  1  0  0  0  0
  4  5  1  0  0  0  0
  5  7  1  0  0  0  0
  5  6  2  0  0  0  0
  8 16  1  0  0  0  0
  8  7  2  0  0  0  0
  9  4  1  0  0  0  0
  9  8  1  0  0  0  0
 10 15  1  0  0  0  0
 10  9  1  0  0  0  0
 11 10  1  0  0  0  0
 12 13  1  0  0  0  0
 12 11  1  0  0  0  0
 13 14  1  0  0  0  0
 14 15  1  0  0  0  0
 16 20  2  0  0  0  0
 17 18  2  0  0  0  0
 17 16  1  0  0  0  0
 18 19  1  0  0  0  0
 19 20  1  0  0  0  0
 21 22  2  0  0  0  0
 22 23  1  0  0  0  0
M  END
>  <minimizedAffinity>
-5.2114439

$$$$

 OpenBabel09122219283D

 23 26  0  0  0  0  0  0  0  0999 V2000
   10.3210    4.6010    1.0010 C   0  0  0  0  0  0  0  0  0  0  0  0
    9.4900    5.1020   -0.0130 C   0  0  0  0  0  3  0  0  0  0  0  0
    9.2840    6.4740   -0.2000 C   0  0  0  0  0  3  0  0  0  0  0  0
    9.9440    7.3520    0.6690 C   0  0  0  0  0  0  0  0  0  0  0  0
   10.7590    6.8910    1.6990 C   0  0  0  0  0  0  0  0  0  0  0  0
   10.9590    5.5110    1.8650 C   0  0  0  0  0  3  0  0  0  0  0  0
   11.2510    7.9380    2.4340 N   0  0  0  0  0  0  0  0  0  0  0  0
   10.7200    9.0310    1.9240 C   0  0  0  0  0  0  0  0  0  0  0  0
   10.0170    8.7300    0.7690 N   0  0  0  0  0  0  0  0  0  0  0  0
    9.5160    9.6820   -0.2160 C   0  0  0  0  0  3  0  0  0  0  0  0
    8.5900   10.7640    0.3730 C   0  0  0  0  0  2  0  0  0  0  0  0
    8.0500   11.6830   -0.7220 C   0  0  0  0  0  2  0  0  0  0  0  0
    9.1780   12.2930   -1.5470 C   0  0  0  0  0  2  0  0  0  0  0  0
   10.0890   11.2220   -2.1410 C   0  0  0  0  0  2  0  0  0  0  0  0
   10.6410   10.2880   -1.0650 C   0  0  0  0  0  2  0  0  0  0  0  0
   10.9090   10.3490    2.6030 C   0  0  0  0  0  0  0  0  0  0  0  0
   10.1660   11.0140    3.6090 C   0  0  0  0  0  3  0  0  0  0  0  0
   10.8300   12.1930    3.8640 C   0  0  0  0  0  3  0  0  0  0  0  0
   11.9410   12.2920    3.0920 O   0  0  0  0  0  0  0  0  0  0  0  0
   11.9930   11.1620    2.3410 C   0  0  0  0  0  3  0  0  0  0  0  0
   10.7650    2.6830    2.3390 O   0  0  0  0  0  1  0  0  0  0  0  0
   10.5230    3.1070    1.1650 C   0  0  0  0  0  0  0  0  0  0  0  0
   10.4340    2.3890    0.1200 O   0  0  0  0  0  0  0  0  0  0  0  0
  1 22  1  0  0  0  0
  1  6  1  0  0  0  0
  2  1  2  0  0  0  0
  3  2  1  0  0  0  0
  3  4  2  0  0  0  0
  4  9  1  0  0  0  0
  4  5  1  0  0  0  0
  5  6  2  0  0  0  0
  5  7  1  0  0  0  0
  8  7  2  0  0  0  0
  8 16  1  0  0  0  0
  9  8  1  0  0  0  0
 10 11  1  0  0  0  0
 10  9  1  0  0  0  0
 12 11  1  0  0  0  0
 13 12  1  0  0  0  0
 14 13  1  0  0  0  0
 14 15  1  0  0  0  0
 15 10  1  0  0  0  0
 16 17  1  0  0  0  0
 17 18  2  0  0  0  0
 19 18  1  0  0  0  0
 20 16  2  0  0  0  0
 20 19  1  0  0  0  0
 22 21  1  0  0  0  0
 23 22  2  0  0  0  0
M  END
>  <minimizedAffinity>
-5.20936728

$$$$

 OpenBabel09122219283D

 23 26  0  0  0  0  0  0  0  0999 V2000
    9.7050   10.4390   -2.4790 C   0  0  0  0  0  0  0  0  0  0  0  0
    9.6400   11.4550   -1.5120 C   0  0  0  0  0  3  0  0  0  0  0  0
    9.8710   11.2100   -0.1530 C   0  0  0  0  0  3  0  0  0  0  0  0
   10.1740    9.8960    0.2250 C   0  0  0  0  0  0  0  0  0  0  0  0
   10.2260    8.8580   -0.7020 C   0  0  0  0  0  0  0  0  0  0  0  0
   10.0000    9.1260   -2.0610 C   0  0  0  0  0  3  0  0  0  0  0  0
   10.4960    7.6670   -0.0820 N   0  0  0  0  0  0  0  0  0  0  0  0
   10.5570    7.9270    1.2100 C   0  0  0  0  0  0  0  0  0  0  0  0
   10.4920    9.2930    1.4290 N   0  0  0  0  0  0  0  0  0  0  0  0
   10.7880    9.9880    2.6760 C   0  0  0  0  0  3  0  0  0  0  0  0
   12.1330   10.7380    2.6710 C   0  0  0  0  0  2  0  0  0  0  0  0
   12.4100   11.3850    4.0280 C   0  0  0  0  0  2  0  0  0  0  0  0
   11.2600   12.2900    4.4610 C   0  0  0  0  0  2  0  0  0  0  0  0
    9.9280   11.5440    4.4770 C   0  0  0  0  0  2  0  0  0  0  0  0
    9.6300   10.8870    3.1310 C   0  0  0  0  0  2  0  0  0  0  0  0
   10.6640    6.8110    2.1990 C   0  0  0  0  0  0  0  0  0  0  0  0
   10.7520    6.8010    3.6120 C   0  0  0  0  0  3  0  0  0  0  0  0
   10.8030    5.4760    3.9870 C   0  0  0  0  0  3  0  0  0  0  0  0
   10.7350    4.6700    2.8980 O   0  0  0  0  0  0  0  0  0  0  0  0
   10.6340    5.4850    1.8170 C   0  0  0  0  0  3  0  0  0  0  0  0
   10.2680   11.5460   -4.5090 O   0  0  0  0  0  0  0  0  0  0  0  0
    9.4550   10.7490   -3.9420 C   0  0  0  0  0  0  0  0  0  0  0  0
    8.4560   10.1910   -4.4930 O   0  0  0  0  0  1  0  0  0  0  0  0
  1  6  2  0  0  0  0
  1  2  1  0  0  0  0
  2  3  2  0  0  0  0
  3  4  1  0  0  0  0
  4  9  1  0  0  0  0
  5  7  1  0  0  0  0
  5  4  2  0  0  0  0
  6  5  1  0  0  0  0
  7  8  2  0  0  0  0
  8  9  1  0  0  0  0
  8 16  1  0  0  0  0
  9 10  1  0  0  0  0
 10 15  1  0  0  0  0
 11 10  1  0  0  0  0
 11 12  1  0  0  0  0
 12 13  1  0  0  0  0
 13 14  1  0  0  0  0
 15 14  1  0  0  0  0
 16 17  1  0  0  0  0
 17 18  2  0  0  0  0
 19 18  1  0  0  0  0
 20 16  2  0  0  0  0
 20 19  1  0  0  0  0
 21 22  2  0  0  0  0
 22  1  1  0  0  0  0
 23 22  1  0  0  0  0
M  END
>  <minimizedAffinity>
-5.12843943

$$$$

 OpenBabel09122219283D

 23 26  0  0  0  0  0  0  0  0999 V2000
   10.6650    4.2380    2.9810 C   0  0  0  0  0  0  0  0  0  0  0  0
   10.7620    5.3890    3.7790 C   0  0  0  0  0  3  0  0  0  0  0  0
   10.7920    6.6780    3.2310 C   0  0  0  0  0  3  0  0  0  0  0  0
   10.7210    6.7900    1.8370 C   0  0  0  0  0  0  0  0  0  0  0  0
   10.6450    5.6710    1.0130 C   0  0  0  0  0  0  0  0  0  0  0  0
   10.6080    4.3880    1.5810 C   0  0  0  0  0  3  0  0  0  0  0  0
   10.6310    6.0400   -0.3070 N   0  0  0  0  0  0  0  0  0  0  0  0
   10.7530    7.3530   -0.3260 C   0  0  0  0  0  0  0  0  0  0  0  0
   10.6830    7.8610    0.9620 N   0  0  0  0  0  0  0  0  0  0  0  0
   10.5140    9.2600    1.3350 C   0  0  0  0  0  3  0  0  0  0  0  0
   11.7400   10.1420    1.0290 C   0  0  0  0  0  2  0  0  0  0  0  0
   11.5190   11.5780    1.5070 C   0  0  0  0  0  2  0  0  0  0  0  0
   10.2380   12.1690    0.9280 C   0  0  0  0  0  2  0  0  0  0  0  0
    9.0220   11.3020    1.2400 C   0  0  0  0  0  2  0  0  0  0  0  0
    9.2190    9.8610    0.7730 C   0  0  0  0  0  2  0  0  0  0  0  0
   10.9500    8.0740   -1.6210 C   0  0  0  0  0  0  0  0  0  0  0  0
   12.1150    8.5230   -2.2890 C   0  0  0  0  0  3  0  0  0  0  0  0
   11.6880    9.1010   -3.4630 C   0  0  0  0  0  3  0  0  0  0  0  0
   10.3380    9.0240   -3.5700 O   0  0  0  0  0  0  0  0  0  0  0  0
    9.8970    8.3840   -2.4570 C   0  0  0  0  0  3  0  0  0  0  0  0
    9.6040    2.1450    3.3780 O   0  0  0  0  0  0  0  0  0  0  0  0
   10.6290    2.8610    3.6140 C   0  0  0  0  0  0  0  0  0  0  0  0
   11.6210    2.5240    4.3320 O   0  0  0  0  0  1  0  0  0  0  0  0
  1 22  1  0  0  0  0
  1  2  1  0  0  0  0
  3  2  2  0  0  0  0
  4  3  1  0  0  0  0
  5  6  1  0  0  0  0
  5  4  2  0  0  0  0
  6  1  2  0  0  0  0
  7  5  1  0  0  0  0
  8  7  2  0  0  0  0
  8  9  1  0  0  0  0
  9 10  1  0  0  0  0
  9  4  1  0  0  0  0
 11 10  1  0  0  0  0
 11 12  1  0  0  0  0
 13 14  1  0  0  0  0
 13 12  1  0  0  0  0
 15 14  1  0  0  0  0
 15 10  1  0  0  0  0
 16  8  1  0  0  0  0
 17 16  1  0  0  0  0
 18 17  2  0  0  0  0
 19 18  1  0  0  0  0
 19 20  1  0  0  0  0
 20 16  2  0  0  0  0
 21 22  2  0  0  0  0
 22 23  1  0  0  0  0
M  END
>  <minimizedAffinity>
-5.04991245

$$$$
