
 OpenBabel09122222393D

 23 26  0  0  0  0  0  0  0  0999 V2000
   10.3380    4.5360    0.7520 C   0  0  0  0  0  0  0  0  0  0  0  0
   11.2530    5.0550    1.6820 C   0  0  0  0  0  3  0  0  0  0  0  0
   11.3710    6.4290    1.9260 C   0  0  0  0  0  3  0  0  0  0  0  0
   10.5350    7.2900    1.2040 C   0  0  0  0  0  0  0  0  0  0  0  0
    9.6310    6.8130    0.2590 C   0  0  0  0  0  0  0  0  0  0  0  0
    9.5210    5.4310    0.0340 C   0  0  0  0  0  3  0  0  0  0  0  0
    8.9640    7.8490   -0.3410 N   0  0  0  0  0  0  0  0  0  0  0  0
    9.4690    8.9570    0.1650 C   0  0  0  0  0  0  0  0  0  0  0  0
   10.3400    8.6590    1.2010 N   0  0  0  0  0  0  0  0  0  0  0  0
   10.8890    9.5990    2.1710 C   0  0  0  0  0  3  0  0  0  0  0  0
   11.9100   10.5880    1.5770 C   0  0  0  0  0  2  0  0  0  0  0  0
   12.4930   11.4960    2.6600 C   0  0  0  0  0  2  0  0  0  0  0  0
   11.3950   12.2160    3.4370 C   0  0  0  0  0  2  0  0  0  0  0  0
   10.3900   11.2360    4.0350 C   0  0  0  0  0  2  0  0  0  0  0  0
    9.7930   10.3160    2.9720 C   0  0  0  0  0  2  0  0  0  0  0  0
    9.0880   10.2870   -0.4010 C   0  0  0  0  0  0  0  0  0  0  0  0
    8.1080   11.2350   -0.0190 C   0  0  0  0  0  3  0  0  0  0  0  0
    8.2290   12.2900   -0.8960 C   0  0  0  0  0  3  0  0  0  0  0  0
    9.2300   12.0610   -1.7820 O   0  0  0  0  0  0  0  0  0  0  0  0
    9.7580   10.8510   -1.4670 C   0  0  0  0  0  3  0  0  0  0  0  0
   10.7970    2.5790   -0.5220 O   0  0  0  0  0  0  0  0  0  0  0  0
   10.2370    3.0410    0.5220 C   0  0  0  0  0  0  0  0  0  0  0  0
    9.6010    2.3600    1.3870 O   0  0  0  0  0  1  0  0  0  0  0  0
  1  2  1  0  0  0  0
  2  3  2  0  0  0  0
  4  3  1  0  0  0  0
  5  4  2  0  0  0  0
  6  5  1  0  0  0  0
  6  1  2  0  0  0  0
  7  8  2  0  0  0  0
  7  5  1  0  0  0  0
  8  9  1  0  0  0  0
  9  4  1  0  0  0  0
  9 10  1  0  0  0  0
 10 15  1  0  0  0  0
 11 10  1  0  0  0  0
 11 12  1  0  0  0  0
 12 13  1  0  0  0  0
 13 14  1  0  0  0  0
 15 14  1  0  0  0  0
 16 17  1  0  0  0  0
 16  8  1  0  0  0  0
 18 17  2  0  0  0  0
 19 20  1  0  0  0  0
 19 18  1  0  0  0  0
 20 16  2  0  0  0  0
 21 22  2  0  0  0  0
 22  1  1  0  0  0  0
 22 23  1  0  0  0  0
M  END
>  <minimizedAffinity>
-5.5170269

$$$$
