
 OpenBabel09122222393D

 23 26  0  0  0  0  0  0  0  0999 V2000
   10.3730    4.1510    1.6610 C   0  0  0  0  0  0  0  0  0  0  0  0
   11.0820    3.8230    0.4940 C   0  0  0  0  0  3  0  0  0  0  0  0
   11.0790    2.5290   -0.0420 C   0  0  0  0  0  3  0  0  0  0  0  0
   10.3350    1.5510    0.6300 C   0  0  0  0  0  0  0  0  0  0  0  0
    9.6380    1.8350    1.8010 C   0  0  0  0  0  0  0  0  0  0  0  0
    9.6460    3.1400    2.3180 C   0  0  0  0  0  3  0  0  0  0  0  0
    9.0290    0.7080    2.2880 N   0  0  0  0  0  0  0  0  0  0  0  0
    9.3760   -0.2780    1.4840 C   0  0  0  0  0  0  0  0  0  0  0  0
   10.0680    0.2150    0.3890 N   0  0  0  0  0  0  0  0  0  0  0  0
   10.3870   -0.5090   -0.8350 C   0  0  0  0  0  3  0  0  0  0  0  0
   10.5800    0.3970   -2.0660 C   0  0  0  0  0  2  0  0  0  0  0  0
   10.8440   -0.4300   -3.3250 C   0  0  0  0  0  2  0  0  0  0  0  0
   12.0210   -1.3810   -3.1320 C   0  0  0  0  0  2  0  0  0  0  0  0
   11.8250   -2.2870   -1.9200 C   0  0  0  0  0  2  0  0  0  0  0  0
   11.5580   -1.4830   -0.6490 C   0  0  0  0  0  2  0  0  0  0  0  0
    9.0260   -1.6900    1.8270 C   0  0  0  0  0  0  0  0  0  0  0  0
    8.7740   -2.8280    1.0230 C   0  0  0  0  0  3  0  0  0  0  0  0
    8.5260   -3.8680    1.8910 C   0  0  0  0  0  3  0  0  0  0  0  0
    8.6240   -3.4480    3.1780 O   0  0  0  0  0  0  0  0  0  0  0  0
    8.9440   -2.1300    3.1330 C   0  0  0  0  0  3  0  0  0  0  0  0
   10.3780    5.6980    3.4700 O   0  0  0  0  0  1  0  0  0  0  0  0
   10.3970    5.5660    2.2050 C   0  0  0  0  0  0  0  0  0  0  0  0
   10.4340    6.5150    1.3600 O   0  0  0  0  0  0  0  0  0  0  0  0
  1 22  1  0  0  0  0
  1  6  1  0  0  0  0
  2  1  2  0  0  0  0
  3  2  1  0  0  0  0
  3  4  2  0  0  0  0
  4  5  1  0  0  0  0
  5  7  1  0  0  0  0
  5  6  2  0  0  0  0
  8 16  1  0  0  0  0
  8  7  2  0  0  0  0
  9  4  1  0  0  0  0
  9  8  1  0  0  0  0
 10 15  1  0  0  0  0
 10  9  1  0  0  0  0
 11 10  1  0  0  0  0
 12 13  1  0  0  0  0
 12 11  1  0  0  0  0
 13 14  1  0  0  0  0
 14 15  1  0  0  0  0
 16 20  2  0  0  0  0
 17 16  1  0  0  0  0
 17 18  2  0  0  0  0
 18 19  1  0  0  0  0
 20 19  1  0  0  0  0
 22 21  1  0  0  0  0
 23 22  2  0  0  0  0
M  END
>  <minimizedAffinity>
-6.0595603

$$$$
