
 OpenBabel09122222393D

 23 26  0  0  0  0  0  0  0  0999 V2000
    9.7050   10.4390   -2.4790 C   0  0  0  0  0  0  0  0  0  0  0  0
    9.6400   11.4550   -1.5120 C   0  0  0  0  0  3  0  0  0  0  0  0
    9.8710   11.2100   -0.1530 C   0  0  0  0  0  3  0  0  0  0  0  0
   10.1740    9.8960    0.2250 C   0  0  0  0  0  0  0  0  0  0  0  0
   10.2260    8.8580   -0.7020 C   0  0  0  0  0  0  0  0  0  0  0  0
   10.0000    9.1260   -2.0610 C   0  0  0  0  0  3  0  0  0  0  0  0
   10.4960    7.6670   -0.0820 N   0  0  0  0  0  0  0  0  0  0  0  0
   10.5570    7.9270    1.2100 C   0  0  0  0  0  0  0  0  0  0  0  0
   10.4920    9.2930    1.4290 N   0  0  0  0  0  0  0  0  0  0  0  0
   10.7880    9.9880    2.6760 C   0  0  0  0  0  3  0  0  0  0  0  0
   12.1330   10.7380    2.6710 C   0  0  0  0  0  2  0  0  0  0  0  0
   12.4100   11.3850    4.0280 C   0  0  0  0  0  2  0  0  0  0  0  0
   11.2600   12.2900    4.4610 C   0  0  0  0  0  2  0  0  0  0  0  0
    9.9280   11.5440    4.4770 C   0  0  0  0  0  2  0  0  0  0  0  0
    9.6300   10.8870    3.1310 C   0  0  0  0  0  2  0  0  0  0  0  0
   10.6640    6.8110    2.1990 C   0  0  0  0  0  0  0  0  0  0  0  0
   10.7520    6.8010    3.6120 C   0  0  0  0  0  3  0  0  0  0  0  0
   10.8030    5.4760    3.9870 C   0  0  0  0  0  3  0  0  0  0  0  0
   10.7350    4.6700    2.8980 O   0  0  0  0  0  0  0  0  0  0  0  0
   10.6340    5.4850    1.8170 C   0  0  0  0  0  3  0  0  0  0  0  0
   10.2680   11.5460   -4.5090 O   0  0  0  0  0  0  0  0  0  0  0  0
    9.4550   10.7490   -3.9420 C   0  0  0  0  0  0  0  0  0  0  0  0
    8.4560   10.1910   -4.4930 O   0  0  0  0  0  1  0  0  0  0  0  0
  1  6  2  0  0  0  0
  1  2  1  0  0  0  0
  2  3  2  0  0  0  0
  3  4  1  0  0  0  0
  4  9  1  0  0  0  0
  5  7  1  0  0  0  0
  5  4  2  0  0  0  0
  6  5  1  0  0  0  0
  7  8  2  0  0  0  0
  8  9  1  0  0  0  0
  8 16  1  0  0  0  0
  9 10  1  0  0  0  0
 10 15  1  0  0  0  0
 11 10  1  0  0  0  0
 11 12  1  0  0  0  0
 12 13  1  0  0  0  0
 13 14  1  0  0  0  0
 15 14  1  0  0  0  0
 16 17  1  0  0  0  0
 17 18  2  0  0  0  0
 19 18  1  0  0  0  0
 20 16  2  0  0  0  0
 20 19  1  0  0  0  0
 21 22  2  0  0  0  0
 22  1  1  0  0  0  0
 23 22  1  0  0  0  0
M  END
>  <minimizedAffinity>
-5.12843943

$$$$
