
 OpenBabel09122222393D

 23 26  0  0  0  0  0  0  0  0999 V2000
    9.9700    5.4580    0.4090 C   0  0  0  0  0  0  0  0  0  0  0  0
    9.2430    6.2430   -0.5000 C   0  0  0  0  0  3  0  0  0  0  0  0
    9.1560    7.6360   -0.3830 C   0  0  0  0  0  3  0  0  0  0  0  0
    9.8280    8.2380    0.6880 C   0  0  0  0  0  0  0  0  0  0  0  0
   10.5400    7.4900    1.6220 C   0  0  0  0  0  0  0  0  0  0  0  0
   10.6220    6.0960    1.4820 C   0  0  0  0  0  3  0  0  0  0  0  0
   11.0670    8.3010    2.5930 N   0  0  0  0  0  0  0  0  0  0  0  0
   10.6540    9.5230    2.3200 C   0  0  0  0  0  0  0  0  0  0  0  0
   10.0010    9.5480    1.0980 N   0  0  0  0  0  0  0  0  0  0  0  0
    9.6360   10.7340    0.3320 C   0  0  0  0  0  3  0  0  0  0  0  0
   10.2270   10.7670   -1.0910 C   0  0  0  0  0  2  0  0  0  0  0  0
    9.8610   12.0650   -1.8100 C   0  0  0  0  0  2  0  0  0  0  0  0
    8.3530   12.2930   -1.8190 C   0  0  0  0  0  2  0  0  0  0  0  0
    7.7680   12.2720   -0.4100 C   0  0  0  0  0  2  0  0  0  0  0  0
    8.1220   10.9840    0.3310 C   0  0  0  0  0  2  0  0  0  0  0  0
   10.9030   10.6370    3.2850 C   0  0  0  0  0  0  0  0  0  0  0  0
   10.0260   11.4430    4.0510 C   0  0  0  0  0  3  0  0  0  0  0  0
   10.8240   12.2930    4.7850 C   0  0  0  0  0  3  0  0  0  0  0  0
   12.1350   12.0520    4.5330 O   0  0  0  0  0  0  0  0  0  0  0  0
   12.1770   11.0350    3.6350 C   0  0  0  0  0  3  0  0  0  0  0  0
    9.0930    3.2700    0.7380 O   0  0  0  0  0  1  0  0  0  0  0  0
   10.0440    3.9530    0.2410 C   0  0  0  0  0  0  0  0  0  0  0  0
   11.0470    3.4850   -0.3820 O   0  0  0  0  0  0  0  0  0  0  0  0
  1  6  1  0  0  0  0
  2  3  1  0  0  0  0
  2  1  2  0  0  0  0
  3  4  2  0  0  0  0
  4  9  1  0  0  0  0
  4  5  1  0  0  0  0
  5  7  1  0  0  0  0
  6  5  2  0  0  0  0
  8  7  2  0  0  0  0
  8 16  1  0  0  0  0
  9  8  1  0  0  0  0
 10  9  1  0  0  0  0
 11 10  1  0  0  0  0
 12 11  1  0  0  0  0
 13 12  1  0  0  0  0
 13 14  1  0  0  0  0
 14 15  1  0  0  0  0
 15 10  1  0  0  0  0
 16 20  2  0  0  0  0
 16 17  1  0  0  0  0
 17 18  2  0  0  0  0
 19 18  1  0  0  0  0
 20 19  1  0  0  0  0
 22  1  1  0  0  0  0
 22 21  1  0  0  0  0
 23 22  2  0  0  0  0
M  END
>  <minimizedAffinity>
-5.61774397

$$$$
