REMARK  Name = 
REMARK  9 active torsions:
REMARK  status: ('A' for Active; 'I' for Inactive)
REMARK    1  A    between atoms: C_1  and  C_2
REMARK    2  A    between atoms: C_2  and  C_3
REMARK    3  A    between atoms: C_2  and  C_4
REMARK    4  A    between atoms: C_9  and  O_10
REMARK    5  A    between atoms: O_10  and  C_11
REMARK    6  A    between atoms: C_14  and  C_15
REMARK    7  A    between atoms: CA_16  and  N_17
REMARK    8  A    between atoms: CA_16  and  C_26
REMARK    9  A    between atoms: C_18  and  C_20
REMARK                            x       y       z     vdW  Elec       q    Type
REMARK                         _______ _______ _______ _____ _____    ______ ____
ROOT
ATOM      1  C   UNL     1       1.339  -1.959   1.716  0.00  0.00    +0.128 A 
ATOM      2  C   UNL     1       1.681  -1.400   0.481  0.00  0.00    +0.047 A 
ATOM      3  C   UNL     1       2.991  -1.505   0.004  0.00  0.00    +0.011 A 
ATOM      4  C   UNL     1       3.967  -2.166   0.756  0.00  0.00    -0.023 A 
ATOM      5  C   UNL     1       3.625  -2.723   1.990  0.00  0.00    +0.011 A 
ATOM      6  C   UNL     1       2.317  -2.618   2.467  0.00  0.00    +0.047 A 
ENDROOT
BRANCH   4   7
ATOM      7  C   UNL     1       5.344  -2.264   0.268  0.00  0.00    +0.033 C 
ATOM      8  CA  UNL     1       5.783  -3.071  -0.719  0.00  0.00    +0.057 C 
BRANCH   8   9
ATOM      9  N   UNL     1       4.919  -3.911  -1.408  0.00  0.00    -0.280 N 
ATOM     10  C   UNL     1       5.151  -4.854  -2.385  0.00  0.00    +0.248 C 
ATOM     11  O   UNL     1       4.201  -5.296  -3.038  0.00  0.00    -0.270 OA
ATOM     12  H   UNL     1       3.933  -3.781  -1.234  0.00  0.00    +0.155 HD
BRANCH  10  13
ATOM     13  C   UNL     1       6.486  -5.443  -2.619  0.00  0.00    +0.037 A 
ATOM     14  C   UNL     1       6.922  -5.611  -3.938  0.00  0.00    +0.013 A 
ATOM     15  C   UNL     1       8.144  -6.234  -4.196  0.00  0.00    +0.001 A 
ATOM     16  C   UNL     1       8.922  -6.706  -3.138  0.00  0.00    +0.000 A 
ATOM     17  C   UNL     1       8.476  -6.563  -1.824  0.00  0.00    +0.001 A 
ATOM     18  C   UNL     1       7.251  -5.946  -1.562  0.00  0.00    +0.013 A 
ENDBRANCH  10  13
ENDBRANCH   8   9
BRANCH   8  19
ATOM     19  C   UNL     1       7.302  -2.873  -1.032  0.00  0.00    +0.086 C 
ATOM     20  O   UNL     1       8.084  -3.124  -0.067  0.00  0.00    -0.543 OA
ATOM     21  OXT UNL     1       7.551  -2.443  -2.195  0.00  0.00    -0.543 OA
ENDBRANCH   8  19
ENDBRANCH   4   7
BRANCH   1  22
ATOM     22  O   UNL     1       0.093  -1.896   2.307  0.00  0.00    -0.456 OA
BRANCH  22  28
ATOM     23  C   UNL     1      -1.393  -0.082   1.740  0.00  0.00    -0.003 A 
ATOM     24  C   UNL     1      -2.487   0.351   0.969  0.00  0.00    +0.007 A 
ATOM     25  C   UNL     1      -3.127  -0.513   0.075  0.00  0.00    +0.001 A 
ATOM     26  C   UNL     1      -2.690  -1.828  -0.063  0.00  0.00    +0.004 A 
ATOM     27  C   UNL     1      -1.606  -2.278   0.686  0.00  0.00    +0.046 A 
ATOM     28  C   UNL     1      -0.952  -1.404   1.562  0.00  0.00    +0.132 A 
BRANCH  23  30
ATOM     29  C   UNL     1      -0.002   2.004   1.974  0.00  0.00    +0.012 C 
ATOM     30  C   UNL     1      -0.703   0.861   2.713  0.00  0.00    +0.016 C 
ATOM     31  C   UNL     1      -1.674   1.408   3.764  0.00  0.00    +0.012 C 
ENDBRANCH  23  30
ENDBRANCH  22  28
ENDBRANCH   1  22
TORSDOF 7
