
 OpenBabel09132204463D

 31 33  0  0  0  0  0  0  0  0999 V2000
    8.8230   -4.2250    0.4480 C   0  0  0  0  0  0  0  0  0  0  0  0
    8.4440   -4.6680   -0.8230 C   0  0  0  0  0  3  0  0  0  0  0  0
    7.2530   -5.3820   -0.9890 C   0  0  0  0  0  3  0  0  0  0  0  0
    6.4350   -5.6590    0.1110 C   0  0  0  0  0  0  0  0  0  0  0  0
    6.8150   -5.2180    1.3800 C   0  0  0  0  0  3  0  0  0  0  0  0
    8.0040   -4.5050    1.5460 C   0  0  0  0  0  3  0  0  0  0  0  0
    5.1960   -6.4210   -0.0560 C   0  0  0  0  0  2  0  0  0  0  0  0
    4.9270   -7.6300    0.4760 C   0  0  0  0  0  0  0  0  0  0  0  0
    5.8440   -8.2860    1.2860 N   0  0  0  0  0  4  0  0  0  0  0  0
    5.9450   -8.3800    2.6570 C   0  0  0  0  0  0  0  0  0  0  0  0
    6.9910   -8.8000    3.1600 O   0  0  0  0  0  0  0  0  0  0  0  0
    6.6250   -8.7220    0.8190 H   0  0  0  0  0  0  0  0  0  0  0  0
    4.8090   -8.0950    3.5580 C   0  0  0  0  0  0  0  0  0  0  0  0
    4.1120   -9.1710    4.1190 C   0  0  0  0  0  3  0  0  0  0  0  0
    2.9880   -8.9380    4.9120 C   0  0  0  0  0  3  0  0  0  0  0  0
    2.5480   -7.6320    5.1310 C   0  0  0  0  0  3  0  0  0  0  0  0
    3.2260   -6.5600    4.5510 C   0  0  0  0  0  3  0  0  0  0  0  0
    4.3470   -6.7890    3.7510 C   0  0  0  0  0  3  0  0  0  0  0  0
    3.4800   -8.1260    0.1520 C   0  0  0  0  0  0  0  0  0  0  0  0
    3.1250   -9.1770    0.7650 O   0  0  0  0  0  1  0  0  0  0  0  0
    2.8680   -7.4400   -0.7160 O   0  0  0  0  0  0  0  0  0  0  0  0
    9.9850   -3.5410    0.7450 O   0  0  0  0  0  0  0  0  0  0  0  0
    9.8780   -1.1720    0.3020 C   0  0  0  0  0  0  0  0  0  0  0  0
   10.2270   -0.1150   -0.5580 C   0  0  0  0  0  3  0  0  0  0  0  0
   10.9650   -0.3460   -1.7230 C   0  0  0  0  0  3  0  0  0  0  0  0
   11.3660   -1.6380   -2.0540 C   0  0  0  0  0  3  0  0  0  0  0  0
   11.0360   -2.6990   -1.2160 C   0  0  0  0  0  3  0  0  0  0  0  0
   10.3180   -2.4620   -0.0380 C   0  0  0  0  0  0  0  0  0  0  0  0
    9.7280   -1.5700    2.7840 C   0  0  0  0  0  1  0  0  0  0  0  0
    9.0720   -0.9150    1.5650 C   0  0  0  0  0  3  0  0  0  0  0  0
    8.8490    0.5810    1.8060 C   0  0  0  0  0  1  0  0  0  0  0  0
  1 22  1  0  0  0  0
  1  6  1  0  0  0  0
  2  1  2  0  0  0  0
  3  2  1  0  0  0  0
  3  4  2  0  0  0  0
  4  5  1  0  0  0  0
  5  6  2  0  0  0  0
  7  4  1  0  0  0  0
  7  8  1  0  0  0  0
  8  9  2  0  0  0  0
  9 10  1  0  0  0  0
 10 11  2  0  0  0  0
 10 13  1  0  0  0  0
 12  9  1  0  0  0  0
 13 18  2  0  0  0  0
 13 14  1  0  0  0  0
 14 15  2  0  0  0  0
 15 16  1  0  0  0  0
 17 16  2  0  0  0  0
 18 17  1  0  0  0  0
 19  8  1  0  0  0  0
 19 20  1  0  0  0  0
 21 19  2  0  0  0  0
 23 30  1  0  0  0  0
 24 23  2  0  0  0  0
 25 24  1  0  0  0  0
 26 25  2  0  0  0  0
 26 27  1  0  0  0  0
 27 28  2  0  0  0  0
 28 23  1  0  0  0  0
 28 22  1  0  0  0  0
 30 31  1  0  0  0  0
 30 29  1  0  0  0  0
M  END
>  <minimizedAffinity>
-7.81212234

$$$$
