
 OpenBabel09132204463D

 31 33  0  0  0  0  0  0  0  0999 V2000
    3.7910   -5.5440    6.8380 C   0  0  0  0  0  0  0  0  0  0  0  0
    3.6080   -5.2120    5.4920 C   0  0  0  0  0  3  0  0  0  0  0  0
    3.2160   -6.1920    4.5770 C   0  0  0  0  0  3  0  0  0  0  0  0
    3.0050   -7.5090    4.9970 C   0  0  0  0  0  0  0  0  0  0  0  0
    3.1890   -7.8410    6.3410 C   0  0  0  0  0  3  0  0  0  0  0  0
    3.5810   -6.8620    7.2560 C   0  0  0  0  0  3  0  0  0  0  0  0
    2.6100   -8.5430    4.0380 C   0  0  0  0  0  2  0  0  0  0  0  0
    3.4430   -9.3430    3.3420 C   0  0  0  0  0  0  0  0  0  0  0  0
    4.8210   -9.2650    3.4940 N   0  0  0  0  0  4  0  0  0  0  0  0
    5.7950   -8.7040    2.6980 C   0  0  0  0  0  0  0  0  0  0  0  0
    6.9800   -8.9820    2.9050 O   0  0  0  0  0  0  0  0  0  0  0  0
    5.2140   -9.7580    4.2830 H   0  0  0  0  0  0  0  0  0  0  0  0
    5.4910   -7.6930    1.6640 C   0  0  0  0  0  0  0  0  0  0  0  0
    5.2470   -6.3760    2.0660 C   0  0  0  0  0  3  0  0  0  0  0  0
    4.8820   -5.4140    1.1230 C   0  0  0  0  0  3  0  0  0  0  0  0
    4.7420   -5.7710   -0.2180 C   0  0  0  0  0  3  0  0  0  0  0  0
    4.9600   -7.0900   -0.6170 C   0  0  0  0  0  3  0  0  0  0  0  0
    5.3190   -8.0570    0.3250 C   0  0  0  0  0  3  0  0  0  0  0  0
    2.6840  -10.3830    2.4560 C   0  0  0  0  0  0  0  0  0  0  0  0
    3.3220  -10.7870    1.4390 O   0  0  0  0  0  0  0  0  0  0  0  0
    1.5110  -10.6530    2.8440 O   0  0  0  0  0  1  0  0  0  0  0  0
    4.2040   -4.6760    7.8290 O   0  0  0  0  0  0  0  0  0  0  0  0
    4.8890   -2.3860    7.5060 C   0  0  0  0  0  0  0  0  0  0  0  0
    4.4970   -1.0380    7.4120 C   0  0  0  0  0  3  0  0  0  0  0  0
    3.1540   -0.6670    7.5320 C   0  0  0  0  0  3  0  0  0  0  0  0
    2.1770   -1.6350    7.7530 C   0  0  0  0  0  3  0  0  0  0  0  0
    2.5400   -2.9760    7.8440 C   0  0  0  0  0  3  0  0  0  0  0  0
    3.8820   -3.3460    7.7000 C   0  0  0  0  0  0  0  0  0  0  0  0
    6.6760   -3.2510    5.9570 C   0  0  0  0  0  1  0  0  0  0  0  0
    6.3510   -2.7830    7.3780 C   0  0  0  0  0  3  0  0  0  0  0  0
    7.2900   -1.6500    7.8050 C   0  0  0  0  0  1  0  0  0  0  0  0
  1  6  1  0  0  0  0
  1 22  1  0  0  0  0
  2  1  2  0  0  0  0
  3  4  2  0  0  0  0
  3  2  1  0  0  0  0
  4  5  1  0  0  0  0
  5  6  2  0  0  0  0
  7  4  1  0  0  0  0
  8  9  2  0  0  0  0
  8  7  1  0  0  0  0
  9 12  1  0  0  0  0
 10 11  2  0  0  0  0
 10  9  1  0  0  0  0
 13 14  1  0  0  0  0
 13 10  1  0  0  0  0
 15 14  2  0  0  0  0
 16 15  1  0  0  0  0
 17 16  2  0  0  0  0
 17 18  1  0  0  0  0
 18 13  2  0  0  0  0
 19 21  1  0  0  0  0
 19  8  1  0  0  0  0
 20 19  2  0  0  0  0
 23 28  1  0  0  0  0
 24 23  2  0  0  0  0
 24 25  1  0  0  0  0
 25 26  2  0  0  0  0
 26 27  1  0  0  0  0
 28 22  1  0  0  0  0
 28 27  2  0  0  0  0
 29 30  1  0  0  0  0
 30 23  1  0  0  0  0
 30 31  1  0  0  0  0
M  END
>  <minimizedAffinity>
-7.23249292

$$$$
