
 OpenBabel09132204463D

 31 33  0  0  0  0  0  0  0  0999 V2000
    7.4410   -4.6900    1.5830 C   0  0  0  0  0  0  0  0  0  0  0  0
    7.5800   -5.6270    0.5540 C   0  0  0  0  0  3  0  0  0  0  0  0
    6.5200   -6.4810    0.2370 C   0  0  0  0  0  3  0  0  0  0  0  0
    5.3160   -6.4070    0.9440 C   0  0  0  0  0  0  0  0  0  0  0  0
    5.1780   -5.4720    1.9730 C   0  0  0  0  0  3  0  0  0  0  0  0
    6.2370   -4.6200    2.2900 C   0  0  0  0  0  3  0  0  0  0  0  0
    4.2090   -7.3110    0.6260 C   0  0  0  0  0  2  0  0  0  0  0  0
    4.0050   -8.5360    1.1520 C   0  0  0  0  0  0  0  0  0  0  0  0
    4.8630   -9.0690    2.1040 N   0  0  0  0  0  4  0  0  0  0  0  0
    4.8730   -8.9710    3.4780 C   0  0  0  0  0  0  0  0  0  0  0  0
    5.8820   -9.3130    4.1020 O   0  0  0  0  0  0  0  0  0  0  0  0
    5.6720   -9.5610    1.7540 H   0  0  0  0  0  0  0  0  0  0  0  0
    3.6810   -8.5700    4.2540 C   0  0  0  0  0  0  0  0  0  0  0  0
    2.6580   -9.5070    4.4420 C   0  0  0  0  0  3  0  0  0  0  0  0
    1.4860   -9.1380    5.1040 C   0  0  0  0  0  3  0  0  0  0  0  0
    1.3270   -7.8290    5.5610 C   0  0  0  0  0  3  0  0  0  0  0  0
    2.3350   -6.8880    5.3510 C   0  0  0  0  0  3  0  0  0  0  0  0
    3.5060   -7.2510    4.6840 C   0  0  0  0  0  3  0  0  0  0  0  0
    2.6860   -9.2020    0.6410 C   0  0  0  0  0  0  0  0  0  0  0  0
    1.9410   -8.4490   -0.0540 O   0  0  0  0  0  0  0  0  0  0  0  0
    2.5110  -10.3930    1.0270 O   0  0  0  0  0  1  0  0  0  0  0  0
    8.4210   -3.8160    2.0090 O   0  0  0  0  0  0  0  0  0  0  0  0
    9.4160   -1.8240    1.0800 C   0  0  0  0  0  0  0  0  0  0  0  0
   10.2070   -1.2650    0.0610 C   0  0  0  0  0  3  0  0  0  0  0  0
   10.7470   -2.0620   -0.9530 C   0  0  0  0  0  3  0  0  0  0  0  0
   10.5040   -3.4330   -0.9710 C   0  0  0  0  0  3  0  0  0  0  0  0
    9.7280   -4.0110    0.0310 C   0  0  0  0  0  3  0  0  0  0  0  0
    9.2090   -3.2140    1.0580 C   0  0  0  0  0  0  0  0  0  0  0  0
    9.4710   -1.2580    3.5340 C   0  0  0  0  0  1  0  0  0  0  0  0
    8.8280   -0.9520    2.1780 C   0  0  0  0  0  3  0  0  0  0  0  0
    8.9440    0.5390    1.8470 C   0  0  0  0  0  1  0  0  0  0  0  0
  1 22  1  0  0  0  0
  1  6  1  0  0  0  0
  2  1  2  0  0  0  0
  3  2  1  0  0  0  0
  3  4  2  0  0  0  0
  4  5  1  0  0  0  0
  5  6  2  0  0  0  0
  7  4  1  0  0  0  0
  7  8  1  0  0  0  0
  8  9  2  3  0  0  0
  9 10  1  0  0  0  0
 10 11  2  0  0  0  0
 10 13  1  0  0  0  0
 12  9  1  0  0  0  0
 13 14  2  0  0  0  0
 13 18  1  0  0  0  0
 14 15  1  0  0  0  0
 15 16  2  0  0  0  0
 17 16  1  0  0  0  0
 18 17  2  0  0  0  0
 19 21  1  0  0  0  0
 19  8  1  0  0  0  0
 20 19  2  0  0  0  0
 23 30  1  0  0  0  0
 24 23  2  0  0  0  0
 25 24  1  0  0  0  0
 26 25  2  0  0  0  0
 26 27  1  0  0  0  0
 27 28  2  0  0  0  0
 28 23  1  0  0  0  0
 28 22  1  0  0  0  0
 30 29  1  0  0  0  0
 31 30  1  0  0  0  0
M  END
>  <minimizedAffinity>
-7.46311903

$$$$
