
 OpenBabel09132204463D

 31 33  0  0  0  0  0  0  0  0999 V2000
    8.1370   -5.0710    0.9820 C   0  0  0  0  0  0  0  0  0  0  0  0
    7.5540   -4.5770    2.1530 C   0  0  0  0  0  3  0  0  0  0  0  0
    7.7850   -3.2550    2.5460 C   0  0  0  0  0  3  0  0  0  0  0  0
    8.5990   -2.4190    1.7750 C   0  0  0  0  0  0  0  0  0  0  0  0
    9.1810   -2.9140    0.6060 C   0  0  0  0  0  3  0  0  0  0  0  0
    8.9520   -4.2340    0.2140 C   0  0  0  0  0  3  0  0  0  0  0  0
    8.8560   -1.0390    2.1910 C   0  0  0  0  0  2  0  0  0  0  0  0
    9.6470   -0.6500    3.2120 C   0  0  0  0  0  0  0  0  0  0  0  0
   10.3370   -1.5720    3.9880 N   0  0  0  0  0  4  0  0  0  0  0  0
   10.1480   -1.9930    5.2860 C   0  0  0  0  0  0  0  0  0  0  0  0
   11.0420   -2.6290    5.8520 O   0  0  0  0  0  0  0  0  0  0  0  0
   11.1710   -1.9680    3.5790 H   0  0  0  0  0  0  0  0  0  0  0  0
    8.8700   -1.8060    6.0030 C   0  0  0  0  0  0  0  0  0  0  0  0
    8.7580   -0.7400    6.9040 C   0  0  0  0  0  3  0  0  0  0  0  0
    7.5920   -0.5800    7.6550 C   0  0  0  0  0  3  0  0  0  0  0  0
    6.5460   -1.4940    7.5210 C   0  0  0  0  0  3  0  0  0  0  0  0
    6.6680   -2.5720    6.6430 C   0  0  0  0  0  3  0  0  0  0  0  0
    7.8350   -2.7400    5.8950 C   0  0  0  0  0  3  0  0  0  0  0  0
    9.7520    0.9050    3.3370 C   0  0  0  0  0  0  0  0  0  0  0  0
    9.3490    1.5510    2.3250 O   0  0  0  0  0  0  0  0  0  0  0  0
   10.2700    1.3150    4.4160 O   0  0  0  0  0  1  0  0  0  0  0  0
    8.0110   -6.3600    0.5070 O   0  0  0  0  0  0  0  0  0  0  0  0
    5.8060   -7.1990    1.0130 C   0  0  0  0  0  0  0  0  0  0  0  0
    5.0270   -8.0910    1.7720 C   0  0  0  0  0  3  0  0  0  0  0  0
    5.6190   -8.9590    2.6950 C   0  0  0  0  0  3  0  0  0  0  0  0
    6.9990   -8.9490    2.8820 C   0  0  0  0  0  3  0  0  0  0  0  0
    7.7900   -8.0780    2.1380 C   0  0  0  0  0  3  0  0  0  0  0  0
    7.1980   -7.2280    1.1970 C   0  0  0  0  0  0  0  0  0  0  0  0
    4.1970   -7.0050   -0.9150 C   0  0  0  0  0  1  0  0  0  0  0  0
    5.1570   -6.2550    0.0130 C   0  0  0  0  0  3  0  0  0  0  0  0
    4.4440   -5.0900    0.7060 C   0  0  0  0  0  1  0  0  0  0  0  0
  1  2  1  0  0  0  0
  2  3  2  0  0  0  0
  4  7  1  0  0  0  0
  4  3  1  0  0  0  0
  5  4  2  0  0  0  0
  6  5  1  0  0  0  0
  6  1  2  0  0  0  0
  7  8  1  0  0  0  0
  8 19  1  0  0  0  0
  8  9  2  0  0  0  0
  9 10  1  0  0  0  0
 10 11  2  0  0  0  0
 10 13  1  0  0  0  0
 12  9  1  0  0  0  0
 13 14  1  0  0  0  0
 14 15  2  0  0  0  0
 16 15  1  0  0  0  0
 17 16  2  0  0  0  0
 18 13  2  0  0  0  0
 18 17  1  0  0  0  0
 19 21  1  0  0  0  0
 20 19  2  0  0  0  0
 22  1  1  0  0  0  0
 22 28  1  0  0  0  0
 23 28  2  0  0  0  0
 23 24  1  0  0  0  0
 24 25  2  0  0  0  0
 25 26  1  0  0  0  0
 27 26  2  0  0  0  0
 28 27  1  0  0  0  0
 29 30  1  0  0  0  0
 30 31  1  0  0  0  0
 30 23  1  0  0  0  0
M  END
>  <minimizedAffinity>
-6.95671034

$$$$
