
 OpenBabel08182222443D

 43 47  0  0  1  0  0  0  0  0999 V2000
   12.3400  -20.8830   -5.7690 C   0  0  0  0  0  0  0  0  0  0  0  0
   11.1370  -21.1560   -5.7780 O   0  0  0  0  0  0  0  0  0  0  0  0
   13.3430  -21.8710   -5.6680 N   0  0  0  0  0  0  0  0  0  0  0  0
   14.6990  -21.6620   -6.2400 C   0  0  2  0  0  3  0  0  0  0  0  0
   14.7490  -22.3950   -7.5560 C   0  0  0  0  0  0  0  0  0  0  0  0
   14.6810  -23.7340   -7.6790 C   0  0  0  0  0  0  0  0  0  0  0  0
   14.8190  -24.5010   -8.9850 C   0  0  0  0  0  2  0  0  0  0  0  0
   15.3910  -23.7570  -10.2080 C   0  0  0  0  0  0  0  0  0  0  0  0
   14.6870  -22.4100  -10.3490 C   0  0  0  0  0  2  0  0  0  0  0  0
   14.8540  -21.3570   -8.9360 S   0  0  0  0  0  0  0  0  0  0  0  0
   16.1750  -20.7590   -8.9860 O   0  0  0  0  0  0  0  0  0  0  0  0
   13.6840  -20.4920   -8.9370 O   0  0  0  0  0  0  0  0  0  0  0  0
   16.9190  -23.6090  -10.1040 C   0  0  0  0  0  1  0  0  0  0  0  0
   15.0970  -24.5920  -11.4740 C   0  0  0  0  0  1  0  0  0  0  0  0
   14.4760  -24.5580   -6.5940 N   0  0  0  0  0  0  0  0  0  0  0  0
   13.6500  -24.3650   -5.4600 C   0  0  0  0  0  0  0  0  0  0  0  0
   13.0290  -23.1550   -5.0810 C   0  0  0  0  0  0  0  0  0  0  0  0
   12.1230  -23.1840   -3.9970 C   0  0  0  0  0  3  0  0  0  0  0  0
   11.8530  -24.3570   -3.2850 C   0  0  0  0  0  3  0  0  0  0  0  0
   12.4870  -25.5390   -3.6320 C   0  0  0  0  0  3  0  0  0  0  0  0
   13.3680  -25.5340   -4.7080 C   0  0  0  0  0  0  0  0  0  0  0  0
   14.7380  -25.5410   -6.6880 H   0  0  0  0  0  0  0  0  0  0  0  0
   11.2180  -18.5100   -7.7340 C   0  0  0  0  0  1  0  0  0  0  0  0
   12.2320  -18.5120   -6.6650 C   0  0  0  0  0  0  0  0  0  0  0  0
   12.7560  -19.4810   -5.8320 C   0  0  0  0  0  0  0  0  0  0  0  0
   13.6910  -18.8930   -4.9910 N   0  0  0  0  0  0  0  0  0  0  0  0
   13.7200  -17.6340   -5.3760 C   0  0  0  0  0  0  0  0  0  0  0  0
   12.8490  -17.3260   -6.3830 O   0  0  0  0  0  0  0  0  0  0  0  0
   14.5510  -16.5260   -4.8650 C   0  0  0  0  0  1  0  0  0  0  0  0
   15.8320  -21.8950   -5.2290 C   0  0  0  0  0  0  0  0  0  0  0  0
   17.1420  -22.2020   -5.6080 C   0  0  0  0  0  0  0  0  0  0  0  0
   18.1610  -22.3650   -4.6680 C   0  0  0  0  0  3  0  0  0  0  0  0
   17.9060  -22.2070   -3.3080 C   0  0  0  0  0  0  0  0  0  0  0  0
   16.6220  -21.8570   -2.9050 C   0  0  0  0  0  3  0  0  0  0  0  0
   15.6030  -21.6920   -3.8540 C   0  0  0  0  0  3  0  0  0  0  0  0
   17.4720  -22.3360   -6.8980 F   0  0  0  0  0  0  0  0  0  0  0  0
   18.9910  -22.3880   -2.4990 O   0  0  0  0  0  0  0  0  0  0  0  0
   19.8640  -21.2840   -2.2570 C   0  0  0  0  0  2  0  0  0  0  0  0
   21.3160  -21.6930   -2.3610 C   0  0  0  0  0  0  0  0  0  0  0  0
   21.9980  -22.1910   -1.3160 C   0  0  0  0  0  2  0  0  0  0  0  0
   21.9530  -21.5410   -3.7140 C   0  0  0  0  0  1  0  0  0  0  0  0
   13.9780  -26.7050   -5.1000 O   0  0  0  0  0  0  0  0  0  0  0  0
   13.7170  -27.4060   -4.4790 H   0  0  0  0  0  0  0  0  0  0  0  0
  1  3  1  0  0  0  0
  2  1  2  0  0  0  0
  3 17  1  0  0  0  0
  4  3  1  0  0  0  0
  4 30  1  1  0  0  0
  5  4  1  0  0  0  0
  6  5  2  0  0  0  0
  6 15  1  0  0  0  0
  7  6  1  0  0  0  0
  8 13  1  0  0  0  0
  8  7  1  0  0  0  0
  9  8  1  0  0  0  0
  9 10  1  0  0  0  0
 10  5  1  0  0  0  0
 11 10  2  0  0  0  0
 12 10  2  0  0  0  0
 14  8  1  0  0  0  0
 15 16  1  0  0  0  0
 16 17  2  0  0  0  0
 16 21  1  0  0  0  0
 17 18  1  0  0  0  0
 18 19  2  0  0  0  0
 20 19  1  0  0  0  0
 21 20  2  0  0  0  0
 22 15  1  0  0  0  0
 23 24  1  0  0  0  0
 24 28  1  0  0  0  0
 24 25  2  0  0  0  0
 25  1  1  0  0  0  0
 25 26  1  0  0  0  0
 27 26  2  0  0  0  0
 27 29  1  0  0  0  0
 28 27  1  0  0  0  0
 30 35  1  0  0  0  0
 31 30  2  0  0  0  0
 31 32  1  0  0  0  0
 32 33  2  0  0  0  0
 33 34  1  0  0  0  0
 33 37  1  0  0  0  0
 35 34  2  0  0  0  0
 36 31  1  0  0  0  0
 37 38  1  0  0  0  0
 39 38  1  0  0  0  0
 39 40  2  0  0  0  0
 41 39  1  0  0  0  0
 42 21  1  0  0  0  0
 42 43  1  0  0  0  0
M  END
>  <minimizedAffinity>
-8.55593777

$$$$
