
 OpenBabel08182222443D

 43 47  0  0  1  0  0  0  0  0999 V2000
   15.9320   32.5900   11.3340 C   0  0  0  0  0  0  0  0  0  0  0  0
   15.8630   33.7790   11.6520 O   0  0  0  0  0  0  0  0  0  0  0  0
   14.7970   31.8310   10.9770 N   0  0  0  0  0  0  0  0  0  0  0  0
   14.8980   30.6670   10.0570 C   0  0  2  0  0  3  0  0  0  0  0  0
   14.4510   31.1320    8.6950 C   0  0  0  0  0  0  0  0  0  0  0  0
   13.1940   31.5140    8.4010 C   0  0  0  0  0  0  0  0  0  0  0  0
   12.6980   31.9000    7.0160 C   0  0  0  0  0  2  0  0  0  0  0  0
   13.5740   31.5360    5.8020 C   0  0  0  0  0  0  0  0  0  0  0  0
   15.0160   31.9480    6.0840 C   0  0  0  0  0  2  0  0  0  0  0  0
   15.7180   31.1860    7.5190 S   0  0  0  0  0  0  0  0  0  0  0  0
   16.0940   29.8320    7.1580 O   0  0  0  0  0  0  0  0  0  0  0  0
   16.7400   32.1000    8.0020 O   0  0  0  0  0  0  0  0  0  0  0  0
   13.4510   30.0410    5.4570 C   0  0  0  0  0  1  0  0  0  0  0  0
   13.0730   32.3310    4.5760 C   0  0  0  0  0  1  0  0  0  0  0  0
   12.2090   31.5880    9.3630 N   0  0  0  0  0  0  0  0  0  0  0  0
   12.2970   32.0160   10.7100 C   0  0  0  0  0  0  0  0  0  0  0  0
   13.4870   32.2390   11.4350 C   0  0  0  0  0  0  0  0  0  0  0  0
   13.3820   32.8030   12.7260 C   0  0  0  0  0  3  0  0  0  0  0  0
   12.1470   33.1140   13.3050 C   0  0  0  0  0  3  0  0  0  0  0  0
   10.9750   32.8640   12.6090 C   0  0  0  0  0  3  0  0  0  0  0  0
   11.0590   32.3260   11.3300 C   0  0  0  0  0  0  0  0  0  0  0  0
   11.2370   31.5770    9.0480 H   0  0  0  0  0  0  0  0  0  0  0  0
   18.7690   33.5960   10.0360 C   0  0  0  0  0  1  0  0  0  0  0  0
   18.4070   32.3980   10.8130 C   0  0  0  0  0  0  0  0  0  0  0  0
   17.2320   31.9180   11.3570 C   0  0  0  0  0  0  0  0  0  0  0  0
   17.4960   30.7230   12.0120 N   0  0  0  0  0  0  0  0  0  0  0  0
   18.7800   30.5190   11.8010 C   0  0  0  0  0  0  0  0  0  0  0  0
   19.4030   31.5050   11.0890 O   0  0  0  0  0  0  0  0  0  0  0  0
   19.6240   29.3880   12.2340 C   0  0  0  0  0  1  0  0  0  0  0  0
   14.2850   29.3800   10.6290 C   0  0  0  0  0  0  0  0  0  0  0  0
   14.3050   29.0650   11.9910 C   0  0  0  0  0  0  0  0  0  0  0  0
   13.7010   27.9090   12.4880 C   0  0  0  0  0  3  0  0  0  0  0  0
   13.0350   27.0320   11.6360 C   0  0  0  0  0  0  0  0  0  0  0  0
   12.9590   27.3420   10.2830 C   0  0  0  0  0  3  0  0  0  0  0  0
   13.5670   28.5070    9.7900 C   0  0  0  0  0  3  0  0  0  0  0  0
   14.8960   29.8760   12.8770 F   0  0  0  0  0  0  0  0  0  0  0  0
   12.4840   25.9450   12.2520 O   0  0  0  0  0  0  0  0  0  0  0  0
   11.0770   25.7260   12.1410 C   0  0  0  0  0  2  0  0  0  0  0  0
   10.2910   26.8030   12.8550 C   0  0  0  0  0  0  0  0  0  0  0  0
    9.5910   27.7380   12.1920 C   0  0  0  0  0  2  0  0  0  0  0  0
   10.3090   26.7520   14.3570 C   0  0  0  0  0  1  0  0  0  0  0  0
    9.9100   32.1090   10.6010 O   0  0  0  0  0  0  0  0  0  0  0  0
    9.1480   32.3340   11.1610 H   0  0  0  0  0  0  0  0  0  0  0  0
  1 25  1  0  0  0  0
  1  2  2  0  0  0  0
  3  1  1  0  0  0  0
  3 17  1  0  0  0  0
  4 30  1  1  0  0  0
  4  3  1  0  0  0  0
  5  4  1  0  0  0  0
  6  5  2  0  0  0  0
  6 15  1  0  0  0  0
  7  6  1  0  0  0  0
  8  9  1  0  0  0  0
  8  7  1  0  0  0  0
  9 10  1  0  0  0  0
 10 12  2  0  0  0  0
 10  5  1  0  0  0  0
 11 10  2  0  0  0  0
 13  8  1  0  0  0  0
 14  8  1  0  0  0  0
 15 16  1  0  0  0  0
 16 21  2  0  0  0  0
 16 17  1  0  0  0  0
 17 18  2  0  0  0  0
 18 19  1  0  0  0  0
 20 19  2  0  0  0  0
 21 20  1  0  0  0  0
 22 15  1  0  0  0  0
 23 24  1  0  0  0  0
 24 28  1  0  0  0  0
 24 25  2  0  0  0  0
 25 26  1  0  0  0  0
 27 26  2  0  0  0  0
 27 29  1  0  0  0  0
 28 27  1  0  0  0  0
 30 31  1  0  0  0  0
 31 32  2  0  0  0  0
 31 36  1  0  0  0  0
 33 37  1  0  0  0  0
 33 32  1  0  0  0  0
 34 33  2  0  0  0  0
 35 34  1  0  0  0  0
 35 30  2  0  0  0  0
 38 37  1  0  0  0  0
 38 39  1  0  0  0  0
 39 41  1  0  0  0  0
 40 39  2  0  0  0  0
 42 43  1  0  0  0  0
 42 21  1  0  0  0  0
M  END
>  <minimizedAffinity>
-9.02417278

$$$$
