
 OpenBabel08182222443D

 43 47  0  0  1  0  0  0  0  0999 V2000
   13.5760   29.2850   11.6150 C   0  0  0  0  0  0  0  0  0  0  0  0
   14.0590   28.1540   11.5260 O   0  0  0  0  0  0  0  0  0  0  0  0
   14.3110   30.4510   11.3130 N   0  0  0  0  0  0  0  0  0  0  0  0
   13.6400   31.6900   10.8380 C   0  0  2  0  0  3  0  0  0  0  0  0
   13.8070   31.7460    9.3420 C   0  0  0  0  0  0  0  0  0  0  0  0
   14.9900   31.9040    8.7180 C   0  0  0  0  0  0  0  0  0  0  0  0
   15.1740   32.0540    7.2160 C   0  0  0  0  0  2  0  0  0  0  0  0
   13.9320   32.3690    6.3580 C   0  0  0  0  0  0  0  0  0  0  0  0
   12.7980   31.4290    6.7570 C   0  0  0  0  0  2  0  0  0  0  0  0
   12.3330   31.5370    8.4610 S   0  0  0  0  0  0  0  0  0  0  0  0
   11.5100   32.7220    8.6170 O   0  0  0  0  0  0  0  0  0  0  0  0
   11.7810   30.2390    8.8120 O   0  0  0  0  0  0  0  0  0  0  0  0
   13.5340   33.8500    6.4830 C   0  0  0  0  0  1  0  0  0  0  0  0
   14.2780   32.1110    4.8760 C   0  0  0  0  0  1  0  0  0  0  0  0
   16.1810   31.9500    9.4100 N   0  0  0  0  0  0  0  0  0  0  0  0
   16.5890   31.2120   10.5480 C   0  0  0  0  0  0  0  0  0  0  0  0
   15.7550   30.4250   11.3720 C   0  0  0  0  0  0  0  0  0  0  0  0
   16.3640   29.6430   12.3790 C   0  0  0  0  0  3  0  0  0  0  0  0
   17.7460   29.6520   12.5950 C   0  0  0  0  0  3  0  0  0  0  0  0
   18.5640   30.4500   11.8100 C   0  0  0  0  0  3  0  0  0  0  0  0
   17.9850   31.2120   10.8020 C   0  0  0  0  0  0  0  0  0  0  0  0
   16.9860   32.3710    8.9430 H   0  0  0  0  0  0  0  0  0  0  0  0
   12.5250   30.2750   14.5590 C   0  0  0  0  0  1  0  0  0  0  0  0
   11.8080   29.8850   13.3320 C   0  0  0  0  0  0  0  0  0  0  0  0
   12.1980   29.4390   12.0850 C   0  0  0  0  0  0  0  0  0  0  0  0
   11.0670   29.2400   11.3050 N   0  0  0  0  0  0  0  0  0  0  0  0
   10.0680   29.5260   12.1120 C   0  0  0  0  0  0  0  0  0  0  0  0
   10.4430   29.9380   13.3590 O   0  0  0  0  0  0  0  0  0  0  0  0
    8.6160   29.4690   11.8490 C   0  0  0  0  0  1  0  0  0  0  0  0
   14.0020   32.9350   11.6620 C   0  0  0  0  0  0  0  0  0  0  0  0
   13.7990   34.2400   11.2030 C   0  0  0  0  0  0  0  0  0  0  0  0
   14.0960   35.3520   11.9910 C   0  0  0  0  0  3  0  0  0  0  0  0
   14.5920   35.1970   13.2830 C   0  0  0  0  0  0  0  0  0  0  0  0
   14.7600   33.9100   13.7840 C   0  0  0  0  0  3  0  0  0  0  0  0
   14.4580   32.7970   12.9880 C   0  0  0  0  0  3  0  0  0  0  0  0
   13.2940   34.4700    9.9850 F   0  0  0  0  0  0  0  0  0  0  0  0
   14.8330   36.3650   13.9470 O   0  0  0  0  0  0  0  0  0  0  0  0
   14.1710   36.6050   15.1890 C   0  0  0  0  0  2  0  0  0  0  0  0
   15.1100   36.4330   16.3610 C   0  0  0  0  0  0  0  0  0  0  0  0
   16.0810   37.3180   16.6380 C   0  0  0  0  0  2  0  0  0  0  0  0
   14.8780   35.2240   17.2250 C   0  0  0  0  0  1  0  0  0  0  0  0
   18.7810   31.9800    9.9810 O   0  0  0  0  0  0  0  0  0  0  0  0
   19.6990   31.9060   10.2920 H   0  0  0  0  0  0  0  0  0  0  0  0
  1 25  1  0  0  0  0
  2  1  2  0  0  0  0
  3 17  1  0  0  0  0
  3  1  1  0  0  0  0
  4  3  1  0  0  0  0
  4 30  1  1  0  0  0
  5  4  1  0  0  0  0
  6  5  2  0  0  0  0
  6 15  1  0  0  0  0
  7  6  1  0  0  0  0
  8 13  1  0  0  0  0
  8  9  1  0  0  0  0
  8  7  1  0  0  0  0
  9 10  1  0  0  0  0
 10 11  2  0  0  0  0
 10 12  2  0  0  0  0
 10  5  1  0  0  0  0
 14  8  1  0  0  0  0
 15 16  1  0  0  0  0
 16 21  2  0  0  0  0
 16 17  1  0  0  0  0
 17 18  2  0  0  0  0
 18 19  1  0  0  0  0
 20 19  2  0  0  0  0
 21 20  1  0  0  0  0
 22 15  1  0  0  0  0
 24 28  1  0  0  0  0
 24 23  1  0  0  0  0
 25 24  2  0  0  0  0
 26 25  1  0  0  0  0
 26 27  2  0  0  0  0
 27 28  1  0  0  0  0
 29 27  1  0  0  0  0
 30 35  1  0  0  0  0
 31 30  2  0  0  0  0
 31 32  1  0  0  0  0
 32 33  2  0  0  0  0
 33 34  1  0  0  0  0
 33 37  1  0  0  0  0
 35 34  2  0  0  0  0
 36 31  1  0  0  0  0
 37 38  1  0  0  0  0
 38 39  1  0  0  0  0
 39 40  2  0  0  0  0
 39 41  1  0  0  0  0
 42 43  1  0  0  0  0
 42 21  1  0  0  0  0
M  END
>  <minimizedAffinity>
-8.93178177

$$$$
