
 OpenBabel08182222443D

 43 47  0  0  1  0  0  0  0  0999 V2000
   18.3910   42.5400   12.3760 C   0  0  0  0  0  0  0  0  0  0  0  0
   19.3770   41.8190   12.2030 O   0  0  0  0  0  0  0  0  0  0  0  0
   17.9890   42.9850   13.6530 N   0  0  0  0  0  0  0  0  0  0  0  0
   17.2450   44.2590   13.8330 C   0  0  2  0  0  3  0  0  0  0  0  0
   18.2380   45.2990   14.2840 C   0  0  0  0  0  0  0  0  0  0  0  0
   18.8780   45.2700   15.4680 C   0  0  0  0  0  0  0  0  0  0  0  0
   19.8140   46.3520   15.9840 C   0  0  0  0  0  2  0  0  0  0  0  0
   19.8000   47.7230   15.2790 C   0  0  0  0  0  0  0  0  0  0  0  0
   19.8660   47.5090   13.7690 C   0  0  0  0  0  2  0  0  0  0  0  0
   18.5370   46.5400   13.1170 S   0  0  0  0  0  0  0  0  0  0  0  0
   17.3720   47.3990   13.0220 O   0  0  0  0  0  0  0  0  0  0  0  0
   19.0510   45.9080   11.9130 O   0  0  0  0  0  0  0  0  0  0  0  0
   18.5720   48.5500   15.6980 C   0  0  0  0  0  1  0  0  0  0  0  0
   21.0540   48.5130   15.7120 C   0  0  0  0  0  1  0  0  0  0  0  0
   18.7350   44.2210   16.3510 N   0  0  0  0  0  0  0  0  0  0  0  0
   18.6190   42.8340   16.0900 C   0  0  0  0  0  0  0  0  0  0  0  0
   18.3850   42.2430   14.8300 C   0  0  0  0  0  0  0  0  0  0  0  0
   18.4440   40.8340   14.7370 C   0  0  0  0  0  3  0  0  0  0  0  0
   18.6950   40.0240   15.8490 C   0  0  0  0  0  3  0  0  0  0  0  0
   18.8900   40.6000   17.0940 C   0  0  0  0  0  3  0  0  0  0  0  0
   18.8550   41.9860   17.2020 C   0  0  0  0  0  0  0  0  0  0  0  0
   18.9810   44.3870   17.3290 H   0  0  0  0  0  0  0  0  0  0  0  0
   15.3960   41.4940   11.5500 C   0  0  0  0  0  1  0  0  0  0  0  0
   16.3070   42.4730   10.9330 C   0  0  0  0  0  0  0  0  0  0  0  0
   17.5780   42.9280   11.2220 C   0  0  0  0  0  0  0  0  0  0  0  0
   17.9360   43.8880   10.2860 N   0  0  0  0  0  0  0  0  0  0  0  0
   16.9060   43.9360    9.4670 C   0  0  0  0  0  0  0  0  0  0  0  0
   15.8710   43.1110    9.8050 O   0  0  0  0  0  0  0  0  0  0  0  0
   16.7220   44.7580    8.2550 C   0  0  0  0  0  1  0  0  0  0  0  0
   15.9400   44.0980   14.6290 C   0  0  0  0  0  0  0  0  0  0  0  0
   15.3130   45.1590   15.2890 C   0  0  0  0  0  0  0  0  0  0  0  0
   14.1060   44.9920   15.9680 C   0  0  0  0  0  3  0  0  0  0  0  0
   13.4680   43.7540   15.9930 C   0  0  0  0  0  0  0  0  0  0  0  0
   14.0450   42.6920   15.3060 C   0  0  0  0  0  3  0  0  0  0  0  0
   15.2580   42.8660   14.6240 C   0  0  0  0  0  3  0  0  0  0  0  0
   15.8470   46.3860   15.2820 F   0  0  0  0  0  0  0  0  0  0  0  0
   12.2920   43.7310   16.6850 O   0  0  0  0  0  0  0  0  0  0  0  0
   11.7940   44.9460   17.2450 C   0  0  0  0  0  2  0  0  0  0  0  0
   10.2860   45.0170   17.1660 C   0  0  0  0  0  0  0  0  0  0  0  0
    9.5480   45.6480   18.0950 C   0  0  0  0  0  2  0  0  0  0  0  0
    9.6530   44.3640   15.9690 C   0  0  0  0  0  1  0  0  0  0  0  0
   19.0890   42.5840   18.4210 O   0  0  0  0  0  0  0  0  0  0  0  0
   19.2010   41.8850   19.0860 H   0  0  0  0  0  0  0  0  0  0  0  0
  1  3  1  0  0  0  0
  2  1  2  0  0  0  0
  3  4  1  0  0  0  0
  3 17  1  0  0  0  0
  4  5  1  0  0  0  0
  4 30  1  1  0  0  0
  5  6  2  0  0  0  0
  6  7  1  0  0  0  0
  6 15  1  0  0  0  0
  8 13  1  0  0  0  0
  8 14  1  0  0  0  0
  8  7  1  0  0  0  0
  9  8  1  0  0  0  0
 10  9  1  0  0  0  0
 10  5  1  0  0  0  0
 11 10  2  0  0  0  0
 12 10  2  0  0  0  0
 15 22  1  0  0  0  0
 16 15  1  0  0  0  0
 16 21  1  0  0  0  0
 17 16  2  0  0  0  0
 18 17  1  0  0  0  0
 18 19  2  0  0  0  0
 19 20  1  0  0  0  0
 20 21  2  0  0  0  0
 21 42  1  0  0  0  0
 24 25  2  0  0  0  0
 24 23  1  0  0  0  0
 25  1  1  0  0  0  0
 26 25  1  0  0  0  0
 27 28  1  0  0  0  0
 27 26  2  0  0  0  0
 28 24  1  0  0  0  0
 29 27  1  0  0  0  0
 30 31  1  0  0  0  0
 31 32  2  0  0  0  0
 32 33  1  0  0  0  0
 33 37  1  0  0  0  0
 34 33  2  0  0  0  0
 35 30  2  0  0  0  0
 35 34  1  0  0  0  0
 36 31  1  0  0  0  0
 37 38  1  0  0  0  0
 39 38  1  0  0  0  0
 39 40  2  0  0  0  0
 41 39  1  0  0  0  0
 42 43  1  0  0  0  0
M  END
>  <minimizedAffinity>
-10.0229073

$$$$

 OpenBabel08182222443D

 43 47  0  0  1  0  0  0  0  0999 V2000
   12.3280   32.6840    9.6490 C   0  0  0  0  0  0  0  0  0  0  0  0
   12.3880   33.6410    8.8740 O   0  0  0  0  0  0  0  0  0  0  0  0
   12.9800   31.4580    9.3950 N   0  0  0  0  0  0  0  0  0  0  0  0
   13.4200   30.5690   10.5020 C   0  0  2  0  0  3  0  0  0  0  0  0
   14.8970   30.7930   10.6990 C   0  0  0  0  0  0  0  0  0  0  0  0
   15.8380   30.4670    9.7920 C   0  0  0  0  0  0  0  0  0  0  0  0
   17.3380   30.5990   10.0030 C   0  0  0  0  0  2  0  0  0  0  0  0
   17.8560   30.8100   11.4390 C   0  0  0  0  0  0  0  0  0  0  0  0
   17.0330   31.9070   12.1110 C   0  0  0  0  0  2  0  0  0  0  0  0
   15.2990   31.5620   12.1940 S   0  0  0  0  0  0  0  0  0  0  0  0
   15.0890   30.6290   13.2850 O   0  0  0  0  0  0  0  0  0  0  0  0
   14.6330   32.8540   12.2280 O   0  0  0  0  0  0  0  0  0  0  0  0
   17.8340   29.4940   12.2360 C   0  0  0  0  0  1  0  0  0  0  0  0
   19.3250   31.2800   11.3700 C   0  0  0  0  0  1  0  0  0  0  0  0
   15.5140   29.9650    8.5500 N   0  0  0  0  0  0  0  0  0  0  0  0
   14.4420   30.3100    7.6920 C   0  0  0  0  0  0  0  0  0  0  0  0
   13.3190   31.0920    8.0380 C   0  0  0  0  0  0  0  0  0  0  0  0
   12.4190   31.4540    7.0090 C   0  0  0  0  0  3  0  0  0  0  0  0
   12.5960   31.0390    5.6860 C   0  0  0  0  0  3  0  0  0  0  0  0
   13.6790   30.2420    5.3490 C   0  0  0  0  0  3  0  0  0  0  0  0
   14.5850   29.8910    6.3440 C   0  0  0  0  0  0  0  0  0  0  0  0
   16.2400   29.4580    8.0390 H   0  0  0  0  0  0  0  0  0  0  0  0
    9.3730   31.4040   10.2660 C   0  0  0  0  0  1  0  0  0  0  0  0
   10.2900   32.2170   11.0850 C   0  0  0  0  0  0  0  0  0  0  0  0
   11.5230   32.7980   10.8660 C   0  0  0  0  0  0  0  0  0  0  0  0
   11.9270   33.4450   12.0260 N   0  0  0  0  0  0  0  0  0  0  0  0
   10.9230   33.2650   12.8580 C   0  0  0  0  0  0  0  0  0  0  0  0
    9.8960   32.5170   12.3580 O   0  0  0  0  0  0  0  0  0  0  0  0
   10.7660   33.7530   14.2430 C   0  0  0  0  0  1  0  0  0  0  0  0
   12.9090   29.1260   10.3670 C   0  0  0  0  0  0  0  0  0  0  0  0
   13.4850   28.0460   11.0420 C   0  0  0  0  0  0  0  0  0  0  0  0
   12.9730   26.7530   10.9340 C   0  0  0  0  0  3  0  0  0  0  0  0
   11.8460   26.4970   10.1570 C   0  0  0  0  0  0  0  0  0  0  0  0
   11.2240   27.5590    9.5110 C   0  0  0  0  0  3  0  0  0  0  0  0
   11.7430   28.8570    9.6250 C   0  0  0  0  0  3  0  0  0  0  0  0
   14.5500   28.2180   11.8340 F   0  0  0  0  0  0  0  0  0  0  0  0
   11.4460   25.1910   10.1430 O   0  0  0  0  0  0  0  0  0  0  0  0
   10.1270   24.8760    9.6940 C   0  0  0  0  0  2  0  0  0  0  0  0
   10.1430   24.2850    8.3020 C   0  0  0  0  0  0  0  0  0  0  0  0
   10.8000   23.1490    8.0130 C   0  0  0  0  0  2  0  0  0  0  0  0
    9.3530   25.0240    7.2580 C   0  0  0  0  0  1  0  0  0  0  0  0
   15.6920   29.1360    6.0260 O   0  0  0  0  0  0  0  0  0  0  0  0
   15.6390   28.8990    5.0850 H   0  0  0  0  0  0  0  0  0  0  0  0
  1 25  1  0  0  0  0
  2  1  2  0  0  0  0
  3  1  1  0  0  0  0
  3  4  1  0  0  0  0
  4 30  1  6  0  0  0
  4  5  1  0  0  0  0
  5 10  1  0  0  0  0
  6  7  1  0  0  0  0
  6  5  2  0  0  0  0
  7  8  1  0  0  0  0
  8  9  1  0  0  0  0
  8 13  1  0  0  0  0
  9 10  1  0  0  0  0
 10 12  2  0  0  0  0
 10 11  2  0  0  0  0
 14  8  1  0  0  0  0
 15  6  1  0  0  0  0
 16 17  1  0  0  0  0
 16 15  1  0  0  0  0
 17  3  1  0  0  0  0
 18 17  2  0  0  0  0
 19 18  1  0  0  0  0
 20 19  2  0  0  0  0
 20 21  1  0  0  0  0
 21 16  2  0  0  0  0
 22 15  1  0  0  0  0
 23 24  1  0  0  0  0
 24 28  1  0  0  0  0
 25 24  2  0  0  0  0
 25 26  1  0  0  0  0
 26 27  2  0  0  0  0
 27 29  1  0  0  0  0
 28 27  1  0  0  0  0
 30 31  1  0  0  0  0
 31 36  1  0  0  0  0
 32 31  2  0  0  0  0
 33 32  1  0  0  0  0
 34 35  1  0  0  0  0
 34 33  2  0  0  0  0
 35 30  2  0  0  0  0
 37 33  1  0  0  0  0
 38 37  1  0  0  0  0
 39 38  1  0  0  0  0
 40 39  2  0  0  0  0
 41 39  1  0  0  0  0
 42 21  1  0  0  0  0
 43 42  1  0  0  0  0
M  END
>  <minimizedAffinity>
-9.77449226

$$$$

 OpenBabel08182222443D

 43 47  0  0  1  0  0  0  0  0999 V2000
   18.1380   42.6130   13.0080 C   0  0  0  0  0  0  0  0  0  0  0  0
   18.0900   41.8630   12.0310 O   0  0  0  0  0  0  0  0  0  0  0  0
   17.5860   43.9120   12.9970 N   0  0  0  0  0  0  0  0  0  0  0  0
   17.1030   44.5620   14.2440 C   0  0  2  0  0  3  0  0  0  0  0  0
   15.6040   44.4170   14.2750 C   0  0  0  0  0  0  0  0  0  0  0  0
   14.7690   45.0110   13.4020 C   0  0  0  0  0  0  0  0  0  0  0  0
   13.2500   44.9540   13.4660 C   0  0  0  0  0  2  0  0  0  0  0  0
   12.5950   44.4660   14.7730 C   0  0  0  0  0  0  0  0  0  0  0  0
   13.2870   43.1850   15.2320 C   0  0  0  0  0  2  0  0  0  0  0  0
   15.0240   43.3640   15.5190 S   0  0  0  0  0  0  0  0  0  0  0  0
   15.1920   44.0080   16.8080 O   0  0  0  0  0  0  0  0  0  0  0  0
   15.6060   42.0500   15.3030 O   0  0  0  0  0  0  0  0  0  0  0  0
   12.6250   45.5640   15.8520 C   0  0  0  0  0  1  0  0  0  0  0  0
   11.1120   44.1420   14.4910 C   0  0  0  0  0  1  0  0  0  0  0  0
   15.2320   45.7520   12.3360 N   0  0  0  0  0  0  0  0  0  0  0  0
   16.3530   45.5260   11.5020 C   0  0  0  0  0  0  0  0  0  0  0  0
   17.3920   44.6000   11.7390 C   0  0  0  0  0  0  0  0  0  0  0  0
   18.3560   44.4090   10.7240 C   0  0  0  0  0  3  0  0  0  0  0  0
   18.3230   45.1240    9.5230 C   0  0  0  0  0  3  0  0  0  0  0  0
   17.3250   46.0600    9.3010 C   0  0  0  0  0  3  0  0  0  0  0  0
   16.3570   46.2480   10.2810 C   0  0  0  0  0  0  0  0  0  0  0  0
   14.5870   46.4170   11.9050 H   0  0  0  0  0  0  0  0  0  0  0  0
   20.9260   43.7450   14.3120 C   0  0  0  0  0  1  0  0  0  0  0  0
   19.9870   42.6940   14.7420 C   0  0  0  0  0  0  0  0  0  0  0  0
   18.8230   42.1650   14.2210 C   0  0  0  0  0  0  0  0  0  0  0  0
   18.3480   41.1860   15.0840 N   0  0  0  0  0  0  0  0  0  0  0  0
   19.2500   41.1400   16.0420 C   0  0  0  0  0  0  0  0  0  0  0  0
   20.2710   42.0380   15.9070 O   0  0  0  0  0  0  0  0  0  0  0  0
   19.2990   40.2650   17.2300 C   0  0  0  0  0  1  0  0  0  0  0  0
   17.7100   45.9530   14.4830 C   0  0  0  0  0  0  0  0  0  0  0  0
   17.2630   46.8190   15.4860 C   0  0  0  0  0  0  0  0  0  0  0  0
   17.8620   48.0590   15.7080 C   0  0  0  0  0  3  0  0  0  0  0  0
   18.9500   48.4710   14.9420 C   0  0  0  0  0  0  0  0  0  0  0  0
   19.4460   47.6110   13.9690 C   0  0  0  0  0  3  0  0  0  0  0  0
   18.8410   46.3650   13.7510 C   0  0  0  0  0  3  0  0  0  0  0  0
   16.2440   46.4790   16.2840 F   0  0  0  0  0  0  0  0  0  0  0  0
   19.4450   49.7010   15.2680 O   0  0  0  0  0  0  0  0  0  0  0  0
   20.3350   50.3520   14.3600 C   0  0  0  0  0  2  0  0  0  0  0  0
   21.7490   50.3760   14.8920 C   0  0  0  0  0  0  0  0  0  0  0  0
   22.8210   50.3840   14.0820 C   0  0  0  0  0  2  0  0  0  0  0  0
   21.8950   50.4220   16.3880 C   0  0  0  0  0  1  0  0  0  0  0  0
   15.3290   47.1400   10.0660 O   0  0  0  0  0  0  0  0  0  0  0  0
   15.4810   47.5780    9.2120 H   0  0  0  0  0  0  0  0  0  0  0  0
  1 25  1  0  0  0  0
  2  1  2  0  0  0  0
  3  1  1  0  0  0  0
  3  4  1  0  0  0  0
  4  5  1  0  0  0  0
  4 30  1  6  0  0  0
  5 10  1  0  0  0  0
  6  7  1  0  0  0  0
  6  5  2  0  0  0  0
  7  8  1  0  0  0  0
  8  9  1  0  0  0  0
  8 13  1  0  0  0  0
  9 10  1  0  0  0  0
 10 11  2  0  0  0  0
 12 10  2  0  0  0  0
 14  8  1  0  0  0  0
 15  6  1  0  0  0  0
 16 17  1  0  0  0  0
 16 15  1  0  0  0  0
 17  3  1  0  0  0  0
 18 17  2  0  0  0  0
 19 18  1  0  0  0  0
 20 19  2  0  0  0  0
 20 21  1  0  0  0  0
 21 16  2  0  0  0  0
 22 15  1  0  0  0  0
 23 24  1  0  0  0  0
 24 28  1  0  0  0  0
 25 24  2  0  0  0  0
 25 26  1  0  0  0  0
 26 27  2  0  0  0  0
 27 29  1  0  0  0  0
 28 27  1  0  0  0  0
 30 31  1  0  0  0  0
 31 32  2  0  0  0  0
 31 36  1  0  0  0  0
 33 37  1  0  0  0  0
 33 32  1  0  0  0  0
 34 33  2  0  0  0  0
 35 34  1  0  0  0  0
 35 30  2  0  0  0  0
 38 39  1  0  0  0  0
 38 37  1  0  0  0  0
 39 41  1  0  0  0  0
 40 39  2  0  0  0  0
 42 21  1  0  0  0  0
 43 42  1  0  0  0  0
M  END
>  <minimizedAffinity>
-9.40399361

$$$$

 OpenBabel08182222443D

 43 47  0  0  1  0  0  0  0  0999 V2000
   15.9640   32.6630   11.3420 C   0  0  0  0  0  0  0  0  0  0  0  0
   15.9040   33.8520   11.6620 O   0  0  0  0  0  0  0  0  0  0  0  0
   14.8220   31.9090   10.9980 N   0  0  0  0  0  0  0  0  0  0  0  0
   14.9070   30.7460   10.0750 C   0  0  2  0  0  3  0  0  0  0  0  0
   14.4440   31.2150    8.7200 C   0  0  0  0  0  0  0  0  0  0  0  0
   13.1850   31.6020    8.4420 C   0  0  0  0  0  0  0  0  0  0  0  0
   12.6730   31.9930    7.0640 C   0  0  0  0  0  2  0  0  0  0  0  0
   13.5320   31.6270    5.8380 C   0  0  0  0  0  0  0  0  0  0  0  0
   14.9800   32.0330    6.1030 C   0  0  0  0  0  2  0  0  0  0  0  0
   15.6970   31.2660    7.5280 S   0  0  0  0  0  0  0  0  0  0  0  0
   16.0630   29.9110    7.1600 O   0  0  0  0  0  0  0  0  0  0  0  0
   16.7280   32.1750    7.9990 O   0  0  0  0  0  0  0  0  0  0  0  0
   13.3990   30.1340    5.4930 C   0  0  0  0  0  1  0  0  0  0  0  0
   13.0190   32.4270    4.6200 C   0  0  0  0  0  1  0  0  0  0  0  0
   12.2120   31.6790    9.4160 N   0  0  0  0  0  0  0  0  0  0  0  0
   12.3190   32.1040   10.7630 C   0  0  0  0  0  0  0  0  0  0  0  0
   13.5190   32.3210   11.4730 C   0  0  0  0  0  0  0  0  0  0  0  0
   13.4330   32.8840   12.7670 C   0  0  0  0  0  3  0  0  0  0  0  0
   12.2070   33.1990   13.3610 C   0  0  0  0  0  3  0  0  0  0  0  0
   11.0250   32.9540   12.6800 C   0  0  0  0  0  3  0  0  0  0  0  0
   11.0900   32.4180   11.3990 C   0  0  0  0  0  0  0  0  0  0  0  0
   11.2360   31.6720    9.1140 H   0  0  0  0  0  0  0  0  0  0  0  0
   18.7900   33.6630   10.0150 C   0  0  0  0  0  1  0  0  0  0  0  0
   18.4320   32.4640   10.7910 C   0  0  0  0  0  0  0  0  0  0  0  0
   17.2620   31.9850   11.3470 C   0  0  0  0  0  0  0  0  0  0  0  0
   17.5290   30.7870   11.9940 N   0  0  0  0  0  0  0  0  0  0  0  0
   18.8090   30.5790   11.7680 C   0  0  0  0  0  0  0  0  0  0  0  0
   19.4270   31.5650   11.0520 O   0  0  0  0  0  0  0  0  0  0  0  0
   19.6530   29.4430   12.1870 C   0  0  0  0  0  1  0  0  0  0  0  0
   14.2960   29.4610   10.6530 C   0  0  0  0  0  0  0  0  0  0  0  0
   13.7280   28.4610    9.8580 C   0  0  0  0  0  0  0  0  0  0  0  0
   13.2200   27.2830   10.4070 C   0  0  0  0  0  3  0  0  0  0  0  0
   13.2810   27.0540   11.7790 C   0  0  0  0  0  0  0  0  0  0  0  0
   13.8820   28.0100   12.5900 C   0  0  0  0  0  3  0  0  0  0  0  0
   14.3920   29.1910   12.0320 C   0  0  0  0  0  3  0  0  0  0  0  0
   13.6640   28.5930    8.5270 F   0  0  0  0  0  0  0  0  0  0  0  0
   12.7550   25.8610   12.1830 O   0  0  0  0  0  0  0  0  0  0  0  0
   13.5800   24.9540   12.9160 C   0  0  0  0  0  2  0  0  0  0  0  0
   14.3500   24.0360   11.9940 C   0  0  0  0  0  0  0  0  0  0  0  0
   13.8570   23.6270   10.8140 C   0  0  0  0  0  2  0  0  0  0  0  0
   15.7200   23.6260   12.4590 C   0  0  0  0  0  1  0  0  0  0  0  0
    9.9320   32.2070   10.6840 O   0  0  0  0  0  0  0  0  0  0  0  0
    9.1780   32.4340   11.2540 H   0  0  0  0  0  0  0  0  0  0  0  0
  1 25  1  0  0  0  0
  1  2  2  0  0  0  0
  3  1  1  0  0  0  0
  3 17  1  0  0  0  0
  4 30  1  1  0  0  0
  4  3  1  0  0  0  0
  5  4  1  0  0  0  0
  6  5  2  0  0  0  0
  6 15  1  0  0  0  0
  7  6  1  0  0  0  0
  8  9  1  0  0  0  0
  8  7  1  0  0  0  0
  9 10  1  0  0  0  0
 10 12  2  0  0  0  0
 10  5  1  0  0  0  0
 11 10  2  0  0  0  0
 13  8  1  0  0  0  0
 14  8  1  0  0  0  0
 15 16  1  0  0  0  0
 16 21  2  0  0  0  0
 16 17  1  0  0  0  0
 17 18  2  0  0  0  0
 18 19  1  0  0  0  0
 20 19  2  0  0  0  0
 21 20  1  0  0  0  0
 22 15  1  0  0  0  0
 23 24  1  0  0  0  0
 24 28  1  0  0  0  0
 24 25  2  0  0  0  0
 25 26  1  0  0  0  0
 27 26  2  0  0  0  0
 27 29  1  0  0  0  0
 28 27  1  0  0  0  0
 30 35  1  0  0  0  0
 31 32  1  0  0  0  0
 31 30  2  0  0  0  0
 32 33  2  0  0  0  0
 33 37  1  0  0  0  0
 33 34  1  0  0  0  0
 35 34  2  0  0  0  0
 36 31  1  0  0  0  0
 37 38  1  0  0  0  0
 39 41  1  0  0  0  0
 39 38  1  0  0  0  0
 40 39  2  0  0  0  0
 42 43  1  0  0  0  0
 42 21  1  0  0  0  0
M  END
>  <minimizedAffinity>
-9.29807758

$$$$

 OpenBabel08182222443D

 43 47  0  0  1  0  0  0  0  0999 V2000
   14.9370   31.3600   11.7040 C   0  0  0  0  0  0  0  0  0  0  0  0
   15.6860   30.4230   11.9890 O   0  0  0  0  0  0  0  0  0  0  0  0
   15.2710   32.3330   10.7370 N   0  0  0  0  0  0  0  0  0  0  0  0
   14.2220   33.0590    9.9730 C   0  0  2  0  0  3  0  0  0  0  0  0
   14.1210   32.4060    8.6190 C   0  0  0  0  0  0  0  0  0  0  0  0
   15.0990   32.4280    7.6930 C   0  0  0  0  0  0  0  0  0  0  0  0
   14.9870   31.8560    6.2890 C   0  0  0  0  0  2  0  0  0  0  0  0
   13.5840   31.5110    5.7530 C   0  0  0  0  0  0  0  0  0  0  0  0
   12.8260   30.7150    6.8120 C   0  0  0  0  0  2  0  0  0  0  0  0
   12.6350   31.5620    8.3540 S   0  0  0  0  0  0  0  0  0  0  0  0
   11.5600   32.5240    8.1960 O   0  0  0  0  0  0  0  0  0  0  0  0
   12.5180   30.5290    9.3700 O   0  0  0  0  0  0  0  0  0  0  0  0
   12.8270   32.7790    5.3230 C   0  0  0  0  0  1  0  0  0  0  0  0
   13.7400   30.6230    4.4980 C   0  0  0  0  0  1  0  0  0  0  0  0
   16.3300   32.9950    7.9440 N   0  0  0  0  0  0  0  0  0  0  0  0
   17.1030   32.9790    9.1310 C   0  0  0  0  0  0  0  0  0  0  0  0
   16.6580   32.5700   10.4070 C   0  0  0  0  0  0  0  0  0  0  0  0
   17.6120   32.4860   11.4460 C   0  0  0  0  0  3  0  0  0  0  0  0
   18.9560   32.8190   11.2530 C   0  0  0  0  0  3  0  0  0  0  0  0
   19.3890   33.2550   10.0100 C   0  0  0  0  0  3  0  0  0  0  0  0
   18.4690   33.3260    8.9690 C   0  0  0  0  0  0  0  0  0  0  0  0
   16.9040   33.2580    7.1410 H   0  0  0  0  0  0  0  0  0  0  0  0
   14.2250   33.3070   14.2440 C   0  0  0  0  0  1  0  0  0  0  0  0
   13.4100   32.3570   13.4670 C   0  0  0  0  0  0  0  0  0  0  0  0
   13.6650   31.5010   12.4140 C   0  0  0  0  0  0  0  0  0  0  0  0
   12.4890   30.8470   12.0720 N   0  0  0  0  0  0  0  0  0  0  0  0
   11.6090   31.2960   12.9420 C   0  0  0  0  0  0  0  0  0  0  0  0
   12.0950   32.2270   13.8140 O   0  0  0  0  0  0  0  0  0  0  0  0
   10.1850   30.9370   13.0900 C   0  0  0  0  0  1  0  0  0  0  0  0
   14.3650   34.5870   10.0400 C   0  0  0  0  0  0  0  0  0  0  0  0
   14.0660   35.4300    8.9650 C   0  0  0  0  0  0  0  0  0  0  0  0
   14.1630   36.8180    9.0690 C   0  0  0  0  0  3  0  0  0  0  0  0
   14.5460   37.4160   10.2670 C   0  0  0  0  0  0  0  0  0  0  0  0
   14.8050   36.6060   11.3660 C   0  0  0  0  0  3  0  0  0  0  0  0
   14.7040   35.2120   11.2560 C   0  0  0  0  0  3  0  0  0  0  0  0
   13.6580   34.9300    7.7920 F   0  0  0  0  0  0  0  0  0  0  0  0
   14.5930   38.7800   10.2340 O   0  0  0  0  0  0  0  0  0  0  0  0
   14.0060   39.5190   11.3060 C   0  0  0  0  0  2  0  0  0  0  0  0
   15.0600   40.1200   12.2080 C   0  0  0  0  0  0  0  0  0  0  0  0
   16.0740   40.8610   11.7320 C   0  0  0  0  0  2  0  0  0  0  0  0
   14.8940   39.8660   13.6810 C   0  0  0  0  0  1  0  0  0  0  0  0
   18.8830   33.7140    7.7140 O   0  0  0  0  0  0  0  0  0  0  0  0
   19.8250   33.9490    7.7640 H   0  0  0  0  0  0  0  0  0  0  0  0
  1  2  2  0  0  0  0
  1 25  1  0  0  0  0
  3  1  1  0  0  0  0
  4 30  1  6  0  0  0
  4  3  1  0  0  0  0
  5  4  1  0  0  0  0
  6 15  1  0  0  0  0
  6  5  2  0  0  0  0
  7  6  1  0  0  0  0
  8  7  1  0  0  0  0
  8  9  1  0  0  0  0
  9 10  1  0  0  0  0
 10  5  1  0  0  0  0
 10 12  2  0  0  0  0
 11 10  2  0  0  0  0
 13  8  1  0  0  0  0
 14  8  1  0  0  0  0
 15 16  1  0  0  0  0
 16 17  1  0  0  0  0
 17  3  1  0  0  0  0
 17 18  2  0  0  0  0
 19 18  1  0  0  0  0
 20 19  2  0  0  0  0
 21 16  2  0  0  0  0
 21 20  1  0  0  0  0
 22 15  1  0  0  0  0
 24 28  1  0  0  0  0
 24 23  1  0  0  0  0
 25 24  2  0  0  0  0
 26 25  1  0  0  0  0
 26 27  2  0  0  0  0
 27 29  1  0  0  0  0
 27 28  1  0  0  0  0
 30 35  1  0  0  0  0
 31 32  1  0  0  0  0
 31 30  2  0  0  0  0
 32 33  2  0  0  0  0
 33 34  1  0  0  0  0
 35 34  2  0  0  0  0
 36 31  1  0  0  0  0
 37 33  1  0  0  0  0
 37 38  1  0  0  0  0
 38 39  1  0  0  0  0
 39 41  1  0  0  0  0
 40 39  2  0  0  0  0
 42 43  1  0  0  0  0
 42 21  1  0  0  0  0
M  END
>  <minimizedAffinity>
-9.05038834

$$$$

 OpenBabel08182222443D

 43 47  0  0  1  0  0  0  0  0999 V2000
   15.9320   32.5900   11.3340 C   0  0  0  0  0  0  0  0  0  0  0  0
   15.8630   33.7790   11.6520 O   0  0  0  0  0  0  0  0  0  0  0  0
   14.7970   31.8310   10.9770 N   0  0  0  0  0  0  0  0  0  0  0  0
   14.8980   30.6670   10.0570 C   0  0  2  0  0  3  0  0  0  0  0  0
   14.4510   31.1320    8.6950 C   0  0  0  0  0  0  0  0  0  0  0  0
   13.1940   31.5140    8.4010 C   0  0  0  0  0  0  0  0  0  0  0  0
   12.6980   31.9000    7.0160 C   0  0  0  0  0  2  0  0  0  0  0  0
   13.5740   31.5360    5.8020 C   0  0  0  0  0  0  0  0  0  0  0  0
   15.0160   31.9480    6.0840 C   0  0  0  0  0  2  0  0  0  0  0  0
   15.7180   31.1860    7.5190 S   0  0  0  0  0  0  0  0  0  0  0  0
   16.0940   29.8320    7.1580 O   0  0  0  0  0  0  0  0  0  0  0  0
   16.7400   32.1000    8.0020 O   0  0  0  0  0  0  0  0  0  0  0  0
   13.4510   30.0410    5.4570 C   0  0  0  0  0  1  0  0  0  0  0  0
   13.0730   32.3310    4.5760 C   0  0  0  0  0  1  0  0  0  0  0  0
   12.2090   31.5880    9.3630 N   0  0  0  0  0  0  0  0  0  0  0  0
   12.2970   32.0160   10.7100 C   0  0  0  0  0  0  0  0  0  0  0  0
   13.4870   32.2390   11.4350 C   0  0  0  0  0  0  0  0  0  0  0  0
   13.3820   32.8030   12.7260 C   0  0  0  0  0  3  0  0  0  0  0  0
   12.1470   33.1140   13.3050 C   0  0  0  0  0  3  0  0  0  0  0  0
   10.9750   32.8640   12.6090 C   0  0  0  0  0  3  0  0  0  0  0  0
   11.0590   32.3260   11.3300 C   0  0  0  0  0  0  0  0  0  0  0  0
   11.2370   31.5770    9.0480 H   0  0  0  0  0  0  0  0  0  0  0  0
   18.7690   33.5960   10.0360 C   0  0  0  0  0  1  0  0  0  0  0  0
   18.4070   32.3980   10.8130 C   0  0  0  0  0  0  0  0  0  0  0  0
   17.2320   31.9180   11.3570 C   0  0  0  0  0  0  0  0  0  0  0  0
   17.4960   30.7230   12.0120 N   0  0  0  0  0  0  0  0  0  0  0  0
   18.7800   30.5190   11.8010 C   0  0  0  0  0  0  0  0  0  0  0  0
   19.4030   31.5050   11.0890 O   0  0  0  0  0  0  0  0  0  0  0  0
   19.6240   29.3880   12.2340 C   0  0  0  0  0  1  0  0  0  0  0  0
   14.2850   29.3800   10.6290 C   0  0  0  0  0  0  0  0  0  0  0  0
   14.3050   29.0650   11.9910 C   0  0  0  0  0  0  0  0  0  0  0  0
   13.7010   27.9090   12.4880 C   0  0  0  0  0  3  0  0  0  0  0  0
   13.0350   27.0320   11.6360 C   0  0  0  0  0  0  0  0  0  0  0  0
   12.9590   27.3420   10.2830 C   0  0  0  0  0  3  0  0  0  0  0  0
   13.5670   28.5070    9.7900 C   0  0  0  0  0  3  0  0  0  0  0  0
   14.8960   29.8760   12.8770 F   0  0  0  0  0  0  0  0  0  0  0  0
   12.4840   25.9450   12.2520 O   0  0  0  0  0  0  0  0  0  0  0  0
   11.0770   25.7260   12.1410 C   0  0  0  0  0  2  0  0  0  0  0  0
   10.2910   26.8030   12.8550 C   0  0  0  0  0  0  0  0  0  0  0  0
    9.5910   27.7380   12.1920 C   0  0  0  0  0  2  0  0  0  0  0  0
   10.3090   26.7520   14.3570 C   0  0  0  0  0  1  0  0  0  0  0  0
    9.9100   32.1090   10.6010 O   0  0  0  0  0  0  0  0  0  0  0  0
    9.1480   32.3340   11.1610 H   0  0  0  0  0  0  0  0  0  0  0  0
  1 25  1  0  0  0  0
  1  2  2  0  0  0  0
  3  1  1  0  0  0  0
  3 17  1  0  0  0  0
  4 30  1  1  0  0  0
  4  3  1  0  0  0  0
  5  4  1  0  0  0  0
  6  5  2  0  0  0  0
  6 15  1  0  0  0  0
  7  6  1  0  0  0  0
  8  9  1  0  0  0  0
  8  7  1  0  0  0  0
  9 10  1  0  0  0  0
 10 12  2  0  0  0  0
 10  5  1  0  0  0  0
 11 10  2  0  0  0  0
 13  8  1  0  0  0  0
 14  8  1  0  0  0  0
 15 16  1  0  0  0  0
 16 21  2  0  0  0  0
 16 17  1  0  0  0  0
 17 18  2  0  0  0  0
 18 19  1  0  0  0  0
 20 19  2  0  0  0  0
 21 20  1  0  0  0  0
 22 15  1  0  0  0  0
 23 24  1  0  0  0  0
 24 28  1  0  0  0  0
 24 25  2  0  0  0  0
 25 26  1  0  0  0  0
 27 26  2  0  0  0  0
 27 29  1  0  0  0  0
 28 27  1  0  0  0  0
 30 31  1  0  0  0  0
 31 32  2  0  0  0  0
 31 36  1  0  0  0  0
 33 37  1  0  0  0  0
 33 32  1  0  0  0  0
 34 33  2  0  0  0  0
 35 34  1  0  0  0  0
 35 30  2  0  0  0  0
 38 37  1  0  0  0  0
 38 39  1  0  0  0  0
 39 41  1  0  0  0  0
 40 39  2  0  0  0  0
 42 43  1  0  0  0  0
 42 21  1  0  0  0  0
M  END
>  <minimizedAffinity>
-9.02417278

$$$$

 OpenBabel08182222443D

 43 47  0  0  1  0  0  0  0  0999 V2000
   13.5760   29.2850   11.6150 C   0  0  0  0  0  0  0  0  0  0  0  0
   14.0590   28.1540   11.5260 O   0  0  0  0  0  0  0  0  0  0  0  0
   14.3110   30.4510   11.3130 N   0  0  0  0  0  0  0  0  0  0  0  0
   13.6400   31.6900   10.8380 C   0  0  2  0  0  3  0  0  0  0  0  0
   13.8070   31.7460    9.3420 C   0  0  0  0  0  0  0  0  0  0  0  0
   14.9900   31.9040    8.7180 C   0  0  0  0  0  0  0  0  0  0  0  0
   15.1740   32.0540    7.2160 C   0  0  0  0  0  2  0  0  0  0  0  0
   13.9320   32.3690    6.3580 C   0  0  0  0  0  0  0  0  0  0  0  0
   12.7980   31.4290    6.7570 C   0  0  0  0  0  2  0  0  0  0  0  0
   12.3330   31.5370    8.4610 S   0  0  0  0  0  0  0  0  0  0  0  0
   11.5100   32.7220    8.6170 O   0  0  0  0  0  0  0  0  0  0  0  0
   11.7810   30.2390    8.8120 O   0  0  0  0  0  0  0  0  0  0  0  0
   13.5340   33.8500    6.4830 C   0  0  0  0  0  1  0  0  0  0  0  0
   14.2780   32.1110    4.8760 C   0  0  0  0  0  1  0  0  0  0  0  0
   16.1810   31.9500    9.4100 N   0  0  0  0  0  0  0  0  0  0  0  0
   16.5890   31.2120   10.5480 C   0  0  0  0  0  0  0  0  0  0  0  0
   15.7550   30.4250   11.3720 C   0  0  0  0  0  0  0  0  0  0  0  0
   16.3640   29.6430   12.3790 C   0  0  0  0  0  3  0  0  0  0  0  0
   17.7460   29.6520   12.5950 C   0  0  0  0  0  3  0  0  0  0  0  0
   18.5640   30.4500   11.8100 C   0  0  0  0  0  3  0  0  0  0  0  0
   17.9850   31.2120   10.8020 C   0  0  0  0  0  0  0  0  0  0  0  0
   16.9860   32.3710    8.9430 H   0  0  0  0  0  0  0  0  0  0  0  0
   12.5250   30.2750   14.5590 C   0  0  0  0  0  1  0  0  0  0  0  0
   11.8080   29.8850   13.3320 C   0  0  0  0  0  0  0  0  0  0  0  0
   12.1980   29.4390   12.0850 C   0  0  0  0  0  0  0  0  0  0  0  0
   11.0670   29.2400   11.3050 N   0  0  0  0  0  0  0  0  0  0  0  0
   10.0680   29.5260   12.1120 C   0  0  0  0  0  0  0  0  0  0  0  0
   10.4430   29.9380   13.3590 O   0  0  0  0  0  0  0  0  0  0  0  0
    8.6160   29.4690   11.8490 C   0  0  0  0  0  1  0  0  0  0  0  0
   14.0020   32.9350   11.6620 C   0  0  0  0  0  0  0  0  0  0  0  0
   13.7990   34.2400   11.2030 C   0  0  0  0  0  0  0  0  0  0  0  0
   14.0960   35.3520   11.9910 C   0  0  0  0  0  3  0  0  0  0  0  0
   14.5920   35.1970   13.2830 C   0  0  0  0  0  0  0  0  0  0  0  0
   14.7600   33.9100   13.7840 C   0  0  0  0  0  3  0  0  0  0  0  0
   14.4580   32.7970   12.9880 C   0  0  0  0  0  3  0  0  0  0  0  0
   13.2940   34.4700    9.9850 F   0  0  0  0  0  0  0  0  0  0  0  0
   14.8330   36.3650   13.9470 O   0  0  0  0  0  0  0  0  0  0  0  0
   14.1710   36.6050   15.1890 C   0  0  0  0  0  2  0  0  0  0  0  0
   15.1100   36.4330   16.3610 C   0  0  0  0  0  0  0  0  0  0  0  0
   16.0810   37.3180   16.6380 C   0  0  0  0  0  2  0  0  0  0  0  0
   14.8780   35.2240   17.2250 C   0  0  0  0  0  1  0  0  0  0  0  0
   18.7810   31.9800    9.9810 O   0  0  0  0  0  0  0  0  0  0  0  0
   19.6990   31.9060   10.2920 H   0  0  0  0  0  0  0  0  0  0  0  0
  1 25  1  0  0  0  0
  2  1  2  0  0  0  0
  3 17  1  0  0  0  0
  3  1  1  0  0  0  0
  4  3  1  0  0  0  0
  4 30  1  1  0  0  0
  5  4  1  0  0  0  0
  6  5  2  0  0  0  0
  6 15  1  0  0  0  0
  7  6  1  0  0  0  0
  8 13  1  0  0  0  0
  8  9  1  0  0  0  0
  8  7  1  0  0  0  0
  9 10  1  0  0  0  0
 10 11  2  0  0  0  0
 10 12  2  0  0  0  0
 10  5  1  0  0  0  0
 14  8  1  0  0  0  0
 15 16  1  0  0  0  0
 16 21  2  0  0  0  0
 16 17  1  0  0  0  0
 17 18  2  0  0  0  0
 18 19  1  0  0  0  0
 20 19  2  0  0  0  0
 21 20  1  0  0  0  0
 22 15  1  0  0  0  0
 24 28  1  0  0  0  0
 24 23  1  0  0  0  0
 25 24  2  0  0  0  0
 26 25  1  0  0  0  0
 26 27  2  0  0  0  0
 27 28  1  0  0  0  0
 29 27  1  0  0  0  0
 30 35  1  0  0  0  0
 31 30  2  0  0  0  0
 31 32  1  0  0  0  0
 32 33  2  0  0  0  0
 33 34  1  0  0  0  0
 33 37  1  0  0  0  0
 35 34  2  0  0  0  0
 36 31  1  0  0  0  0
 37 38  1  0  0  0  0
 38 39  1  0  0  0  0
 39 40  2  0  0  0  0
 39 41  1  0  0  0  0
 42 43  1  0  0  0  0
 42 21  1  0  0  0  0
M  END
>  <minimizedAffinity>
-8.93178177

$$$$

 OpenBabel08182222443D

 43 47  0  0  1  0  0  0  0  0999 V2000
   41.4800  -12.9810  -21.0970 C   0  0  0  0  0  0  0  0  0  0  0  0
   42.6850  -12.7720  -20.9400 O   0  0  0  0  0  0  0  0  0  0  0  0
   40.4860  -12.2640  -20.3960 N   0  0  0  0  0  0  0  0  0  0  0  0
   39.1280  -12.0600  -20.9650 C   0  0  2  0  0  3  0  0  0  0  0  0
   39.0860  -10.6660  -21.5360 C   0  0  0  0  0  0  0  0  0  0  0  0
   39.1670   -9.5440  -20.7970 C   0  0  0  0  0  0  0  0  0  0  0  0
   39.0360   -8.1280  -21.3380 C   0  0  0  0  0  2  0  0  0  0  0  0
   38.4580   -7.9410  -22.7540 C   0  0  0  0  0  0  0  0  0  0  0  0
   39.1490   -8.9120  -23.7090 C   0  0  0  0  0  2  0  0  0  0  0  0
   38.9720  -10.6150  -23.2610 S   0  0  0  0  0  0  0  0  0  0  0  0
   37.6450  -11.0400  -23.6660 O   0  0  0  0  0  0  0  0  0  0  0  0
   40.1330  -11.2990  -23.8080 O   0  0  0  0  0  0  0  0  0  0  0  0
   36.9290   -8.1100  -22.7560 C   0  0  0  0  0  1  0  0  0  0  0  0
   38.7610   -6.5020  -23.2240 C   0  0  0  0  0  1  0  0  0  0  0  0
   39.3790   -9.5780  -19.4350 N   0  0  0  0  0  0  0  0  0  0  0  0
   40.2030  -10.4440  -18.6750 C   0  0  0  0  0  0  0  0  0  0  0  0
   40.8120  -11.6300  -19.1370 C   0  0  0  0  0  0  0  0  0  0  0  0
   41.7180  -12.2910  -18.2760 C   0  0  0  0  0  3  0  0  0  0  0  0
   41.9990  -11.8210  -16.9900 C   0  0  0  0  0  3  0  0  0  0  0  0
   41.3760  -10.6750  -16.5200 C   0  0  0  0  0  3  0  0  0  0  0  0
   40.4950  -10.0020  -17.3590 C   0  0  0  0  0  0  0  0  0  0  0  0
   39.1270   -8.7490  -18.8940 H   0  0  0  0  0  0  0  0  0  0  0  0
   40.3740  -15.9840  -20.3860 C   0  0  0  0  0  1  0  0  0  0  0  0
   40.5680  -15.2780  -21.6640 C   0  0  0  0  0  0  0  0  0  0  0  0
   41.0500  -14.0340  -22.0180 C   0  0  0  0  0  0  0  0  0  0  0  0
   40.9830  -13.9020  -23.3980 N   0  0  0  0  0  0  0  0  0  0  0  0
   40.5150  -15.0620  -23.8080 C   0  0  0  0  0  0  0  0  0  0  0  0
   40.2280  -15.9450  -22.8070 O   0  0  0  0  0  0  0  0  0  0  0  0
   40.2560  -15.5230  -25.1870 C   0  0  0  0  0  1  0  0  0  0  0  0
   37.9980  -12.5000  -20.0230 C   0  0  0  0  0  0  0  0  0  0  0  0
   36.6910  -12.0110  -20.1170 C   0  0  0  0  0  0  0  0  0  0  0  0
   35.6740  -12.4620  -19.2760 C   0  0  0  0  0  3  0  0  0  0  0  0
   35.9250  -13.4390  -18.3160 C   0  0  0  0  0  0  0  0  0  0  0  0
   37.2040  -13.9780  -18.2300 C   0  0  0  0  0  3  0  0  0  0  0  0
   38.2220  -13.5220  -19.0800 C   0  0  0  0  0  3  0  0  0  0  0  0
   36.3640  -11.0950  -21.0370 F   0  0  0  0  0  0  0  0  0  0  0  0
   34.8420  -13.7940  -17.5650 O   0  0  0  0  0  0  0  0  0  0  0  0
   33.7290  -12.9030  -17.4900 C   0  0  0  0  0  2  0  0  0  0  0  0
   33.8980  -11.8960  -16.3750 C   0  0  0  0  0  0  0  0  0  0  0  0
   34.5140  -12.2010  -15.2210 C   0  0  0  0  0  2  0  0  0  0  0  0
   33.3630  -10.5160  -16.6400 C   0  0  0  0  0  1  0  0  0  0  0  0
   39.8970   -8.8370  -16.9310 O   0  0  0  0  0  0  0  0  0  0  0  0
   40.1640   -8.6790  -16.0100 H   0  0  0  0  0  0  0  0  0  0  0  0
  1  2  2  0  0  0  0
  1  3  1  0  0  0  0
  3 17  1  0  0  0  0
  4  3  1  0  0  0  0
  4 30  1  1  0  0  0
  5  4  1  0  0  0  0
  5  6  2  0  0  0  0
  6 15  1  0  0  0  0
  7  6  1  0  0  0  0
  8  7  1  0  0  0  0
  9 10  1  0  0  0  0
  9  8  1  0  0  0  0
 10  5  1  0  0  0  0
 11 10  2  0  0  0  0
 12 10  2  0  0  0  0
 13  8  1  0  0  0  0
 14  8  1  0  0  0  0
 15 22  1  0  0  0  0
 15 16  1  0  0  0  0
 16 21  1  0  0  0  0
 17 16  2  0  0  0  0
 17 18  1  0  0  0  0
 18 19  2  0  0  0  0
 19 20  1  0  0  0  0
 21 42  1  0  0  0  0
 21 20  2  0  0  0  0
 24 23  1  0  0  0  0
 25 24  2  0  0  0  0
 25  1  1  0  0  0  0
 26 25  1  0  0  0  0
 27 26  2  0  0  0  0
 27 28  1  0  0  0  0
 28 24  1  0  0  0  0
 29 27  1  0  0  0  0
 30 35  1  0  0  0  0
 31 30  2  0  0  0  0
 31 32  1  0  0  0  0
 32 33  2  0  0  0  0
 33 34  1  0  0  0  0
 33 37  1  0  0  0  0
 35 34  2  0  0  0  0
 36 31  1  0  0  0  0
 37 38  1  0  0  0  0
 38 39  1  0  0  0  0
 39 40  2  0  0  0  0
 41 39  1  0  0  0  0
 42 43  1  0  0  0  0
M  END
>  <minimizedAffinity>
-8.64078617

$$$$

 OpenBabel08182222443D

 43 47  0  0  1  0  0  0  0  0999 V2000
   14.1810   42.9140   15.1360 C   0  0  0  0  0  0  0  0  0  0  0  0
   13.9350   41.7180   14.9620 O   0  0  0  0  0  0  0  0  0  0  0  0
   15.1180   43.6200   14.3520 N   0  0  0  0  0  0  0  0  0  0  0  0
   14.9980   45.0850   14.1290 C   0  0  2  0  0  3  0  0  0  0  0  0
   14.3900   45.2830   12.7650 C   0  0  0  0  0  0  0  0  0  0  0  0
   14.9990   44.9520   11.6100 C   0  0  0  0  0  0  0  0  0  0  0  0
   14.4460   45.2230   10.2200 C   0  0  0  0  0  2  0  0  0  0  0  0
   13.2770   46.2190   10.0830 C   0  0  0  0  0  0  0  0  0  0  0  0
   12.2110   45.8850   11.1240 C   0  0  0  0  0  2  0  0  0  0  0  0
   12.7900   45.9400   12.7950 S   0  0  0  0  0  0  0  0  0  0  0  0
   12.8530   47.3330   13.1930 O   0  0  0  0  0  0  0  0  0  0  0  0
   11.9440   45.0260   13.5450 O   0  0  0  0  0  0  0  0  0  0  0  0
   13.7700   47.6720   10.1990 C   0  0  0  0  0  1  0  0  0  0  0  0
   12.6530   46.0580    8.6800 C   0  0  0  0  0  1  0  0  0  0  0  0
   16.2220   44.3170   11.5840 N   0  0  0  0  0  0  0  0  0  0  0  0
   16.7310   43.3090   12.4390 C   0  0  0  0  0  0  0  0  0  0  0  0
   16.1690   42.9000   13.6680 C   0  0  0  0  0  0  0  0  0  0  0  0
   16.7350   41.7780   14.3160 C   0  0  0  0  0  3  0  0  0  0  0  0
   17.8370   41.0940   13.7930 C   0  0  0  0  0  3  0  0  0  0  0  0
   18.4120   41.5150   12.6040 C   0  0  0  0  0  3  0  0  0  0  0  0
   17.8580   42.6050   11.9430 C   0  0  0  0  0  0  0  0  0  0  0  0
   16.7660   44.3700   10.7210 H   0  0  0  0  0  0  0  0  0  0  0  0
   15.3940   43.8300   18.0410 C   0  0  0  0  0  1  0  0  0  0  0  0
   14.0730   44.0170   17.4180 C   0  0  0  0  0  0  0  0  0  0  0  0
   13.5060   43.6330   16.2180 C   0  0  0  0  0  0  0  0  0  0  0  0
   12.2060   44.1150   16.1600 N   0  0  0  0  0  0  0  0  0  0  0  0
   12.0360   44.7170   17.3190 C   0  0  0  0  0  0  0  0  0  0  0  0
   13.1340   44.7080   18.1310 O   0  0  0  0  0  0  0  0  0  0  0  0
   10.8360   45.3980   17.8440 C   0  0  0  0  0  1  0  0  0  0  0  0
   16.2740   45.8640   14.4820 C   0  0  0  0  0  0  0  0  0  0  0  0
   16.6130   47.0840   13.8890 C   0  0  0  0  0  0  0  0  0  0  0  0
   17.7560   47.7910   14.2610 C   0  0  0  0  0  3  0  0  0  0  0  0
   18.5970   47.3090   15.2610 C   0  0  0  0  0  0  0  0  0  0  0  0
   18.2610   46.1210   15.9020 C   0  0  0  0  0  3  0  0  0  0  0  0
   17.1090   45.4160   15.5240 C   0  0  0  0  0  3  0  0  0  0  0  0
   15.8370   47.6280   12.9440 F   0  0  0  0  0  0  0  0  0  0  0  0
   19.6750   48.1010   15.5320 O   0  0  0  0  0  0  0  0  0  0  0  0
   20.0670   49.0870   14.5770 C   0  0  0  0  0  2  0  0  0  0  0  0
   21.4270   49.6630   14.9000 C   0  0  0  0  0  0  0  0  0  0  0  0
   22.2190   50.2040   13.9600 C   0  0  0  0  0  2  0  0  0  0  0  0
   21.8370   49.6240   16.3460 C   0  0  0  0  0  1  0  0  0  0  0  0
   18.3850   43.0160   10.7380 O   0  0  0  0  0  0  0  0  0  0  0  0
   19.1630   42.4670   10.5440 H   0  0  0  0  0  0  0  0  0  0  0  0
  1 25  1  0  0  0  0
  2  1  2  0  0  0  0
  3  1  1  0  0  0  0
  4  3  1  0  0  0  0
  4 30  1  6  0  0  0
  5 10  1  0  0  0  0
  5  4  1  0  0  0  0
  6  5  2  0  0  0  0
  7  6  1  0  0  0  0
  8 13  1  0  0  0  0
  8  7  1  0  0  0  0
  8  9  1  0  0  0  0
  9 10  1  0  0  0  0
 10 11  2  0  0  0  0
 10 12  2  0  0  0  0
 14  8  1  0  0  0  0
 15  6  1  0  0  0  0
 15 16  1  0  0  0  0
 16 17  1  0  0  0  0
 17 18  2  0  0  0  0
 17  3  1  0  0  0  0
 19 18  1  0  0  0  0
 20 19  2  0  0  0  0
 21 16  2  0  0  0  0
 21 20  1  0  0  0  0
 22 15  1  0  0  0  0
 24 23  1  0  0  0  0
 24 28  1  0  0  0  0
 25 24  2  0  0  0  0
 26 25  1  0  0  0  0
 26 27  2  0  0  0  0
 27 29  1  0  0  0  0
 27 28  1  0  0  0  0
 30 35  1  0  0  0  0
 31 32  1  0  0  0  0
 31 30  2  0  0  0  0
 32 33  2  0  0  0  0
 33 37  1  0  0  0  0
 33 34  1  0  0  0  0
 35 34  2  0  0  0  0
 36 31  1  0  0  0  0
 38 39  1  0  0  0  0
 38 37  1  0  0  0  0
 39 41  1  0  0  0  0
 40 39  2  0  0  0  0
 42 21  1  0  0  0  0
 43 42  1  0  0  0  0
M  END
>  <minimizedAffinity>
-8.59395313

$$$$

 OpenBabel08182222443D

 43 47  0  0  1  0  0  0  0  0999 V2000
   12.3400  -20.8830   -5.7690 C   0  0  0  0  0  0  0  0  0  0  0  0
   11.1370  -21.1560   -5.7780 O   0  0  0  0  0  0  0  0  0  0  0  0
   13.3430  -21.8710   -5.6680 N   0  0  0  0  0  0  0  0  0  0  0  0
   14.6990  -21.6620   -6.2400 C   0  0  2  0  0  3  0  0  0  0  0  0
   14.7490  -22.3950   -7.5560 C   0  0  0  0  0  0  0  0  0  0  0  0
   14.6810  -23.7340   -7.6790 C   0  0  0  0  0  0  0  0  0  0  0  0
   14.8190  -24.5010   -8.9850 C   0  0  0  0  0  2  0  0  0  0  0  0
   15.3910  -23.7570  -10.2080 C   0  0  0  0  0  0  0  0  0  0  0  0
   14.6870  -22.4100  -10.3490 C   0  0  0  0  0  2  0  0  0  0  0  0
   14.8540  -21.3570   -8.9360 S   0  0  0  0  0  0  0  0  0  0  0  0
   16.1750  -20.7590   -8.9860 O   0  0  0  0  0  0  0  0  0  0  0  0
   13.6840  -20.4920   -8.9370 O   0  0  0  0  0  0  0  0  0  0  0  0
   16.9190  -23.6090  -10.1040 C   0  0  0  0  0  1  0  0  0  0  0  0
   15.0970  -24.5920  -11.4740 C   0  0  0  0  0  1  0  0  0  0  0  0
   14.4760  -24.5580   -6.5940 N   0  0  0  0  0  0  0  0  0  0  0  0
   13.6500  -24.3650   -5.4600 C   0  0  0  0  0  0  0  0  0  0  0  0
   13.0290  -23.1550   -5.0810 C   0  0  0  0  0  0  0  0  0  0  0  0
   12.1230  -23.1840   -3.9970 C   0  0  0  0  0  3  0  0  0  0  0  0
   11.8530  -24.3570   -3.2850 C   0  0  0  0  0  3  0  0  0  0  0  0
   12.4870  -25.5390   -3.6320 C   0  0  0  0  0  3  0  0  0  0  0  0
   13.3680  -25.5340   -4.7080 C   0  0  0  0  0  0  0  0  0  0  0  0
   14.7380  -25.5410   -6.6880 H   0  0  0  0  0  0  0  0  0  0  0  0
   11.2180  -18.5100   -7.7340 C   0  0  0  0  0  1  0  0  0  0  0  0
   12.2320  -18.5120   -6.6650 C   0  0  0  0  0  0  0  0  0  0  0  0
   12.7560  -19.4810   -5.8320 C   0  0  0  0  0  0  0  0  0  0  0  0
   13.6910  -18.8930   -4.9910 N   0  0  0  0  0  0  0  0  0  0  0  0
   13.7200  -17.6340   -5.3760 C   0  0  0  0  0  0  0  0  0  0  0  0
   12.8490  -17.3260   -6.3830 O   0  0  0  0  0  0  0  0  0  0  0  0
   14.5510  -16.5260   -4.8650 C   0  0  0  0  0  1  0  0  0  0  0  0
   15.8320  -21.8950   -5.2290 C   0  0  0  0  0  0  0  0  0  0  0  0
   17.1420  -22.2020   -5.6080 C   0  0  0  0  0  0  0  0  0  0  0  0
   18.1610  -22.3650   -4.6680 C   0  0  0  0  0  3  0  0  0  0  0  0
   17.9060  -22.2070   -3.3080 C   0  0  0  0  0  0  0  0  0  0  0  0
   16.6220  -21.8570   -2.9050 C   0  0  0  0  0  3  0  0  0  0  0  0
   15.6030  -21.6920   -3.8540 C   0  0  0  0  0  3  0  0  0  0  0  0
   17.4720  -22.3360   -6.8980 F   0  0  0  0  0  0  0  0  0  0  0  0
   18.9910  -22.3880   -2.4990 O   0  0  0  0  0  0  0  0  0  0  0  0
   19.8640  -21.2840   -2.2570 C   0  0  0  0  0  2  0  0  0  0  0  0
   21.3160  -21.6930   -2.3610 C   0  0  0  0  0  0  0  0  0  0  0  0
   21.9980  -22.1910   -1.3160 C   0  0  0  0  0  2  0  0  0  0  0  0
   21.9530  -21.5410   -3.7140 C   0  0  0  0  0  1  0  0  0  0  0  0
   13.9780  -26.7050   -5.1000 O   0  0  0  0  0  0  0  0  0  0  0  0
   13.7170  -27.4060   -4.4790 H   0  0  0  0  0  0  0  0  0  0  0  0
  1  3  1  0  0  0  0
  2  1  2  0  0  0  0
  3 17  1  0  0  0  0
  4  3  1  0  0  0  0
  4 30  1  1  0  0  0
  5  4  1  0  0  0  0
  6  5  2  0  0  0  0
  6 15  1  0  0  0  0
  7  6  1  0  0  0  0
  8 13  1  0  0  0  0
  8  7  1  0  0  0  0
  9  8  1  0  0  0  0
  9 10  1  0  0  0  0
 10  5  1  0  0  0  0
 11 10  2  0  0  0  0
 12 10  2  0  0  0  0
 14  8  1  0  0  0  0
 15 16  1  0  0  0  0
 16 17  2  0  0  0  0
 16 21  1  0  0  0  0
 17 18  1  0  0  0  0
 18 19  2  0  0  0  0
 20 19  1  0  0  0  0
 21 20  2  0  0  0  0
 22 15  1  0  0  0  0
 23 24  1  0  0  0  0
 24 28  1  0  0  0  0
 24 25  2  0  0  0  0
 25  1  1  0  0  0  0
 25 26  1  0  0  0  0
 27 26  2  0  0  0  0
 27 29  1  0  0  0  0
 28 27  1  0  0  0  0
 30 35  1  0  0  0  0
 31 30  2  0  0  0  0
 31 32  1  0  0  0  0
 32 33  2  0  0  0  0
 33 34  1  0  0  0  0
 33 37  1  0  0  0  0
 35 34  2  0  0  0  0
 36 31  1  0  0  0  0
 37 38  1  0  0  0  0
 39 38  1  0  0  0  0
 39 40  2  0  0  0  0
 41 39  1  0  0  0  0
 42 21  1  0  0  0  0
 42 43  1  0  0  0  0
M  END
>  <minimizedAffinity>
-8.55593777

$$$$
