REMARK  Name = 
REMARK  11 active torsions:
REMARK  status: ('A' for Active; 'I' for Inactive)
REMARK    1  A    between atoms: C_1  and  C_2
REMARK    2  A    between atoms: C_3  and  C_8
REMARK    3  A    between atoms: C_5  and  C_7
REMARK    4  A    between atoms: C_11  and  C_30
REMARK    5  A    between atoms: C_15  and  C_20
REMARK    6  A    between atoms: C_15  and  C_21
REMARK    7  A    between atoms: C_28  and  O_29
REMARK    8  A    between atoms: C_33  and  O_36
REMARK    9  A    between atoms: O_36  and  C_37
REMARK   10  A    between atoms: C_37  and  C_38
REMARK   11  A    between atoms: C_38  and  C_40
REMARK                            x       y       z     vdW  Elec       q    Type
REMARK                         _______ _______ _______ _____ _____    ______ ____
ROOT
ATOM      1  C   UNL     1      -1.165  -2.669   0.865  0.00  0.00    +0.273 C 
ATOM      2  O   UNL     1      -1.948  -2.551   1.810  0.00  0.00    -0.268 OA
ATOM      3  N   UNL     1      -0.293  -3.771   0.733  0.00  0.00    -0.251 N 
ATOM      4  C   UNL     1       0.179  -4.233  -0.599  0.00  0.00    +0.164 C 
ATOM      5  C   UNL     1      -0.655  -5.428  -0.981  0.00  0.00    +0.108 C 
ATOM      6  C   UNL     1      -0.625  -6.609  -0.335  0.00  0.00    +0.032 C 
ATOM      7  C   UNL     1      -1.388  -7.856  -0.755  0.00  0.00    +0.060 C 
ATOM      8  C   UNL     1      -1.985  -7.900  -2.175  0.00  0.00    -0.010 C 
ATOM      9  C   UNL     1      -2.728  -6.594  -2.446  0.00  0.00    +0.178 C 
ATOM     10  S   UNL     1      -1.717  -5.147  -2.317  0.00  0.00    -0.003 S 
ATOM     11  O   UNL     1      -0.937  -5.046  -3.536  0.00  0.00    -0.170 OA
ATOM     12  O   UNL     1      -2.613  -4.060  -1.957  0.00  0.00    -0.170 OA
ATOM     13  C   UNL     1      -0.897  -8.181  -3.226  0.00  0.00    +0.013 C 
ATOM     14  C   UNL     1      -3.002  -9.060  -2.247  0.00  0.00    +0.013 C 
ATOM     15  N   UNL     1       0.129  -6.801   0.803  0.00  0.00    -0.312 N 
ATOM     16  C   UNL     1       0.374  -5.915   1.880  0.00  0.00    +0.095 A 
ATOM     17  C   UNL     1       0.082  -4.534   1.903  0.00  0.00    +0.062 A 
ATOM     18  C   UNL     1       0.264  -3.837   3.119  0.00  0.00    +0.025 A 
ATOM     19  C   UNL     1       0.745  -4.465   4.272  0.00  0.00    +0.005 A 
ATOM     20  C   UNL     1       1.066  -5.813   4.243  0.00  0.00    +0.047 A 
ATOM     21  C   UNL     1       0.876  -6.520   3.061  0.00  0.00    +0.140 A 
ATOM     22  H   UNL     1       0.358  -7.762   1.064  0.00  0.00    +0.152 HD
ENDROOT
BRANCH   1  25
ATOM     23  C   UNL     1      -3.561  -0.675  -0.151  0.00  0.00    +0.089 C 
ATOM     24  C   UNL     1      -2.140  -0.784  -0.524  0.00  0.00    +0.135 A 
ATOM     25  C   UNL     1      -1.103  -1.615  -0.149  0.00  0.00    +0.167 A 
ATOM     26  N   UNL     1       0.046  -1.235  -0.829  0.00  0.00    -0.209 NA
ATOM     27  C   UNL     1      -0.351  -0.243  -1.598  0.00  0.00    +0.193 A 
ATOM     28  O   UNL     1      -1.667   0.095  -1.457  0.00  0.00    -0.444 OA
ATOM     29  C   UNL     1       0.429   0.546  -2.572  0.00  0.00    +0.109 C 
ENDBRANCH   1  25
BRANCH   4  30
ATOM     30  C   UNL     1       1.708  -4.344  -0.701  0.00  0.00    +0.014 A 
ATOM     31  C   UNL     1       2.353  -5.285  -1.509  0.00  0.00    +0.132 A 
ATOM     32  C   UNL     1       3.743  -5.334  -1.616  0.00  0.00    +0.084 A 
ATOM     33  C   UNL     1       4.542  -4.424  -0.928  0.00  0.00    +0.124 A 
ATOM     34  C   UNL     1       3.927  -3.447  -0.153  0.00  0.00    +0.046 A 
ATOM     35  C   UNL     1       2.529  -3.402  -0.051  0.00  0.00    +0.012 A 
ATOM     36  F   UNL     1       1.652  -6.171  -2.227  0.00  0.00    -0.205 F 
BRANCH  33  37
ATOM     37  O   UNL     1       5.884  -4.578  -1.126  0.00  0.00    -0.488 OA
BRANCH  37  38
ATOM     38  C   UNL     1       6.793  -3.822  -0.325  0.00  0.00    +0.259 C 
BRANCH  38  39
ATOM     39  C   UNL     1       7.116  -2.489  -0.961  0.00  0.00    -0.043 C 
ATOM     40  C   UNL     1       7.051  -1.334  -0.278  0.00  0.00    +0.011 C 
ATOM     41  C   UNL     1       7.546  -2.528  -2.401  0.00  0.00    +0.042 C 
ENDBRANCH  38  39
ENDBRANCH  37  38
ENDBRANCH  33  37
ENDBRANCH   4  30
BRANCH  21  42
ATOM     42  O   UNL     1       1.146  -7.870   3.019  0.00  0.00    -0.505 OA
ATOM     43  H   UNL     1       1.509  -8.134   3.881  0.00  0.00    +0.292 HD
ENDBRANCH  21  42
TORSDOF 6
