
 OpenBabel08182222443D

 43 47  0  0  1  0  0  0  0  0999 V2000
   41.4800  -12.9810  -21.0970 C   0  0  0  0  0  0  0  0  0  0  0  0
   42.6850  -12.7720  -20.9400 O   0  0  0  0  0  0  0  0  0  0  0  0
   40.4860  -12.2640  -20.3960 N   0  0  0  0  0  0  0  0  0  0  0  0
   39.1280  -12.0600  -20.9650 C   0  0  2  0  0  3  0  0  0  0  0  0
   39.0860  -10.6660  -21.5360 C   0  0  0  0  0  0  0  0  0  0  0  0
   39.1670   -9.5440  -20.7970 C   0  0  0  0  0  0  0  0  0  0  0  0
   39.0360   -8.1280  -21.3380 C   0  0  0  0  0  2  0  0  0  0  0  0
   38.4580   -7.9410  -22.7540 C   0  0  0  0  0  0  0  0  0  0  0  0
   39.1490   -8.9120  -23.7090 C   0  0  0  0  0  2  0  0  0  0  0  0
   38.9720  -10.6150  -23.2610 S   0  0  0  0  0  0  0  0  0  0  0  0
   37.6450  -11.0400  -23.6660 O   0  0  0  0  0  0  0  0  0  0  0  0
   40.1330  -11.2990  -23.8080 O   0  0  0  0  0  0  0  0  0  0  0  0
   36.9290   -8.1100  -22.7560 C   0  0  0  0  0  1  0  0  0  0  0  0
   38.7610   -6.5020  -23.2240 C   0  0  0  0  0  1  0  0  0  0  0  0
   39.3790   -9.5780  -19.4350 N   0  0  0  0  0  0  0  0  0  0  0  0
   40.2030  -10.4440  -18.6750 C   0  0  0  0  0  0  0  0  0  0  0  0
   40.8120  -11.6300  -19.1370 C   0  0  0  0  0  0  0  0  0  0  0  0
   41.7180  -12.2910  -18.2760 C   0  0  0  0  0  3  0  0  0  0  0  0
   41.9990  -11.8210  -16.9900 C   0  0  0  0  0  3  0  0  0  0  0  0
   41.3760  -10.6750  -16.5200 C   0  0  0  0  0  3  0  0  0  0  0  0
   40.4950  -10.0020  -17.3590 C   0  0  0  0  0  0  0  0  0  0  0  0
   39.1270   -8.7490  -18.8940 H   0  0  0  0  0  0  0  0  0  0  0  0
   40.3740  -15.9840  -20.3860 C   0  0  0  0  0  1  0  0  0  0  0  0
   40.5680  -15.2780  -21.6640 C   0  0  0  0  0  0  0  0  0  0  0  0
   41.0500  -14.0340  -22.0180 C   0  0  0  0  0  0  0  0  0  0  0  0
   40.9830  -13.9020  -23.3980 N   0  0  0  0  0  0  0  0  0  0  0  0
   40.5150  -15.0620  -23.8080 C   0  0  0  0  0  0  0  0  0  0  0  0
   40.2280  -15.9450  -22.8070 O   0  0  0  0  0  0  0  0  0  0  0  0
   40.2560  -15.5230  -25.1870 C   0  0  0  0  0  1  0  0  0  0  0  0
   37.9980  -12.5000  -20.0230 C   0  0  0  0  0  0  0  0  0  0  0  0
   36.6910  -12.0110  -20.1170 C   0  0  0  0  0  0  0  0  0  0  0  0
   35.6740  -12.4620  -19.2760 C   0  0  0  0  0  3  0  0  0  0  0  0
   35.9250  -13.4390  -18.3160 C   0  0  0  0  0  0  0  0  0  0  0  0
   37.2040  -13.9780  -18.2300 C   0  0  0  0  0  3  0  0  0  0  0  0
   38.2220  -13.5220  -19.0800 C   0  0  0  0  0  3  0  0  0  0  0  0
   36.3640  -11.0950  -21.0370 F   0  0  0  0  0  0  0  0  0  0  0  0
   34.8420  -13.7940  -17.5650 O   0  0  0  0  0  0  0  0  0  0  0  0
   33.7290  -12.9030  -17.4900 C   0  0  0  0  0  2  0  0  0  0  0  0
   33.8980  -11.8960  -16.3750 C   0  0  0  0  0  0  0  0  0  0  0  0
   34.5140  -12.2010  -15.2210 C   0  0  0  0  0  2  0  0  0  0  0  0
   33.3630  -10.5160  -16.6400 C   0  0  0  0  0  1  0  0  0  0  0  0
   39.8970   -8.8370  -16.9310 O   0  0  0  0  0  0  0  0  0  0  0  0
   40.1640   -8.6790  -16.0100 H   0  0  0  0  0  0  0  0  0  0  0  0
  1  2  2  0  0  0  0
  1  3  1  0  0  0  0
  3 17  1  0  0  0  0
  4  3  1  0  0  0  0
  4 30  1  1  0  0  0
  5  4  1  0  0  0  0
  5  6  2  0  0  0  0
  6 15  1  0  0  0  0
  7  6  1  0  0  0  0
  8  7  1  0  0  0  0
  9 10  1  0  0  0  0
  9  8  1  0  0  0  0
 10  5  1  0  0  0  0
 11 10  2  0  0  0  0
 12 10  2  0  0  0  0
 13  8  1  0  0  0  0
 14  8  1  0  0  0  0
 15 22  1  0  0  0  0
 15 16  1  0  0  0  0
 16 21  1  0  0  0  0
 17 16  2  0  0  0  0
 17 18  1  0  0  0  0
 18 19  2  0  0  0  0
 19 20  1  0  0  0  0
 21 42  1  0  0  0  0
 21 20  2  0  0  0  0
 24 23  1  0  0  0  0
 25 24  2  0  0  0  0
 25  1  1  0  0  0  0
 26 25  1  0  0  0  0
 27 26  2  0  0  0  0
 27 28  1  0  0  0  0
 28 24  1  0  0  0  0
 29 27  1  0  0  0  0
 30 35  1  0  0  0  0
 31 30  2  0  0  0  0
 31 32  1  0  0  0  0
 32 33  2  0  0  0  0
 33 34  1  0  0  0  0
 33 37  1  0  0  0  0
 35 34  2  0  0  0  0
 36 31  1  0  0  0  0
 37 38  1  0  0  0  0
 38 39  1  0  0  0  0
 39 40  2  0  0  0  0
 41 39  1  0  0  0  0
 42 43  1  0  0  0  0
M  END
>  <minimizedAffinity>
-8.64078617

$$$$
