REMARK  Name = 
REMARK  9 active torsions:
REMARK  status: ('A' for Active; 'I' for Inactive)
REMARK    1  A    between atoms: C_2  and  C_4
REMARK    2  A    between atoms: N_6  and  C_7
REMARK    3  A    between atoms: C_13  and  C_14
REMARK    4  A    between atoms: C_14  and  CA_15
REMARK    5  A    between atoms: CA_15  and  N_16
REMARK    6  A    between atoms: CA_15  and  C_39
REMARK    7  A    between atoms: C_17  and  C_19
REMARK    8  A    between atoms: C_26  and  C_27
REMARK    9  A    between atoms: N_32  and  C_33
REMARK                            x       y       z     vdW  Elec       q    Type
REMARK                         _______ _______ _______ _____ _____    ______ ____
ROOT
ATOM      1  N   UNL     1       8.756  -0.560  -2.352  0.00  0.00    -0.303 N 
ATOM      2  C   UNL     1       7.933   0.373  -1.794  0.00  0.00    +0.245 C 
ATOM      3  O   UNL     1       7.472   0.217  -0.664  0.00  0.00    -0.270 OA
ATOM      4  H   UNL     1       8.960  -1.374  -1.774  0.00  0.00    +0.150 HD
ENDROOT
BRANCH   2   5
ATOM      5  C   UNL     1       7.621   1.623  -2.520  0.00  0.00    +0.039 A 
ATOM      6  C   UNL     1       7.118   1.617  -3.821  0.00  0.00    +0.015 A 
ATOM      7  C   UNL     1       6.834   2.815  -4.489  0.00  0.00    +0.029 A 
ATOM      8  C   UNL     1       7.052   4.019  -3.800  0.00  0.00    +0.069 A 
ATOM      9  C   UNL     1       7.488   4.029  -2.481  0.00  0.00    +0.090 A 
ATOM     10  C   UNL     1       7.779   2.827  -1.823  0.00  0.00    +0.043 A 
ATOM     11  N   UNL     1       7.548   5.299  -1.995  0.00  0.00    -0.227 NA
ATOM     12  C   UNL     1       7.205   6.103  -2.989  0.00  0.00    +0.145 A 
ATOM     13  N   UNL     1       6.917   5.363  -4.131  0.00  0.00    -0.320 N 
BRANCH  13  14
ATOM     14  C   UNL     1       6.404   5.864  -5.403  0.00  0.00    +0.089 C 
ATOM     15  C   UNL     1       7.201   5.417  -6.639  0.00  0.00    +0.025 C 
ATOM     16  C   UNL     1       6.640   6.041  -7.916  0.00  0.00    +0.002 C 
ATOM     17  C   UNL     1       5.155   5.733  -8.080  0.00  0.00    +0.000 C 
ATOM     18  C   UNL     1       4.350   6.171  -6.859  0.00  0.00    +0.002 C 
ATOM     19  C   UNL     1       4.902   5.568  -5.568  0.00  0.00    +0.025 C 
ENDBRANCH  13  14
BRANCH  12  20
ATOM     20  C   UNL     1       7.127   7.576  -2.722  0.00  0.00    +0.055 A 
ATOM     21  C   UNL     1       7.229   8.147  -1.420  0.00  0.00    +0.052 A 
ATOM     22  C   UNL     1       7.094   9.505  -1.573  0.00  0.00    +0.195 A 
ATOM     23  O   UNL     1       6.922   9.816  -2.881  0.00  0.00    -0.470 OA
ATOM     24  C   UNL     1       6.985   8.644  -3.577  0.00  0.00    +0.206 A 
ENDBRANCH  12  20
ENDBRANCH   2   5
BRANCH   1  25
ATOM     25  CA  UNL     1       9.501  -0.604  -3.643  0.00  0.00    +0.123 C 
BRANCH  25  26
ATOM     26  C   UNL     1      10.125  -2.026  -3.863  0.00  0.00    +0.062 C 
ATOM     27  O   UNL     1      10.179  -2.439  -5.056  0.00  0.00    -0.548 OA
ATOM     28  OXT UNL     1      10.436  -2.632  -2.790  0.00  0.00    -0.548 OA
ENDBRANCH  25  26
BRANCH  25  29
ATOM     29  C   UNL     1      10.665   0.405  -3.674  0.00  0.00    +0.065 C 
BRANCH  29  36
ATOM     30  C   UNL     1      10.774   4.985  -4.990  0.00  0.00    +0.034 A 
ATOM     31  C   UNL     1      10.980   5.114  -6.361  0.00  0.00    +0.025 A 
ATOM     32  C   UNL     1      11.094   3.994  -7.193  0.00  0.00    +0.028 A 
ATOM     33  C   UNL     1      11.015   2.729  -6.605  0.00  0.00    +0.047 A 
ATOM     34  N   UNL     1      11.104   1.485  -7.177  0.00  0.00    -0.360 N 
ATOM     35  C   UNL     1      11.006   0.518  -6.220  0.00  0.00    +0.087 A 
ATOM     36  C   UNL     1      10.816   1.125  -4.992  0.00  0.00    -0.020 A 
ATOM     37  C   UNL     1      10.831   2.543  -5.235  0.00  0.00    +0.005 A 
ATOM     38  C   UNL     1      10.714   3.696  -4.424  0.00  0.00    +0.033 A 
ATOM     39  H   UNL     1      11.238   1.312  -8.162  0.00  0.00    +0.165 HD
BRANCH  30  42
ATOM     40  C   UNL     1      10.561   7.435  -4.345  0.00  0.00    +0.264 C 
ATOM     41  O   UNL     1      10.637   8.223  -3.394  0.00  0.00    -0.269 OA
ATOM     42  N   UNL     1      10.660   6.073  -4.106  0.00  0.00    -0.281 N 
ATOM     43  H   UNL     1      10.627   5.867  -3.117  0.00  0.00    +0.155 HD
BRANCH  40  45
ATOM     44  O   UNL     1       9.074   8.083  -6.112  0.00  0.00    -0.541 OA
ATOM     45  C   UNL     1      10.285   8.105  -5.707  0.00  0.00    +0.128 C 
ATOM     46  O   UNL     1      11.291   8.575  -6.333  0.00  0.00    -0.541 OA
ENDBRANCH  40  45
ENDBRANCH  30  42
ENDBRANCH  29  36
ENDBRANCH  25  29
ENDBRANCH   1  25
TORSDOF 9
