
 OpenBabel09122221433D

 46 51  0  0  1  0  0  0  0  0999 V2000
   11.8420    2.5090    0.5340 N   0  0  0  0  0  0  0  0  0  0  0  0
   12.7880    3.4870    0.6150 C   0  0  0  0  0  0  0  0  0  0  0  0
   13.9830    3.2250    0.4800 O   0  0  0  0  0  0  0  0  0  0  0  0
   12.1900    1.5680    0.3520 H   0  0  0  0  0  0  0  0  0  0  0  0
   12.3900    4.8970    0.8140 C   0  0  0  0  0  0  0  0  0  0  0  0
   12.3440    5.4810    2.0800 C   0  0  0  0  0  3  0  0  0  0  0  0
   11.9600    6.8180    2.2430 C   0  0  0  0  0  3  0  0  0  0  0  0
   11.6420    7.5550    1.0910 C   0  0  0  0  0  0  0  0  0  0  0  0
   11.7510    6.9980   -0.1770 C   0  0  0  0  0  0  0  0  0  0  0  0
   12.1270    5.6580   -0.3310 C   0  0  0  0  0  3  0  0  0  0  0  0
   11.4740    7.9180   -1.1410 N   0  0  0  0  0  0  0  0  0  0  0  0
   11.1450    9.0370   -0.5150 C   0  0  0  0  0  0  0  0  0  0  0  0
   11.2060    8.8560    0.8620 N   0  0  0  0  0  0  0  0  0  0  0  0
   11.0190    9.8690    1.8970 C   0  0  0  0  0  3  0  0  0  0  0  0
   11.8130   11.1670    1.6780 C   0  0  0  0  0  2  0  0  0  0  0  0
   11.6140   12.1410    2.8380 C   0  0  0  0  0  2  0  0  0  0  0  0
   10.1350   12.4360    3.0700 C   0  0  0  0  0  2  0  0  0  0  0  0
    9.3330   11.1560    3.2890 C   0  0  0  0  0  2  0  0  0  0  0  0
    9.5270   10.1610    2.1450 C   0  0  0  0  0  2  0  0  0  0  0  0
   10.8410   10.2530   -1.3380 C   0  0  0  0  0  0  0  0  0  0  0  0
    9.5550   10.8660   -1.3940 C   0  0  0  0  0  3  0  0  0  0  0  0
    9.6620   11.9300   -2.2560 C   0  0  0  0  0  3  0  0  0  0  0  0
   10.9270   12.0230   -2.7320 O   0  0  0  0  0  0  0  0  0  0  0  0
   11.6480   11.0280   -2.1390 C   0  0  0  0  0  3  0  0  0  0  0  0
   10.3520    2.5410    0.5860 C   0  0  2  0  0  3  0  0  0  0  0  0
    9.8400    1.9130    1.9290 C   0  0  0  0  0  0  0  0  0  0  0  0
    8.8400    1.1450    1.8470 O   0  0  0  0  0  0  0  0  0  0  0  0
   10.4550    2.3200    2.9640 O   0  0  0  0  0  1  0  0  0  0  0  0
    9.7150    1.7290   -0.5590 C   0  0  0  0  0  2  0  0  0  0  0  0
   10.2800   -2.9510    0.1460 C   0  0  0  0  0  0  0  0  0  0  0  0
   11.2560   -3.4770   -0.6960 C   0  0  0  0  0  3  0  0  0  0  0  0
   11.9680   -2.6660   -1.5870 C   0  0  0  0  0  3  0  0  0  0  0  0
   11.6600   -1.3040   -1.6250 C   0  0  0  0  0  0  0  0  0  0  0  0
   12.1880   -0.3020   -2.3990 N   0  0  0  0  0  0  0  0  0  0  0  0
   11.5640    0.8810   -2.1320 C   0  0  0  0  0  3  0  0  0  0  0  0
   10.6240    0.6720   -1.1380 C   0  0  0  0  0  0  0  0  0  0  0  0
   10.6770   -0.7290   -0.8190 C   0  0  0  0  0  0  0  0  0  0  0  0
    9.9800   -1.5770    0.0740 C   0  0  0  0  0  3  0  0  0  0  0  0
   12.9230   -0.4270   -3.0800 H   0  0  0  0  0  0  0  0  0  0  0  0
    8.4160   -4.5250    0.8640 C   0  0  0  0  0  0  0  0  0  0  0  0
    7.8210   -4.9760    1.8510 O   0  0  0  0  0  0  0  0  0  0  0  0
    9.5280   -3.7190    1.0540 N   0  0  0  0  0  0  0  0  0  0  0  0
    9.8270   -3.7210    2.0200 H   0  0  0  0  0  0  0  0  0  0  0  0
    6.7200   -5.5870   -0.4590 O   0  0  0  0  0  1  0  0  0  0  0  0
    7.8550   -5.0010   -0.4920 C   0  0  0  0  0  0  0  0  0  0  0  0
    8.5900   -4.8170   -1.5170 O   0  0  0  0  0  0  0  0  0  0  0  0
  1 25  1  0  0  0  0
  1  2  1  0  0  0  0
  2  5  1  0  0  0  0
  3  2  2  0  0  0  0
  4  1  1  0  0  0  0
  5  6  1  0  0  0  0
  6  7  2  0  0  0  0
  8  7  1  0  0  0  0
  9  8  2  0  0  0  0
 10  9  1  0  0  0  0
 10  5  2  0  0  0  0
 11 12  2  0  0  0  0
 11  9  1  0  0  0  0
 12 13  1  0  0  0  0
 13  8  1  0  0  0  0
 13 14  1  0  0  0  0
 14 19  1  0  0  0  0
 15 14  1  0  0  0  0
 15 16  1  0  0  0  0
 16 17  1  0  0  0  0
 17 18  1  0  0  0  0
 19 18  1  0  0  0  0
 20 12  1  0  0  0  0
 21 20  1  0  0  0  0
 22 21  2  0  0  0  0
 23 22  1  0  0  0  0
 23 24  1  0  0  0  0
 24 20  2  0  0  0  0
 25 29  1  6  0  0  0
 25 26  1  0  0  0  0
 26 28  1  0  0  0  0
 27 26  2  0  0  0  0
 30 42  1  0  0  0  0
 31 30  2  0  0  0  0
 32 31  1  0  0  0  0
 33 32  2  0  0  0  0
 33 37  1  0  0  0  0
 34 35  1  0  0  0  0
 34 33  1  0  0  0  0
 35 36  2  0  0  0  0
 36 37  1  0  0  0  0
 36 29  1  0  0  0  0
 37 38  2  0  0  0  0
 38 30  1  0  0  0  0
 39 34  1  0  0  0  0
 40 42  1  0  0  0  0
 40 41  2  0  0  0  0
 42 43  1  0  0  0  0
 45 44  1  0  0  0  0
 45 40  1  0  0  0  0
 46 45  2  0  0  0  0
M  END
>  <minimizedAffinity>
-8.16796112

$$$$

 OpenBabel09122221433D

 46 51  0  0  1  0  0  0  0  0999 V2000
   10.4770    6.3310    1.4570 N   0  0  0  0  0  0  0  0  0  0  0  0
   10.5450    5.2060    2.2230 C   0  0  0  0  0  0  0  0  0  0  0  0
   10.6170    5.2770    3.4490 O   0  0  0  0  0  0  0  0  0  0  0  0
   10.4830    7.2150    1.9650 H   0  0  0  0  0  0  0  0  0  0  0  0
   10.4800    3.8690    1.5940 C   0  0  0  0  0  0  0  0  0  0  0  0
   11.0710    3.6030    0.3580 C   0  0  0  0  0  3  0  0  0  0  0  0
   10.9920    2.3290   -0.2190 C   0  0  0  0  0  3  0  0  0  0  0  0
   10.3170    1.3260    0.4950 C   0  0  0  0  0  0  0  0  0  0  0  0
    9.7860    1.5670    1.7550 C   0  0  0  0  0  0  0  0  0  0  0  0
    9.8610    2.8460    2.3220 C   0  0  0  0  0  3  0  0  0  0  0  0
    9.2560    0.4320    2.2880 N   0  0  0  0  0  0  0  0  0  0  0  0
    9.3950   -0.5170    1.3760 C   0  0  0  0  0  0  0  0  0  0  0  0
   10.0190   -0.0090    0.2420 N   0  0  0  0  0  0  0  0  0  0  0  0
   10.4450   -0.7520   -0.9410 C   0  0  0  0  0  3  0  0  0  0  0  0
   10.7400    0.1160   -2.1740 C   0  0  0  0  0  2  0  0  0  0  0  0
   11.1100   -0.7440   -3.3820 C   0  0  0  0  0  2  0  0  0  0  0  0
   12.2820   -1.6690   -3.0680 C   0  0  0  0  0  2  0  0  0  0  0  0
   12.0030   -2.5380   -1.8440 C   0  0  0  0  0  2  0  0  0  0  0  0
   11.6190   -1.6980   -0.6270 C   0  0  0  0  0  2  0  0  0  0  0  0
    8.9450   -1.9060    1.7160 C   0  0  0  0  0  0  0  0  0  0  0  0
    9.0330   -3.0060    0.8140 C   0  0  0  0  0  3  0  0  0  0  0  0
    8.5130   -4.0950    1.4680 C   0  0  0  0  0  3  0  0  0  0  0  0
    8.1130   -3.7490    2.7160 O   0  0  0  0  0  0  0  0  0  0  0  0
    8.4170   -2.4280    2.8750 C   0  0  0  0  0  3  0  0  0  0  0  0
   10.3160    6.5440   -0.0110 C   0  0  2  0  0  3  0  0  0  0  0  0
   11.6270    7.1520   -0.6190 C   0  0  0  0  0  0  0  0  0  0  0  0
   12.6930    6.9600    0.0320 O   0  0  0  0  0  1  0  0  0  0  0  0
   11.4440    7.8400   -1.6720 O   0  0  0  0  0  0  0  0  0  0  0  0
    9.1750    7.5290   -0.3310 C   0  0  0  0  0  2  0  0  0  0  0  0
    9.9080   12.2160   -0.7930 C   0  0  0  0  0  0  0  0  0  0  0  0
    9.6650   12.8880    0.4020 C   0  0  0  0  0  3  0  0  0  0  0  0
    9.2910   12.2030    1.5640 C   0  0  0  0  0  3  0  0  0  0  0  0
    9.1470   10.8150    1.4900 C   0  0  0  0  0  0  0  0  0  0  0  0
    8.7860    9.9140    2.4600 N   0  0  0  0  0  0  0  0  0  0  0  0
    8.7380    8.6540    1.9390 C   0  0  0  0  0  3  0  0  0  0  0  0
    9.1050    8.7090    0.6070 C   0  0  0  0  0  0  0  0  0  0  0  0
    9.3580   10.0950    0.3140 C   0  0  0  0  0  0  0  0  0  0  0  0
    9.7400   10.8180   -0.8400 C   0  0  0  0  0  3  0  0  0  0  0  0
    8.5720   10.1520    3.4170 H   0  0  0  0  0  0  0  0  0  0  0  0
    9.6950   12.8370   -3.2490 C   0  0  0  0  0  0  0  0  0  0  0  0
   10.2980   13.3480   -4.2010 O   0  0  0  0  0  0  0  0  0  0  0  0
   10.2780   12.8520   -1.9910 N   0  0  0  0  0  0  0  0  0  0  0  0
   11.0980   13.4430   -1.9700 H   0  0  0  0  0  0  0  0  0  0  0  0
    7.4080   12.3900   -2.6820 O   0  0  0  0  0  1  0  0  0  0  0  0
    8.2930   12.2980   -3.5980 C   0  0  0  0  0  0  0  0  0  0  0  0
    8.1510   11.7610   -4.7460 O   0  0  0  0  0  0  0  0  0  0  0  0
  1  4  1  0  0  0  0
  1  2  1  0  0  0  0
  2  3  2  0  0  0  0
  5  2  1  0  0  0  0
  5 10  1  0  0  0  0
  6  5  2  0  0  0  0
  7  6  1  0  0  0  0
  7  8  2  0  0  0  0
  8  9  1  0  0  0  0
  9 11  1  0  0  0  0
  9 10  2  0  0  0  0
 12 20  1  0  0  0  0
 12 11  2  0  0  0  0
 13  8  1  0  0  0  0
 13 12  1  0  0  0  0
 14 19  1  0  0  0  0
 14 13  1  0  0  0  0
 15 14  1  0  0  0  0
 16 17  1  0  0  0  0
 16 15  1  0  0  0  0
 17 18  1  0  0  0  0
 18 19  1  0  0  0  0
 20 24  2  0  0  0  0
 21 22  2  0  0  0  0
 21 20  1  0  0  0  0
 22 23  1  0  0  0  0
 23 24  1  0  0  0  0
 25 29  1  1  0  0  0
 25  1  1  0  0  0  0
 26 25  1  0  0  0  0
 26 27  1  0  0  0  0
 28 26  2  0  0  0  0
 29 36  1  0  0  0  0
 30 31  1  0  0  0  0
 31 32  2  0  0  0  0
 33 32  1  0  0  0  0
 33 34  1  0  0  0  0
 34 39  1  0  0  0  0
 35 34  1  0  0  0  0
 36 35  2  0  0  0  0
 37 36  1  0  0  0  0
 37 33  2  0  0  0  0
 38 30  2  0  0  0  0
 38 37  1  0  0  0  0
 40 42  1  0  0  0  0
 41 40  2  0  0  0  0
 42 43  1  0  0  0  0
 42 30  1  0  0  0  0
 45 40  1  0  0  0  0
 45 44  1  0  0  0  0
 46 45  2  0  0  0  0
M  END
>  <minimizedAffinity>
-7.84578371

$$$$

 OpenBabel09122221433D

 46 51  0  0  1  0  0  0  0  0999 V2000
   10.4370    4.0480    0.0180 N   0  0  0  0  0  0  0  0  0  0  0  0
    9.3350    4.8350   -0.1370 C   0  0  0  0  0  0  0  0  0  0  0  0
    8.2200    4.3400   -0.3030 O   0  0  0  0  0  0  0  0  0  0  0  0
   10.2720    3.0430   -0.0070 H   0  0  0  0  0  0  0  0  0  0  0  0
    9.4510    6.3070   -0.0550 C   0  0  0  0  0  0  0  0  0  0  0  0
    9.6010    6.9700    1.1630 C   0  0  0  0  0  3  0  0  0  0  0  0
    9.7050    8.3660    1.2150 C   0  0  0  0  0  3  0  0  0  0  0  0
    9.6740    9.0730    0.0020 C   0  0  0  0  0  0  0  0  0  0  0  0
    9.5930    8.4130   -1.2170 C   0  0  0  0  0  0  0  0  0  0  0  0
    9.4790    7.0170   -1.2610 C   0  0  0  0  0  3  0  0  0  0  0  0
    9.6620    9.2920   -2.2550 N   0  0  0  0  0  0  0  0  0  0  0  0
    9.7380   10.5020   -1.7230 C   0  0  0  0  0  0  0  0  0  0  0  0
    9.7210   10.4210   -0.3350 N   0  0  0  0  0  0  0  0  0  0  0  0
    9.8890   11.5160    0.6160 C   0  0  0  0  0  3  0  0  0  0  0  0
    8.8510   11.5490    1.7500 C   0  0  0  0  0  2  0  0  0  0  0  0
    9.0570   12.7620    2.6550 C   0  0  0  0  0  2  0  0  0  0  0  0
   10.4770   12.8070    3.2110 C   0  0  0  0  0  2  0  0  0  0  0  0
   11.5200   12.7740    2.0960 C   0  0  0  0  0  2  0  0  0  0  0  0
   11.3240   11.5740    1.1700 C   0  0  0  0  0  2  0  0  0  0  0  0
    9.8840   11.6770   -2.6420 C   0  0  0  0  0  0  0  0  0  0  0  0
   11.0470   12.5010   -2.6880 C   0  0  0  0  0  3  0  0  0  0  0  0
   10.8040   13.4740   -3.6260 C   0  0  0  0  0  3  0  0  0  0  0  0
    9.5740   13.3070   -4.1690 O   0  0  0  0  0  0  0  0  0  0  0  0
    9.0380   12.1900   -3.5970 C   0  0  0  0  0  3  0  0  0  0  0  0
   11.8680    4.3610    0.2980 C   0  0  2  0  0  3  0  0  0  0  0  0
   12.7770    3.1430   -0.0890 C   0  0  0  0  0  0  0  0  0  0  0  0
   13.8800    3.0470    0.5210 O   0  0  0  0  0  1  0  0  0  0  0  0
   12.3220    2.4320   -1.0390 O   0  0  0  0  0  0  0  0  0  0  0  0
   12.1160    4.6470    1.7920 C   0  0  0  0  0  2  0  0  0  0  0  0
   13.2490    8.4600   -0.8350 C   0  0  0  0  0  0  0  0  0  0  0  0
   13.9480    9.4030   -0.0850 C   0  0  0  0  0  3  0  0  0  0  0  0
   14.2740    9.1750    1.2570 C   0  0  0  0  0  3  0  0  0  0  0  0
   13.8600    7.9740    1.8390 C   0  0  0  0  0  0  0  0  0  0  0  0
   14.0340    7.5090    3.1180 N   0  0  0  0  0  0  0  0  0  0  0  0
   13.4340    6.2930    3.2630 C   0  0  0  0  0  3  0  0  0  0  0  0
   12.8760    5.9240    2.0520 C   0  0  0  0  0  0  0  0  0  0  0  0
   13.1400    7.0050    1.1400 C   0  0  0  0  0  0  0  0  0  0  0  0
   12.8320    7.2640   -0.2160 C   0  0  0  0  0  3  0  0  0  0  0  0
   14.5230    8.0030    3.8490 H   0  0  0  0  0  0  0  0  0  0  0  0
   13.3520    8.0280   -3.3380 C   0  0  0  0  0  0  0  0  0  0  0  0
   12.9970    8.4690   -4.4380 O   0  0  0  0  0  0  0  0  0  0  0  0
   12.8880    8.6370   -2.1820 N   0  0  0  0  0  0  0  0  0  0  0  0
   12.1570    9.3060   -2.3830 H   0  0  0  0  0  0  0  0  0  0  0  0
   13.7850    5.7980   -4.1080 O   0  0  0  0  0  0  0  0  0  0  0  0
   14.2400    6.7690   -3.4130 C   0  0  0  0  0  0  0  0  0  0  0  0
   15.3200    6.7840   -2.7370 O   0  0  0  0  0  1  0  0  0  0  0  0
  1 25  1  0  0  0  0
  2  5  1  0  0  0  0
  2  1  1  0  0  0  0
  3  2  2  0  0  0  0
  4  1  1  0  0  0  0
  5  6  1  0  0  0  0
  6  7  2  0  0  0  0
  8  7  1  0  0  0  0
  9  8  2  0  0  0  0
 10  9  1  0  0  0  0
 10  5  2  0  0  0  0
 11 12  2  0  0  0  0
 11  9  1  0  0  0  0
 12 13  1  0  0  0  0
 13  8  1  0  0  0  0
 13 14  1  0  0  0  0
 14 19  1  0  0  0  0
 14 15  1  0  0  0  0
 15 16  1  0  0  0  0
 16 17  1  0  0  0  0
 18 17  1  0  0  0  0
 19 18  1  0  0  0  0
 20 12  1  0  0  0  0
 21 20  1  0  0  0  0
 22 21  2  0  0  0  0
 23 22  1  0  0  0  0
 23 24  1  0  0  0  0
 24 20  2  0  0  0  0
 25 29  1  1  0  0  0
 26 25  1  0  0  0  0
 26 27  1  0  0  0  0
 28 26  2  0  0  0  0
 29 36  1  0  0  0  0
 30 38  2  0  0  0  0
 30 31  1  0  0  0  0
 31 32  2  0  0  0  0
 32 33  1  0  0  0  0
 33 34  1  0  0  0  0
 34 35  1  0  0  0  0
 34 39  1  0  0  0  0
 36 35  2  0  0  0  0
 37 33  2  0  0  0  0
 37 36  1  0  0  0  0
 38 37  1  0  0  0  0
 40 42  1  0  0  0  0
 41 40  2  0  0  0  0
 42 30  1  0  0  0  0
 43 42  1  0  0  0  0
 44 45  2  0  0  0  0
 45 40  1  0  0  0  0
 45 46  1  0  0  0  0
M  END
>  <minimizedAffinity>
-7.7464509

$$$$

 OpenBabel09122221433D

 46 51  0  0  1  0  0  0  0  0999 V2000
   13.9930    9.5600   -6.6490 N   0  0  0  0  0  0  0  0  0  0  0  0
   13.7930    8.2980   -6.1740 C   0  0  0  0  0  0  0  0  0  0  0  0
   13.9620    7.3150   -6.8950 O   0  0  0  0  0  0  0  0  0  0  0  0
   14.2910    9.6260   -7.6210 H   0  0  0  0  0  0  0  0  0  0  0  0
   13.4200    8.0830   -4.7590 C   0  0  0  0  0  0  0  0  0  0  0  0
   14.1630    7.2590   -3.9150 C   0  0  0  0  0  3  0  0  0  0  0  0
   13.7860    7.0680   -2.5800 C   0  0  0  0  0  3  0  0  0  0  0  0
   12.6510    7.7500   -2.1140 C   0  0  0  0  0  0  0  0  0  0  0  0
   11.9470    8.6250   -2.9310 C   0  0  0  0  0  0  0  0  0  0  0  0
   12.3240    8.8030   -4.2680 C   0  0  0  0  0  3  0  0  0  0  0  0
   10.9390    9.2320   -2.2450 N   0  0  0  0  0  0  0  0  0  0  0  0
   10.9560    8.7280   -1.0210 C   0  0  0  0  0  0  0  0  0  0  0  0
   11.9750    7.7900   -0.8990 N   0  0  0  0  0  0  0  0  0  0  0  0
   12.3890    7.0870    0.3120 C   0  0  0  0  0  3  0  0  0  0  0  0
   12.8490    8.0000    1.4600 C   0  0  0  0  0  2  0  0  0  0  0  0
   13.3290    7.1840    2.6590 C   0  0  0  0  0  2  0  0  0  0  0  0
   12.2580    6.2060    3.1320 C   0  0  0  0  0  2  0  0  0  0  0  0
   11.7910    5.2920    2.0010 C   0  0  0  0  0  2  0  0  0  0  0  0
   11.3170    6.0880    0.7860 C   0  0  0  0  0  2  0  0  0  0  0  0
    9.9790    9.2610   -0.0160 C   0  0  0  0  0  0  0  0  0  0  0  0
   10.2070   10.4370    0.7560 C   0  0  0  0  0  3  0  0  0  0  0  0
    9.1110   10.5940    1.5690 C   0  0  0  0  0  3  0  0  0  0  0  0
    8.2160    9.6000    1.3480 O   0  0  0  0  0  0  0  0  0  0  0  0
    8.7310    8.8180    0.3550 C   0  0  0  0  0  3  0  0  0  0  0  0
   13.9350   10.9020   -6.0020 C   0  0  2  0  0  3  0  0  0  0  0  0
   14.0500   12.0340   -7.0820 C   0  0  0  0  0  0  0  0  0  0  0  0
   14.8790   11.8390   -8.0160 O   0  0  0  0  0  0  0  0  0  0  0  0
   13.3390   13.0590   -6.8420 O   0  0  0  0  0  1  0  0  0  0  0  0
   15.0920   11.1150   -5.0070 C   0  0  0  0  0  2  0  0  0  0  0  0
   11.2940   13.1280   -2.9470 C   0  0  0  0  0  0  0  0  0  0  0  0
   11.3450   13.0090   -1.5610 C   0  0  0  0  0  3  0  0  0  0  0  0
   12.4270   12.3950   -0.9190 C   0  0  0  0  0  3  0  0  0  0  0  0
   13.4560   11.8820   -1.7130 C   0  0  0  0  0  0  0  0  0  0  0  0
   14.6090   11.2320   -1.3480 N   0  0  0  0  0  0  0  0  0  0  0  0
   15.3170   10.8720   -2.4570 C   0  0  0  0  0  3  0  0  0  0  0  0
   14.6430   11.3160   -3.5800 C   0  0  0  0  0  0  0  0  0  0  0  0
   13.4450   11.9550   -3.1050 C   0  0  0  0  0  0  0  0  0  0  0  0
   12.3390   12.5870   -3.7220 C   0  0  0  0  0  3  0  0  0  0  0  0
   14.8840   11.0370   -0.3970 H   0  0  0  0  0  0  0  0  0  0  0  0
    8.9930   13.2290   -4.0250 C   0  0  0  0  0  0  0  0  0  0  0  0
    8.2790   13.8950   -4.7840 O   0  0  0  0  0  0  0  0  0  0  0  0
   10.2300   13.7270   -3.6460 N   0  0  0  0  0  0  0  0  0  0  0  0
   10.3420   14.6920   -3.9260 H   0  0  0  0  0  0  0  0  0  0  0  0
    8.1050   11.0370   -4.4250 O   0  0  0  0  0  0  0  0  0  0  0  0
    8.3480   11.9170   -3.5320 C   0  0  0  0  0  0  0  0  0  0  0  0
    8.0660   11.8430   -2.2910 O   0  0  0  0  0  1  0  0  0  0  0  0
  1  2  1  0  0  0  0
  1 25  1  0  0  0  0
  2  5  1  0  0  0  0
  3  2  2  0  0  0  0
  4  1  1  0  0  0  0
  5 10  2  0  0  0  0
  5  6  1  0  0  0  0
  6  7  2  0  0  0  0
  7  8  1  0  0  0  0
  8 13  1  0  0  0  0
  9 11  1  0  0  0  0
  9  8  2  0  0  0  0
 10  9  1  0  0  0  0
 11 12  2  0  0  0  0
 12 13  1  0  0  0  0
 12 20  1  0  0  0  0
 13 14  1  0  0  0  0
 14 19  1  0  0  0  0
 14 15  1  0  0  0  0
 15 16  1  0  0  0  0
 16 17  1  0  0  0  0
 18 17  1  0  0  0  0
 19 18  1  0  0  0  0
 20 24  2  0  0  0  0
 20 21  1  0  0  0  0
 21 22  2  0  0  0  0
 23 22  1  0  0  0  0
 24 23  1  0  0  0  0
 25 29  1  1  0  0  0
 26 28  1  0  0  0  0
 26 25  1  0  0  0  0
 27 26  2  0  0  0  0
 29 36  1  0  0  0  0
 30 31  1  0  0  0  0
 31 32  2  0  0  0  0
 33 34  1  0  0  0  0
 33 32  1  0  0  0  0
 34 39  1  0  0  0  0
 35 34  1  0  0  0  0
 36 37  1  0  0  0  0
 36 35  2  0  0  0  0
 37 33  2  0  0  0  0
 38 37  1  0  0  0  0
 38 30  2  0  0  0  0
 40 42  1  0  0  0  0
 40 45  1  0  0  0  0
 41 40  2  0  0  0  0
 42 30  1  0  0  0  0
 43 42  1  0  0  0  0
 44 45  2  0  0  0  0
 45 46  1  0  0  0  0
M  END
>  <minimizedAffinity>
-7.63012457

$$$$

 OpenBabel09122221433D

 46 51  0  0  1  0  0  0  0  0999 V2000
   10.8130    5.2000    0.9970 N   0  0  0  0  0  0  0  0  0  0  0  0
    9.9400    4.4680    0.2480 C   0  0  0  0  0  0  0  0  0  0  0  0
    8.9360    4.9850   -0.2420 O   0  0  0  0  0  0  0  0  0  0  0  0
   10.5810    6.1850    1.1120 H   0  0  0  0  0  0  0  0  0  0  0  0
   10.2120    3.0420   -0.0360 C   0  0  0  0  0  0  0  0  0  0  0  0
   11.2530    2.6400   -0.8720 C   0  0  0  0  0  3  0  0  0  0  0  0
   11.4890    1.2840   -1.1290 C   0  0  0  0  0  3  0  0  0  0  0  0
   10.6560    0.3420   -0.5010 C   0  0  0  0  0  0  0  0  0  0  0  0
    9.6610    0.7340    0.3860 C   0  0  0  0  0  0  0  0  0  0  0  0
    9.4260    2.0930    0.6300 C   0  0  0  0  0  3  0  0  0  0  0  0
    9.0400   -0.3470    0.9330 N   0  0  0  0  0  0  0  0  0  0  0  0
    9.5850   -1.4190    0.3800 C   0  0  0  0  0  0  0  0  0  0  0  0
   10.5670   -1.0450   -0.5320 N   0  0  0  0  0  0  0  0  0  0  0  0
   11.4680   -1.9250   -1.2710 C   0  0  0  0  0  3  0  0  0  0  0  0
   12.2870   -1.2310   -2.3710 C   0  0  0  0  0  2  0  0  0  0  0  0
   13.1470   -2.2330   -3.1380 C   0  0  0  0  0  2  0  0  0  0  0  0
   14.0510   -3.0250   -2.1980 C   0  0  0  0  0  2  0  0  0  0  0  0
   13.2520   -3.7200   -1.1000 C   0  0  0  0  0  2  0  0  0  0  0  0
   12.3740   -2.7370   -0.3270 C   0  0  0  0  0  2  0  0  0  0  0  0
    9.1300   -2.7700    0.8410 C   0  0  0  0  0  0  0  0  0  0  0  0
    8.9160   -3.8720   -0.0380 C   0  0  0  0  0  3  0  0  0  0  0  0
    8.4900   -4.9200    0.7400 C   0  0  0  0  0  3  0  0  0  0  0  0
    8.4320   -4.5470    2.0420 O   0  0  0  0  0  0  0  0  0  0  0  0
    8.8620   -3.2530    2.1010 C   0  0  0  0  0  3  0  0  0  0  0  0
   12.1160    4.8640    1.6410 C   0  0  2  0  0  3  0  0  0  0  0  0
   11.8860    3.9310    2.8800 C   0  0  0  0  0  0  0  0  0  0  0  0
   12.7860    3.0750    3.1150 O   0  0  0  0  0  0  0  0  0  0  0  0
   10.7690    4.1010    3.4620 O   0  0  0  0  0  1  0  0  0  0  0  0
   12.8470    6.1190    2.1550 C   0  0  0  0  0  2  0  0  0  0  0  0
   11.4370    9.6380   -0.7340 C   0  0  0  0  0  0  0  0  0  0  0  0
   10.5550   10.5020   -0.0890 C   0  0  0  0  0  3  0  0  0  0  0  0
   10.2020   10.3190    1.2530 C   0  0  0  0  0  3  0  0  0  0  0  0
   10.7460    9.2260    1.9320 C   0  0  0  0  0  0  0  0  0  0  0  0
   10.5620    8.8130    3.2270 N   0  0  0  0  0  0  0  0  0  0  0  0
   11.2640    7.6680    3.4620 C   0  0  0  0  0  3  0  0  0  0  0  0
   11.9540    7.3260    2.3130 C   0  0  0  0  0  0  0  0  0  0  0  0
   11.6160    8.3180    1.3280 C   0  0  0  0  0  0  0  0  0  0  0  0
   11.9570    8.5360   -0.0280 C   0  0  0  0  0  3  0  0  0  0  0  0
    9.9790    9.2830    3.9040 H   0  0  0  0  0  0  0  0  0  0  0  0
   11.1440    9.4720   -3.2540 C   0  0  0  0  0  0  0  0  0  0  0  0
   11.7520    9.5170   -4.3310 O   0  0  0  0  0  0  0  0  0  0  0  0
   11.8210    9.7680   -2.0810 N   0  0  0  0  0  0  0  0  0  0  0  0
   12.7360   10.1540   -2.2690 H   0  0  0  0  0  0  0  0  0  0  0  0
    8.9290   10.0100   -4.0010 O   0  0  0  0  0  0  0  0  0  0  0  0
    9.6410    9.1480   -3.3850 C   0  0  0  0  0  0  0  0  0  0  0  0
    9.2310    8.0790   -2.8250 O   0  0  0  0  0  1  0  0  0  0  0  0
  1  4  1  0  0  0  0
  1 25  1  0  0  0  0
  2  1  1  0  0  0  0
  3  2  2  0  0  0  0
  5  2  1  0  0  0  0
  5 10  1  0  0  0  0
  6  5  2  0  0  0  0
  7  6  1  0  0  0  0
  7  8  2  0  0  0  0
  8  9  1  0  0  0  0
  9 10  2  0  0  0  0
  9 11  1  0  0  0  0
 12 20  1  0  0  0  0
 12 11  2  0  0  0  0
 13  8  1  0  0  0  0
 13 12  1  0  0  0  0
 14 13  1  0  0  0  0
 14 19  1  0  0  0  0
 15 14  1  0  0  0  0
 16 15  1  0  0  0  0
 16 17  1  0  0  0  0
 17 18  1  0  0  0  0
 18 19  1  0  0  0  0
 20 24  2  0  0  0  0
 21 22  2  0  0  0  0
 21 20  1  0  0  0  0
 22 23  1  0  0  0  0
 23 24  1  0  0  0  0
 25 29  1  1  0  0  0
 25 26  1  0  0  0  0
 26 27  2  0  0  0  0
 26 28  1  0  0  0  0
 29 36  1  0  0  0  0
 30 31  2  0  0  0  0
 30 38  1  0  0  0  0
 31 32  1  0  0  0  0
 32 33  2  0  0  0  0
 33 34  1  0  0  0  0
 34 35  1  0  0  0  0
 34 39  1  0  0  0  0
 36 35  2  0  0  0  0
 37 33  1  0  0  0  0
 37 36  1  0  0  0  0
 38 37  2  0  0  0  0
 40 42  1  0  0  0  0
 41 40  2  0  0  0  0
 42 30  1  0  0  0  0
 43 42  1  0  0  0  0
 44 45  2  0  0  0  0
 45 40  1  0  0  0  0
 45 46  1  0  0  0  0
M  END
>  <minimizedAffinity>
-7.56561327

$$$$

 OpenBabel09122221433D

 46 51  0  0  1  0  0  0  0  0999 V2000
   12.3540    5.4180    1.3720 N   0  0  0  0  0  0  0  0  0  0  0  0
   12.7540    6.7060    1.1730 C   0  0  0  0  0  0  0  0  0  0  0  0
   13.3210    7.3380    2.0640 O   0  0  0  0  0  0  0  0  0  0  0  0
   12.5600    5.0260    2.2890 H   0  0  0  0  0  0  0  0  0  0  0  0
   12.5610    7.3540   -0.1420 C   0  0  0  0  0  0  0  0  0  0  0  0
   13.6310    7.6430   -0.9880 C   0  0  0  0  0  3  0  0  0  0  0  0
   13.4230    8.2600   -2.2280 C   0  0  0  0  0  3  0  0  0  0  0  0
   12.1020    8.5590   -2.6000 C   0  0  0  0  0  0  0  0  0  0  0  0
   11.0270    8.2120   -1.7910 C   0  0  0  0  0  0  0  0  0  0  0  0
   11.2440    7.6030   -0.5480 C   0  0  0  0  0  3  0  0  0  0  0  0
    9.8440    8.5230   -2.3890 N   0  0  0  0  0  0  0  0  0  0  0  0
   10.1420    9.1040   -3.5400 C   0  0  0  0  0  0  0  0  0  0  0  0
   11.5210    9.1750   -3.7030 N   0  0  0  0  0  0  0  0  0  0  0  0
   12.2500    9.6480   -4.8770 C   0  0  0  0  0  3  0  0  0  0  0  0
   13.0270   10.9570   -4.6680 C   0  0  0  0  0  2  0  0  0  0  0  0
   13.7000   11.4150   -5.9610 C   0  0  0  0  0  2  0  0  0  0  0  0
   14.6030   10.3280   -6.5340 C   0  0  0  0  0  2  0  0  0  0  0  0
   13.8450    9.0200   -6.7470 C   0  0  0  0  0  2  0  0  0  0  0  0
   13.1530    8.5490   -5.4680 C   0  0  0  0  0  2  0  0  0  0  0  0
    9.0190    9.5060   -4.4480 C   0  0  0  0  0  0  0  0  0  0  0  0
    8.5910   10.8550   -4.6220 C   0  0  0  0  0  3  0  0  0  0  0  0
    7.5400   10.8250   -5.5050 C   0  0  0  0  0  3  0  0  0  0  0  0
    7.2910    9.5510   -5.8970 O   0  0  0  0  0  0  0  0  0  0  0  0
    8.2190    8.7610   -5.2830 C   0  0  0  0  0  3  0  0  0  0  0  0
   11.7230    4.4080    0.4730 C   0  0  2  0  0  3  0  0  0  0  0  0
   10.3530    3.9310    1.0680 C   0  0  0  0  0  0  0  0  0  0  0  0
    9.3640    3.9400    0.2820 O   0  0  0  0  0  0  0  0  0  0  0  0
   10.3880    3.6610    2.3100 O   0  0  0  0  0  1  0  0  0  0  0  0
   12.6010    3.1530    0.3080 C   0  0  0  0  0  2  0  0  0  0  0  0
   10.1660   -0.8740   -0.4530 C   0  0  0  0  0  0  0  0  0  0  0  0
   10.1240   -1.1930   -1.8080 C   0  0  0  0  0  3  0  0  0  0  0  0
   10.7700   -0.4030   -2.7660 C   0  0  0  0  0  3  0  0  0  0  0  0
   11.4500    0.7360   -2.3280 C   0  0  0  0  0  0  0  0  0  0  0  0
   12.1480    1.6750   -3.0450 N   0  0  0  0  0  0  0  0  0  0  0  0
   12.6260    2.6440   -2.2120 C   0  0  0  0  0  3  0  0  0  0  0  0
   12.2680    2.3310   -0.9140 C   0  0  0  0  0  0  0  0  0  0  0  0
   11.5060    1.1130   -0.9860 C   0  0  0  0  0  0  0  0  0  0  0  0
   10.8470    0.2900   -0.0430 C   0  0  0  0  0  3  0  0  0  0  0  0
   12.2760    1.6580   -4.0460 H   0  0  0  0  0  0  0  0  0  0  0  0
    9.2440   -2.9790    0.6350 C   0  0  0  0  0  0  0  0  0  0  0  0
    8.5230   -3.3890    1.5530 O   0  0  0  0  0  0  0  0  0  0  0  0
    9.5300   -1.6250    0.5520 N   0  0  0  0  0  0  0  0  0  0  0  0
    9.2250   -1.1300    1.3790 H   0  0  0  0  0  0  0  0  0  0  0  0
    8.9560   -4.6830   -1.0280 O   0  0  0  0  0  0  0  0  0  0  0  0
    9.8030   -4.0870   -0.2810 C   0  0  0  0  0  0  0  0  0  0  0  0
   11.0470   -4.3490   -0.1770 O   0  0  0  0  0  1  0  0  0  0  0  0
  1  4  1  0  0  0  0
  2  1  1  0  0  0  0
  2  3  2  0  0  0  0
  5  2  1  0  0  0  0
  6  5  2  0  0  0  0
  7  6  1  0  0  0  0
  8  7  2  0  0  0  0
  8  9  1  0  0  0  0
  9 10  2  0  0  0  0
 10  5  1  0  0  0  0
 11  9  1  0  0  0  0
 12 11  2  0  0  0  0
 13 12  1  0  0  0  0
 13  8  1  0  0  0  0
 14 15  1  0  0  0  0
 14 13  1  0  0  0  0
 16 15  1  0  0  0  0
 17 16  1  0  0  0  0
 18 17  1  0  0  0  0
 18 19  1  0  0  0  0
 19 14  1  0  0  0  0
 20 12  1  0  0  0  0
 21 20  1  0  0  0  0
 22 21  2  0  0  0  0
 23 22  1  0  0  0  0
 23 24  1  0  0  0  0
 24 20  2  0  0  0  0
 25 29  1  1  0  0  0
 25 26  1  0  0  0  0
 25  1  1  0  0  0  0
 26 28  1  0  0  0  0
 27 26  2  0  0  0  0
 30 38  1  0  0  0  0
 30 42  1  0  0  0  0
 31 30  2  0  0  0  0
 32 33  2  0  0  0  0
 32 31  1  0  0  0  0
 33 37  1  0  0  0  0
 34 33  1  0  0  0  0
 34 35  1  0  0  0  0
 35 36  2  0  0  0  0
 36 29  1  0  0  0  0
 37 36  1  0  0  0  0
 37 38  2  0  0  0  0
 39 34  1  0  0  0  0
 40 41  2  0  0  0  0
 42 40  1  0  0  0  0
 42 43  1  0  0  0  0
 44 45  2  0  0  0  0
 45 46  1  0  0  0  0
 45 40  1  0  0  0  0
M  END
>  <minimizedAffinity>
-7.39584827

$$$$

 OpenBabel09122221433D

 46 51  0  0  1  0  0  0  0  0999 V2000
   11.8180    2.8730    0.7020 N   0  0  0  0  0  0  0  0  0  0  0  0
   12.6680    3.8780    1.0570 C   0  0  0  0  0  0  0  0  0  0  0  0
   13.6770    3.6500    1.7240 O   0  0  0  0  0  0  0  0  0  0  0  0
   12.0790    1.9390    1.0170 H   0  0  0  0  0  0  0  0  0  0  0  0
   12.4200    5.2620    0.6000 C   0  0  0  0  0  0  0  0  0  0  0  0
   12.7100    5.6740   -0.7010 C   0  0  0  0  0  3  0  0  0  0  0  0
   12.4690    6.9930   -1.1090 C   0  0  0  0  0  3  0  0  0  0  0  0
   11.9080    7.8780   -0.1750 C   0  0  0  0  0  0  0  0  0  0  0  0
   11.5540    7.4550    1.1000 C   0  0  0  0  0  0  0  0  0  0  0  0
   11.8070    6.1380    1.5040 C   0  0  0  0  0  3  0  0  0  0  0  0
   10.9550    8.4570    1.8000 N   0  0  0  0  0  0  0  0  0  0  0  0
   10.9610    9.5240    1.0160 C   0  0  0  0  0  0  0  0  0  0  0  0
   11.5630    9.2250   -0.2020 N   0  0  0  0  0  0  0  0  0  0  0  0
   11.6740   10.0930   -1.3700 C   0  0  0  0  0  3  0  0  0  0  0  0
   10.3810   10.2390   -2.1890 C   0  0  0  0  0  2  0  0  0  0  0  0
   10.6030   11.1060   -3.4270 C   0  0  0  0  0  2  0  0  0  0  0  0
   11.1750   12.4710   -3.0570 C   0  0  0  0  0  2  0  0  0  0  0  0
   12.4600   12.3420   -2.2430 C   0  0  0  0  0  2  0  0  0  0  0  0
   12.2630   11.4680   -1.0040 C   0  0  0  0  0  2  0  0  0  0  0  0
   10.3050   10.7780    1.5110 C   0  0  0  0  0  0  0  0  0  0  0  0
   10.8810   11.6310    2.4970 C   0  0  0  0  0  3  0  0  0  0  0  0
    9.9890   12.6550    2.7010 C   0  0  0  0  0  3  0  0  0  0  0  0
    8.9040   12.5000    1.9050 O   0  0  0  0  0  0  0  0  0  0  0  0
    9.1210   11.3810    1.1550 C   0  0  0  0  0  3  0  0  0  0  0  0
   10.5880    2.8430   -0.1400 C   0  0  2  0  0  3  0  0  0  0  0  0
    9.5140    3.8330    0.4310 C   0  0  0  0  0  0  0  0  0  0  0  0
    9.0400    4.6790   -0.3790 O   0  0  0  0  0  0  0  0  0  0  0  0
    9.3020    3.7110    1.6780 O   0  0  0  0  0  1  0  0  0  0  0  0
    9.9400    1.4460   -0.1680 C   0  0  0  0  0  2  0  0  0  0  0  0
   10.2510   -3.3060    0.0450 C   0  0  0  0  0  0  0  0  0  0  0  0
   11.1590   -3.7970   -0.8900 C   0  0  0  0  0  3  0  0  0  0  0  0
   11.8820   -2.9410   -1.7280 C   0  0  0  0  0  3  0  0  0  0  0  0
   11.6540   -1.5670   -1.6170 C   0  0  0  0  0  0  0  0  0  0  0  0
   12.2100   -0.5230   -2.3130 N   0  0  0  0  0  0  0  0  0  0  0  0
   11.6690    0.6590   -1.9010 C   0  0  0  0  0  3  0  0  0  0  0  0
   10.7590    0.4040   -0.8910 C   0  0  0  0  0  0  0  0  0  0  0  0
   10.7410   -1.0230   -0.7140 C   0  0  0  0  0  0  0  0  0  0  0  0
   10.0310   -1.9160    0.1230 C   0  0  0  0  0  3  0  0  0  0  0  0
   12.9070   -0.6190   -3.0360 H   0  0  0  0  0  0  0  0  0  0  0  0
    8.3170   -4.8230    0.6950 C   0  0  0  0  0  0  0  0  0  0  0  0
    7.7410   -5.3410    1.6600 O   0  0  0  0  0  0  0  0  0  0  0  0
    9.4920   -4.1180    0.9070 N   0  0  0  0  0  0  0  0  0  0  0  0
    9.8370   -4.2470    1.8480 H   0  0  0  0  0  0  0  0  0  0  0  0
    6.4850   -5.6150   -0.6350 O   0  0  0  0  0  1  0  0  0  0  0  0
    7.6570   -5.1080   -0.6700 C   0  0  0  0  0  0  0  0  0  0  0  0
    8.3530   -4.8640   -1.7090 O   0  0  0  0  0  0  0  0  0  0  0  0
  1  4  1  0  0  0  0
  1  2  1  0  0  0  0
  2  3  2  0  0  0  0
  5  2  1  0  0  0  0
  5 10  1  0  0  0  0
  6  5  2  0  0  0  0
  7  6  1  0  0  0  0
  7  8  2  0  0  0  0
  8  9  1  0  0  0  0
  9 10  2  0  0  0  0
  9 11  1  0  0  0  0
 12 20  1  0  0  0  0
 12 11  2  0  0  0  0
 13  8  1  0  0  0  0
 13 12  1  0  0  0  0
 14 19  1  0  0  0  0
 14 13  1  0  0  0  0
 15 14  1  0  0  0  0
 16 17  1  0  0  0  0
 16 15  1  0  0  0  0
 17 18  1  0  0  0  0
 18 19  1  0  0  0  0
 20 21  1  0  0  0  0
 21 22  2  0  0  0  0
 23 22  1  0  0  0  0
 24 20  2  0  0  0  0
 24 23  1  0  0  0  0
 25 29  1  1  0  0  0
 25 26  1  0  0  0  0
 25  1  1  0  0  0  0
 26 28  1  0  0  0  0
 27 26  2  0  0  0  0
 30 38  1  0  0  0  0
 30 42  1  0  0  0  0
 31 30  2  0  0  0  0
 32 33  2  0  0  0  0
 32 31  1  0  0  0  0
 33 37  1  0  0  0  0
 34 35  1  0  0  0  0
 34 33  1  0  0  0  0
 35 36  2  0  0  0  0
 36 37  1  0  0  0  0
 36 29  1  0  0  0  0
 37 38  2  0  0  0  0
 39 34  1  0  0  0  0
 40 42  1  0  0  0  0
 40 41  2  0  0  0  0
 42 43  1  0  0  0  0
 45 44  1  0  0  0  0
 45 40  1  0  0  0  0
 46 45  2  0  0  0  0
M  END
>  <minimizedAffinity>
-7.39540815

$$$$

 OpenBabel09122221433D

 46 51  0  0  1  0  0  0  0  0999 V2000
   11.6240    5.5350    1.3970 N   0  0  0  0  0  0  0  0  0  0  0  0
   11.7610    6.8920    1.3970 C   0  0  0  0  0  0  0  0  0  0  0  0
   12.1360    7.4910    2.4040 O   0  0  0  0  0  0  0  0  0  0  0  0
   11.8540    5.0660    2.2710 H   0  0  0  0  0  0  0  0  0  0  0  0
   11.5130    7.6670    0.1630 C   0  0  0  0  0  0  0  0  0  0  0  0
   10.3970    8.4920    0.0190 C   0  0  0  0  0  3  0  0  0  0  0  0
   10.1830    9.2140   -1.1620 C   0  0  0  0  0  3  0  0  0  0  0  0
   11.1360    9.0960   -2.1870 C   0  0  0  0  0  0  0  0  0  0  0  0
   12.2830    8.3300   -2.0230 C   0  0  0  0  0  0  0  0  0  0  0  0
   12.4860    7.6030   -0.8420 C   0  0  0  0  0  3  0  0  0  0  0  0
   13.0980    8.4300   -3.1090 N   0  0  0  0  0  0  0  0  0  0  0  0
   12.4750    9.2060   -3.9810 C   0  0  0  0  0  0  0  0  0  0  0  0
   11.2490    9.6200   -3.4700 N   0  0  0  0  0  0  0  0  0  0  0  0
   10.3110   10.5620   -4.0750 C   0  0  0  0  0  3  0  0  0  0  0  0
    8.9490    9.9590   -4.4550 C   0  0  0  0  0  2  0  0  0  0  0  0
    8.0580   10.9930   -5.1430 C   0  0  0  0  0  2  0  0  0  0  0  0
    7.8850   12.2400   -4.2820 C   0  0  0  0  0  2  0  0  0  0  0  0
    9.2310   12.8490   -3.8950 C   0  0  0  0  0  2  0  0  0  0  0  0
   10.1430   11.8290   -3.2160 C   0  0  0  0  0  2  0  0  0  0  0  0
   13.1720    9.5420   -5.2650 C   0  0  0  0  0  0  0  0  0  0  0  0
   13.5640    8.5660   -6.2270 C   0  0  0  0  0  3  0  0  0  0  0  0
   14.1840    9.2450   -7.2470 C   0  0  0  0  0  3  0  0  0  0  0  0
   14.1980   10.5750   -6.9870 O   0  0  0  0  0  0  0  0  0  0  0  0
   13.5450   10.7520   -5.8020 C   0  0  0  0  0  3  0  0  0  0  0  0
   11.2650    4.5580    0.3290 C   0  0  2  0  0  3  0  0  0  0  0  0
    9.7520    4.1600    0.4420 C   0  0  0  0  0  0  0  0  0  0  0  0
    9.4810    3.1840    1.1970 O   0  0  0  0  0  1  0  0  0  0  0  0
    8.9780    4.8300   -0.3120 O   0  0  0  0  0  0  0  0  0  0  0  0
   12.0800    3.2550    0.4390 C   0  0  0  0  0  2  0  0  0  0  0  0
   10.1570   -1.0190   -0.4310 C   0  0  0  0  0  0  0  0  0  0  0  0
   10.3110   -1.3820   -1.7670 C   0  0  0  0  0  3  0  0  0  0  0  0
   10.9900   -0.5610   -2.6750 C   0  0  0  0  0  3  0  0  0  0  0  0
   11.4980    0.6540   -2.2090 C   0  0  0  0  0  0  0  0  0  0  0  0
   12.1840    1.6360   -2.8770 N   0  0  0  0  0  0  0  0  0  0  0  0
   12.4610    2.6740   -2.0370 C   0  0  0  0  0  3  0  0  0  0  0  0
   11.9800    2.3660   -0.7770 C   0  0  0  0  0  0  0  0  0  0  0  0
   11.3540    1.0760   -0.8870 C   0  0  0  0  0  0  0  0  0  0  0  0
   10.6680    0.2200    0.0060 C   0  0  0  0  0  3  0  0  0  0  0  0
   12.4340    1.6020   -3.8540 H   0  0  0  0  0  0  0  0  0  0  0  0
    9.1790   -3.1520    0.5460 C   0  0  0  0  0  0  0  0  0  0  0  0
    8.4220   -3.5880    1.4220 O   0  0  0  0  0  0  0  0  0  0  0  0
    9.4790   -1.7990    0.5220 N   0  0  0  0  0  0  0  0  0  0  0  0
    9.1500   -1.3310    1.3560 H   0  0  0  0  0  0  0  0  0  0  0  0
   11.0200   -4.4330   -0.3050 O   0  0  0  0  0  1  0  0  0  0  0  0
    9.7610   -4.2330   -0.3890 C   0  0  0  0  0  0  0  0  0  0  0  0
    8.9500   -4.7940   -1.1960 O   0  0  0  0  0  0  0  0  0  0  0  0
  1  2  1  0  0  0  0
  1  4  1  0  0  0  0
  2  3  2  0  0  0  0
  5  2  1  0  0  0  0
  6  5  1  0  0  0  0
  7  6  2  0  0  0  0
  8  9  2  0  0  0  0
  8  7  1  0  0  0  0
  9 10  1  0  0  0  0
 10  5  2  0  0  0  0
 11  9  1  0  0  0  0
 12 13  1  0  0  0  0
 12 11  2  0  0  0  0
 13  8  1  0  0  0  0
 14 13  1  0  0  0  0
 14 19  1  0  0  0  0
 15 14  1  0  0  0  0
 16 15  1  0  0  0  0
 16 17  1  0  0  0  0
 17 18  1  0  0  0  0
 18 19  1  0  0  0  0
 20 12  1  0  0  0  0
 21 20  1  0  0  0  0
 22 23  1  0  0  0  0
 22 21  2  0  0  0  0
 23 24  1  0  0  0  0
 24 20  2  0  0  0  0
 25 29  1  1  0  0  0
 25 26  1  0  0  0  0
 25  1  1  0  0  0  0
 26 27  1  0  0  0  0
 28 26  2  0  0  0  0
 30 38  1  0  0  0  0
 30 42  1  0  0  0  0
 31 30  2  0  0  0  0
 32 33  2  0  0  0  0
 32 31  1  0  0  0  0
 33 37  1  0  0  0  0
 34 33  1  0  0  0  0
 34 35  1  0  0  0  0
 35 36  2  0  0  0  0
 36 29  1  0  0  0  0
 37 36  1  0  0  0  0
 37 38  2  0  0  0  0
 39 34  1  0  0  0  0
 40 41  2  0  0  0  0
 42 40  1  0  0  0  0
 42 43  1  0  0  0  0
 45 44  1  0  0  0  0
 45 40  1  0  0  0  0
 46 45  2  0  0  0  0
M  END
>  <minimizedAffinity>
-7.31673813

$$$$

 OpenBabel09122221433D

 46 51  0  0  1  0  0  0  0  0999 V2000
   12.1840    3.9990    0.3190 N   0  0  0  0  0  0  0  0  0  0  0  0
   12.9160    5.1070    0.0060 C   0  0  0  0  0  0  0  0  0  0  0  0
   14.0700    5.0080   -0.4080 O   0  0  0  0  0  0  0  0  0  0  0  0
   12.6530    3.1050    0.1820 H   0  0  0  0  0  0  0  0  0  0  0  0
   12.3130    6.4530    0.1080 C   0  0  0  0  0  0  0  0  0  0  0  0
   12.2180    7.1310    1.3230 C   0  0  0  0  0  3  0  0  0  0  0  0
   11.6380    8.4050    1.3950 C   0  0  0  0  0  3  0  0  0  0  0  0
   11.1760    8.9840    0.2020 C   0  0  0  0  0  0  0  0  0  0  0  0
   11.3300    8.3420   -1.0210 C   0  0  0  0  0  0  0  0  0  0  0  0
   11.9020    7.0650   -1.0830 C   0  0  0  0  0  3  0  0  0  0  0  0
   10.8860    9.1240   -2.0430 N   0  0  0  0  0  0  0  0  0  0  0  0
   10.4100   10.2310   -1.4960 C   0  0  0  0  0  0  0  0  0  0  0  0
   10.5400   10.1800   -0.1120 N   0  0  0  0  0  0  0  0  0  0  0  0
   10.2320   11.2390    0.8450 C   0  0  0  0  0  3  0  0  0  0  0  0
    9.4480   10.7790    2.0840 C   0  0  0  0  0  2  0  0  0  0  0  0
    9.1080   11.9580    2.9950 C   0  0  0  0  0  2  0  0  0  0  0  0
   10.3600   12.7320    3.3940 C   0  0  0  0  0  2  0  0  0  0  0  0
   11.1490   13.1960    2.1720 C   0  0  0  0  0  2  0  0  0  0  0  0
   11.4900   12.0340    1.2410 C   0  0  0  0  0  2  0  0  0  0  0  0
    9.8990   11.3120   -2.4000 C   0  0  0  0  0  0  0  0  0  0  0  0
    8.5480   11.7680   -2.3970 C   0  0  0  0  0  3  0  0  0  0  0  0
    8.4590   12.7410   -3.3630 C   0  0  0  0  0  3  0  0  0  0  0  0
    9.6620   12.9240   -3.9590 O   0  0  0  0  0  0  0  0  0  0  0  0
   10.5410   12.0830   -3.3400 C   0  0  0  0  0  3  0  0  0  0  0  0
   10.7730    3.8160    0.7640 C   0  0  2  0  0  3  0  0  0  0  0  0
   10.7320    3.1390    2.1790 C   0  0  0  0  0  0  0  0  0  0  0  0
   11.7330    3.3350    2.9250 O   0  0  0  0  0  1  0  0  0  0  0  0
    9.7160    2.4020    2.3760 O   0  0  0  0  0  0  0  0  0  0  0  0
    9.9780    2.9050   -0.1910 C   0  0  0  0  0  2  0  0  0  0  0  0
    9.9920   -1.8610   -0.1480 C   0  0  0  0  0  0  0  0  0  0  0  0
   10.9720   -2.3730   -0.9940 C   0  0  0  0  0  3  0  0  0  0  0  0
   11.8340   -1.5340   -1.7080 C   0  0  0  0  0  3  0  0  0  0  0  0
   11.6740   -0.1530   -1.5650 C   0  0  0  0  0  0  0  0  0  0  0  0
   12.3650    0.8790   -2.1480 N   0  0  0  0  0  0  0  0  0  0  0  0
   11.8480    2.0770   -1.7500 C   0  0  0  0  0  3  0  0  0  0  0  0
   10.8150    1.8420   -0.8600 C   0  0  0  0  0  0  0  0  0  0  0  0
   10.6950    0.4130   -0.7480 C   0  0  0  0  0  0  0  0  0  0  0  0
    9.8440   -0.4640   -0.0360 C   0  0  0  0  0  3  0  0  0  0  0  0
   13.1340    0.7670   -2.7910 H   0  0  0  0  0  0  0  0  0  0  0  0
    9.0320   -2.9460    1.9420 C   0  0  0  0  0  0  0  0  0  0  0  0
    8.2410   -3.8120    2.3390 O   0  0  0  0  0  0  0  0  0  0  0  0
    9.0940   -2.6560    0.5870 N   0  0  0  0  0  0  0  0  0  0  0  0
    8.3410   -3.0980    0.0790 H   0  0  0  0  0  0  0  0  0  0  0  0
    9.3450   -1.1170    3.4620 O   0  0  0  0  0  0  0  0  0  0  0  0
    9.8160   -2.2360    3.0640 C   0  0  0  0  0  0  0  0  0  0  0  0
   10.8890   -2.7970    3.4620 O   0  0  0  0  0  1  0  0  0  0  0  0
  1 25  1  0  0  0  0
  2  5  1  0  0  0  0
  2  1  1  0  0  0  0
  3  2  2  0  0  0  0
  4  1  1  0  0  0  0
  5  6  1  0  0  0  0
  6  7  2  0  0  0  0
  8  7  1  0  0  0  0
  9  8  2  0  0  0  0
 10  9  1  0  0  0  0
 10  5  2  0  0  0  0
 11 12  2  0  0  0  0
 11  9  1  0  0  0  0
 12 13  1  0  0  0  0
 13  8  1  0  0  0  0
 13 14  1  0  0  0  0
 14 19  1  0  0  0  0
 14 15  1  0  0  0  0
 15 16  1  0  0  0  0
 16 17  1  0  0  0  0
 18 17  1  0  0  0  0
 19 18  1  0  0  0  0
 20 21  1  0  0  0  0
 20 12  1  0  0  0  0
 22 21  2  0  0  0  0
 23 22  1  0  0  0  0
 23 24  1  0  0  0  0
 24 20  2  0  0  0  0
 25 29  1  6  0  0  0
 25 26  1  0  0  0  0
 26 28  2  0  0  0  0
 26 27  1  0  0  0  0
 30 38  1  0  0  0  0
 30 42  1  0  0  0  0
 31 30  2  0  0  0  0
 32 33  2  0  0  0  0
 32 31  1  0  0  0  0
 33 37  1  0  0  0  0
 34 35  1  0  0  0  0
 34 33  1  0  0  0  0
 35 36  2  0  0  0  0
 36 37  1  0  0  0  0
 36 29  1  0  0  0  0
 37 38  2  0  0  0  0
 39 34  1  0  0  0  0
 40 41  2  0  0  0  0
 40 45  1  0  0  0  0
 42 40  1  0  0  0  0
 43 42  1  0  0  0  0
 45 44  2  0  0  0  0
 45 46  1  0  0  0  0
M  END
>  <minimizedAffinity>
-7.29034042

$$$$

 OpenBabel09122221433D

 46 51  0  0  1  0  0  0  0  0999 V2000
   11.7140    4.4600    1.4480 N   0  0  0  0  0  0  0  0  0  0  0  0
   12.6210    5.4710    1.5690 C   0  0  0  0  0  0  0  0  0  0  0  0
   13.4050    5.5090    2.5160 O   0  0  0  0  0  0  0  0  0  0  0  0
   11.7380    3.7520    2.1810 H   0  0  0  0  0  0  0  0  0  0  0  0
   12.7150    6.5180    0.5280 C   0  0  0  0  0  0  0  0  0  0  0  0
   12.4850    7.8640    0.8100 C   0  0  0  0  0  3  0  0  0  0  0  0
   12.5770    8.8360   -0.1940 C   0  0  0  0  0  3  0  0  0  0  0  0
   12.9270    8.4140   -1.4870 C   0  0  0  0  0  0  0  0  0  0  0  0
   13.2230    7.0840   -1.7590 C   0  0  0  0  0  0  0  0  0  0  0  0
   13.1200    6.1170   -0.7510 C   0  0  0  0  0  3  0  0  0  0  0  0
   13.6150    6.9250   -3.0520 N   0  0  0  0  0  0  0  0  0  0  0  0
   13.5310    8.1150   -3.6250 C   0  0  0  0  0  0  0  0  0  0  0  0
   13.0840    9.0610   -2.7080 N   0  0  0  0  0  0  0  0  0  0  0  0
   12.9570   10.5010   -2.9150 C   0  0  0  0  0  3  0  0  0  0  0  0
   11.5350   11.0540   -2.7290 C   0  0  0  0  0  2  0  0  0  0  0  0
   11.4790   12.5510   -3.0320 C   0  0  0  0  0  2  0  0  0  0  0  0
   12.4840   13.3280   -2.1870 C   0  0  0  0  0  2  0  0  0  0  0  0
   13.9020   12.7890   -2.3610 C   0  0  0  0  0  2  0  0  0  0  0  0
   13.9790   11.2900   -2.0750 C   0  0  0  0  0  2  0  0  0  0  0  0
   13.9620    8.2530   -5.0540 C   0  0  0  0  0  0  0  0  0  0  0  0
   15.3190    8.1640   -5.4790 C   0  0  0  0  0  3  0  0  0  0  0  0
   15.3200    8.3570   -6.8390 C   0  0  0  0  0  3  0  0  0  0  0  0
   14.0560    8.5530   -7.2870 O   0  0  0  0  0  0  0  0  0  0  0  0
   13.2330    8.4470   -6.2040 C   0  0  0  0  0  3  0  0  0  0  0  0
   10.7120    4.1250    0.3960 C   0  0  2  0  0  3  0  0  0  0  0  0
    9.5470    5.1740    0.4000 C   0  0  0  0  0  0  0  0  0  0  0  0
    9.5630    6.0310    1.3290 O   0  0  0  0  0  1  0  0  0  0  0  0
    8.6710    4.9860   -0.5020 O   0  0  0  0  0  0  0  0  0  0  0  0
   10.0710    2.7430    0.6270 C   0  0  0  0  0  2  0  0  0  0  0  0
    9.7090   -2.0090    0.5260 C   0  0  0  0  0  0  0  0  0  0  0  0
   10.3860   -2.5460   -0.5660 C   0  0  0  0  0  3  0  0  0  0  0  0
   11.0950   -1.7340   -1.4600 C   0  0  0  0  0  3  0  0  0  0  0  0
   11.0900   -0.3550   -1.2390 C   0  0  0  0  0  0  0  0  0  0  0  0
   11.6840    0.6540   -1.9550 N   0  0  0  0  0  0  0  0  0  0  0  0
   11.3890    1.8640   -1.3980 C   0  0  0  0  0  3  0  0  0  0  0  0
   10.6120    1.6580   -0.2720 C   0  0  0  0  0  0  0  0  0  0  0  0
   10.4110    0.2370   -0.1740 C   0  0  0  0  0  0  0  0  0  0  0  0
    9.7100   -0.6120    0.7140 C   0  0  0  0  0  3  0  0  0  0  0  0
   12.2450    0.5200   -2.7830 H   0  0  0  0  0  0  0  0  0  0  0  0
    8.3030   -3.9780    1.3070 C   0  0  0  0  0  0  0  0  0  0  0  0
    7.5830   -4.3820    2.2290 O   0  0  0  0  0  0  0  0  0  0  0  0
    8.9750   -2.7740    1.4500 N   0  0  0  0  0  0  0  0  0  0  0  0
    8.9160   -2.4270    2.3980 H   0  0  0  0  0  0  0  0  0  0  0  0
    8.1710   -4.4490   -1.0410 O   0  0  0  0  0  0  0  0  0  0  0  0
    8.4100   -4.9460    0.1110 C   0  0  0  0  0  0  0  0  0  0  0  0
    8.6740   -6.1640    0.3760 O   0  0  0  0  0  1  0  0  0  0  0  0
  1  2  1  0  0  0  0
  1  4  1  0  0  0  0
  2  3  2  0  0  0  0
  5  6  1  0  0  0  0
  5  2  1  0  0  0  0
  7  6  2  0  0  0  0
  8  7  1  0  0  0  0
  9  8  2  0  0  0  0
  9 10  1  0  0  0  0
 10  5  2  0  0  0  0
 11  9  1  0  0  0  0
 12 11  2  0  0  0  0
 12 13  1  0  0  0  0
 13  8  1  0  0  0  0
 14 15  1  0  0  0  0
 14 13  1  0  0  0  0
 14 19  1  0  0  0  0
 16 15  1  0  0  0  0
 16 17  1  0  0  0  0
 18 17  1  0  0  0  0
 18 19  1  0  0  0  0
 20 12  1  0  0  0  0
 21 20  1  0  0  0  0
 22 21  2  0  0  0  0
 23 22  1  0  0  0  0
 23 24  1  0  0  0  0
 24 20  2  0  0  0  0
 25 26  1  0  0  0  0
 25 29  1  1  0  0  0
 25  1  1  0  0  0  0
 26 27  1  0  0  0  0
 28 26  2  0  0  0  0
 30 38  1  0  0  0  0
 30 42  1  0  0  0  0
 31 30  2  0  0  0  0
 32 33  2  0  0  0  0
 32 31  1  0  0  0  0
 33 37  1  0  0  0  0
 34 35  1  0  0  0  0
 34 33  1  0  0  0  0
 35 36  2  0  0  0  0
 36 37  1  0  0  0  0
 36 29  1  0  0  0  0
 37 38  2  0  0  0  0
 39 34  1  0  0  0  0
 40 42  1  0  0  0  0
 40 41  2  0  0  0  0
 42 43  1  0  0  0  0
 44 45  2  0  0  0  0
 45 46  1  0  0  0  0
 45 40  1  0  0  0  0
M  END
>  <minimizedAffinity>
-6.96682596

$$$$
