REMARK  Name = 
REMARK  6 active torsions:
REMARK  status: ('A' for Active; 'I' for Inactive)
REMARK    1  A    between atoms: C_1  and  C_2
REMARK    2  A    between atoms: C_2  and  O_3
REMARK    3  A    between atoms: O_3  and  C_4
REMARK    4  A    between atoms: C_4  and  C_5
REMARK    5  A    between atoms: C_9  and  O_10
REMARK    6  A    between atoms: C_11  and  C_12
REMARK                            x       y       z     vdW  Elec       q    Type
REMARK                         _______ _______ _______ _____ _____    ______ ____
ROOT
ATOM      1  C   UNL     1       3.238  -0.862   2.499  0.00  0.00    +0.135 A 
ATOM      2  C   UNL     1       3.890  -0.900   3.669  0.00  0.00    +0.098 A 
ATOM      3  C   UNL     1       4.187  -2.210   4.270  0.00  0.00    +0.227 A 
ATOM      4  O   UNL     1       4.788  -2.303   5.340  0.00  0.00    -0.284 OA
ATOM      5  C   UNL     1       3.736  -3.425   3.545  0.00  0.00    +0.209 A 
ATOM      6  C   UNL     1       3.110  -3.248   2.376  0.00  0.00    +0.195 A 
ATOM      7  O   UNL     1       2.862  -2.005   1.813  0.00  0.00    -0.452 OA
ENDROOT
BRANCH   6   8
ATOM      8  C   UNL     1       2.607  -4.443   1.563  0.00  0.00    +0.111 C 
ATOM      9  O   UNL     1       1.386  -4.730   1.736  0.00  0.00    -0.541 OA
ATOM     10  O   UNL     1       3.445  -4.929   0.748  0.00  0.00    -0.541 OA
ENDBRANCH   6   8
BRANCH   5  11
ATOM     11  O   UNL     1       3.995  -4.649   4.128  0.00  0.00    -0.501 OA
ATOM     12  H   UNL     1       4.467  -4.437   4.956  0.00  0.00    +0.292 HD
ENDBRANCH   5  11
BRANCH   1  13
ATOM     13  C   UNL     1       2.901   0.415   1.786  0.00  0.00    +0.234 C 
BRANCH  13  14
ATOM     14  O   UNL     1       1.624   0.933   2.168  0.00  0.00    -0.372 OA
BRANCH  14  16
ATOM     15  C   UNL     1       0.303   0.201   0.231  0.00  0.00    +0.034 C 
ATOM     16  C   UNL     1       0.500   0.162   1.737  0.00  0.00    +0.157 C 
ENDBRANCH  14  16
ENDBRANCH  13  14
ENDBRANCH   1  13
TORSDOF 5
