
 OpenBabel09122222393D

 16 16  0  0  0  0  0  0  0  0999 V2000
    5.0860   -5.0880    2.7460 C   0  0  0  0  0  0  0  0  0  0  0  0
    5.0760   -6.0600    1.8230 C   0  0  0  0  0  3  0  0  0  0  0  0
    6.2760   -6.2600    0.9950 C   0  0  0  0  0  0  0  0  0  0  0  0
    6.3220   -7.1410    0.1370 O   0  0  0  0  0  0  0  0  0  0  0  0
    7.4360   -5.3620    1.2240 C   0  0  0  0  0  0  0  0  0  0  0  0
    7.3220   -4.4430    2.1900 C   0  0  0  0  0  0  0  0  0  0  0  0
    6.1910   -4.2870    2.9780 O   0  0  0  0  0  0  0  0  0  0  0  0
    8.4660   -3.4720    2.4920 C   0  0  0  0  0  0  0  0  0  0  0  0
    8.9200   -2.8530    1.4860 O   0  0  0  0  0  0  0  0  0  0  0  0
    8.7440   -3.3360    3.7200 O   0  0  0  0  0  1  0  0  0  0  0  0
    8.5470   -5.5390    0.4250 O   0  0  0  0  0  0  0  0  0  0  0  0
    8.3180   -6.2850   -0.1610 H   0  0  0  0  0  0  0  0  0  0  0  0
    3.9280   -4.8080    3.6580 C   0  0  0  0  0  2  0  0  0  0  0  0
    3.4280   -3.4760    3.5130 O   0  0  0  0  0  0  0  0  0  0  0  0
    3.9060   -2.6050    5.7600 C   0  0  0  0  0  1  0  0  0  0  0  0
    2.8640   -2.9050    4.6960 C   0  0  0  0  0  2  0  0  0  0  0  0
  1  7  1  0  0  0  0
  1 13  1  0  0  0  0
  2  1  2  0  0  0  0
  3  5  1  0  0  0  0
  3  2  1  0  0  0  0
  4  3  2  0  0  0  0
  5  6  2  0  0  0  0
  6  8  1  0  0  0  0
  6  7  1  0  0  0  0
  8 10  1  0  0  0  0
  9  8  2  0  0  0  0
 11  5  1  0  0  0  0
 12 11  1  0  0  0  0
 14 13  1  0  0  0  0
 14 16  1  0  0  0  0
 16 15  1  0  0  0  0
M  END
>  <minimizedAffinity>
-4.79516029

$$$$
