
 OpenBabel09122222393D

 16 16  0  0  0  0  0  0  0  0999 V2000
    4.3640   -5.2960    3.9110 C   0  0  0  0  0  0  0  0  0  0  0  0
    3.2030   -4.6290    3.9530 C   0  0  0  0  0  3  0  0  0  0  0  0
    3.1200   -3.4050    4.7660 C   0  0  0  0  0  0  0  0  0  0  0  0
    2.0800   -2.7510    4.8360 O   0  0  0  0  0  0  0  0  0  0  0  0
    4.3350   -2.9800    5.5070 C   0  0  0  0  0  0  0  0  0  0  0  0
    5.4360   -3.7270    5.3650 C   0  0  0  0  0  0  0  0  0  0  0  0
    5.5010   -4.8640    4.5730 O   0  0  0  0  0  0  0  0  0  0  0  0
    6.7310   -3.3660    6.0950 C   0  0  0  0  0  0  0  0  0  0  0  0
    6.6360   -3.3120    7.3560 O   0  0  0  0  0  1  0  0  0  0  0  0
    7.7540   -3.2660    5.3550 O   0  0  0  0  0  0  0  0  0  0  0  0
    4.2410   -1.8460    6.2880 O   0  0  0  0  0  0  0  0  0  0  0  0
    3.3240   -1.5350    6.1690 H   0  0  0  0  0  0  0  0  0  0  0  0
    4.5680   -6.5430    3.1010 C   0  0  0  0  0  2  0  0  0  0  0  0
    5.8760   -6.6140    2.5280 O   0  0  0  0  0  0  0  0  0  0  0  0
    4.8280   -6.2110    0.3440 C   0  0  0  0  0  1  0  0  0  0  0  0
    6.0200   -5.9780    1.2560 C   0  0  0  0  0  2  0  0  0  0  0  0
  1  2  2  0  0  0  0
  1  7  1  0  0  0  0
  2  3  1  0  0  0  0
  3  4  2  0  0  0  0
  3  5  1  0  0  0  0
  5 11  1  0  0  0  0
  6  5  2  0  0  0  0
  6  8  1  0  0  0  0
  7  6  1  0  0  0  0
  8  9  1  0  0  0  0
 10  8  2  0  0  0  0
 12 11  1  0  0  0  0
 13  1  1  0  0  0  0
 14 13  1  0  0  0  0
 15 16  1  0  0  0  0
 16 14  1  0  0  0  0
M  END
>  <minimizedAffinity>
-4.78321266

$$$$
