
 OpenBabel09122222393D

 16 16  0  0  0  0  0  0  0  0999 V2000
    4.6700   -4.7970    3.7150 C   0  0  0  0  0  0  0  0  0  0  0  0
    3.5400   -4.0850    3.6070 C   0  0  0  0  0  3  0  0  0  0  0  0
    3.2550   -3.0550    4.6190 C   0  0  0  0  0  0  0  0  0  0  0  0
    2.2360   -2.3680    4.5650 O   0  0  0  0  0  0  0  0  0  0  0  0
    4.2390   -2.8680    5.7150 C   0  0  0  0  0  0  0  0  0  0  0  0
    5.3360   -3.6330    5.6960 C   0  0  0  0  0  0  0  0  0  0  0  0
    5.5990   -4.5820    4.7190 O   0  0  0  0  0  0  0  0  0  0  0  0
    6.4010   -3.5110    6.7880 C   0  0  0  0  0  0  0  0  0  0  0  0
    6.9640   -2.3800    6.8610 O   0  0  0  0  0  0  0  0  0  0  0  0
    6.5130   -4.5210    7.5440 O   0  0  0  0  0  1  0  0  0  0  0  0
    3.9520   -1.9180    6.6750 O   0  0  0  0  0  0  0  0  0  0  0  0
    3.0980   -1.5340    6.3990 H   0  0  0  0  0  0  0  0  0  0  0  0
    5.0710   -5.8570    2.7310 C   0  0  0  0  0  2  0  0  0  0  0  0
    5.4380   -7.0840    3.3680 O   0  0  0  0  0  0  0  0  0  0  0  0
    3.4460   -8.2910    4.1490 C   0  0  0  0  0  1  0  0  0  0  0  0
    4.5600   -8.1850    3.1210 C   0  0  0  0  0  2  0  0  0  0  0  0
  1  7  1  0  0  0  0
  2  1  2  0  0  0  0
  2  3  1  0  0  0  0
  3  5  1  0  0  0  0
  4  3  2  0  0  0  0
  5 11  1  0  0  0  0
  6  5  2  0  0  0  0
  6  8  1  0  0  0  0
  7  6  1  0  0  0  0
  8  9  2  0  0  0  0
  8 10  1  0  0  0  0
 12 11  1  0  0  0  0
 13 14  1  0  0  0  0
 13  1  1  0  0  0  0
 16 14  1  0  0  0  0
 16 15  1  0  0  0  0
M  END
>  <minimizedAffinity>
-4.51059818

$$$$
