
 OpenBabel09122222393D

 16 16  0  0  0  0  0  0  0  0999 V2000
    5.1960   -6.8760    2.1880 C   0  0  0  0  0  0  0  0  0  0  0  0
    4.8250   -7.4220    1.0210 C   0  0  0  0  0  3  0  0  0  0  0  0
    5.5260   -7.0110   -0.2060 C   0  0  0  0  0  0  0  0  0  0  0  0
    5.2300   -7.4850   -1.3020 O   0  0  0  0  0  0  0  0  0  0  0  0
    6.6080   -6.0010   -0.0830 C   0  0  0  0  0  0  0  0  0  0  0  0
    6.8910   -5.5480    1.1440 C   0  0  0  0  0  0  0  0  0  0  0  0
    6.2360   -5.9670    2.2920 O   0  0  0  0  0  0  0  0  0  0  0  0
    7.9870   -4.5030    1.3640 C   0  0  0  0  0  0  0  0  0  0  0  0
    7.9560   -3.9260    2.4900 O   0  0  0  0  0  1  0  0  0  0  0  0
    8.8440   -4.4200    0.4350 O   0  0  0  0  0  0  0  0  0  0  0  0
    7.2430   -5.6020   -1.2410 O   0  0  0  0  0  0  0  0  0  0  0  0
    6.8170   -6.1190   -1.9510 H   0  0  0  0  0  0  0  0  0  0  0  0
    4.5660   -7.2340    3.5020 C   0  0  0  0  0  2  0  0  0  0  0  0
    4.4800   -6.1170    4.3890 O   0  0  0  0  0  0  0  0  0  0  0  0
    3.6440   -3.9050    3.7250 C   0  0  0  0  0  1  0  0  0  0  0  0
    3.3180   -5.3000    4.2300 C   0  0  0  0  0  2  0  0  0  0  0  0
  1  7  1  0  0  0  0
  1 13  1  0  0  0  0
  2  1  2  0  0  0  0
  3  5  1  0  0  0  0
  3  2  1  0  0  0  0
  4  3  2  0  0  0  0
  5  6  2  0  0  0  0
  6  8  1  0  0  0  0
  6  7  1  0  0  0  0
  8  9  1  0  0  0  0
 10  8  2  0  0  0  0
 11  5  1  0  0  0  0
 12 11  1  0  0  0  0
 13 14  1  0  0  0  0
 15 16  1  0  0  0  0
 16 14  1  0  0  0  0
M  END
>  <minimizedAffinity>
-5.21752453

$$$$
