
 OpenBabel09122222393D

 16 16  0  0  0  0  0  0  0  0999 V2000
    4.7680   -6.1790    2.7490 C   0  0  0  0  0  0  0  0  0  0  0  0
    4.0070   -7.2440    2.4630 C   0  0  0  0  0  3  0  0  0  0  0  0
    4.2270   -7.9480    1.1900 C   0  0  0  0  0  0  0  0  0  0  0  0
    3.5610   -8.9350    0.8790 O   0  0  0  0  0  0  0  0  0  0  0  0
    5.2830   -7.4300    0.2830 C   0  0  0  0  0  0  0  0  0  0  0  0
    5.9830   -6.3680    0.6960 C   0  0  0  0  0  0  0  0  0  0  0  0
    5.7780   -5.7330    1.9120 O   0  0  0  0  0  0  0  0  0  0  0  0
    7.0870   -5.7640   -0.1750 C   0  0  0  0  0  0  0  0  0  0  0  0
    6.7300   -5.4550   -1.3500 O   0  0  0  0  0  0  0  0  0  0  0  0
    8.1870   -5.5580    0.4170 O   0  0  0  0  0  1  0  0  0  0  0  0
    5.4650   -8.0800   -0.9210 O   0  0  0  0  0  0  0  0  0  0  0  0
    4.8150   -8.8080   -0.9140 H   0  0  0  0  0  0  0  0  0  0  0  0
    4.6450   -5.3980    4.0250 C   0  0  0  0  0  2  0  0  0  0  0  0
    3.9690   -4.1520    3.8390 O   0  0  0  0  0  0  0  0  0  0  0  0
    2.1720   -2.7120    4.6940 C   0  0  0  0  0  1  0  0  0  0  0  0
    2.6210   -4.1130    4.3150 C   0  0  0  0  0  2  0  0  0  0  0  0
  1 13  1  0  0  0  0
  2  1  2  0  0  0  0
  3  2  1  0  0  0  0
  4  3  2  0  0  0  0
  5  6  2  0  0  0  0
  5  3  1  0  0  0  0
  6  7  1  0  0  0  0
  7  1  1  0  0  0  0
  8 10  1  0  0  0  0
  8  6  1  0  0  0  0
  9  8  2  0  0  0  0
 11 12  1  0  0  0  0
 11  5  1  0  0  0  0
 14 13  1  0  0  0  0
 14 16  1  0  0  0  0
 16 15  1  0  0  0  0
M  END
>  <minimizedAffinity>
-5.15193892

$$$$
