
 OpenBabel09122222393D

 16 16  0  0  0  0  0  0  0  0999 V2000
    2.6940   -6.2570    4.8360 C   0  0  0  0  0  0  0  0  0  0  0  0
    2.0680   -5.1210    5.1690 C   0  0  0  0  0  3  0  0  0  0  0  0
    2.5120   -3.8610    4.5520 C   0  0  0  0  0  0  0  0  0  0  0  0
    1.9680   -2.7900    4.8180 O   0  0  0  0  0  0  0  0  0  0  0  0
    3.6440   -3.9200    3.5920 C   0  0  0  0  0  0  0  0  0  0  0  0
    4.1700   -5.1220    3.3330 C   0  0  0  0  0  0  0  0  0  0  0  0
    3.7200   -6.3020    3.9060 O   0  0  0  0  0  0  0  0  0  0  0  0
    5.3420   -5.2760    2.3610 C   0  0  0  0  0  0  0  0  0  0  0  0
    5.0700   -5.8960    1.2910 O   0  0  0  0  0  0  0  0  0  0  0  0
    6.4050   -4.6790    2.7020 O   0  0  0  0  0  1  0  0  0  0  0  0
    4.0720   -2.7310    3.0370 O   0  0  0  0  0  0  0  0  0  0  0  0
    3.4840   -2.0510    3.4180 H   0  0  0  0  0  0  0  0  0  0  0  0
    2.3130   -7.6000    5.3870 C   0  0  0  0  0  2  0  0  0  0  0  0
    1.0850   -8.0860    4.8390 O   0  0  0  0  0  0  0  0  0  0  0  0
   -1.1200   -7.1260    5.3380 C   0  0  0  0  0  1  0  0  0  0  0  0
   -0.0240   -8.0970    5.7420 C   0  0  0  0  0  2  0  0  0  0  0  0
  1  2  2  0  0  0  0
  1 13  1  0  0  0  0
  3  4  2  0  0  0  0
  3  2  1  0  0  0  0
  5  3  1  0  0  0  0
  6  5  2  0  0  0  0
  6  7  1  0  0  0  0
  7  1  1  0  0  0  0
  8 10  1  0  0  0  0
  8  6  1  0  0  0  0
  9  8  2  0  0  0  0
 11 12  1  0  0  0  0
 11  5  1  0  0  0  0
 14 13  1  0  0  0  0
 14 16  1  0  0  0  0
 15 16  1  0  0  0  0
M  END
>  <minimizedAffinity>
-4.47877884

$$$$
