REMARK  Name = 
REMARK  10 active torsions:
REMARK  status: ('A' for Active; 'I' for Inactive)
REMARK    1  A    between atoms: C_1  and  C_2
REMARK    2  A    between atoms: C_4  and  O_5
REMARK    3  A    between atoms: C_6  and  C_7
REMARK    4  A    between atoms: C_7  and  O_8
REMARK    5  A    between atoms: O_8  and  P_9
REMARK    6  A    between atoms: P_9  and  O_12
REMARK    7  A    between atoms: O_12  and  P_13
REMARK    8  A    between atoms: P_13  and  O_16
REMARK    9  A    between atoms: O_16  and  P_17
REMARK   10  A    between atoms: C_22  and  N_23
REMARK                            x       y       z     vdW  Elec       q    Type
REMARK                         _______ _______ _______ _____ _____    ______ ____
ROOT
ATOM      1  C   UNL     1       1.652  -0.295   0.073  0.00  0.00    +0.055 C 
ATOM      2  C   UNL     1       0.571   0.500   0.784  0.00  0.00    +0.182 C 
ATOM      3  F   UNL     1      -0.519  -0.339   0.879  0.00  0.00    -0.235 F 
ATOM      4  C   UNL     1       0.958   0.971   2.171  0.00  0.00    +0.187 C 
ATOM      5  C   UNL     1      -0.016   2.132   2.429  0.00  0.00    +0.179 C 
ATOM      6  O   UNL     1      -0.342   2.687   1.142  0.00  0.00    -0.345 OA
ATOM      7  C   UNL     1       0.094   1.782   0.112  0.00  0.00    +0.262 C 
ENDROOT
BRANCH   7   8
ATOM      8  N   UNL     1       1.015   2.458  -0.781  0.00  0.00    -0.285 N 
ATOM      9  C   UNL     1       0.890   2.489  -2.152  0.00  0.00    +0.203 A 
ATOM     10  N   UNL     1       1.648   3.415  -2.705  0.00  0.00    -0.229 NA
ATOM     11  C   UNL     1       2.244   4.030  -1.622  0.00  0.00    +0.172 A 
ATOM     12  C   UNL     1       2.953   5.294  -1.513  0.00  0.00    +0.280 A 
ATOM     13  O   UNL     1       3.340   5.950  -2.478  0.00  0.00    -0.265 OA
ATOM     14  N   UNL     1       3.162   5.646  -0.190  0.00  0.00    -0.293 N 
ATOM     15  C   UNL     1       2.958   4.811   0.898  0.00  0.00    +0.195 A 
ATOM     16  N   UNL     1       3.341   5.345   2.077  0.00  0.00    -0.329 N 
ATOM     17  N   UNL     1       2.464   3.604   0.782  0.00  0.00    -0.196 NA
ATOM     18  C   UNL     1       2.008   3.334  -0.459  0.00  0.00    +0.171 A 
ATOM     19  H   UNL     1       3.475   6.581   0.033  0.00  0.00    +0.172 HD
ATOM     20  H   UNL     1       3.058   4.914   2.970  0.00  0.00    +0.145 HD
ATOM     21  H   UNL     1       3.049   6.343   2.204  0.00  0.00    +0.145 HD
ENDBRANCH   7   8
BRANCH   4  22
ATOM     22  O   UNL     1       0.901  -0.068   3.152  0.00  0.00    -0.386 OA
ATOM     23  H   UNL     1       1.064   0.370   4.010  0.00  0.00    +0.210 HD
ENDBRANCH   4  22
BRANCH   5  24
ATOM     24  C   UNL     1       0.658   3.108   3.395  0.00  0.00    +0.202 C 
BRANCH  24  25
ATOM     25  O   UNL     1       0.088   4.398   3.505  0.00  0.00    -0.325 OA
BRANCH  25  26
ATOM     26  P   UNL     1       0.843   5.274   4.673  0.00  0.00    +0.218 P 
ATOM     27  O   UNL     1       0.154   4.838   5.962  0.00  0.00    -0.517 OA
ATOM     28  O   UNL     1       2.327   4.947   4.562  0.00  0.00    -0.437 OA
BRANCH  26  29
ATOM     29  O   UNL     1       0.510   6.797   4.323  0.00  0.00    -0.270 OA
BRANCH  29  30
ATOM     30  P   UNL     1       0.632   7.683   2.983  0.00  0.00    +0.221 P 
ATOM     31  O   UNL     1       1.992   7.467   2.327  0.00  0.00    -0.517 OA
ATOM     32  O   UNL     1      -0.601   7.385   2.130  0.00  0.00    -0.437 OA
BRANCH  30  33
ATOM     33  O   UNL     1       0.499   9.207   3.563  0.00  0.00    -0.314 OA
BRANCH  33  34
ATOM     34  P   UNL     1       1.912  10.099   4.012  0.00  0.00    -0.007 P 
ATOM     35  O   UNL     1       1.534  11.127   2.899  0.00  0.00    -0.637 OA
ATOM     36  O   UNL     1       1.250  10.307   5.408  0.00  0.00    -0.577 OA
ATOM     37  O   UNL     1       3.325  10.990   4.461  0.00  0.00    -0.577 OA
ENDBRANCH  33  34
ENDBRANCH  30  33
ENDBRANCH  29  30
ENDBRANCH  26  29
ENDBRANCH  25  26
ENDBRANCH  24  25
ENDBRANCH   5  24
TORSDOF 9
