
 OpenBabel09122222393D

 37 39  0  0  1  0  0  0  0  0999 V2000
    1.4910   -0.9460    4.3090 C   0  0  0  0  0  1  0  0  0  0  0  0
    2.0310   -2.2920    3.8560 C   0  0  1  0  0  0  0  0  0  0  0  0
    1.2880   -2.6480    2.7500 F   0  0  0  0  0  0  0  0  0  0  0  0
    3.5000   -2.2770    3.4840 C   0  0  1  0  0  3  0  0  0  0  0  0
    3.9010   -3.7570    3.5910 C   0  0  2  0  0  3  0  0  0  0  0  0
    3.0330   -4.3470    4.5750 O   0  0  0  0  0  0  0  0  0  0  0  0
    1.9450   -3.4460    4.8470 C   0  0  1  0  0  3  0  0  0  0  0  0
    1.9150   -3.1210    6.2600 N   0  0  0  0  0  0  0  0  0  0  0  0
    2.1210   -4.0300    7.2730 C   0  0  0  0  0  2  0  0  0  0  0  0
    2.3620   -3.4460    8.4310 N   0  0  0  0  0  2  0  0  0  0  0  0
    2.3540   -2.1010    8.1190 C   0  0  0  0  0  0  0  0  0  0  0  0
    2.8320   -0.9470    8.8610 C   0  0  0  0  0  0  0  0  0  0  0  0
    3.1430   -0.9750   10.0500 O   0  0  0  0  0  0  0  0  0  0  0  0
    2.8620    0.1890    8.0690 N   0  0  0  0  0  0  0  0  0  0  0  0
    2.2880    0.2980    6.8120 C   0  0  0  0  0  0  0  0  0  0  0  0
    2.3520    1.5400    6.2870 N   0  0  0  0  0  0  0  0  0  0  0  0
    1.7130   -0.7100    6.2050 N   0  0  0  0  0  0  0  0  0  0  0  0
    1.9000   -1.8870    6.8380 C   0  0  0  0  0  0  0  0  0  0  0  0
    3.3440    1.0140    8.3990 H   0  0  0  0  0  0  0  0  0  0  0  0
    2.1480    1.7040    5.2900 H   0  0  0  0  0  0  0  0  0  0  0  0
    3.2840    2.0020    6.4070 H   0  0  0  0  0  0  0  0  0  0  0  0
    3.7480   -1.6960    2.2010 O   0  0  0  0  0  0  0  0  0  0  0  0
    4.6990   -1.8370    2.0270 H   0  0  0  0  0  0  0  0  0  0  0  0
    5.3910   -3.8190    3.9320 C   0  0  0  0  0  2  0  0  0  0  0  0
    5.7330   -4.2590    5.2320 O   0  0  0  0  0  0  0  0  0  0  0  0
    6.3870   -3.0330    6.1110 P   0  0  1  0  0  0  0  0  0  0  0  0
    7.5930   -2.5940    5.2860 O   0  0  0  0  0  0  0  0  0  0  0  0
    5.2840   -1.9980    6.2900 O   0  0  0  0  0  1  0  0  0  0  0  0
    6.8390   -3.7100    7.4850 O   0  0  0  0  0  0  0  0  0  0  0  0
    6.7230   -3.2730    9.0320 P   0  0  1  0  0  0  0  0  0  0  0  0
    5.2630   -3.0470    9.4100 O   0  0  0  0  0  0  0  0  0  0  0  0
    7.4960   -4.3050    9.8530 O   0  0  0  0  0  1  0  0  0  0  0  0
    7.5580   -1.8670    9.0570 O   0  0  0  0  0  0  0  0  0  0  0  0
    6.7310   -0.3550    8.9010 P   0  0  0  0  0  0  0  0  0  0  0  0
    7.6240    0.1770   10.0660 O   0  0  0  0  0  1  0  0  0  0  0  0
    7.3280   -0.2590    7.4640 O   0  0  0  0  0  0  0  0  0  0  0  0
    5.9030    1.1560    8.7440 O   0  0  0  0  0  1  0  0  0  0  0  0
  2  1  1  1  0  0  0
  2  7  1  0  0  0  0
  3  2  1  0  0  0  0
  4 22  1  6  0  0  0
  4  5  1  0  0  0  0
  4  2  1  0  0  0  0
  5 24  1  1  0  0  0
  5  6  1  0  0  0  0
  6  7  1  0  0  0  0
  7  8  1  1  0  0  0
  8 18  1  0  0  0  0
  8  9  1  0  0  0  0
  9 10  1  0  0  0  0
 11 10  1  0  0  0  0
 11 12  1  0  0  0  0
 12 13  2  0  0  0  0
 14 19  1  0  0  0  0
 14 12  1  0  0  0  0
 15 14  1  0  0  0  0
 16 21  1  0  0  0  0
 16 15  1  0  0  0  0
 17 15  2  0  0  0  0
 17 18  1  0  0  0  0
 18 11  2  0  0  0  0
 20 16  1  0  0  0  0
 23 22  1  0  0  0  0
 24 25  1  0  0  0  0
 25 26  1  0  0  0  0
 26 27  2  6  0  0  0
 26 28  1  0  0  0  0
 26 29  1  0  0  0  0
 29 30  1  0  0  0  0
 30 33  1  0  0  0  0
 30 31  2  1  0  0  0
 30 32  1  0  0  0  0
 34 33  1  0  0  0  0
 34 35  1  0  0  0  0
 36 34  2  0  0  0  0
 37 34  1  0  0  0  0
M  END
>  <minimizedAffinity>
5.90710115

$$$$
