REMARK  Name = 
REMARK  8 active torsions:
REMARK  status: ('A' for Active; 'I' for Inactive)
REMARK    1  A    between atoms: C_2  and  C_3
REMARK    2  A    between atoms: C_3  and  C_4
REMARK    3  A    between atoms: C_7  and  C_8
REMARK    4  A    between atoms: N_14  and  CA_15
REMARK    5  A    between atoms: CA_15  and  C_31
REMARK    6  A    between atoms: C_16  and  C_17
REMARK    7  A    between atoms: C_20  and  O_21
REMARK    8  A    between atoms: O_21  and  C_22
REMARK                            x       y       z     vdW  Elec       q    Type
REMARK                         _______ _______ _______ _____ _____    ______ ____
ROOT
ATOM      1  CA  UNL     1       2.138   1.131   2.097  0.00  0.00    +0.057 C 
ATOM      2  C   UNL     1       2.797   1.891   2.995  0.00  0.00    +0.033 C 
ENDROOT
BRANCH   2   3
ATOM      3  C   UNL     1       4.231   2.185   2.970  0.00  0.00    -0.023 A 
ATOM      4  C   UNL     1       5.071   1.631   3.940  0.00  0.00    +0.011 A 
ATOM      5  C   UNL     1       6.442   1.897   3.914  0.00  0.00    +0.047 A 
ATOM      6  C   UNL     1       6.978   2.708   2.912  0.00  0.00    +0.129 A 
ATOM      7  C   UNL     1       6.140   3.285   1.954  0.00  0.00    +0.047 A 
ATOM      8  C   UNL     1       4.770   3.018   1.982  0.00  0.00    +0.011 A 
BRANCH   6   9
ATOM      9  O   UNL     1       8.333   2.947   2.974  0.00  0.00    -0.455 OA
BRANCH   9  10
ATOM     10  C   UNL     1       9.017   2.987   1.780  0.00  0.00    +0.142 A 
ATOM     11  C   UNL     1       9.026   1.871   0.934  0.00  0.00    +0.047 A 
ATOM     12  C   UNL     1       9.756   1.904  -0.255  0.00  0.00    +0.004 A 
ATOM     13  C   UNL     1      10.485   3.044  -0.595  0.00  0.00    +0.001 A 
ATOM     14  C   UNL     1      10.496   4.149   0.258  0.00  0.00    +0.019 A 
ATOM     15  C   UNL     1       9.771   4.117   1.451  0.00  0.00    +0.060 A 
ATOM     16 BR   UNL     1       9.826   5.637   2.583  0.00  0.00    -0.046 Br
ENDBRANCH   9  10
ENDBRANCH   6   9
ENDBRANCH   2   3
BRANCH   1  19
ATOM     17  O   UNL     1       1.051  -0.631  -0.010  0.00  0.00    -0.275 OA
ATOM     18  C   UNL     1       2.217  -0.258   0.054  0.00  0.00    +0.222 C 
ATOM     19  N   UNL     1       2.793   0.520   1.041  0.00  0.00    -0.284 N 
ATOM     20  H   UNL     1       3.787   0.690   0.981  0.00  0.00    +0.155 HD
BRANCH  18  21
ATOM     21  C   UNL     1       3.225  -0.721  -0.989  0.00  0.00    +0.131 C 
BRANCH  21  22
ATOM     22  C   UNL     1       4.086   0.381  -1.572  0.00  0.00    -0.039 A 
ATOM     23  C   UNL     1       5.477   0.230  -1.639  0.00  0.00    +0.004 A 
ATOM     24  C   UNL     1       6.274   1.243  -2.177  0.00  0.00    +0.012 A 
ATOM     25  C   UNL     1       5.697   2.428  -2.657  0.00  0.00    +0.055 A 
ATOM     26  C   UNL     1       4.303   2.570  -2.604  0.00  0.00    +0.012 A 
ATOM     27  C   UNL     1       3.506   1.555  -2.071  0.00  0.00    +0.004 A 
BRANCH  25  28
ATOM     28  C   UNL     1       6.549   3.518  -3.254  0.00  0.00    +0.417 C 
ATOM     29  F   UNL     1       7.876   3.394  -2.964  0.00  0.00    -0.166 F 
ATOM     30  F   UNL     1       6.475   3.548  -4.615  0.00  0.00    -0.166 F 
ATOM     31  F   UNL     1       6.196   4.765  -2.835  0.00  0.00    -0.166 F 
ENDBRANCH  25  28
ENDBRANCH  21  22
ENDBRANCH  18  21
ENDBRANCH   1  19
BRANCH   1  32
ATOM     32  C   UNL     1       0.601   1.051   2.362  0.00  0.00    +0.086 C 
ATOM     33  O   UNL     1      -0.083   1.920   1.743  0.00  0.00    -0.543 OA
ATOM     34  OXT UNL     1       0.263   0.236   3.271  0.00  0.00    -0.543 OA
ENDBRANCH   1  32
TORSDOF 8
