
 OpenBabel09132204463D

 34 36  0  0  0  0  0  0  0  0999 V2000
   10.6070    0.0680   -1.3400 C   0  0  0  0  0  0  0  0  0  0  0  0
   10.6340   -1.2010   -0.8860 C   0  0  0  0  0  2  0  0  0  0  0  0
   10.2000   -1.6390    0.4420 C   0  0  0  0  0  0  0  0  0  0  0  0
   10.8480   -2.7080    1.0670 C   0  0  0  0  0  3  0  0  0  0  0  0
   10.4480   -3.1220    2.3400 C   0  0  0  0  0  3  0  0  0  0  0  0
    9.4070   -2.4610    2.9950 C   0  0  0  0  0  0  0  0  0  0  0  0
    8.7390   -1.4080    2.3650 C   0  0  0  0  0  3  0  0  0  0  0  0
    9.1400   -0.9960    1.0930 C   0  0  0  0  0  3  0  0  0  0  0  0
    9.0520   -2.9490    4.2330 O   0  0  0  0  0  0  0  0  0  0  0  0
    9.3580   -2.1690    5.3250 C   0  0  0  0  0  0  0  0  0  0  0  0
   10.6120   -1.5550    5.4240 C   0  0  0  0  0  3  0  0  0  0  0  0
   10.9300   -0.7990    6.5540 C   0  0  0  0  0  3  0  0  0  0  0  0
   10.0030   -0.6650    7.5870 C   0  0  0  0  0  3  0  0  0  0  0  0
    8.7600   -1.2950    7.5000 C   0  0  0  0  0  3  0  0  0  0  0  0
    8.4410   -2.0560    6.3740 C   0  0  0  0  0  0  0  0  0  0  0  0
    6.7460   -2.9030    6.3060 Br  0  0  0  0  0  0  0  0  0  0  0  0
   12.1060    2.4060   -0.3310 O   0  0  0  0  0  0  0  0  0  0  0  0
   10.9090    2.2110   -0.1460 C   0  0  0  0  0  0  0  0  0  0  0  0
   10.1690    1.1150   -0.5460 N   0  0  0  0  0  4  0  0  0  0  0  0
    9.2000    1.0760   -0.2600 H   0  0  0  0  0  0  0  0  0  0  0  0
   10.0930    3.2020    0.6720 C   0  0  0  0  0  2  0  0  0  0  0  0
   10.3720    3.1780    2.1610 C   0  0  0  0  0  0  0  0  0  0  0  0
   10.1580    2.0080    2.9010 C   0  0  0  0  0  3  0  0  0  0  0  0
   10.4160    1.9820    4.2740 C   0  0  0  0  0  3  0  0  0  0  0  0
   10.8910    3.1240    4.9350 C   0  0  0  0  0  0  0  0  0  0  0  0
   11.1190    4.2890    4.1890 C   0  0  0  0  0  3  0  0  0  0  0  0
   10.8670    4.3140    2.8160 C   0  0  0  0  0  3  0  0  0  0  0  0
   11.1870    3.0980    6.4120 C   0  0  0  0  0  0  0  0  0  0  0  0
   12.2480    2.3070    6.7420 F   0  0  0  0  0  0  0  0  0  0  0  0
   11.4870    4.3340    6.9030 F   0  0  0  0  0  0  0  0  0  0  0  0
   10.1430    2.6440    7.1600 F   0  0  0  0  0  0  0  0  0  0  0  0
   11.0820    0.2080   -2.8210 C   0  0  0  0  0  0  0  0  0  0  0  0
   10.5780   -0.6410   -3.6150 O   0  0  0  0  0  0  0  0  0  0  0  0
   12.0180    1.0440   -2.9990 O   0  0  0  0  0  1  0  0  0  0  0  0
  1  2  1  0  0  0  0
  1 19  2  0  0  0  0
  2  3  1  0  0  0  0
  3  4  2  0  0  0  0
  3  8  1  0  0  0  0
  4  5  1  0  0  0  0
  5  6  2  0  0  0  0
  6  9  1  0  0  0  0
  7  6  1  0  0  0  0
  8  7  2  0  0  0  0
  9 10  1  0  0  0  0
 10 11  2  0  0  0  0
 10 15  1  0  0  0  0
 11 12  1  0  0  0  0
 12 13  2  0  0  0  0
 14 13  1  0  0  0  0
 15 14  2  0  0  0  0
 16 15  1  0  0  0  0
 17 18  2  0  0  0  0
 18 21  1  0  0  0  0
 19 20  1  0  0  0  0
 19 18  1  0  0  0  0
 21 22  1  0  0  0  0
 22 27  2  0  0  0  0
 22 23  1  0  0  0  0
 23 24  2  0  0  0  0
 24 25  1  0  0  0  0
 25 28  1  0  0  0  0
 26 25  2  0  0  0  0
 27 26  1  0  0  0  0
 28 29  1  0  0  0  0
 28 30  1  0  0  0  0
 28 31  1  0  0  0  0
 32  1  1  0  0  0  0
 33 32  2  0  0  0  0
 34 32  1  0  0  0  0
M  END
>  <minimizedAffinity>
-6.96754408

$$$$
