
 OpenBabel09132204463D

 34 36  0  0  0  0  0  0  0  0999 V2000
   10.2120   -0.6480    5.6380 C   0  0  0  0  0  0  0  0  0  0  0  0
   10.8510    0.4200    6.1570 C   0  0  0  0  0  2  0  0  0  0  0  0
   10.9310    1.7450    5.5400 C   0  0  0  0  0  0  0  0  0  0  0  0
    9.8520    2.6280    5.6470 C   0  0  0  0  0  3  0  0  0  0  0  0
    9.9270    3.8980    5.0720 C   0  0  0  0  0  3  0  0  0  0  0  0
   11.0840    4.2940    4.3980 C   0  0  0  0  0  0  0  0  0  0  0  0
   12.1560    3.4080    4.2660 C   0  0  0  0  0  3  0  0  0  0  0  0
   12.0790    2.1380    4.8420 C   0  0  0  0  0  3  0  0  0  0  0  0
   11.0670    5.5500    3.8330 O   0  0  0  0  0  0  0  0  0  0  0  0
   11.3210    5.6320    2.4830 C   0  0  0  0  0  0  0  0  0  0  0  0
   10.5480    4.8990    1.5730 C   0  0  0  0  0  3  0  0  0  0  0  0
   10.8370    4.9550    0.2090 C   0  0  0  0  0  3  0  0  0  0  0  0
   11.9030    5.7310   -0.2470 C   0  0  0  0  0  3  0  0  0  0  0  0
   12.6890    6.4450    0.6600 C   0  0  0  0  0  3  0  0  0  0  0  0
   12.4050    6.3870    2.0260 C   0  0  0  0  0  0  0  0  0  0  0  0
   13.5080    7.3620    3.2200 Br  0  0  0  0  0  0  0  0  0  0  0  0
   10.3340   -2.5260    3.3610 O   0  0  0  0  0  0  0  0  0  0  0  0
    9.6270   -1.5260    3.4030 C   0  0  0  0  0  0  0  0  0  0  0  0
    9.5670   -0.5860    4.4140 N   0  0  0  0  0  4  0  0  0  0  0  0
    8.9730    0.2190    4.2690 H   0  0  0  0  0  0  0  0  0  0  0  0
    8.7420   -1.1670    2.2160 C   0  0  0  0  0  2  0  0  0  0  0  0
    9.4890   -0.9100    0.9230 C   0  0  0  0  0  0  0  0  0  0  0  0
    9.7300    0.4020    0.4950 C   0  0  0  0  0  3  0  0  0  0  0  0
   10.4190    0.6430   -0.6950 C   0  0  0  0  0  3  0  0  0  0  0  0
   10.8790   -0.4230   -1.4830 C   0  0  0  0  0  0  0  0  0  0  0  0
   10.6510   -1.7350   -1.0450 C   0  0  0  0  0  3  0  0  0  0  0  0
    9.9660   -1.9750    0.1480 C   0  0  0  0  0  3  0  0  0  0  0  0
   11.6380   -0.1700   -2.7610 C   0  0  0  0  0  0  0  0  0  0  0  0
   12.7710   -0.9200   -2.8790 F   0  0  0  0  0  0  0  0  0  0  0  0
   10.8960   -0.4530   -3.8690 F   0  0  0  0  0  0  0  0  0  0  0  0
   12.0370    1.1250   -2.9010 F   0  0  0  0  0  0  0  0  0  0  0  0
   10.2580   -1.9070    6.5610 C   0  0  0  0  0  0  0  0  0  0  0  0
   11.2990   -2.6160    6.4270 O   0  0  0  0  0  0  0  0  0  0  0  0
    9.1880   -2.1320    7.2010 O   0  0  0  0  0  1  0  0  0  0  0  0
  1  2  1  0  0  0  0
  1 32  1  0  0  0  0
  3  4  1  0  0  0  0
  3  2  1  0  0  0  0
  5  4  2  0  0  0  0
  6  5  1  0  0  0  0
  7  6  2  0  0  0  0
  7  8  1  0  0  0  0
  8  3  2  0  0  0  0
  9  6  1  0  0  0  0
 10  9  1  0  0  0  0
 11 10  2  0  0  0  0
 12 11  1  0  0  0  0
 13 12  2  0  0  0  0
 13 14  1  0  0  0  0
 14 15  2  0  0  0  0
 15 10  1  0  0  0  0
 15 16  1  0  0  0  0
 17 18  2  0  0  0  0
 18 19  1  0  0  0  0
 19  1  2  0  0  0  0
 20 19  1  0  0  0  0
 21 18  1  0  0  0  0
 22 21  1  0  0  0  0
 23 22  1  0  0  0  0
 24 23  2  0  0  0  0
 25 26  2  0  0  0  0
 25 24  1  0  0  0  0
 26 27  1  0  0  0  0
 27 22  2  0  0  0  0
 28 25  1  0  0  0  0
 29 28  1  0  0  0  0
 30 28  1  0  0  0  0
 31 28  1  0  0  0  0
 32 34  1  0  0  0  0
 33 32  2  0  0  0  0
M  END
>  <minimizedAffinity>
-6.93021393

$$$$
