
 OpenBabel09132204463D

 34 36  0  0  0  0  0  0  0  0999 V2000
    9.5050   -1.4850    4.8780 C   0  0  0  0  0  0  0  0  0  0  0  0
    9.0030   -2.1260    3.8030 C   0  0  0  0  0  2  0  0  0  0  0  0
    9.3780   -1.8740    2.4100 C   0  0  0  0  0  0  0  0  0  0  0  0
    9.9420   -2.8990    1.6460 C   0  0  0  0  0  3  0  0  0  0  0  0
   10.2900   -2.6680    0.3130 C   0  0  0  0  0  3  0  0  0  0  0  0
   10.0650   -1.4160   -0.2620 C   0  0  0  0  0  0  0  0  0  0  0  0
    9.5260   -0.3790    0.5050 C   0  0  0  0  0  3  0  0  0  0  0  0
    9.1790   -0.6120    1.8370 C   0  0  0  0  0  3  0  0  0  0  0  0
   10.4640   -1.2600   -1.5710 O   0  0  0  0  0  0  0  0  0  0  0  0
   11.8170   -1.2940   -1.8210 C   0  0  0  0  0  0  0  0  0  0  0  0
   12.4890   -2.5200   -1.9000 C   0  0  0  0  0  3  0  0  0  0  0  0
   13.8680   -2.5470   -2.1130 C   0  0  0  0  0  3  0  0  0  0  0  0
   14.5790   -1.3520   -2.2360 C   0  0  0  0  0  3  0  0  0  0  0  0
   13.9140   -0.1280   -2.1340 C   0  0  0  0  0  3  0  0  0  0  0  0
   12.5350   -0.0990   -1.9160 C   0  0  0  0  0  0  0  0  0  0  0  0
   11.6790    1.5870   -1.7740 Br  0  0  0  0  0  0  0  0  0  0  0  0
    9.5120    1.2210    6.0620 O   0  0  0  0  0  0  0  0  0  0  0  0
   10.4140    0.7600    5.3720 C   0  0  0  0  0  0  0  0  0  0  0  0
   10.4430   -0.4740    4.7490 N   0  0  0  0  0  4  0  0  0  0  0  0
   11.2370   -0.6820    4.1600 H   0  0  0  0  0  0  0  0  0  0  0  0
   11.6400    1.6050    5.0530 C   0  0  0  0  0  2  0  0  0  0  0  0
   11.5090    2.4720    3.8180 C   0  0  0  0  0  0  0  0  0  0  0  0
   12.5550    3.3220    3.4370 C   0  0  0  0  0  3  0  0  0  0  0  0
   12.4390    4.1220    2.2980 C   0  0  0  0  0  3  0  0  0  0  0  0
   11.2730    4.0910    1.5180 C   0  0  0  0  0  0  0  0  0  0  0  0
   10.2330    3.2280    1.8920 C   0  0  0  0  0  3  0  0  0  0  0  0
   10.3520    2.4240    3.0280 C   0  0  0  0  0  3  0  0  0  0  0  0
   11.1470    4.9390    0.2790 C   0  0  0  0  0  0  0  0  0  0  0  0
    9.9960    4.7180   -0.4180 F   0  0  0  0  0  0  0  0  0  0  0  0
   11.1520    6.2730    0.5600 F   0  0  0  0  0  0  0  0  0  0  0  0
   12.1590    4.7430   -0.6110 F   0  0  0  0  0  0  0  0  0  0  0  0
    8.9470   -2.0190    6.2350 C   0  0  0  0  0  0  0  0  0  0  0  0
    7.6820   -2.0170    6.3180 O   0  0  0  0  0  0  0  0  0  0  0  0
    9.8270   -2.2350    7.1200 O   0  0  0  0  0  1  0  0  0  0  0  0
  1 32  1  0  0  0  0
  2  1  1  0  0  0  0
  3  2  1  0  0  0  0
  4  3  2  0  0  0  0
  5  4  1  0  0  0  0
  6  5  2  0  0  0  0
  6  7  1  0  0  0  0
  7  8  2  0  0  0  0
  8  3  1  0  0  0  0
  9  6  1  0  0  0  0
 10  9  1  0  0  0  0
 11 10  1  0  0  0  0
 12 11  2  0  0  0  0
 13 14  2  0  0  0  0
 13 12  1  0  0  0  0
 14 15  1  0  0  0  0
 15 10  2  0  0  0  0
 15 16  1  0  0  0  0
 18 17  2  0  0  0  0
 19  1  2  0  0  0  0
 19 18  1  0  0  0  0
 20 19  1  0  0  0  0
 21 18  1  0  0  0  0
 22 21  1  0  0  0  0
 23 22  1  0  0  0  0
 24 23  2  0  0  0  0
 25 26  2  0  0  0  0
 25 24  1  0  0  0  0
 26 27  1  0  0  0  0
 27 22  2  0  0  0  0
 28 30  1  0  0  0  0
 28 25  1  0  0  0  0
 29 28  1  0  0  0  0
 31 28  1  0  0  0  0
 32 33  2  0  0  0  0
 32 34  1  0  0  0  0
M  END
>  <minimizedAffinity>
-7.63676405

$$$$
