
 OpenBabel09122223283D

 34 36  0  0  0  0  0  0  0  0999 V2000
    9.8840   -0.5500    5.2180 C   0  0  0  0  0  0  0  0  0  0  0  0
    9.3790   -1.5210    4.4300 C   0  0  0  0  0  2  0  0  0  0  0  0
    9.6020   -1.6480    2.9890 C   0  0  0  0  0  0  0  0  0  0  0  0
    9.1380   -0.6540    2.1230 C   0  0  0  0  0  3  0  0  0  0  0  0
    9.3590   -0.7630    0.7490 C   0  0  0  0  0  3  0  0  0  0  0  0
   10.0550   -1.8600    0.2370 C   0  0  0  0  0  0  0  0  0  0  0  0
   10.5000   -2.8690    1.0950 C   0  0  0  0  0  3  0  0  0  0  0  0
   10.2780   -2.7580    2.4690 C   0  0  0  0  0  3  0  0  0  0  0  0
   10.2050   -1.9090   -1.1310 O   0  0  0  0  0  0  0  0  0  0  0  0
   11.4910   -1.9560   -1.6190 C   0  0  0  0  0  0  0  0  0  0  0  0
   12.1600   -3.1810   -1.7300 C   0  0  0  0  0  3  0  0  0  0  0  0
   13.4790   -3.2160   -2.1860 C   0  0  0  0  0  3  0  0  0  0  0  0
   14.1330   -2.0300   -2.5200 C   0  0  0  0  0  3  0  0  0  0  0  0
   13.4760   -0.8060   -2.3880 C   0  0  0  0  0  3  0  0  0  0  0  0
   12.1590   -0.7670   -1.9270 C   0  0  0  0  0  0  0  0  0  0  0  0
   11.3120    0.9200   -1.7520 Br  0  0  0  0  0  0  0  0  0  0  0  0
    9.5770    2.3760    5.4880 O   0  0  0  0  0  0  0  0  0  0  0  0
   10.5060    1.8230    4.9090 C   0  0  0  0  0  0  0  0  0  0  0  0
   10.6740    0.4650    4.7060 N   0  0  0  0  0  4  0  0  0  0  0  0
   11.4660    0.1710    4.1520 H   0  0  0  0  0  0  0  0  0  0  0  0
   11.5960    2.6530    4.2460 C   0  0  0  0  0  2  0  0  0  0  0  0
   11.1110    3.5710    3.1420 C   0  0  0  0  0  0  0  0  0  0  0  0
   10.7360    3.0450    1.8990 C   0  0  0  0  0  3  0  0  0  0  0  0
   10.2870    3.8880    0.8800 C   0  0  0  0  0  3  0  0  0  0  0  0
   10.2050    5.2740    1.0820 C   0  0  0  0  0  0  0  0  0  0  0  0
   10.5650    5.7960    2.3320 C   0  0  0  0  0  3  0  0  0  0  0  0
   11.0090    4.9530    3.3530 C   0  0  0  0  0  3  0  0  0  0  0  0
    9.7060    6.1870   -0.0080 C   0  0  0  0  0  0  0  0  0  0  0  0
    9.1210    7.3270    0.4610 F   0  0  0  0  0  0  0  0  0  0  0  0
   10.7070    6.6050   -0.8340 F   0  0  0  0  0  0  0  0  0  0  0  0
    8.7780    5.6020   -0.8150 F   0  0  0  0  0  0  0  0  0  0  0  0
    9.5120   -0.7180    6.7260 C   0  0  0  0  0  0  0  0  0  0  0  0
    8.3120   -0.4240    7.0050 O   0  0  0  0  0  0  0  0  0  0  0  0
   10.4920   -0.9750    7.4860 O   0  0  0  0  0  1  0  0  0  0  0  0
  1 32  1  0  0  0  0
  2  1  1  0  0  0  0
  3  2  1  0  0  0  0
  4  3  2  0  0  0  0
  5  4  1  0  0  0  0
  6  5  2  0  0  0  0
  6  7  1  0  0  0  0
  7  8  2  0  0  0  0
  8  3  1  0  0  0  0
  9  6  1  0  0  0  0
 10  9  1  0  0  0  0
 11 10  1  0  0  0  0
 12 11  2  0  0  0  0
 13 14  2  0  0  0  0
 13 12  1  0  0  0  0
 14 15  1  0  0  0  0
 15 16  1  0  0  0  0
 15 10  2  0  0  0  0
 18 17  2  0  0  0  0
 19 18  1  0  0  0  0
 19  1  2  0  0  0  0
 20 19  1  0  0  0  0
 21 18  1  0  0  0  0
 22 27  1  0  0  0  0
 22 21  1  0  0  0  0
 23 22  2  0  0  0  0
 24 25  2  0  0  0  0
 24 23  1  0  0  0  0
 25 26  1  0  0  0  0
 26 27  2  0  0  0  0
 28 29  1  0  0  0  0
 28 25  1  0  0  0  0
 30 28  1  0  0  0  0
 31 28  1  0  0  0  0
 32 33  2  0  0  0  0
 32 34  1  0  0  0  0
M  END
>  <minimizedAffinity>
-8.2190218

$$$$

 OpenBabel09122223283D

 34 36  0  0  0  0  0  0  0  0999 V2000
   10.0320   -1.3110    5.5270 C   0  0  0  0  0  0  0  0  0  0  0  0
    9.5140   -2.1700    4.6260 C   0  0  0  0  0  2  0  0  0  0  0  0
    9.6730   -2.0760    3.1740 C   0  0  0  0  0  0  0  0  0  0  0  0
   10.5260   -2.9610    2.5090 C   0  0  0  0  0  3  0  0  0  0  0  0
   10.6720   -2.8860    1.1220 C   0  0  0  0  0  3  0  0  0  0  0  0
    9.9560   -1.9320    0.3950 C   0  0  0  0  0  0  0  0  0  0  0  0
    9.1210   -1.0280    1.0560 C   0  0  0  0  0  3  0  0  0  0  0  0
    8.9770   -1.1060    2.4430 C   0  0  0  0  0  3  0  0  0  0  0  0
   10.1780   -1.9020   -0.9640 O   0  0  0  0  0  0  0  0  0  0  0  0
   11.0910   -0.9820   -1.4290 C   0  0  0  0  0  0  0  0  0  0  0  0
   10.7690    0.3800   -1.4570 C   0  0  0  0  0  3  0  0  0  0  0  0
   11.6830    1.3020   -1.9690 C   0  0  0  0  0  3  0  0  0  0  0  0
   12.9130    0.8650   -2.4610 C   0  0  0  0  0  3  0  0  0  0  0  0
   13.2280   -0.4950   -2.4550 C   0  0  0  0  0  3  0  0  0  0  0  0
   12.3120   -1.4200   -1.9490 C   0  0  0  0  0  0  0  0  0  0  0  0
   12.7790   -3.2580   -1.9730 Br  0  0  0  0  0  0  0  0  0  0  0  0
    9.5100    1.5560    6.0110 O   0  0  0  0  0  0  0  0  0  0  0  0
   10.5000    1.1140    5.4390 C   0  0  0  0  0  0  0  0  0  0  0  0
   10.7720   -0.2070    5.1380 N   0  0  0  0  0  4  0  0  0  0  0  0
   11.6080   -0.4020    4.6050 H   0  0  0  0  0  0  0  0  0  0  0  0
   11.5590    2.0670    4.9010 C   0  0  0  0  0  2  0  0  0  0  0  0
   11.1200    2.8980    3.7120 C   0  0  0  0  0  0  0  0  0  0  0  0
   10.5220    2.2840    2.6050 C   0  0  0  0  0  3  0  0  0  0  0  0
   10.1140    3.0470    1.5070 C   0  0  0  0  0  3  0  0  0  0  0  0
   10.2990    4.4370    1.4950 C   0  0  0  0  0  0  0  0  0  0  0  0
   10.8840    5.0510    2.6120 C   0  0  0  0  0  3  0  0  0  0  0  0
   11.2860    4.2890    3.7110 C   0  0  0  0  0  3  0  0  0  0  0  0
    9.8470    5.2680    0.3220 C   0  0  0  0  0  0  0  0  0  0  0  0
    9.2290    6.4300    0.6820 F   0  0  0  0  0  0  0  0  0  0  0  0
   10.8840    5.6410   -0.4810 F   0  0  0  0  0  0  0  0  0  0  0  0
    8.9660    4.6180   -0.4880 F   0  0  0  0  0  0  0  0  0  0  0  0
    9.7360   -1.7120    7.0070 C   0  0  0  0  0  0  0  0  0  0  0  0
    8.5280   -1.5610    7.3590 O   0  0  0  0  0  0  0  0  0  0  0  0
   10.7630   -1.9850    7.6970 O   0  0  0  0  0  1  0  0  0  0  0  0
  1 32  1  0  0  0  0
  2  1  1  0  0  0  0
  3  2  1  0  0  0  0
  4  3  1  0  0  0  0
  5  4  2  0  0  0  0
  6  7  2  0  0  0  0
  6  5  1  0  0  0  0
  7  8  1  0  0  0  0
  8  3  2  0  0  0  0
  9  6  1  0  0  0  0
 10  9  1  0  0  0  0
 11 10  1  0  0  0  0
 12 11  2  0  0  0  0
 13 14  2  0  0  0  0
 13 12  1  0  0  0  0
 14 15  1  0  0  0  0
 15 10  2  0  0  0  0
 16 15  1  0  0  0  0
 18 17  2  0  0  0  0
 19 18  1  0  0  0  0
 19  1  2  0  0  0  0
 20 19  1  0  0  0  0
 21 18  1  0  0  0  0
 22 21  1  0  0  0  0
 23 22  2  0  0  0  0
 24 23  1  0  0  0  0
 25 24  2  0  0  0  0
 25 26  1  0  0  0  0
 26 27  2  0  0  0  0
 27 22  1  0  0  0  0
 28 29  1  0  0  0  0
 28 25  1  0  0  0  0
 30 28  1  0  0  0  0
 31 28  1  0  0  0  0
 32 33  2  0  0  0  0
 32 34  1  0  0  0  0
M  END
>  <minimizedAffinity>
-8.10412407

$$$$

 OpenBabel09122223283D

 34 36  0  0  0  0  0  0  0  0999 V2000
    9.5050   -1.4850    4.8780 C   0  0  0  0  0  0  0  0  0  0  0  0
    9.0030   -2.1260    3.8030 C   0  0  0  0  0  2  0  0  0  0  0  0
    9.3780   -1.8740    2.4100 C   0  0  0  0  0  0  0  0  0  0  0  0
    9.9420   -2.8990    1.6460 C   0  0  0  0  0  3  0  0  0  0  0  0
   10.2900   -2.6680    0.3130 C   0  0  0  0  0  3  0  0  0  0  0  0
   10.0650   -1.4160   -0.2620 C   0  0  0  0  0  0  0  0  0  0  0  0
    9.5260   -0.3790    0.5050 C   0  0  0  0  0  3  0  0  0  0  0  0
    9.1790   -0.6120    1.8370 C   0  0  0  0  0  3  0  0  0  0  0  0
   10.4640   -1.2600   -1.5710 O   0  0  0  0  0  0  0  0  0  0  0  0
   11.8170   -1.2940   -1.8210 C   0  0  0  0  0  0  0  0  0  0  0  0
   12.4890   -2.5200   -1.9000 C   0  0  0  0  0  3  0  0  0  0  0  0
   13.8680   -2.5470   -2.1130 C   0  0  0  0  0  3  0  0  0  0  0  0
   14.5790   -1.3520   -2.2360 C   0  0  0  0  0  3  0  0  0  0  0  0
   13.9140   -0.1280   -2.1340 C   0  0  0  0  0  3  0  0  0  0  0  0
   12.5350   -0.0990   -1.9160 C   0  0  0  0  0  0  0  0  0  0  0  0
   11.6790    1.5870   -1.7740 Br  0  0  0  0  0  0  0  0  0  0  0  0
    9.5120    1.2210    6.0620 O   0  0  0  0  0  0  0  0  0  0  0  0
   10.4140    0.7600    5.3720 C   0  0  0  0  0  0  0  0  0  0  0  0
   10.4430   -0.4740    4.7490 N   0  0  0  0  0  4  0  0  0  0  0  0
   11.2370   -0.6820    4.1600 H   0  0  0  0  0  0  0  0  0  0  0  0
   11.6400    1.6050    5.0530 C   0  0  0  0  0  2  0  0  0  0  0  0
   11.5090    2.4720    3.8180 C   0  0  0  0  0  0  0  0  0  0  0  0
   12.5550    3.3220    3.4370 C   0  0  0  0  0  3  0  0  0  0  0  0
   12.4390    4.1220    2.2980 C   0  0  0  0  0  3  0  0  0  0  0  0
   11.2730    4.0910    1.5180 C   0  0  0  0  0  0  0  0  0  0  0  0
   10.2330    3.2280    1.8920 C   0  0  0  0  0  3  0  0  0  0  0  0
   10.3520    2.4240    3.0280 C   0  0  0  0  0  3  0  0  0  0  0  0
   11.1470    4.9390    0.2790 C   0  0  0  0  0  0  0  0  0  0  0  0
    9.9960    4.7180   -0.4180 F   0  0  0  0  0  0  0  0  0  0  0  0
   11.1520    6.2730    0.5600 F   0  0  0  0  0  0  0  0  0  0  0  0
   12.1590    4.7430   -0.6110 F   0  0  0  0  0  0  0  0  0  0  0  0
    8.9470   -2.0190    6.2350 C   0  0  0  0  0  0  0  0  0  0  0  0
    7.6820   -2.0170    6.3180 O   0  0  0  0  0  0  0  0  0  0  0  0
    9.8270   -2.2350    7.1200 O   0  0  0  0  0  1  0  0  0  0  0  0
  1 32  1  0  0  0  0
  2  1  1  0  0  0  0
  3  2  1  0  0  0  0
  4  3  2  0  0  0  0
  5  4  1  0  0  0  0
  6  5  2  0  0  0  0
  6  7  1  0  0  0  0
  7  8  2  0  0  0  0
  8  3  1  0  0  0  0
  9  6  1  0  0  0  0
 10  9  1  0  0  0  0
 11 10  1  0  0  0  0
 12 11  2  0  0  0  0
 13 14  2  0  0  0  0
 13 12  1  0  0  0  0
 14 15  1  0  0  0  0
 15 10  2  0  0  0  0
 15 16  1  0  0  0  0
 18 17  2  0  0  0  0
 19  1  2  0  0  0  0
 19 18  1  0  0  0  0
 20 19  1  0  0  0  0
 21 18  1  0  0  0  0
 22 21  1  0  0  0  0
 23 22  1  0  0  0  0
 24 23  2  0  0  0  0
 25 26  2  0  0  0  0
 25 24  1  0  0  0  0
 26 27  1  0  0  0  0
 27 22  2  0  0  0  0
 28 30  1  0  0  0  0
 28 25  1  0  0  0  0
 29 28  1  0  0  0  0
 31 28  1  0  0  0  0
 32 33  2  0  0  0  0
 32 34  1  0  0  0  0
M  END
>  <minimizedAffinity>
-7.63676405

$$$$

 OpenBabel09122223283D

 34 36  0  0  0  0  0  0  0  0999 V2000
    9.8030   -0.4950    5.5220 C   0  0  0  0  0  0  0  0  0  0  0  0
   10.5700    0.6020    5.6890 C   0  0  0  0  0  2  0  0  0  0  0  0
   10.9310    1.5540    4.6380 C   0  0  0  0  0  0  0  0  0  0  0  0
   12.1310    2.2660    4.7280 C   0  0  0  0  0  3  0  0  0  0  0  0
   12.4880    3.1660    3.7220 C   0  0  0  0  0  3  0  0  0  0  0  0
   11.6530    3.3490    2.6180 C   0  0  0  0  0  0  0  0  0  0  0  0
   10.4400    2.6590    2.5350 C   0  0  0  0  0  3  0  0  0  0  0  0
   10.0850    1.7600    3.5420 C   0  0  0  0  0  3  0  0  0  0  0  0
   12.0610    4.2770    1.6860 O   0  0  0  0  0  0  0  0  0  0  0  0
   11.1280    5.2010    1.2720 C   0  0  0  0  0  0  0  0  0  0  0  0
   10.2820    4.9150    0.1930 C   0  0  0  0  0  3  0  0  0  0  0  0
    9.3670    5.8730   -0.2480 C   0  0  0  0  0  3  0  0  0  0  0  0
    9.3030    7.1180    0.3790 C   0  0  0  0  0  3  0  0  0  0  0  0
   10.1610    7.4130    1.4400 C   0  0  0  0  0  3  0  0  0  0  0  0
   11.0810    6.4590    1.8800 C   0  0  0  0  0  0  0  0  0  0  0  0
   12.2340    6.9090    3.3160 Br  0  0  0  0  0  0  0  0  0  0  0  0
   10.6430   -2.6490    3.6830 O   0  0  0  0  0  0  0  0  0  0  0  0
    9.6950   -1.8960    3.4890 C   0  0  0  0  0  0  0  0  0  0  0  0
    9.2880   -0.8410    4.2840 N   0  0  0  0  0  4  0  0  0  0  0  0
    8.5210   -0.2740    3.9520 H   0  0  0  0  0  0  0  0  0  0  0  0
    8.8680   -2.0220    2.2160 C   0  0  0  0  0  2  0  0  0  0  0  0
    9.5990   -1.6420    0.9450 C   0  0  0  0  0  0  0  0  0  0  0  0
   10.2490   -2.6220    0.1840 C   0  0  0  0  0  3  0  0  0  0  0  0
   10.9230   -2.2760   -0.9900 C   0  0  0  0  0  3  0  0  0  0  0  0
   10.9620   -0.9430   -1.4250 C   0  0  0  0  0  0  0  0  0  0  0  0
   10.2970    0.0340   -0.6710 C   0  0  0  0  0  3  0  0  0  0  0  0
    9.6190   -0.3130    0.4990 C   0  0  0  0  0  3  0  0  0  0  0  0
   11.6730   -0.5650   -2.6990 C   0  0  0  0  0  0  0  0  0  0  0  0
   12.6100   -1.4750   -3.0920 F   0  0  0  0  0  0  0  0  0  0  0  0
   10.8180   -0.4430   -3.7540 F   0  0  0  0  0  0  0  0  0  0  0  0
   12.3290    0.6250   -2.6140 F   0  0  0  0  0  0  0  0  0  0  0  0
    9.5490   -1.2820    6.8470 C   0  0  0  0  0  0  0  0  0  0  0  0
    8.5570   -0.8700    7.5190 O   0  0  0  0  0  1  0  0  0  0  0  0
   10.4530   -2.1180    7.1470 O   0  0  0  0  0  0  0  0  0  0  0  0
  1  2  1  0  0  0  0
  1 32  1  0  0  0  0
  3  4  1  0  0  0  0
  3  2  1  0  0  0  0
  5  4  2  0  0  0  0
  6  5  1  0  0  0  0
  7  6  2  0  0  0  0
  7  8  1  0  0  0  0
  8  3  2  0  0  0  0
  9  6  1  0  0  0  0
 10  9  1  0  0  0  0
 10 15  1  0  0  0  0
 11 10  2  0  0  0  0
 12 11  1  0  0  0  0
 12 13  2  0  0  0  0
 13 14  1  0  0  0  0
 14 15  2  0  0  0  0
 15 16  1  0  0  0  0
 18 17  2  0  0  0  0
 18 19  1  0  0  0  0
 19  1  2  0  0  0  0
 20 19  1  0  0  0  0
 21 18  1  0  0  0  0
 22 21  1  0  0  0  0
 23 22  2  0  0  0  0
 24 23  1  0  0  0  0
 25 24  2  0  0  0  0
 25 26  1  0  0  0  0
 26 27  2  0  0  0  0
 27 22  1  0  0  0  0
 28 31  1  0  0  0  0
 28 25  1  0  0  0  0
 29 28  1  0  0  0  0
 30 28  1  0  0  0  0
 32 34  2  0  0  0  0
 32 33  1  0  0  0  0
M  END
>  <minimizedAffinity>
-7.25542116

$$$$

 OpenBabel09122223283D

 34 36  0  0  0  0  0  0  0  0999 V2000
   10.8510    0.8120   -1.2770 C   0  0  0  0  0  0  0  0  0  0  0  0
   11.5370    1.9730   -1.2640 C   0  0  0  0  0  2  0  0  0  0  0  0
   11.4830    2.9800   -0.2040 C   0  0  0  0  0  0  0  0  0  0  0  0
   10.3520    3.7920   -0.0740 C   0  0  0  0  0  3  0  0  0  0  0  0
   10.2880    4.7460    0.9440 C   0  0  0  0  0  3  0  0  0  0  0  0
   11.3490    4.8840    1.8410 C   0  0  0  0  0  0  0  0  0  0  0  0
   12.4930    4.0930    1.7010 C   0  0  0  0  0  3  0  0  0  0  0  0
   12.5550    3.1400    0.6830 C   0  0  0  0  0  3  0  0  0  0  0  0
   11.2230    5.8680    2.7960 O   0  0  0  0  0  0  0  0  0  0  0  0
   11.4030    5.4940    4.1090 C   0  0  0  0  0  0  0  0  0  0  0  0
   10.3940    4.8030    4.7910 C   0  0  0  0  0  3  0  0  0  0  0  0
   10.5680    4.4630    6.1330 C   0  0  0  0  0  3  0  0  0  0  0  0
   11.7410    4.8220    6.7980 C   0  0  0  0  0  3  0  0  0  0  0  0
   12.7380    5.5310    6.1260 C   0  0  0  0  0  3  0  0  0  0  0  0
   12.5650    5.8770    4.7850 C   0  0  0  0  0  0  0  0  0  0  0  0
   13.9420    6.8500    3.9180 Br  0  0  0  0  0  0  0  0  0  0  0  0
   10.4360   -1.8080    0.0230 O   0  0  0  0  0  0  0  0  0  0  0  0
    9.8690   -0.7700    0.3480 C   0  0  0  0  0  0  0  0  0  0  0  0
    9.9830    0.4690   -0.2550 N   0  0  0  0  0  4  0  0  0  0  0  0
    9.3980    1.2140    0.0960 H   0  0  0  0  0  0  0  0  0  0  0  0
    8.8540   -0.7780    1.4830 C   0  0  0  0  0  2  0  0  0  0  0  0
    9.4120   -0.3880    2.8360 C   0  0  0  0  0  0  0  0  0  0  0  0
    9.8310    0.9270    3.0750 C   0  0  0  0  0  3  0  0  0  0  0  0
   10.3450    1.2910    4.3220 C   0  0  0  0  0  3  0  0  0  0  0  0
   10.4530    0.3470    5.3540 C   0  0  0  0  0  0  0  0  0  0  0  0
   10.0180   -0.9650    5.1170 C   0  0  0  0  0  3  0  0  0  0  0  0
    9.4990   -1.3270    3.8730 C   0  0  0  0  0  3  0  0  0  0  0  0
   10.9910    0.7360    6.7060 C   0  0  0  0  0  0  0  0  0  0  0  0
   10.1180    1.4750    7.4490 F   0  0  0  0  0  0  0  0  0  0  0  0
   11.2970   -0.3480    7.4750 F   0  0  0  0  0  0  0  0  0  0  0  0
   12.1330    1.4760    6.6370 F   0  0  0  0  0  0  0  0  0  0  0  0
   11.1650   -0.0800   -2.5200 C   0  0  0  0  0  0  0  0  0  0  0  0
   10.1430   -0.5870   -3.0720 O   0  0  0  0  0  0  0  0  0  0  0  0
   12.3970   -0.2990   -2.7160 O   0  0  0  0  0  1  0  0  0  0  0  0
  1  2  1  0  0  0  0
  1 19  2  0  0  0  0
  2  3  1  0  0  0  0
  3  4  2  0  0  0  0
  3  8  1  0  0  0  0
  4  5  1  0  0  0  0
  5  6  2  0  0  0  0
  6  9  1  0  0  0  0
  7  6  1  0  0  0  0
  8  7  2  0  0  0  0
  9 10  1  0  0  0  0
 10 15  2  0  0  0  0
 10 11  1  0  0  0  0
 11 12  2  0  0  0  0
 12 13  1  0  0  0  0
 14 13  2  0  0  0  0
 15 14  1  0  0  0  0
 16 15  1  0  0  0  0
 17 18  2  0  0  0  0
 18 21  1  0  0  0  0
 19 20  1  0  0  0  0
 19 18  1  0  0  0  0
 21 22  1  0  0  0  0
 22 23  2  0  0  0  0
 22 27  1  0  0  0  0
 23 24  1  0  0  0  0
 24 25  2  0  0  0  0
 25 28  1  0  0  0  0
 26 25  1  0  0  0  0
 27 26  2  0  0  0  0
 28 29  1  0  0  0  0
 28 30  1  0  0  0  0
 31 28  1  0  0  0  0
 32  1  1  0  0  0  0
 33 32  2  0  0  0  0
 34 32  1  0  0  0  0
M  END
>  <minimizedAffinity>
-7.07952881

$$$$

 OpenBabel09122223283D

 34 36  0  0  0  0  0  0  0  0999 V2000
   10.9700    3.4790    3.4970 C   0  0  0  0  0  0  0  0  0  0  0  0
   10.6950    3.6090    2.1840 C   0  0  0  0  0  2  0  0  0  0  0  0
   10.5230    2.5040    1.2390 C   0  0  0  0  0  0  0  0  0  0  0  0
   11.1340    2.5610   -0.0170 C   0  0  0  0  0  3  0  0  0  0  0  0
   10.9850    1.5050   -0.9180 C   0  0  0  0  0  3  0  0  0  0  0  0
   10.2330    0.3830   -0.5620 C   0  0  0  0  0  0  0  0  0  0  0  0
    9.5990    0.3300    0.6820 C   0  0  0  0  0  3  0  0  0  0  0  0
    9.7500    1.3880    1.5810 C   0  0  0  0  0  3  0  0  0  0  0  0
   10.1080   -0.6010   -1.5170 O   0  0  0  0  0  0  0  0  0  0  0  0
   11.1990   -1.4160   -1.7230 C   0  0  0  0  0  0  0  0  0  0  0  0
   12.2560   -0.9880   -2.5360 C   0  0  0  0  0  3  0  0  0  0  0  0
   13.3390   -1.8350   -2.7750 C   0  0  0  0  0  3  0  0  0  0  0  0
   13.3630   -3.1120   -2.2120 C   0  0  0  0  0  3  0  0  0  0  0  0
   12.3000   -3.5490   -1.4200 C   0  0  0  0  0  3  0  0  0  0  0  0
   11.2120   -2.7050   -1.1840 C   0  0  0  0  0  0  0  0  0  0  0  0
    9.7870   -3.3470   -0.1120 Br  0  0  0  0  0  0  0  0  0  0  0  0
    9.5940    2.3130    5.8360 O   0  0  0  0  0  0  0  0  0  0  0  0
   10.4280    1.7280    5.1550 C   0  0  0  0  0  0  0  0  0  0  0  0
   11.1410    2.2380    4.0860 N   0  0  0  0  0  4  0  0  0  0  0  0
   11.8420    1.6430    3.6660 H   0  0  0  0  0  0  0  0  0  0  0  0
   10.8380    0.3040    5.5060 C   0  0  0  0  0  2  0  0  0  0  0  0
    9.6830   -0.6400    5.7740 C   0  0  0  0  0  0  0  0  0  0  0  0
    9.3290   -1.6100    4.8270 C   0  0  0  0  0  3  0  0  0  0  0  0
    8.2670   -2.4830    5.0710 C   0  0  0  0  0  3  0  0  0  0  0  0
    7.5350   -2.4030    6.2660 C   0  0  0  0  0  0  0  0  0  0  0  0
    7.9020   -1.4420    7.2190 C   0  0  0  0  0  3  0  0  0  0  0  0
    8.9670   -0.5730    6.9770 C   0  0  0  0  0  3  0  0  0  0  0  0
    6.3980   -3.3520    6.5430 C   0  0  0  0  0  0  0  0  0  0  0  0
    6.0340   -4.0980    5.4610 F   0  0  0  0  0  0  0  0  0  0  0  0
    6.7010   -4.2530    7.5210 F   0  0  0  0  0  0  0  0  0  0  0  0
    5.2630   -2.7230    6.9550 F   0  0  0  0  0  0  0  0  0  0  0  0
   11.0380    4.8440    4.2530 C   0  0  0  0  0  0  0  0  0  0  0  0
   11.9520    4.9130    5.1290 O   0  0  0  0  0  1  0  0  0  0  0  0
   10.0820    5.6360    4.0010 O   0  0  0  0  0  0  0  0  0  0  0  0
  1 19  2  0  0  0  0
  1 32  1  0  0  0  0
  2  1  1  0  0  0  0
  3  8  1  0  0  0  0
  3  2  1  0  0  0  0
  4  3  2  0  0  0  0
  5  6  2  0  0  0  0
  5  4  1  0  0  0  0
  6  7  1  0  0  0  0
  7  8  2  0  0  0  0
  9  6  1  0  0  0  0
 10  9  1  0  0  0  0
 10 15  1  0  0  0  0
 11 10  2  0  0  0  0
 12 11  1  0  0  0  0
 12 13  2  0  0  0  0
 13 14  1  0  0  0  0
 14 15  2  0  0  0  0
 15 16  1  0  0  0  0
 18 21  1  0  0  0  0
 18 17  2  0  0  0  0
 19 18  1  0  0  0  0
 20 19  1  0  0  0  0
 21 22  1  0  0  0  0
 22 27  1  0  0  0  0
 23 24  1  0  0  0  0
 23 22  2  0  0  0  0
 24 25  2  0  0  0  0
 25 28  1  0  0  0  0
 25 26  1  0  0  0  0
 27 26  2  0  0  0  0
 28 31  1  0  0  0  0
 28 30  1  0  0  0  0
 29 28  1  0  0  0  0
 32 33  1  0  0  0  0
 34 32  2  0  0  0  0
M  END
>  <minimizedAffinity>
-7.07257175

$$$$

 OpenBabel09122223283D

 34 36  0  0  0  0  0  0  0  0999 V2000
   10.6070    0.0680   -1.3400 C   0  0  0  0  0  0  0  0  0  0  0  0
   10.6340   -1.2010   -0.8860 C   0  0  0  0  0  2  0  0  0  0  0  0
   10.2000   -1.6390    0.4420 C   0  0  0  0  0  0  0  0  0  0  0  0
   10.8480   -2.7080    1.0670 C   0  0  0  0  0  3  0  0  0  0  0  0
   10.4480   -3.1220    2.3400 C   0  0  0  0  0  3  0  0  0  0  0  0
    9.4070   -2.4610    2.9950 C   0  0  0  0  0  0  0  0  0  0  0  0
    8.7390   -1.4080    2.3650 C   0  0  0  0  0  3  0  0  0  0  0  0
    9.1400   -0.9960    1.0930 C   0  0  0  0  0  3  0  0  0  0  0  0
    9.0520   -2.9490    4.2330 O   0  0  0  0  0  0  0  0  0  0  0  0
    9.3580   -2.1690    5.3250 C   0  0  0  0  0  0  0  0  0  0  0  0
   10.6120   -1.5550    5.4240 C   0  0  0  0  0  3  0  0  0  0  0  0
   10.9300   -0.7990    6.5540 C   0  0  0  0  0  3  0  0  0  0  0  0
   10.0030   -0.6650    7.5870 C   0  0  0  0  0  3  0  0  0  0  0  0
    8.7600   -1.2950    7.5000 C   0  0  0  0  0  3  0  0  0  0  0  0
    8.4410   -2.0560    6.3740 C   0  0  0  0  0  0  0  0  0  0  0  0
    6.7460   -2.9030    6.3060 Br  0  0  0  0  0  0  0  0  0  0  0  0
   12.1060    2.4060   -0.3310 O   0  0  0  0  0  0  0  0  0  0  0  0
   10.9090    2.2110   -0.1460 C   0  0  0  0  0  0  0  0  0  0  0  0
   10.1690    1.1150   -0.5460 N   0  0  0  0  0  4  0  0  0  0  0  0
    9.2000    1.0760   -0.2600 H   0  0  0  0  0  0  0  0  0  0  0  0
   10.0930    3.2020    0.6720 C   0  0  0  0  0  2  0  0  0  0  0  0
   10.3720    3.1780    2.1610 C   0  0  0  0  0  0  0  0  0  0  0  0
   10.1580    2.0080    2.9010 C   0  0  0  0  0  3  0  0  0  0  0  0
   10.4160    1.9820    4.2740 C   0  0  0  0  0  3  0  0  0  0  0  0
   10.8910    3.1240    4.9350 C   0  0  0  0  0  0  0  0  0  0  0  0
   11.1190    4.2890    4.1890 C   0  0  0  0  0  3  0  0  0  0  0  0
   10.8670    4.3140    2.8160 C   0  0  0  0  0  3  0  0  0  0  0  0
   11.1870    3.0980    6.4120 C   0  0  0  0  0  0  0  0  0  0  0  0
   12.2480    2.3070    6.7420 F   0  0  0  0  0  0  0  0  0  0  0  0
   11.4870    4.3340    6.9030 F   0  0  0  0  0  0  0  0  0  0  0  0
   10.1430    2.6440    7.1600 F   0  0  0  0  0  0  0  0  0  0  0  0
   11.0820    0.2080   -2.8210 C   0  0  0  0  0  0  0  0  0  0  0  0
   10.5780   -0.6410   -3.6150 O   0  0  0  0  0  0  0  0  0  0  0  0
   12.0180    1.0440   -2.9990 O   0  0  0  0  0  1  0  0  0  0  0  0
  1  2  1  0  0  0  0
  1 19  2  0  0  0  0
  2  3  1  0  0  0  0
  3  4  2  0  0  0  0
  3  8  1  0  0  0  0
  4  5  1  0  0  0  0
  5  6  2  0  0  0  0
  6  9  1  0  0  0  0
  7  6  1  0  0  0  0
  8  7  2  0  0  0  0
  9 10  1  0  0  0  0
 10 11  2  0  0  0  0
 10 15  1  0  0  0  0
 11 12  1  0  0  0  0
 12 13  2  0  0  0  0
 14 13  1  0  0  0  0
 15 14  2  0  0  0  0
 16 15  1  0  0  0  0
 17 18  2  0  0  0  0
 18 21  1  0  0  0  0
 19 20  1  0  0  0  0
 19 18  1  0  0  0  0
 21 22  1  0  0  0  0
 22 27  2  0  0  0  0
 22 23  1  0  0  0  0
 23 24  2  0  0  0  0
 24 25  1  0  0  0  0
 25 28  1  0  0  0  0
 26 25  2  0  0  0  0
 27 26  1  0  0  0  0
 28 29  1  0  0  0  0
 28 30  1  0  0  0  0
 28 31  1  0  0  0  0
 32  1  1  0  0  0  0
 33 32  2  0  0  0  0
 34 32  1  0  0  0  0
M  END
>  <minimizedAffinity>
-6.96754408

$$$$

 OpenBabel09122223283D

 34 36  0  0  0  0  0  0  0  0999 V2000
   12.1780    5.3180    0.8670 C   0  0  0  0  0  0  0  0  0  0  0  0
   12.4770    5.2810    2.1810 C   0  0  0  0  0  2  0  0  0  0  0  0
   11.9560    4.3080    3.1440 C   0  0  0  0  0  0  0  0  0  0  0  0
   10.6290    4.3980    3.5740 C   0  0  0  0  0  3  0  0  0  0  0  0
   10.1230    3.4660    4.4820 C   0  0  0  0  0  3  0  0  0  0  0  0
   10.9380    2.4350    4.9530 C   0  0  0  0  0  0  0  0  0  0  0  0
   12.2720    2.3540    4.5460 C   0  0  0  0  0  3  0  0  0  0  0  0
   12.7770    3.2870    3.6390 C   0  0  0  0  0  3  0  0  0  0  0  0
   10.3730    1.5750    5.8690 O   0  0  0  0  0  0  0  0  0  0  0  0
   10.3430    0.2390    5.5380 C   0  0  0  0  0  0  0  0  0  0  0  0
    9.7420   -0.1790    4.3440 C   0  0  0  0  0  3  0  0  0  0  0  0
    9.6790   -1.5390    4.0350 C   0  0  0  0  0  3  0  0  0  0  0  0
   10.2030   -2.4810    4.9210 C   0  0  0  0  0  3  0  0  0  0  0  0
   10.7820   -2.0680    6.1220 C   0  0  0  0  0  3  0  0  0  0  0  0
   10.8420   -0.7090    6.4360 C   0  0  0  0  0  0  0  0  0  0  0  0
   11.6270   -0.1960    8.0850 Br  0  0  0  0  0  0  0  0  0  0  0  0
   12.7300    2.6750   -0.3300 O   0  0  0  0  0  0  0  0  0  0  0  0
   11.6140    3.1650   -0.2070 C   0  0  0  0  0  0  0  0  0  0  0  0
   11.2990    4.4140    0.2940 N   0  0  0  0  0  4  0  0  0  0  0  0
   10.3290    4.6960    0.2720 H   0  0  0  0  0  0  0  0  0  0  0  0
   10.3900    2.4100   -0.7070 C   0  0  0  0  0  2  0  0  0  0  0  0
   10.5360    0.9020   -0.7220 C   0  0  0  0  0  0  0  0  0  0  0  0
    9.8670    0.1180    0.2270 C   0  0  0  0  0  3  0  0  0  0  0  0
    9.9990   -1.2720    0.2160 C   0  0  0  0  0  3  0  0  0  0  0  0
   10.8030   -1.9070   -0.7420 C   0  0  0  0  0  0  0  0  0  0  0  0
   11.4590   -1.1210   -1.7010 C   0  0  0  0  0  3  0  0  0  0  0  0
   11.3230    0.2680   -1.6930 C   0  0  0  0  0  3  0  0  0  0  0  0
   10.9370   -3.4080   -0.7700 C   0  0  0  0  0  0  0  0  0  0  0  0
   11.5620   -3.8790   -1.8870 F   0  0  0  0  0  0  0  0  0  0  0  0
   11.6610   -3.8840    0.2820 F   0  0  0  0  0  0  0  0  0  0  0  0
    9.7390   -4.0540   -0.7200 F   0  0  0  0  0  0  0  0  0  0  0  0
   12.9370    6.4410    0.0900 C   0  0  0  0  0  0  0  0  0  0  0  0
   13.8710    6.0210   -0.6560 O   0  0  0  0  0  0  0  0  0  0  0  0
   12.6230    7.6210    0.4260 O   0  0  0  0  0  1  0  0  0  0  0  0
  1  2  1  0  0  0  0
  2  3  1  0  0  0  0
  3  4  2  0  0  0  0
  3  8  1  0  0  0  0
  4  5  1  0  0  0  0
  5  6  2  0  0  0  0
  6  9  1  0  0  0  0
  7  6  1  0  0  0  0
  8  7  2  0  0  0  0
 10  9  1  0  0  0  0
 10 15  1  0  0  0  0
 11 10  2  0  0  0  0
 12 11  1  0  0  0  0
 12 13  2  0  0  0  0
 13 14  1  0  0  0  0
 14 15  2  0  0  0  0
 15 16  1  0  0  0  0
 17 18  2  0  0  0  0
 18 19  1  0  0  0  0
 19  1  2  3  0  0  0
 20 19  1  0  0  0  0
 21 18  1  0  0  0  0
 22 21  1  0  0  0  0
 22 23  1  0  0  0  0
 24 23  2  0  0  0  0
 25 24  1  0  0  0  0
 26 27  1  0  0  0  0
 26 25  2  0  0  0  0
 27 22  2  0  0  0  0
 28 25  1  0  0  0  0
 28 31  1  0  0  0  0
 28 30  1  0  0  0  0
 29 28  1  0  0  0  0
 32 34  1  0  0  0  0
 32  1  1  0  0  0  0
 33 32  2  0  0  0  0
M  END
>  <minimizedAffinity>
-6.93830585

$$$$

 OpenBabel09122223283D

 34 36  0  0  0  0  0  0  0  0999 V2000
   10.2120   -0.6480    5.6380 C   0  0  0  0  0  0  0  0  0  0  0  0
   10.8510    0.4200    6.1570 C   0  0  0  0  0  2  0  0  0  0  0  0
   10.9310    1.7450    5.5400 C   0  0  0  0  0  0  0  0  0  0  0  0
    9.8520    2.6280    5.6470 C   0  0  0  0  0  3  0  0  0  0  0  0
    9.9270    3.8980    5.0720 C   0  0  0  0  0  3  0  0  0  0  0  0
   11.0840    4.2940    4.3980 C   0  0  0  0  0  0  0  0  0  0  0  0
   12.1560    3.4080    4.2660 C   0  0  0  0  0  3  0  0  0  0  0  0
   12.0790    2.1380    4.8420 C   0  0  0  0  0  3  0  0  0  0  0  0
   11.0670    5.5500    3.8330 O   0  0  0  0  0  0  0  0  0  0  0  0
   11.3210    5.6320    2.4830 C   0  0  0  0  0  0  0  0  0  0  0  0
   10.5480    4.8990    1.5730 C   0  0  0  0  0  3  0  0  0  0  0  0
   10.8370    4.9550    0.2090 C   0  0  0  0  0  3  0  0  0  0  0  0
   11.9030    5.7310   -0.2470 C   0  0  0  0  0  3  0  0  0  0  0  0
   12.6890    6.4450    0.6600 C   0  0  0  0  0  3  0  0  0  0  0  0
   12.4050    6.3870    2.0260 C   0  0  0  0  0  0  0  0  0  0  0  0
   13.5080    7.3620    3.2200 Br  0  0  0  0  0  0  0  0  0  0  0  0
   10.3340   -2.5260    3.3610 O   0  0  0  0  0  0  0  0  0  0  0  0
    9.6270   -1.5260    3.4030 C   0  0  0  0  0  0  0  0  0  0  0  0
    9.5670   -0.5860    4.4140 N   0  0  0  0  0  4  0  0  0  0  0  0
    8.9730    0.2190    4.2690 H   0  0  0  0  0  0  0  0  0  0  0  0
    8.7420   -1.1670    2.2160 C   0  0  0  0  0  2  0  0  0  0  0  0
    9.4890   -0.9100    0.9230 C   0  0  0  0  0  0  0  0  0  0  0  0
    9.7300    0.4020    0.4950 C   0  0  0  0  0  3  0  0  0  0  0  0
   10.4190    0.6430   -0.6950 C   0  0  0  0  0  3  0  0  0  0  0  0
   10.8790   -0.4230   -1.4830 C   0  0  0  0  0  0  0  0  0  0  0  0
   10.6510   -1.7350   -1.0450 C   0  0  0  0  0  3  0  0  0  0  0  0
    9.9660   -1.9750    0.1480 C   0  0  0  0  0  3  0  0  0  0  0  0
   11.6380   -0.1700   -2.7610 C   0  0  0  0  0  0  0  0  0  0  0  0
   12.7710   -0.9200   -2.8790 F   0  0  0  0  0  0  0  0  0  0  0  0
   10.8960   -0.4530   -3.8690 F   0  0  0  0  0  0  0  0  0  0  0  0
   12.0370    1.1250   -2.9010 F   0  0  0  0  0  0  0  0  0  0  0  0
   10.2580   -1.9070    6.5610 C   0  0  0  0  0  0  0  0  0  0  0  0
   11.2990   -2.6160    6.4270 O   0  0  0  0  0  0  0  0  0  0  0  0
    9.1880   -2.1320    7.2010 O   0  0  0  0  0  1  0  0  0  0  0  0
  1  2  1  0  0  0  0
  1 32  1  0  0  0  0
  3  4  1  0  0  0  0
  3  2  1  0  0  0  0
  5  4  2  0  0  0  0
  6  5  1  0  0  0  0
  7  6  2  0  0  0  0
  7  8  1  0  0  0  0
  8  3  2  0  0  0  0
  9  6  1  0  0  0  0
 10  9  1  0  0  0  0
 11 10  2  0  0  0  0
 12 11  1  0  0  0  0
 13 12  2  0  0  0  0
 13 14  1  0  0  0  0
 14 15  2  0  0  0  0
 15 10  1  0  0  0  0
 15 16  1  0  0  0  0
 17 18  2  0  0  0  0
 18 19  1  0  0  0  0
 19  1  2  0  0  0  0
 20 19  1  0  0  0  0
 21 18  1  0  0  0  0
 22 21  1  0  0  0  0
 23 22  1  0  0  0  0
 24 23  2  0  0  0  0
 25 26  2  0  0  0  0
 25 24  1  0  0  0  0
 26 27  1  0  0  0  0
 27 22  2  0  0  0  0
 28 25  1  0  0  0  0
 29 28  1  0  0  0  0
 30 28  1  0  0  0  0
 31 28  1  0  0  0  0
 32 34  1  0  0  0  0
 33 32  2  0  0  0  0
M  END
>  <minimizedAffinity>
-6.93021393

$$$$

 OpenBabel09122223283D

 34 36  0  0  0  0  0  0  0  0999 V2000
   10.1110    0.0010    5.7650 C   0  0  0  0  0  0  0  0  0  0  0  0
    9.5680   -0.4250    6.9240 C   0  0  0  0  0  2  0  0  0  0  0  0
    8.3110   -1.1630    7.0530 C   0  0  0  0  0  0  0  0  0  0  0  0
    7.1680   -0.5110    7.5260 C   0  0  0  0  0  3  0  0  0  0  0  0
    5.9620   -1.2060    7.6400 C   0  0  0  0  0  3  0  0  0  0  0  0
    5.8920   -2.5510    7.2700 C   0  0  0  0  0  0  0  0  0  0  0  0
    7.0370   -3.2140    6.8200 C   0  0  0  0  0  3  0  0  0  0  0  0
    8.2410   -2.5180    6.7080 C   0  0  0  0  0  3  0  0  0  0  0  0
    4.6750   -3.1730    7.4410 O   0  0  0  0  0  0  0  0  0  0  0  0
    3.6270   -2.7200    6.6710 C   0  0  0  0  0  0  0  0  0  0  0  0
    2.8340   -1.6540    7.1160 C   0  0  0  0  0  3  0  0  0  0  0  0
    1.7480   -1.2280    6.3510 C   0  0  0  0  0  3  0  0  0  0  0  0
    1.4460   -1.8700    5.1490 C   0  0  0  0  0  3  0  0  0  0  0  0
    2.2210   -2.9470    4.7160 C   0  0  0  0  0  3  0  0  0  0  0  0
    3.3050   -3.3790    5.4820 C   0  0  0  0  0  0  0  0  0  0  0  0
    4.3210   -4.8530    4.8580 Br  0  0  0  0  0  0  0  0  0  0  0  0
   10.5670   -2.1410    3.7830 O   0  0  0  0  0  0  0  0  0  0  0  0
    9.7120   -1.2690    3.6820 C   0  0  0  0  0  0  0  0  0  0  0  0
    9.4870   -0.2140    4.5480 N   0  0  0  0  0  4  0  0  0  0  0  0
    8.7790    0.4580    4.2900 H   0  0  0  0  0  0  0  0  0  0  0  0
    8.8050   -1.2260    2.4600 C   0  0  0  0  0  2  0  0  0  0  0  0
    9.5160   -0.9470    1.1520 C   0  0  0  0  0  0  0  0  0  0  0  0
   10.0100   -2.0040    0.3760 C   0  0  0  0  0  3  0  0  0  0  0  0
   10.6650   -1.7500   -0.8310 C   0  0  0  0  0  3  0  0  0  0  0  0
   10.8420   -0.4350   -1.2860 C   0  0  0  0  0  0  0  0  0  0  0  0
   10.3320    0.6200   -0.5160 C   0  0  0  0  0  3  0  0  0  0  0  0
    9.6730    0.3660    0.6880 C   0  0  0  0  0  3  0  0  0  0  0  0
   11.5330   -0.1550   -2.5960 C   0  0  0  0  0  0  0  0  0  0  0  0
   12.7230   -0.8070   -2.7350 F   0  0  0  0  0  0  0  0  0  0  0  0
   10.7830   -0.5330   -3.6700 F   0  0  0  0  0  0  0  0  0  0  0  0
   11.8120    1.1650   -2.7830 F   0  0  0  0  0  0  0  0  0  0  0  0
   11.4890    0.7110    5.9500 C   0  0  0  0  0  0  0  0  0  0  0  0
   11.7750    1.5450    5.0390 O   0  0  0  0  0  0  0  0  0  0  0  0
   12.2000    0.2500    6.8920 O   0  0  0  0  0  1  0  0  0  0  0  0
  1 32  1  0  0  0  0
  1  2  1  0  0  0  0
  2  3  1  0  0  0  0
  3  4  1  0  0  0  0
  4  5  2  0  0  0  0
  6  9  1  0  0  0  0
  6  5  1  0  0  0  0
  7  6  2  0  0  0  0
  8  7  1  0  0  0  0
  8  3  2  0  0  0  0
 10 11  1  0  0  0  0
 10  9  1  0  0  0  0
 12 11  2  0  0  0  0
 13 12  1  0  0  0  0
 14 13  2  0  0  0  0
 14 15  1  0  0  0  0
 15 10  2  0  0  0  0
 16 15  1  0  0  0  0
 18 17  2  0  0  0  0
 18 19  1  0  0  0  0
 19  1  2  0  0  0  0
 20 19  1  0  0  0  0
 21 18  1  0  0  0  0
 22 21  1  0  0  0  0
 23 22  2  0  0  0  0
 24 23  1  0  0  0  0
 25 24  2  0  0  0  0
 25 26  1  0  0  0  0
 26 27  2  0  0  0  0
 27 22  1  0  0  0  0
 28 25  1  0  0  0  0
 29 28  1  0  0  0  0
 30 28  1  0  0  0  0
 31 28  1  0  0  0  0
 32 34  1  0  0  0  0
 33 32  2  0  0  0  0
M  END
>  <minimizedAffinity>
-6.9136591

$$$$
