
 OpenBabel09132204463D

 34 36  0  0  0  0  0  0  0  0999 V2000
   10.9700    3.4790    3.4970 C   0  0  0  0  0  0  0  0  0  0  0  0
   10.6950    3.6090    2.1840 C   0  0  0  0  0  2  0  0  0  0  0  0
   10.5230    2.5040    1.2390 C   0  0  0  0  0  0  0  0  0  0  0  0
   11.1340    2.5610   -0.0170 C   0  0  0  0  0  3  0  0  0  0  0  0
   10.9850    1.5050   -0.9180 C   0  0  0  0  0  3  0  0  0  0  0  0
   10.2330    0.3830   -0.5620 C   0  0  0  0  0  0  0  0  0  0  0  0
    9.5990    0.3300    0.6820 C   0  0  0  0  0  3  0  0  0  0  0  0
    9.7500    1.3880    1.5810 C   0  0  0  0  0  3  0  0  0  0  0  0
   10.1080   -0.6010   -1.5170 O   0  0  0  0  0  0  0  0  0  0  0  0
   11.1990   -1.4160   -1.7230 C   0  0  0  0  0  0  0  0  0  0  0  0
   12.2560   -0.9880   -2.5360 C   0  0  0  0  0  3  0  0  0  0  0  0
   13.3390   -1.8350   -2.7750 C   0  0  0  0  0  3  0  0  0  0  0  0
   13.3630   -3.1120   -2.2120 C   0  0  0  0  0  3  0  0  0  0  0  0
   12.3000   -3.5490   -1.4200 C   0  0  0  0  0  3  0  0  0  0  0  0
   11.2120   -2.7050   -1.1840 C   0  0  0  0  0  0  0  0  0  0  0  0
    9.7870   -3.3470   -0.1120 Br  0  0  0  0  0  0  0  0  0  0  0  0
    9.5940    2.3130    5.8360 O   0  0  0  0  0  0  0  0  0  0  0  0
   10.4280    1.7280    5.1550 C   0  0  0  0  0  0  0  0  0  0  0  0
   11.1410    2.2380    4.0860 N   0  0  0  0  0  4  0  0  0  0  0  0
   11.8420    1.6430    3.6660 H   0  0  0  0  0  0  0  0  0  0  0  0
   10.8380    0.3040    5.5060 C   0  0  0  0  0  2  0  0  0  0  0  0
    9.6830   -0.6400    5.7740 C   0  0  0  0  0  0  0  0  0  0  0  0
    9.3290   -1.6100    4.8270 C   0  0  0  0  0  3  0  0  0  0  0  0
    8.2670   -2.4830    5.0710 C   0  0  0  0  0  3  0  0  0  0  0  0
    7.5350   -2.4030    6.2660 C   0  0  0  0  0  0  0  0  0  0  0  0
    7.9020   -1.4420    7.2190 C   0  0  0  0  0  3  0  0  0  0  0  0
    8.9670   -0.5730    6.9770 C   0  0  0  0  0  3  0  0  0  0  0  0
    6.3980   -3.3520    6.5430 C   0  0  0  0  0  0  0  0  0  0  0  0
    6.0340   -4.0980    5.4610 F   0  0  0  0  0  0  0  0  0  0  0  0
    6.7010   -4.2530    7.5210 F   0  0  0  0  0  0  0  0  0  0  0  0
    5.2630   -2.7230    6.9550 F   0  0  0  0  0  0  0  0  0  0  0  0
   11.0380    4.8440    4.2530 C   0  0  0  0  0  0  0  0  0  0  0  0
   11.9520    4.9130    5.1290 O   0  0  0  0  0  1  0  0  0  0  0  0
   10.0820    5.6360    4.0010 O   0  0  0  0  0  0  0  0  0  0  0  0
  1 19  2  0  0  0  0
  1 32  1  0  0  0  0
  2  1  1  0  0  0  0
  3  8  1  0  0  0  0
  3  2  1  0  0  0  0
  4  3  2  0  0  0  0
  5  6  2  0  0  0  0
  5  4  1  0  0  0  0
  6  7  1  0  0  0  0
  7  8  2  0  0  0  0
  9  6  1  0  0  0  0
 10  9  1  0  0  0  0
 10 15  1  0  0  0  0
 11 10  2  0  0  0  0
 12 11  1  0  0  0  0
 12 13  2  0  0  0  0
 13 14  1  0  0  0  0
 14 15  2  0  0  0  0
 15 16  1  0  0  0  0
 18 21  1  0  0  0  0
 18 17  2  0  0  0  0
 19 18  1  0  0  0  0
 20 19  1  0  0  0  0
 21 22  1  0  0  0  0
 22 27  1  0  0  0  0
 23 24  1  0  0  0  0
 23 22  2  0  0  0  0
 24 25  2  0  0  0  0
 25 28  1  0  0  0  0
 25 26  1  0  0  0  0
 27 26  2  0  0  0  0
 28 31  1  0  0  0  0
 28 30  1  0  0  0  0
 29 28  1  0  0  0  0
 32 33  1  0  0  0  0
 34 32  2  0  0  0  0
M  END
>  <minimizedAffinity>
-7.07257175

$$$$
