
 OpenBabel09132204463D

 34 36  0  0  0  0  0  0  0  0999 V2000
   10.8510    0.8120   -1.2770 C   0  0  0  0  0  0  0  0  0  0  0  0
   11.5370    1.9730   -1.2640 C   0  0  0  0  0  2  0  0  0  0  0  0
   11.4830    2.9800   -0.2040 C   0  0  0  0  0  0  0  0  0  0  0  0
   10.3520    3.7920   -0.0740 C   0  0  0  0  0  3  0  0  0  0  0  0
   10.2880    4.7460    0.9440 C   0  0  0  0  0  3  0  0  0  0  0  0
   11.3490    4.8840    1.8410 C   0  0  0  0  0  0  0  0  0  0  0  0
   12.4930    4.0930    1.7010 C   0  0  0  0  0  3  0  0  0  0  0  0
   12.5550    3.1400    0.6830 C   0  0  0  0  0  3  0  0  0  0  0  0
   11.2230    5.8680    2.7960 O   0  0  0  0  0  0  0  0  0  0  0  0
   11.4030    5.4940    4.1090 C   0  0  0  0  0  0  0  0  0  0  0  0
   10.3940    4.8030    4.7910 C   0  0  0  0  0  3  0  0  0  0  0  0
   10.5680    4.4630    6.1330 C   0  0  0  0  0  3  0  0  0  0  0  0
   11.7410    4.8220    6.7980 C   0  0  0  0  0  3  0  0  0  0  0  0
   12.7380    5.5310    6.1260 C   0  0  0  0  0  3  0  0  0  0  0  0
   12.5650    5.8770    4.7850 C   0  0  0  0  0  0  0  0  0  0  0  0
   13.9420    6.8500    3.9180 Br  0  0  0  0  0  0  0  0  0  0  0  0
   10.4360   -1.8080    0.0230 O   0  0  0  0  0  0  0  0  0  0  0  0
    9.8690   -0.7700    0.3480 C   0  0  0  0  0  0  0  0  0  0  0  0
    9.9830    0.4690   -0.2550 N   0  0  0  0  0  4  0  0  0  0  0  0
    9.3980    1.2140    0.0960 H   0  0  0  0  0  0  0  0  0  0  0  0
    8.8540   -0.7780    1.4830 C   0  0  0  0  0  2  0  0  0  0  0  0
    9.4120   -0.3880    2.8360 C   0  0  0  0  0  0  0  0  0  0  0  0
    9.8310    0.9270    3.0750 C   0  0  0  0  0  3  0  0  0  0  0  0
   10.3450    1.2910    4.3220 C   0  0  0  0  0  3  0  0  0  0  0  0
   10.4530    0.3470    5.3540 C   0  0  0  0  0  0  0  0  0  0  0  0
   10.0180   -0.9650    5.1170 C   0  0  0  0  0  3  0  0  0  0  0  0
    9.4990   -1.3270    3.8730 C   0  0  0  0  0  3  0  0  0  0  0  0
   10.9910    0.7360    6.7060 C   0  0  0  0  0  0  0  0  0  0  0  0
   10.1180    1.4750    7.4490 F   0  0  0  0  0  0  0  0  0  0  0  0
   11.2970   -0.3480    7.4750 F   0  0  0  0  0  0  0  0  0  0  0  0
   12.1330    1.4760    6.6370 F   0  0  0  0  0  0  0  0  0  0  0  0
   11.1650   -0.0800   -2.5200 C   0  0  0  0  0  0  0  0  0  0  0  0
   10.1430   -0.5870   -3.0720 O   0  0  0  0  0  0  0  0  0  0  0  0
   12.3970   -0.2990   -2.7160 O   0  0  0  0  0  1  0  0  0  0  0  0
  1  2  1  0  0  0  0
  1 19  2  0  0  0  0
  2  3  1  0  0  0  0
  3  4  2  0  0  0  0
  3  8  1  0  0  0  0
  4  5  1  0  0  0  0
  5  6  2  0  0  0  0
  6  9  1  0  0  0  0
  7  6  1  0  0  0  0
  8  7  2  0  0  0  0
  9 10  1  0  0  0  0
 10 15  2  0  0  0  0
 10 11  1  0  0  0  0
 11 12  2  0  0  0  0
 12 13  1  0  0  0  0
 14 13  2  0  0  0  0
 15 14  1  0  0  0  0
 16 15  1  0  0  0  0
 17 18  2  0  0  0  0
 18 21  1  0  0  0  0
 19 20  1  0  0  0  0
 19 18  1  0  0  0  0
 21 22  1  0  0  0  0
 22 23  2  0  0  0  0
 22 27  1  0  0  0  0
 23 24  1  0  0  0  0
 24 25  2  0  0  0  0
 25 28  1  0  0  0  0
 26 25  1  0  0  0  0
 27 26  2  0  0  0  0
 28 29  1  0  0  0  0
 28 30  1  0  0  0  0
 31 28  1  0  0  0  0
 32  1  1  0  0  0  0
 33 32  2  0  0  0  0
 34 32  1  0  0  0  0
M  END
>  <minimizedAffinity>
-7.07952881

$$$$
