REMARK  Name = 
REMARK  8 active torsions:
REMARK  status: ('A' for Active; 'I' for Inactive)
REMARK    1  A    between atoms: C_1  and  C_2
REMARK    2  A    between atoms: C_2  and  C_3
REMARK    3  A    between atoms: C_2  and  C_4
REMARK    4  A    between atoms: C_4  and  C_5
REMARK    5  A    between atoms: C_5  and  N_6
REMARK    6  A    between atoms: C_9  and  C_10
REMARK    7  A    between atoms: C_22  and  O_23
REMARK    8  A    between atoms: C_28  and  N_29
REMARK                            x       y       z     vdW  Elec       q    Type
REMARK                         _______ _______ _______ _____ _____    ______ ____
ROOT
ATOM      1  N   UNL     1      -2.369   2.336  -2.312  0.00  0.00    -0.302 N 
ATOM      2  C   UNL     1      -0.996   2.537  -2.348  0.00  0.00    +0.270 A 
ATOM      3  O   UNL     1      -0.249   1.997  -3.169  0.00  0.00    -0.267 OA
ATOM      4  C   UNL     1      -0.362   3.390  -1.302  0.00  0.00    +0.169 A 
ATOM      5  C   UNL     1      -1.158   4.083  -0.471  0.00  0.00    +0.146 A 
ATOM      6  C   UNL     1      -2.630   4.005  -0.552  0.00  0.00    +0.048 A 
ATOM      7  C   UNL     1      -3.439   4.699   0.377  0.00  0.00    +0.014 A 
ATOM      8  C   UNL     1      -4.827   4.710   0.272  0.00  0.00    +0.007 A 
ATOM      9  C   UNL     1      -5.430   4.054  -0.787  0.00  0.00    +0.086 A 
ATOM     10  C   UNL     1      -4.637   3.327  -1.692  0.00  0.00    +0.297 A 
ATOM     11  C   UNL     1      -3.233   3.210  -1.554  0.00  0.00    +0.133 A 
ENDROOT
BRANCH   4  12
ATOM     12  C   UNL     1       1.151   3.382  -1.225  0.00  0.00    +0.308 C 
ATOM     13  N   UNL     1       1.854   2.697  -2.093  0.00  0.00    -0.131 N 
ATOM     14  S   UNL     1       3.452   2.569  -2.143  0.00  0.00    +0.141 S 
ATOM     15  O   UNL     1       3.819   1.181  -1.945  0.00  0.00    -0.129 OA
ATOM     16  O   UNL     1       3.954   3.286  -3.298  0.00  0.00    -0.129 OA
ATOM     17  C   UNL     1       4.074   3.432  -0.739  0.00  0.00    +0.175 A 
ATOM     18  C   UNL     1       5.448   3.416  -0.475  0.00  0.00    +0.035 A 
ATOM     19  C   UNL     1       5.933   4.100   0.636  0.00  0.00    +0.002 A 
ATOM     20  C   UNL     1       5.048   4.790   1.464  0.00  0.00    +0.004 A 
ATOM     21  C   UNL     1       3.677   4.793   1.185  0.00  0.00    +0.051 A 
ATOM     22  C   UNL     1       3.174   4.106   0.077  0.00  0.00    +0.147 A 
ATOM     23  N   UNL     1       1.812   4.086  -0.194  0.00  0.00    -0.200 N 
ATOM     24  H   UNL     1       1.351   2.196  -2.819  0.00  0.00    +0.339 HD
ATOM     25  H   UNL     1       1.191   4.585   0.445  0.00  0.00    +0.298 HD
ENDBRANCH   4  12
BRANCH  10  26
ATOM     26  N   UNL     1      -5.339   2.889  -2.884  0.00  0.00    +0.082 N 
ATOM     27  O   UNL     1      -6.317   2.147  -2.722  0.00  0.00    +0.042 OA
ATOM     28  O   UNL     1      -4.921   3.308  -3.971  0.00  0.00    -0.576 OA
ENDBRANCH  10  26
BRANCH   5  29
ATOM     29  O   UNL     1      -0.609   4.953   0.462  0.00  0.00    -0.505 OA
ATOM     30  H   UNL     1      -1.172   5.748   0.514  0.00  0.00    +0.292 HD
ENDBRANCH   5  29
BRANCH   1  31
ATOM     31  C   UNL     1      -2.896   1.186  -3.067  0.00  0.00    +0.126 C 
BRANCH  31  32
ATOM     32  C   UNL     1      -2.173  -0.160  -2.840  0.00  0.00    +0.024 C 
BRANCH  32  34
ATOM     33  C   UNL     1      -3.304  -0.747  -0.630  0.00  0.00    +0.007 C 
ATOM     34  C   UNL     1      -1.978  -0.573  -1.368  0.00  0.00    -0.016 C 
ATOM     35  C   UNL     1      -1.170  -1.872  -1.301  0.00  0.00    +0.007 C 
ENDBRANCH  32  34
ENDBRANCH  31  32
ENDBRANCH   1  31
TORSDOF 6
