REMARK  Name = 
REMARK  2 active torsions:
REMARK  status: ('A' for Active; 'I' for Inactive)
REMARK    1  A    between atoms: C_2  and  C_4
REMARK    2  A    between atoms: N_12  and  C_13
REMARK                            x       y       z     vdW  Elec       q    Type
REMARK                         _______ _______ _______ _____ _____    ______ ____
ROOT
ATOM      1  C   UNL     1       3.111   0.801   0.692  0.00  0.00    -0.001 A 
ATOM      2  C   UNL     1       2.563   0.820   1.985  0.00  0.00    +0.012 A 
ATOM      3  C   UNL     1       3.168   1.510   3.044  0.00  0.00    +0.028 A 
ATOM      4  C   UNL     1       4.358   2.193   2.771  0.00  0.00    +0.069 A 
ATOM      5  C   UNL     1       4.935   2.199   1.499  0.00  0.00    +0.090 A 
ATOM      6  C   UNL     1       4.311   1.501   0.452  0.00  0.00    +0.039 A 
ATOM      7  N   UNL     1       6.096   2.939   1.488  0.00  0.00    -0.236 NA
ATOM      8  C   UNL     1       6.233   3.377   2.716  0.00  0.00    +0.200 A 
ATOM      9  N   UNL     1       5.214   2.956   3.530  0.00  0.00    -0.327 N 
ENDROOT
BRANCH   9  10
ATOM     10  C   UNL     1       5.114   3.293   4.944  0.00  0.00    +0.089 C 
ATOM     11  C   UNL     1       3.879   4.149   5.265  0.00  0.00    +0.025 C 
ATOM     12  C   UNL     1       3.829   4.521   6.746  0.00  0.00    +0.002 C 
ATOM     13  C   UNL     1       3.914   3.288   7.640  0.00  0.00    +0.000 C 
ATOM     14  C   UNL     1       5.153   2.452   7.331  0.00  0.00    +0.002 C 
ATOM     15  C   UNL     1       5.215   2.060   5.856  0.00  0.00    +0.025 C 
ENDBRANCH   9  10
BRANCH   1  17
ATOM     16  O   UNL     1       1.343  -0.564  -0.131  0.00  0.00    -0.545 OA
ATOM     17  C   UNL     1       2.423   0.041  -0.425  0.00  0.00    +0.072 C 
ATOM     18  O   UNL     1       2.972   0.063  -1.571  0.00  0.00    -0.545 OA
ENDBRANCH   1  17
TORSDOF 2
