
 OpenBabel09122222393D

 18 20  0  0  0  0  0  0  0  0999 V2000
    7.0700    0.4140    9.3870 C   0  0  0  0  0  0  0  0  0  0  0  0
    6.8940   -0.1440    8.1110 C   0  0  0  0  0  3  0  0  0  0  0  0
    5.6900   -0.7430    7.7160 C   0  0  0  0  0  3  0  0  0  0  0  0
    4.6480   -0.7690    8.6480 C   0  0  0  0  0  0  0  0  0  0  0  0
    4.7830   -0.2250    9.9280 C   0  0  0  0  0  0  0  0  0  0  0  0
    5.9980    0.3710   10.3020 C   0  0  0  0  0  3  0  0  0  0  0  0
    3.6220   -0.3750   10.6520 N   0  0  0  0  0  0  0  0  0  0  0  0
    2.7940   -0.9940    9.8460 C   0  0  0  0  0  3  0  0  0  0  0  0
    3.3620   -1.2560    8.6260 N   0  0  0  0  0  0  0  0  0  0  0  0
    2.6690   -1.9350    7.5390 C   0  0  0  0  0  3  0  0  0  0  0  0
    2.2050   -0.9710    6.4360 C   0  0  0  0  0  2  0  0  0  0  0  0
    1.4450   -1.7100    5.3350 C   0  0  0  0  0  2  0  0  0  0  0  0
    2.2580   -2.8700    4.7710 C   0  0  0  0  0  2  0  0  0  0  0  0
    2.7000   -3.8360    5.8670 C   0  0  0  0  0  2  0  0  0  0  0  0
    3.4720   -3.1180    6.9730 C   0  0  0  0  0  2  0  0  0  0  0  0
    9.3600    0.9050    8.9630 O   0  0  0  0  0  0  0  0  0  0  0  0
    8.3900    1.0520    9.7730 C   0  0  0  0  0  0  0  0  0  0  0  0
    8.4330    1.6860   10.8740 O   0  0  0  0  0  1  0  0  0  0  0  0
  1 17  1  0  0  0  0
  1  6  1  0  0  0  0
  2  1  2  0  0  0  0
  3  2  1  0  0  0  0
  3  4  2  0  0  0  0
  4  5  1  0  0  0  0
  5  6  2  0  0  0  0
  5  7  1  0  0  0  0
  8  7  2  0  0  0  0
  9  4  1  0  0  0  0
  9  8  1  0  0  0  0
 10  9  1  0  0  0  0
 11 10  1  0  0  0  0
 12 11  1  0  0  0  0
 13 12  1  0  0  0  0
 13 14  1  0  0  0  0
 14 15  1  0  0  0  0
 15 10  1  0  0  0  0
 16 17  2  0  0  0  0
 17 18  1  0  0  0  0
M  END
>  <minimizedAffinity>
-4.42555952

$$$$
