
 OpenBabel09122217383D

 18 20  0  0  0  0  0  0  0  0999 V2000
    4.8000   -3.6520    4.3500 C   0  0  0  0  0  0  0  0  0  0  0  0
    5.6230   -3.6940    5.4870 C   0  0  0  0  0  3  0  0  0  0  0  0
    5.2600   -3.0860    6.6970 C   0  0  0  0  0  3  0  0  0  0  0  0
    4.0290   -2.4220    6.7390 C   0  0  0  0  0  0  0  0  0  0  0  0
    3.1820   -2.3580    5.6310 C   0  0  0  0  0  0  0  0  0  0  0  0
    3.5660   -2.9750    4.4290 C   0  0  0  0  0  3  0  0  0  0  0  0
    2.0370   -1.6520    5.9260 N   0  0  0  0  0  0  0  0  0  0  0  0
    2.1730   -1.2910    7.1790 C   0  0  0  0  0  3  0  0  0  0  0  0
    3.3550   -1.7280    7.7160 N   0  0  0  0  0  0  0  0  0  0  0  0
    3.7660   -1.4680    9.0900 C   0  0  0  0  0  3  0  0  0  0  0  0
    4.6880   -0.2450    9.2130 C   0  0  0  0  0  2  0  0  0  0  0  0
    5.1350   -0.0290   10.6580 C   0  0  0  0  0  2  0  0  0  0  0  0
    3.9460    0.0580   11.6090 C   0  0  0  0  0  2  0  0  0  0  0  0
    3.0440   -1.1690   11.4970 C   0  0  0  0  0  2  0  0  0  0  0  0
    2.5770   -1.3960   10.0610 C   0  0  0  0  0  2  0  0  0  0  0  0
    4.3210   -4.5830    2.2120 O   0  0  0  0  0  0  0  0  0  0  0  0
    5.2320   -4.3240    3.0610 C   0  0  0  0  0  0  0  0  0  0  0  0
    6.4690   -4.5780    2.9220 O   0  0  0  0  0  1  0  0  0  0  0  0
  1  6  2  0  0  0  0
  1  2  1  0  0  0  0
  2  3  2  0  0  0  0
  3  4  1  0  0  0  0
  4  9  1  0  0  0  0
  5  7  1  0  0  0  0
  5  4  2  0  0  0  0
  6  5  1  0  0  0  0
  7  8  2  0  0  0  0
  8  9  1  0  0  0  0
  9 10  1  0  0  0  0
 10 11  1  0  0  0  0
 10 15  1  0  0  0  0
 11 12  1  0  0  0  0
 12 13  1  0  0  0  0
 14 13  1  0  0  0  0
 15 14  1  0  0  0  0
 16 17  2  0  0  0  0
 17  1  1  0  0  0  0
 18 17  1  0  0  0  0
M  END
>  <minimizedAffinity>
-5.18054342

$$$$

 OpenBabel09122217383D

 18 20  0  0  0  0  0  0  0  0999 V2000
    9.2300   -3.2680    0.9340 C   0  0  0  0  0  0  0  0  0  0  0  0
    8.2010   -4.0430    1.4930 C   0  0  0  0  0  3  0  0  0  0  0  0
    7.7950   -3.8990    2.8260 C   0  0  0  0  0  3  0  0  0  0  0  0
    8.4590   -2.9420    3.6010 C   0  0  0  0  0  0  0  0  0  0  0  0
    9.4870   -2.1510    3.0840 C   0  0  0  0  0  0  0  0  0  0  0  0
    9.8770   -2.3120    1.7440 C   0  0  0  0  0  3  0  0  0  0  0  0
    9.9760   -1.2910    4.0410 N   0  0  0  0  0  0  0  0  0  0  0  0
    9.2720   -1.5420    5.1170 C   0  0  0  0  0  3  0  0  0  0  0  0
    8.3450   -2.5290    4.9080 N   0  0  0  0  0  0  0  0  0  0  0  0
    7.4280   -3.0100    5.9330 C   0  0  0  0  0  3  0  0  0  0  0  0
    7.2300   -2.0010    7.0750 C   0  0  0  0  0  2  0  0  0  0  0  0
    6.2990   -2.5550    8.1520 C   0  0  0  0  0  2  0  0  0  0  0  0
    4.9690   -3.0170    7.5650 C   0  0  0  0  0  2  0  0  0  0  0  0
    5.1700   -4.0340    6.4450 C   0  0  0  0  0  2  0  0  0  0  0  0
    6.0900   -3.4940    5.3510 C   0  0  0  0  0  2  0  0  0  0  0  0
    9.2390   -4.5180   -1.0920 O   0  0  0  0  0  0  0  0  0  0  0  0
    9.6370   -3.4560   -0.5140 C   0  0  0  0  0  0  0  0  0  0  0  0
   10.3450   -2.5440   -1.0450 O   0  0  0  0  0  1  0  0  0  0  0  0
  1  2  2  0  0  0  0
  1  6  1  0  0  0  0
  2  3  1  0  0  0  0
  3  4  2  0  0  0  0
  4  9  1  0  0  0  0
  5  4  1  0  0  0  0
  5  7  1  0  0  0  0
  6  5  2  0  0  0  0
  7  8  2  0  0  0  0
  9  8  1  0  0  0  0
  9 10  1  0  0  0  0
 10 11  1  0  0  0  0
 11 12  1  0  0  0  0
 13 12  1  0  0  0  0
 14 13  1  0  0  0  0
 15 10  1  0  0  0  0
 15 14  1  0  0  0  0
 16 17  2  0  0  0  0
 17  1  1  0  0  0  0
 18 17  1  0  0  0  0
M  END
>  <minimizedAffinity>
-4.91321325

$$$$

 OpenBabel09122217383D

 18 20  0  0  0  0  0  0  0  0999 V2000
    2.9700   -2.7980    6.3520 C   0  0  0  0  0  0  0  0  0  0  0  0
    3.1390   -1.4180    6.5510 C   0  0  0  0  0  3  0  0  0  0  0  0
    3.7160   -0.8950    7.7150 C   0  0  0  0  0  3  0  0  0  0  0  0
    4.1270   -1.8050    8.6950 C   0  0  0  0  0  0  0  0  0  0  0  0
    3.9770   -3.1840    8.5360 C   0  0  0  0  0  0  0  0  0  0  0  0
    3.3970   -3.6870    7.3600 C   0  0  0  0  0  3  0  0  0  0  0  0
    4.4570   -3.8620    9.6340 N   0  0  0  0  0  0  0  0  0  0  0  0
    4.8900   -2.9300   10.4480 C   0  0  0  0  0  3  0  0  0  0  0  0
    4.7140   -1.6730    9.9310 N   0  0  0  0  0  0  0  0  0  0  0  0
    5.1030   -0.4500   10.6230 C   0  0  0  0  0  3  0  0  0  0  0  0
    6.3570    0.2010   10.0180 C   0  0  0  0  0  2  0  0  0  0  0  0
    6.7620    1.4540   10.7930 C   0  0  0  0  0  2  0  0  0  0  0  0
    5.6070    2.4430   10.9100 C   0  0  0  0  0  2  0  0  0  0  0  0
    4.3710    1.7970   11.5290 C   0  0  0  0  0  2  0  0  0  0  0  0
    3.9430    0.5480   10.7610 C   0  0  0  0  0  2  0  0  0  0  0  0
    2.1010   -2.4710    4.1600 O   0  0  0  0  0  0  0  0  0  0  0  0
    2.3410   -3.3220    5.0760 C   0  0  0  0  0  0  0  0  0  0  0  0
    2.0990   -4.5680    5.0120 O   0  0  0  0  0  1  0  0  0  0  0  0
  1  2  2  0  0  0  0
  1  6  1  0  0  0  0
  2  3  1  0  0  0  0
  3  4  2  0  0  0  0
  4  9  1  0  0  0  0
  5  4  1  0  0  0  0
  5  7  1  0  0  0  0
  6  5  2  0  0  0  0
  7  8  2  0  0  0  0
  9  8  1  0  0  0  0
  9 10  1  0  0  0  0
 10 15  1  0  0  0  0
 11 10  1  0  0  0  0
 11 12  1  0  0  0  0
 12 13  1  0  0  0  0
 13 14  1  0  0  0  0
 15 14  1  0  0  0  0
 16 17  2  0  0  0  0
 17  1  1  0  0  0  0
 18 17  1  0  0  0  0
M  END
>  <minimizedAffinity>
-4.70666504

$$$$

 OpenBabel09122217383D

 18 20  0  0  0  0  0  0  0  0999 V2000
    6.1210    0.5880   10.0790 C   0  0  0  0  0  0  0  0  0  0  0  0
    6.6370    0.0370    8.8950 C   0  0  0  0  0  3  0  0  0  0  0  0
    5.8460   -0.7060    8.0080 C   0  0  0  0  0  3  0  0  0  0  0  0
    4.5000   -0.8860    8.3430 C   0  0  0  0  0  0  0  0  0  0  0  0
    3.9480   -0.3540    9.5110 C   0  0  0  0  0  0  0  0  0  0  0  0
    4.7590    0.3870   10.3850 C   0  0  0  0  0  3  0  0  0  0  0  0
    2.6110   -0.6690    9.6120 N   0  0  0  0  0  0  0  0  0  0  0  0
    2.3450   -1.3750    8.5390 C   0  0  0  0  0  3  0  0  0  0  0  0
    3.4480   -1.5360    7.7420 N   0  0  0  0  0  0  0  0  0  0  0  0
    3.4400   -2.2790    6.4880 C   0  0  0  0  0  3  0  0  0  0  0  0
    3.6500   -3.7870    6.6890 C   0  0  0  0  0  2  0  0  0  0  0  0
    3.6810   -4.5280    5.3540 C   0  0  0  0  0  2  0  0  0  0  0  0
    2.4390   -4.2340    4.5170 C   0  0  0  0  0  2  0  0  0  0  0  0
    2.2460   -2.7360    4.3030 C   0  0  0  0  0  2  0  0  0  0  0  0
    2.2010   -1.9780    5.6290 C   0  0  0  0  0  2  0  0  0  0  0  0
    6.6380    2.5670   11.2960 O   0  0  0  0  0  0  0  0  0  0  0  0
    7.0120    1.3850   11.0100 C   0  0  0  0  0  0  0  0  0  0  0  0
    8.0660    0.8180   11.4380 O   0  0  0  0  0  1  0  0  0  0  0  0
  1  6  1  0  0  0  0
  1 17  1  0  0  0  0
  2  1  2  0  0  0  0
  3  4  2  0  0  0  0
  3  2  1  0  0  0  0
  4  5  1  0  0  0  0
  5  7  1  0  0  0  0
  5  6  2  0  0  0  0
  8  7  2  0  0  0  0
  9  4  1  0  0  0  0
  9  8  1  0  0  0  0
 10 11  1  0  0  0  0
 10  9  1  0  0  0  0
 12 11  1  0  0  0  0
 13 12  1  0  0  0  0
 14 13  1  0  0  0  0
 14 15  1  0  0  0  0
 15 10  1  0  0  0  0
 17 16  2  0  0  0  0
 17 18  1  0  0  0  0
M  END
>  <minimizedAffinity>
-4.69438648

$$$$

 OpenBabel09122217383D

 18 20  0  0  0  0  0  0  0  0999 V2000
    8.1590   -2.5840    5.3430 C   0  0  0  0  0  0  0  0  0  0  0  0
    6.8790   -3.1450    5.4780 C   0  0  0  0  0  3  0  0  0  0  0  0
    5.9740   -2.7180    6.4590 C   0  0  0  0  0  3  0  0  0  0  0  0
    6.3910   -1.6950    7.3180 C   0  0  0  0  0  0  0  0  0  0  0  0
    7.6560   -1.1110    7.2160 C   0  0  0  0  0  0  0  0  0  0  0  0
    8.5460   -1.5550    6.2250 C   0  0  0  0  0  3  0  0  0  0  0  0
    7.8250   -0.1330    8.1700 N   0  0  0  0  0  0  0  0  0  0  0  0
    6.6990   -0.1130    8.8420 C   0  0  0  0  0  3  0  0  0  0  0  0
    5.8020   -1.0350    8.3700 N   0  0  0  0  0  0  0  0  0  0  0  0
    4.4710   -1.2320    8.9310 C   0  0  0  0  0  3  0  0  0  0  0  0
    3.3570   -1.0770    7.8850 C   0  0  0  0  0  2  0  0  0  0  0  0
    1.9750   -1.2450    8.5140 C   0  0  0  0  0  2  0  0  0  0  0  0
    1.8590   -2.5610    9.2780 C   0  0  0  0  0  2  0  0  0  0  0  0
    2.9560   -2.7000   10.3300 C   0  0  0  0  0  2  0  0  0  0  0  0
    4.3470   -2.5460    9.7170 C   0  0  0  0  0  2  0  0  0  0  0  0
    8.5870   -3.6720    3.2700 O   0  0  0  0  0  0  0  0  0  0  0  0
    9.1060   -3.0770    4.2670 C   0  0  0  0  0  0  0  0  0  0  0  0
   10.3470   -2.8610    4.4370 O   0  0  0  0  0  1  0  0  0  0  0  0
  1  2  2  0  0  0  0
  1  6  1  0  0  0  0
  2  3  1  0  0  0  0
  3  4  2  0  0  0  0
  4  9  1  0  0  0  0
  5  4  1  0  0  0  0
  5  7  1  0  0  0  0
  6  5  2  0  0  0  0
  7  8  2  0  0  0  0
  9  8  1  0  0  0  0
  9 10  1  0  0  0  0
 10 15  1  0  0  0  0
 11 12  1  0  0  0  0
 11 10  1  0  0  0  0
 12 13  1  0  0  0  0
 13 14  1  0  0  0  0
 15 14  1  0  0  0  0
 16 17  2  0  0  0  0
 17 18  1  0  0  0  0
 17  1  1  0  0  0  0
M  END
>  <minimizedAffinity>
-4.66384315

$$$$

 OpenBabel09122217383D

 18 20  0  0  0  0  0  0  0  0999 V2000
    3.1090   -2.2790    5.8820 C   0  0  0  0  0  0  0  0  0  0  0  0
    2.5980   -1.3340    6.7870 C   0  0  0  0  0  3  0  0  0  0  0  0
    3.3630   -0.8190    7.8420 C   0  0  0  0  0  3  0  0  0  0  0  0
    4.6760   -1.2830    7.9710 C   0  0  0  0  0  0  0  0  0  0  0  0
    5.2220   -2.2220    7.0930 C   0  0  0  0  0  0  0  0  0  0  0  0
    4.4370   -2.7240    6.0420 C   0  0  0  0  0  3  0  0  0  0  0  0
    6.5240   -2.5140    7.4300 N   0  0  0  0  0  0  0  0  0  0  0  0
    6.7770   -1.7780    8.4850 C   0  0  0  0  0  3  0  0  0  0  0  0
    5.6970   -1.0180    8.8540 N   0  0  0  0  0  0  0  0  0  0  0  0
    5.6970   -0.1100    9.9930 C   0  0  0  0  0  3  0  0  0  0  0  0
    6.5950    1.1180    9.7740 C   0  0  0  0  0  2  0  0  0  0  0  0
    6.6070    2.0260   11.0030 C   0  0  0  0  0  2  0  0  0  0  0  0
    5.1950    2.4220   11.4230 C   0  0  0  0  0  2  0  0  0  0  0  0
    4.3130    1.1990   11.6590 C   0  0  0  0  0  2  0  0  0  0  0  0
    4.2790    0.2840   10.4360 C   0  0  0  0  0  2  0  0  0  0  0  0
    2.1010   -4.0720    4.6850 O   0  0  0  0  0  1  0  0  0  0  0  0
    2.2460   -2.8100    4.7550 C   0  0  0  0  0  0  0  0  0  0  0  0
    1.7310   -1.9600    3.9630 O   0  0  0  0  0  0  0  0  0  0  0  0
  1  6  2  0  0  0  0
  1  2  1  0  0  0  0
  2  3  2  0  0  0  0
  3  4  1  0  0  0  0
  4  9  1  0  0  0  0
  5  7  1  0  0  0  0
  5  4  2  0  0  0  0
  6  5  1  0  0  0  0
  7  8  2  0  0  0  0
  8  9  1  0  0  0  0
  9 10  1  0  0  0  0
 10 15  1  0  0  0  0
 11 10  1  0  0  0  0
 11 12  1  0  0  0  0
 12 13  1  0  0  0  0
 13 14  1  0  0  0  0
 15 14  1  0  0  0  0
 16 17  1  0  0  0  0
 17  1  1  0  0  0  0
 18 17  2  0  0  0  0
M  END
>  <minimizedAffinity>
-4.6246748

$$$$

 OpenBabel09122217383D

 18 20  0  0  0  0  0  0  0  0999 V2000
    8.2740   -1.9830    6.0110 C   0  0  0  0  0  0  0  0  0  0  0  0
    7.8380   -1.2940    7.1550 C   0  0  0  0  0  3  0  0  0  0  0  0
    6.6810   -1.6620    7.8540 C   0  0  0  0  0  3  0  0  0  0  0  0
    5.9570   -2.7570    7.3690 C   0  0  0  0  0  0  0  0  0  0  0  0
    6.3570   -3.4680    6.2360 C   0  0  0  0  0  0  0  0  0  0  0  0
    7.5210   -3.0820    5.5510 C   0  0  0  0  0  3  0  0  0  0  0  0
    5.4820   -4.4970    5.9650 N   0  0  0  0  0  0  0  0  0  0  0  0
    4.5690   -4.4230    6.9030 C   0  0  0  0  0  3  0  0  0  0  0  0
    4.8060   -3.3920    7.7740 N   0  0  0  0  0  0  0  0  0  0  0  0
    3.9500   -3.0780    8.9100 C   0  0  0  0  0  3  0  0  0  0  0  0
    2.4910   -3.5050    8.6910 C   0  0  0  0  0  2  0  0  0  0  0  0
    1.6130   -3.1200    9.8810 C   0  0  0  0  0  2  0  0  0  0  0  0
    2.1730   -3.6630   11.1920 C   0  0  0  0  0  2  0  0  0  0  0  0
    3.6160   -3.2200   11.4150 C   0  0  0  0  0  2  0  0  0  0  0  0
    4.5120   -3.6050   10.2400 C   0  0  0  0  0  2  0  0  0  0  0  0
   10.3500   -2.4670    4.9520 O   0  0  0  0  0  0  0  0  0  0  0  0
    9.5330   -1.5510    5.2850 C   0  0  0  0  0  0  0  0  0  0  0  0
    9.6800   -0.3090    5.0600 O   0  0  0  0  0  1  0  0  0  0  0  0
  1  2  1  0  0  0  0
  2  3  2  0  0  0  0
  4  9  1  0  0  0  0
  4  3  1  0  0  0  0
  5  4  2  0  0  0  0
  6  1  2  0  0  0  0
  6  5  1  0  0  0  0
  7  5  1  0  0  0  0
  7  8  2  0  0  0  0
  8  9  1  0  0  0  0
  9 10  1  0  0  0  0
 10 15  1  0  0  0  0
 11 10  1  0  0  0  0
 11 12  1  0  0  0  0
 12 13  1  0  0  0  0
 13 14  1  0  0  0  0
 15 14  1  0  0  0  0
 16 17  2  0  0  0  0
 17  1  1  0  0  0  0
 18 17  1  0  0  0  0
M  END
>  <minimizedAffinity>
-4.50658941

$$$$

 OpenBabel09122217383D

 18 20  0  0  0  0  0  0  0  0999 V2000
    7.0700    0.4140    9.3870 C   0  0  0  0  0  0  0  0  0  0  0  0
    6.8940   -0.1440    8.1110 C   0  0  0  0  0  3  0  0  0  0  0  0
    5.6900   -0.7430    7.7160 C   0  0  0  0  0  3  0  0  0  0  0  0
    4.6480   -0.7690    8.6480 C   0  0  0  0  0  0  0  0  0  0  0  0
    4.7830   -0.2250    9.9280 C   0  0  0  0  0  0  0  0  0  0  0  0
    5.9980    0.3710   10.3020 C   0  0  0  0  0  3  0  0  0  0  0  0
    3.6220   -0.3750   10.6520 N   0  0  0  0  0  0  0  0  0  0  0  0
    2.7940   -0.9940    9.8460 C   0  0  0  0  0  3  0  0  0  0  0  0
    3.3620   -1.2560    8.6260 N   0  0  0  0  0  0  0  0  0  0  0  0
    2.6690   -1.9350    7.5390 C   0  0  0  0  0  3  0  0  0  0  0  0
    2.2050   -0.9710    6.4360 C   0  0  0  0  0  2  0  0  0  0  0  0
    1.4450   -1.7100    5.3350 C   0  0  0  0  0  2  0  0  0  0  0  0
    2.2580   -2.8700    4.7710 C   0  0  0  0  0  2  0  0  0  0  0  0
    2.7000   -3.8360    5.8670 C   0  0  0  0  0  2  0  0  0  0  0  0
    3.4720   -3.1180    6.9730 C   0  0  0  0  0  2  0  0  0  0  0  0
    9.3600    0.9050    8.9630 O   0  0  0  0  0  0  0  0  0  0  0  0
    8.3900    1.0520    9.7730 C   0  0  0  0  0  0  0  0  0  0  0  0
    8.4330    1.6860   10.8740 O   0  0  0  0  0  1  0  0  0  0  0  0
  1 17  1  0  0  0  0
  1  6  1  0  0  0  0
  2  1  2  0  0  0  0
  3  2  1  0  0  0  0
  3  4  2  0  0  0  0
  4  5  1  0  0  0  0
  5  6  2  0  0  0  0
  5  7  1  0  0  0  0
  8  7  2  0  0  0  0
  9  4  1  0  0  0  0
  9  8  1  0  0  0  0
 10  9  1  0  0  0  0
 11 10  1  0  0  0  0
 12 11  1  0  0  0  0
 13 12  1  0  0  0  0
 13 14  1  0  0  0  0
 14 15  1  0  0  0  0
 15 10  1  0  0  0  0
 16 17  2  0  0  0  0
 17 18  1  0  0  0  0
M  END
>  <minimizedAffinity>
-4.42555952

$$$$

 OpenBabel09122217383D

 18 20  0  0  0  0  0  0  0  0999 V2000
    3.4030   -2.4330    5.8070 C   0  0  0  0  0  0  0  0  0  0  0  0
    3.4900   -1.5150    6.8660 C   0  0  0  0  0  3  0  0  0  0  0  0
    4.6900   -1.2720    7.5490 C   0  0  0  0  0  3  0  0  0  0  0  0
    5.8210   -1.9860    7.1370 C   0  0  0  0  0  0  0  0  0  0  0  0
    5.7750   -2.9080    6.0890 C   0  0  0  0  0  0  0  0  0  0  0  0
    4.5620   -3.1350    5.4180 C   0  0  0  0  0  3  0  0  0  0  0  0
    7.0120   -3.4750    5.8770 N   0  0  0  0  0  0  0  0  0  0  0  0
    7.7980   -2.9210    6.7680 C   0  0  0  0  0  3  0  0  0  0  0  0
    7.1310   -2.0170    7.5540 N   0  0  0  0  0  0  0  0  0  0  0  0
    7.7580   -1.2560    8.6260 C   0  0  0  0  0  3  0  0  0  0  0  0
    8.9570   -1.9860    9.2500 C   0  0  0  0  0  2  0  0  0  0  0  0
    9.5630   -1.1810   10.3990 C   0  0  0  0  0  2  0  0  0  0  0  0
    9.9240    0.2360    9.9650 C   0  0  0  0  0  2  0  0  0  0  0  0
    8.7250    0.9640    9.3640 C   0  0  0  0  0  2  0  0  0  0  0  0
    8.1120    0.1800    8.2050 C   0  0  0  0  0  2  0  0  0  0  0  0
    1.2890   -1.6750    5.0170 O   0  0  0  0  0  1  0  0  0  0  0  0
    2.0840   -2.6650    5.0960 C   0  0  0  0  0  0  0  0  0  0  0  0
    1.8680   -3.8280    4.6300 O   0  0  0  0  0  0  0  0  0  0  0  0
  1  2  1  0  0  0  0
  2  3  2  0  0  0  0
  4  3  1  0  0  0  0
  4  9  1  0  0  0  0
  5  4  2  0  0  0  0
  6  1  2  0  0  0  0
  6  5  1  0  0  0  0
  7  5  1  0  0  0  0
  7  8  2  0  0  0  0
  8  9  1  0  0  0  0
  9 10  1  0  0  0  0
 10 11  1  0  0  0  0
 11 12  1  0  0  0  0
 13 12  1  0  0  0  0
 14 13  1  0  0  0  0
 15 10  1  0  0  0  0
 15 14  1  0  0  0  0
 16 17  1  0  0  0  0
 17  1  1  0  0  0  0
 18 17  2  0  0  0  0
M  END
>  <minimizedAffinity>
-4.42018127

$$$$

 OpenBabel09122217383D

 18 20  0  0  0  0  0  0  0  0999 V2000
    9.3400   -1.6200    2.2430 C   0  0  0  0  0  0  0  0  0  0  0  0
    8.7960   -2.8450    2.6600 C   0  0  0  0  0  3  0  0  0  0  0  0
    8.5480   -3.1340    4.0090 C   0  0  0  0  0  3  0  0  0  0  0  0
    8.8660   -2.1460    4.9470 C   0  0  0  0  0  0  0  0  0  0  0  0
    9.4080   -0.9140    4.5730 C   0  0  0  0  0  0  0  0  0  0  0  0
    9.6470   -0.6460    3.2150 C   0  0  0  0  0  3  0  0  0  0  0  0
    9.6310   -0.1180    5.6740 N   0  0  0  0  0  0  0  0  0  0  0  0
    9.2380   -0.8360    6.6980 C   0  0  0  0  0  3  0  0  0  0  0  0
    8.7700   -2.0660    6.3160 N   0  0  0  0  0  0  0  0  0  0  0  0
    8.2710   -3.0690    7.2480 C   0  0  0  0  0  3  0  0  0  0  0  0
    8.8360   -2.8950    8.6670 C   0  0  0  0  0  2  0  0  0  0  0  0
    8.3280   -3.9880    9.6060 C   0  0  0  0  0  2  0  0  0  0  0  0
    6.8040   -4.0680    9.6070 C   0  0  0  0  0  2  0  0  0  0  0  0
    6.2500   -4.2610    8.1980 C   0  0  0  0  0  2  0  0  0  0  0  0
    6.7370   -3.1710    7.2460 C   0  0  0  0  0  2  0  0  0  0  0  0
    9.7870   -2.3610    0.0250 O   0  0  0  0  0  0  0  0  0  0  0  0
    9.5920   -1.3500    0.7720 C   0  0  0  0  0  0  0  0  0  0  0  0
    9.5890   -0.1370    0.3920 O   0  0  0  0  0  1  0  0  0  0  0  0
  1  2  2  0  0  0  0
  1  6  1  0  0  0  0
  2  3  1  0  0  0  0
  3  4  2  0  0  0  0
  4  9  1  0  0  0  0
  5  4  1  0  0  0  0
  5  7  1  0  0  0  0
  6  5  2  0  0  0  0
  7  8  2  0  0  0  0
  9  8  1  0  0  0  0
  9 10  1  0  0  0  0
 10 11  1  0  0  0  0
 11 12  1  0  0  0  0
 12 13  1  0  0  0  0
 14 13  1  0  0  0  0
 15 10  1  0  0  0  0
 15 14  1  0  0  0  0
 16 17  2  0  0  0  0
 17  1  1  0  0  0  0
 18 17  1  0  0  0  0
M  END
>  <minimizedAffinity>
-4.39262295

$$$$
