
 OpenBabel09122222393D

 18 20  0  0  0  0  0  0  0  0999 V2000
    9.3400   -1.6200    2.2430 C   0  0  0  0  0  0  0  0  0  0  0  0
    8.7960   -2.8450    2.6600 C   0  0  0  0  0  3  0  0  0  0  0  0
    8.5480   -3.1340    4.0090 C   0  0  0  0  0  3  0  0  0  0  0  0
    8.8660   -2.1460    4.9470 C   0  0  0  0  0  0  0  0  0  0  0  0
    9.4080   -0.9140    4.5730 C   0  0  0  0  0  0  0  0  0  0  0  0
    9.6470   -0.6460    3.2150 C   0  0  0  0  0  3  0  0  0  0  0  0
    9.6310   -0.1180    5.6740 N   0  0  0  0  0  0  0  0  0  0  0  0
    9.2380   -0.8360    6.6980 C   0  0  0  0  0  3  0  0  0  0  0  0
    8.7700   -2.0660    6.3160 N   0  0  0  0  0  0  0  0  0  0  0  0
    8.2710   -3.0690    7.2480 C   0  0  0  0  0  3  0  0  0  0  0  0
    8.8360   -2.8950    8.6670 C   0  0  0  0  0  2  0  0  0  0  0  0
    8.3280   -3.9880    9.6060 C   0  0  0  0  0  2  0  0  0  0  0  0
    6.8040   -4.0680    9.6070 C   0  0  0  0  0  2  0  0  0  0  0  0
    6.2500   -4.2610    8.1980 C   0  0  0  0  0  2  0  0  0  0  0  0
    6.7370   -3.1710    7.2460 C   0  0  0  0  0  2  0  0  0  0  0  0
    9.7870   -2.3610    0.0250 O   0  0  0  0  0  0  0  0  0  0  0  0
    9.5920   -1.3500    0.7720 C   0  0  0  0  0  0  0  0  0  0  0  0
    9.5890   -0.1370    0.3920 O   0  0  0  0  0  1  0  0  0  0  0  0
  1  2  2  0  0  0  0
  1  6  1  0  0  0  0
  2  3  1  0  0  0  0
  3  4  2  0  0  0  0
  4  9  1  0  0  0  0
  5  4  1  0  0  0  0
  5  7  1  0  0  0  0
  6  5  2  0  0  0  0
  7  8  2  0  0  0  0
  9  8  1  0  0  0  0
  9 10  1  0  0  0  0
 10 11  1  0  0  0  0
 11 12  1  0  0  0  0
 12 13  1  0  0  0  0
 14 13  1  0  0  0  0
 15 10  1  0  0  0  0
 15 14  1  0  0  0  0
 16 17  2  0  0  0  0
 17  1  1  0  0  0  0
 18 17  1  0  0  0  0
M  END
>  <minimizedAffinity>
-4.39262295

$$$$
