
 OpenBabel09122222393D

 18 20  0  0  0  0  0  0  0  0999 V2000
    3.1090   -2.2790    5.8820 C   0  0  0  0  0  0  0  0  0  0  0  0
    2.5980   -1.3340    6.7870 C   0  0  0  0  0  3  0  0  0  0  0  0
    3.3630   -0.8190    7.8420 C   0  0  0  0  0  3  0  0  0  0  0  0
    4.6760   -1.2830    7.9710 C   0  0  0  0  0  0  0  0  0  0  0  0
    5.2220   -2.2220    7.0930 C   0  0  0  0  0  0  0  0  0  0  0  0
    4.4370   -2.7240    6.0420 C   0  0  0  0  0  3  0  0  0  0  0  0
    6.5240   -2.5140    7.4300 N   0  0  0  0  0  0  0  0  0  0  0  0
    6.7770   -1.7780    8.4850 C   0  0  0  0  0  3  0  0  0  0  0  0
    5.6970   -1.0180    8.8540 N   0  0  0  0  0  0  0  0  0  0  0  0
    5.6970   -0.1100    9.9930 C   0  0  0  0  0  3  0  0  0  0  0  0
    6.5950    1.1180    9.7740 C   0  0  0  0  0  2  0  0  0  0  0  0
    6.6070    2.0260   11.0030 C   0  0  0  0  0  2  0  0  0  0  0  0
    5.1950    2.4220   11.4230 C   0  0  0  0  0  2  0  0  0  0  0  0
    4.3130    1.1990   11.6590 C   0  0  0  0  0  2  0  0  0  0  0  0
    4.2790    0.2840   10.4360 C   0  0  0  0  0  2  0  0  0  0  0  0
    2.1010   -4.0720    4.6850 O   0  0  0  0  0  1  0  0  0  0  0  0
    2.2460   -2.8100    4.7550 C   0  0  0  0  0  0  0  0  0  0  0  0
    1.7310   -1.9600    3.9630 O   0  0  0  0  0  0  0  0  0  0  0  0
  1  6  2  0  0  0  0
  1  2  1  0  0  0  0
  2  3  2  0  0  0  0
  3  4  1  0  0  0  0
  4  9  1  0  0  0  0
  5  7  1  0  0  0  0
  5  4  2  0  0  0  0
  6  5  1  0  0  0  0
  7  8  2  0  0  0  0
  8  9  1  0  0  0  0
  9 10  1  0  0  0  0
 10 15  1  0  0  0  0
 11 10  1  0  0  0  0
 11 12  1  0  0  0  0
 12 13  1  0  0  0  0
 13 14  1  0  0  0  0
 15 14  1  0  0  0  0
 16 17  1  0  0  0  0
 17  1  1  0  0  0  0
 18 17  2  0  0  0  0
M  END
>  <minimizedAffinity>
-4.6246748

$$$$
