REMARK  Name = 
REMARK  4 active torsions:
REMARK  status: ('A' for Active; 'I' for Inactive)
REMARK    1  A    between atoms: C_3  and  C_4
REMARK    2  A    between atoms: C_16  and  O_17
REMARK    3  A    between atoms: N_24  and  C_25
REMARK    4  A    between atoms: C_25  and  C_26
REMARK                            x       y       z     vdW  Elec       q    Type
REMARK                         _______ _______ _______ _____ _____    ______ ____
ROOT
ATOM      1  O   UNL     1       2.036   2.798   1.122  0.00  0.00    -0.267 OA
ATOM      2  C   UNL     1       3.160   2.346   0.877  0.00  0.00    +0.270 A 
ATOM      3  C   UNL     1       3.270   1.323  -0.208  0.00  0.00    +0.169 A 
ATOM      4  C   UNL     1       4.492   0.892  -0.562  0.00  0.00    +0.146 A 
ATOM      5  C   UNL     1       5.716   1.459   0.031  0.00  0.00    +0.041 A 
ATOM      6  C   UNL     1       6.991   1.159  -0.487  0.00  0.00    +0.013 A 
ATOM      7  C   UNL     1       8.145   1.670   0.101  0.00  0.00    +0.001 A 
ATOM      8  C   UNL     1       8.041   2.501   1.205  0.00  0.00    +0.002 A 
ATOM      9  C   UNL     1       6.782   2.838   1.708  0.00  0.00    +0.026 A 
ATOM     10  C   UNL     1       5.605   2.337   1.127  0.00  0.00    +0.056 A 
ATOM     11  N   UNL     1       4.301   2.717   1.580  0.00  0.00    -0.307 N 
ENDROOT
BRANCH   3  12
ATOM     12  C   UNL     1       1.982   0.827  -0.827  0.00  0.00    +0.308 C 
ATOM     13  N   UNL     1       0.827   1.282  -0.409  0.00  0.00    -0.131 N 
ATOM     14  S   UNL     1      -0.620   0.863  -0.954  0.00  0.00    +0.141 S 
ATOM     15  O   UNL     1      -1.325   0.120   0.073  0.00  0.00    -0.129 OA
ATOM     16  O   UNL     1      -1.254   2.021  -1.556  0.00  0.00    -0.129 OA
ATOM     17  C   UNL     1      -0.360  -0.276  -2.272  0.00  0.00    +0.175 A 
ATOM     18  C   UNL     1      -1.461  -0.778  -2.976  0.00  0.00    +0.035 A 
ATOM     19  C   UNL     1      -1.248  -1.676  -4.019  0.00  0.00    +0.002 A 
ATOM     20  C   UNL     1       0.053  -2.059  -4.345  0.00  0.00    +0.004 A 
ATOM     21  C   UNL     1       1.141  -1.546  -3.630  0.00  0.00    +0.051 A 
ATOM     22  C   UNL     1       0.943  -0.643  -2.582  0.00  0.00    +0.147 A 
ATOM     23  N   UNL     1       2.018  -0.120  -1.876  0.00  0.00    -0.200 N 
ATOM     24  H   UNL     1       0.838   1.974   0.334  0.00  0.00    +0.339 HD
ATOM     25  H   UNL     1       2.958  -0.415  -2.145  0.00  0.00    +0.298 HD
ENDBRANCH   3  12
BRANCH   4  26
ATOM     26  O   UNL     1       4.644  -0.136  -1.484  0.00  0.00    -0.505 OA
ATOM     27  H   UNL     1       5.437  -0.649  -1.237  0.00  0.00    +0.292 HD
ENDBRANCH   4  26
BRANCH  11  28
ATOM     28  C   UNL     1       4.111   3.565   2.764  0.00  0.00    +0.131 C 
BRANCH  28  29
ATOM     29  C   UNL     1       3.858   2.841   4.109  0.00  0.00    +0.037 C 
ATOM     30  C   UNL     1       4.911   1.831   4.523  0.00  0.00    +0.035 C 
ATOM     31  C   UNL     1       4.414   0.515   3.950  0.00  0.00    +0.160 C 
ATOM     32  O   UNL     1       3.030   0.689   3.613  0.00  0.00    -0.379 OA
ATOM     33  C   UNL     1       2.616   1.965   4.120  0.00  0.00    +0.165 C 
ENDBRANCH  28  29
ENDBRANCH  11  28
TORSDOF 4
