
 OpenBabel09132204463D

 33 37  0  0  1  0  0  0  0  0999 V2000
    9.5390    0.6670    3.1470 O   0  0  0  0  0  0  0  0  0  0  0  0
    9.8860    0.9290    1.9900 C   0  0  0  0  0  0  0  0  0  0  0  0
   10.5660    2.2400    1.7550 C   0  0  0  0  0  0  0  0  0  0  0  0
   11.0430    2.5040    0.5270 C   0  0  1  0  0  3  0  0  0  0  0  0
   10.9840    1.5100   -0.5580 C   0  0  0  0  0  0  0  0  0  0  0  0
   11.6670    1.7070   -1.7740 C   0  0  0  0  0  3  0  0  0  0  0  0
   11.5770    0.7800   -2.8090 C   0  0  0  0  0  3  0  0  0  0  0  0
   10.8170   -0.3660   -2.6370 C   0  0  0  0  0  3  0  0  0  0  0  0
   10.1650   -0.5950   -1.4230 C   0  0  0  0  0  3  0  0  0  0  0  0
   10.2460    0.3260   -0.3650 C   0  0  0  0  0  0  0  0  0  0  0  0
    9.6420    0.0870    0.9110 N   0  0  0  0  0  0  0  0  0  0  0  0
   10.6570    3.1940    2.9250 C   0  0  0  0  0  0  0  0  0  0  0  0
   10.2770    2.8160    4.1200 N   0  0  0  0  0  0  0  0  0  0  0  0
   10.3070    3.6980    5.4570 S   0  0  0  0  0  0  0  0  0  0  0  0
    8.9480    3.9870    5.8740 O   0  0  0  0  0  0  0  0  0  0  0  0
   11.2280    3.0960    6.4030 O   0  0  0  0  0  0  0  0  0  0  0  0
   11.0140    5.2530    5.0280 C   0  0  0  0  0  0  0  0  0  0  0  0
   11.2110    6.2180    6.0230 C   0  0  0  0  0  3  0  0  0  0  0  0
   11.7740    7.4440    5.6780 C   0  0  0  0  0  3  0  0  0  0  0  0
   12.1310    7.6900    4.3520 C   0  0  0  0  0  3  0  0  0  0  0  0
   11.9270    6.7130    3.3720 C   0  0  0  0  0  3  0  0  0  0  0  0
   11.3650    5.4770    3.7040 C   0  0  0  0  0  0  0  0  0  0  0  0
   11.1710    4.4980    2.7390 N   0  0  0  0  0  0  0  0  0  0  0  0
    9.9290    1.8680    4.2220 H   0  0  0  0  0  0  0  0  0  0  0  0
   11.4510    4.7070    1.7790 H   0  0  0  0  0  0  0  0  0  0  0  0
   11.5830    3.7490    0.2270 O   0  0  0  0  0  0  0  0  0  0  0  0
   11.3810    3.9490   -0.7070 H   0  0  0  0  0  0  0  0  0  0  0  0
    8.7940   -1.0870    1.1570 C   0  0  0  0  0  2  0  0  0  0  0  0
    9.5150   -2.4010    1.5460 C   0  0  2  0  0  3  0  0  0  0  0  0
    9.0420   -3.6500    0.8280 C   0  0  0  0  0  2  0  0  0  0  0  0
    7.9570   -4.2130    1.7300 C   0  0  0  0  0  2  0  0  0  0  0  0
    8.0950   -3.5830    3.0120 O   0  0  0  0  0  0  0  0  0  0  0  0
    9.3080   -2.8190    2.9930 C   0  0  0  0  0  2  0  0  0  0  0  0
  2  1  2  0  0  0  0
  3  2  1  0  0  0  0
  3 12  2  0  0  0  0
  4 26  1  6  0  0  0
  4  3  1  0  0  0  0
  5 10  1  0  0  0  0
  5  4  1  0  0  0  0
  6  5  2  0  0  0  0
  7  8  2  0  0  0  0
  7  6  1  0  0  0  0
  8  9  1  0  0  0  0
  9 10  2  0  0  0  0
 10 11  1  0  0  0  0
 11 28  1  0  0  0  0
 11  2  1  0  0  0  0
 12 13  1  0  0  0  0
 13 24  1  0  0  0  0
 13 14  1  0  0  0  0
 14 15  2  0  0  0  0
 14 16  2  0  0  0  0
 17 14  1  0  0  0  0
 17 18  1  0  0  0  0
 19 18  2  0  0  0  0
 20 19  1  0  0  0  0
 21 22  1  0  0  0  0
 21 20  2  0  0  0  0
 22 17  2  0  0  0  0
 23 12  1  0  0  0  0
 23 22  1  0  0  0  0
 25 23  1  0  0  0  0
 27 26  1  0  0  0  0
 29 28  1  6  0  0  0
 29 33  1  0  0  0  0
 30 29  1  0  0  0  0
 30 31  1  0  0  0  0
 31 32  1  0  0  0  0
 33 32  1  0  0  0  0
M  END
>  <minimizedAffinity>
-6.93563557

$$$$
