
 OpenBabel09132204463D

 33 37  0  0  1  0  0  0  0  0999 V2000
    6.7830   -3.3600    2.6140 O   0  0  0  0  0  0  0  0  0  0  0  0
    7.4330   -3.1680    3.6480 C   0  0  0  0  0  0  0  0  0  0  0  0
    8.8280   -2.6510    3.5000 C   0  0  0  0  0  0  0  0  0  0  0  0
    9.5180   -2.3390    4.6090 C   0  0  0  0  0  0  0  0  0  0  0  0
    8.9080   -2.4160    5.9480 C   0  0  0  0  0  0  0  0  0  0  0  0
    9.5580   -1.8920    7.0830 C   0  0  0  0  0  3  0  0  0  0  0  0
    8.9930   -2.0000    8.3500 C   0  0  0  0  0  3  0  0  0  0  0  0
    7.7620   -2.6190    8.5010 C   0  0  0  0  0  3  0  0  0  0  0  0
    7.0870   -3.1100    7.3800 C   0  0  0  0  0  3  0  0  0  0  0  0
    7.6380   -3.0070    6.0920 C   0  0  0  0  0  0  0  0  0  0  0  0
    6.9410   -3.4420    4.9200 N   0  0  0  0  0  0  0  0  0  0  0  0
    9.3770   -2.5300    2.0950 C   0  0  1  0  0  3  0  0  0  0  0  0
    9.6410   -3.6030    1.3920 N   0  0  0  0  0  0  0  0  0  0  0  0
   10.2240   -3.6490   -0.1000 S   0  0  0  0  0  0  0  0  0  0  0  0
   11.5740   -4.1770   -0.0740 O   0  0  0  0  0  0  0  0  0  0  0  0
    9.2390   -4.2570   -0.9750 O   0  0  0  0  0  0  0  0  0  0  0  0
   10.3760   -1.9800   -0.6410 C   0  0  0  0  0  0  0  0  0  0  0  0
   10.8200   -1.7150   -1.9420 C   0  0  0  0  0  3  0  0  0  0  0  0
   10.9350   -0.3930   -2.3650 C   0  0  0  0  0  3  0  0  0  0  0  0
   10.6060    0.6420   -1.4900 C   0  0  0  0  0  3  0  0  0  0  0  0
   10.1640    0.3580   -0.1930 C   0  0  0  0  0  3  0  0  0  0  0  0
   10.0420   -0.9640    0.2450 C   0  0  0  0  0  0  0  0  0  0  0  0
    9.5910   -1.2540    1.5250 N   0  0  0  0  0  0  0  0  0  0  0  0
    9.4600   -4.5030    1.8250 H   0  0  0  0  0  0  0  0  0  0  0  0
    9.3520   -0.4730    2.1390 H   0  0  0  0  0  0  0  0  0  0  0  0
   10.8530   -1.9610    4.5330 O   0  0  0  0  0  0  0  0  0  0  0  0
   11.3040   -2.2820    5.3370 H   0  0  0  0  0  0  0  0  0  0  0  0
    5.6490   -4.1370    5.0020 C   0  0  0  0  0  2  0  0  0  0  0  0
    4.3900   -3.2530    5.1740 C   0  0  2  0  0  3  0  0  0  0  0  0
    3.4000   -3.7130    6.2270 C   0  0  0  0  0  2  0  0  0  0  0  0
    2.4290   -4.6010    5.4670 C   0  0  0  0  0  2  0  0  0  0  0  0
    2.6080   -4.3340    4.0690 O   0  0  0  0  0  0  0  0  0  0  0  0
    3.4900   -3.2090    3.9500 C   0  0  0  0  0  2  0  0  0  0  0  0
  1  2  2  0  0  0  0
  2 11  1  0  0  0  0
  3  2  1  0  0  0  0
  3  4  2  0  0  0  0
  4  5  1  0  0  0  0
  5 10  2  0  0  0  0
  5  6  1  0  0  0  0
  6  7  2  0  0  0  0
  7  8  1  0  0  0  0
  9  8  2  0  0  0  0
 10  9  1  0  0  0  0
 11 28  1  0  0  0  0
 11 10  1  0  0  0  0
 12  3  1  6  0  0  0
 13 24  1  0  0  0  0
 13 12  1  0  0  0  0
 14 15  2  0  0  0  0
 14 13  1  0  0  0  0
 16 14  2  0  0  0  0
 17 14  1  0  0  0  0
 17 22  1  0  0  0  0
 18 17  2  0  0  0  0
 19 18  1  0  0  0  0
 19 20  2  0  0  0  0
 20 21  1  0  0  0  0
 21 22  2  0  0  0  0
 22 23  1  0  0  0  0
 23 12  1  0  0  0  0
 23 25  1  0  0  0  0
 26  4  1  0  0  0  0
 26 27  1  0  0  0  0
 29 28  1  6  0  0  0
 29 30  1  0  0  0  0
 31 30  1  0  0  0  0
 32 31  1  0  0  0  0
 33 32  1  0  0  0  0
 33 29  1  0  0  0  0
M  END
>  <minimizedAffinity>
-8.25977802

$$$$
