
 OpenBabel09132204463D

 33 37  0  0  1  0  0  0  0  0999 V2000
    9.6050    0.4540    2.2060 O   0  0  0  0  0  0  0  0  0  0  0  0
    9.4640   -0.7630    2.0460 C   0  0  0  0  0  0  0  0  0  0  0  0
    9.3340   -1.6090    3.2720 C   0  0  0  0  0  0  0  0  0  0  0  0
    9.0780   -2.9190    3.1240 C   0  0  0  0  0  0  0  0  0  0  0  0
    8.8450   -3.5180    1.7980 C   0  0  0  0  0  0  0  0  0  0  0  0
    8.3730   -4.8390    1.6610 C   0  0  0  0  0  3  0  0  0  0  0  0
    8.1890   -5.4100    0.4050 C   0  0  0  0  0  3  0  0  0  0  0  0
    8.4580   -4.6650   -0.7320 C   0  0  0  0  0  3  0  0  0  0  0  0
    8.8900   -3.3420   -0.6130 C   0  0  0  0  0  3  0  0  0  0  0  0
    9.0780   -2.7450    0.6440 C   0  0  0  0  0  0  0  0  0  0  0  0
    9.4570   -1.3730    0.7960 N   0  0  0  0  0  0  0  0  0  0  0  0
    9.5170   -0.9250    4.6090 C   0  0  1  0  0  3  0  0  0  0  0  0
    8.7990   -1.2870    5.6430 N   0  0  0  0  0  0  0  0  0  0  0  0
    8.8690   -0.6690    7.1190 S   0  0  0  0  0  0  0  0  0  0  0  0
    7.6430    0.0550    7.3970 O   0  0  0  0  0  0  0  0  0  0  0  0
    9.3140   -1.6950    8.0430 O   0  0  0  0  0  0  0  0  0  0  0  0
   10.1450    0.5450    7.1060 C   0  0  0  0  0  0  0  0  0  0  0  0
   10.4650    1.2220    8.2890 C   0  0  0  0  0  3  0  0  0  0  0  0
   11.4770    2.1790    8.2720 C   0  0  0  0  0  3  0  0  0  0  0  0
   12.1540    2.4460    7.0820 C   0  0  0  0  0  3  0  0  0  0  0  0
   11.8200    1.7590    5.9090 C   0  0  0  0  0  3  0  0  0  0  0  0
   10.8080    0.7950    5.9110 C   0  0  0  0  0  0  0  0  0  0  0  0
   10.4800    0.1000    4.7550 N   0  0  0  0  0  0  0  0  0  0  0  0
    8.1290   -2.0380    5.5080 H   0  0  0  0  0  0  0  0  0  0  0  0
   11.0000    0.3140    3.9030 H   0  0  0  0  0  0  0  0  0  0  0  0
    9.0580   -3.7680    4.2230 O   0  0  0  0  0  0  0  0  0  0  0  0
    9.3880   -4.6420    3.9370 H   0  0  0  0  0  0  0  0  0  0  0  0
    9.7920   -0.5310   -0.3600 C   0  0  0  0  0  2  0  0  0  0  0  0
   11.2540   -0.5900   -0.8670 C   0  0  2  0  0  3  0  0  0  0  0  0
   11.7730    0.6720   -1.5300 C   0  0  0  0  0  2  0  0  0  0  0  0
   11.4650    0.4740   -3.0050 C   0  0  0  0  0  2  0  0  0  0  0  0
   11.1840   -0.9190   -3.2020 O   0  0  0  0  0  0  0  0  0  0  0  0
   11.4880   -1.6010   -1.9770 C   0  0  0  0  0  2  0  0  0  0  0  0
  2  1  2  0  0  0  0
  2  3  1  0  0  0  0
  4  3  2  0  0  0  0
  4 26  1  0  0  0  0
  5  4  1  0  0  0  0
  6  5  1  0  0  0  0
  7  6  2  0  0  0  0
  8  9  2  0  0  0  0
  8  7  1  0  0  0  0
  9 10  1  0  0  0  0
 10 11  1  0  0  0  0
 10  5  2  0  0  0  0
 11  2  1  0  0  0  0
 12  3  1  1  0  0  0
 12 23  1  0  0  0  0
 12 13  1  0  0  0  0
 13 14  1  0  0  0  0
 14 15  2  0  0  0  0
 14 16  2  0  0  0  0
 17 14  1  0  0  0  0
 17 18  1  0  0  0  0
 19 18  2  0  0  0  0
 20 19  1  0  0  0  0
 21 22  1  0  0  0  0
 21 20  2  0  0  0  0
 22 17  2  0  0  0  0
 23 22  1  0  0  0  0
 24 13  1  0  0  0  0
 25 23  1  0  0  0  0
 27 26  1  0  0  0  0
 28 11  1  0  0  0  0
 29 28  1  6  0  0  0
 30 29  1  0  0  0  0
 31 30  1  0  0  0  0
 32 31  1  0  0  0  0
 32 33  1  0  0  0  0
 33 29  1  0  0  0  0
M  END
>  <minimizedAffinity>
-6.84219265

$$$$
