
 OpenBabel09132204463D

 33 37  0  0  1  0  0  0  0  0999 V2000
   10.8050    1.7570    3.4840 O   0  0  0  0  0  0  0  0  0  0  0  0
   10.6730    2.8220    2.8710 C   0  0  0  0  0  0  0  0  0  0  0  0
   10.2670    2.7450    1.4340 C   0  0  0  0  0  0  0  0  0  0  0  0
   10.0180    3.8890    0.7750 C   0  0  0  0  0  0  0  0  0  0  0  0
   10.0570    5.1970    1.4510 C   0  0  0  0  0  0  0  0  0  0  0  0
    9.5950    6.3670    0.8160 C   0  0  0  0  0  3  0  0  0  0  0  0
    9.6680    7.6050    1.4490 C   0  0  0  0  0  3  0  0  0  0  0  0
   10.1880    7.6900    2.7300 C   0  0  0  0  0  3  0  0  0  0  0  0
   10.6160    6.5340    3.3870 C   0  0  0  0  0  3  0  0  0  0  0  0
   10.5470    5.2750    2.7690 C   0  0  0  0  0  0  0  0  0  0  0  0
   10.9170    4.0660    3.4420 N   0  0  0  0  0  0  0  0  0  0  0  0
   10.1790    1.3690    0.8110 C   0  0  1  0  0  3  0  0  0  0  0  0
   10.6790    1.1460   -0.3790 N   0  0  0  0  0  0  0  0  0  0  0  0
   10.6690   -0.2430   -1.1760 S   0  0  0  0  0  0  0  0  0  0  0  0
    9.7930   -0.1320   -2.3270 O   0  0  0  0  0  0  0  0  0  0  0  0
   12.0360   -0.6930   -1.3640 O   0  0  0  0  0  0  0  0  0  0  0  0
    9.9170   -1.4340   -0.1190 C   0  0  0  0  0  0  0  0  0  0  0  0
    9.8170   -2.7650   -0.5420 C   0  0  0  0  0  3  0  0  0  0  0  0
    9.2240   -3.7020    0.3010 C   0  0  0  0  0  3  0  0  0  0  0  0
    8.7420   -3.3020    1.5470 C   0  0  0  0  0  3  0  0  0  0  0  0
    8.8520   -1.9670    1.9520 C   0  0  0  0  0  3  0  0  0  0  0  0
    9.4460   -1.0160    1.1190 C   0  0  0  0  0  0  0  0  0  0  0  0
    9.5700    0.3080    1.5190 N   0  0  0  0  0  0  0  0  0  0  0  0
   11.1250    1.9260   -0.8520 H   0  0  0  0  0  0  0  0  0  0  0  0
    9.2130    0.5660    2.4400 H   0  0  0  0  0  0  0  0  0  0  0  0
    9.7470    3.8800   -0.5880 O   0  0  0  0  0  0  0  0  0  0  0  0
   10.1090    4.7000   -0.9740 H   0  0  0  0  0  0  0  0  0  0  0  0
   11.5080    4.0800    4.7870 C   0  0  0  0  0  2  0  0  0  0  0  0
   10.5480    4.3510    5.9700 C   0  0  2  0  0  3  0  0  0  0  0  0
   11.0020    3.8320    7.3210 C   0  0  0  0  0  2  0  0  0  0  0  0
   10.3990    2.4410    7.4100 C   0  0  0  0  0  2  0  0  0  0  0  0
    9.3770    2.3510    6.4070 O   0  0  0  0  0  0  0  0  0  0  0  0
    9.2000    3.6590    5.8480 C   0  0  0  0  0  2  0  0  0  0  0  0
  2 11  1  0  0  0  0
  2  1  2  0  0  0  0
  3  2  1  0  0  0  0
  4  3  2  0  0  0  0
  4  5  1  0  0  0  0
  5 10  1  0  0  0  0
  6  7  1  0  0  0  0
  6  5  2  0  0  0  0
  7  8  2  0  0  0  0
  8  9  1  0  0  0  0
 10  9  2  0  0  0  0
 10 11  1  0  0  0  0
 11 28  1  0  0  0  0
 12  3  1  1  0  0  0
 12 23  1  0  0  0  0
 13 12  1  0  0  0  0
 14 13  1  0  0  0  0
 14 17  1  0  0  0  0
 15 14  2  0  0  0  0
 16 14  2  0  0  0  0
 17 22  1  0  0  0  0
 18 17  2  0  0  0  0
 18 19  1  0  0  0  0
 19 20  2  0  0  0  0
 20 21  1  0  0  0  0
 22 23  1  0  0  0  0
 22 21  2  0  0  0  0
 23 25  1  0  0  0  0
 24 13  1  0  0  0  0
 26  4  1  0  0  0  0
 27 26  1  0  0  0  0
 29 28  1  6  0  0  0
 29 30  1  0  0  0  0
 30 31  1  0  0  0  0
 32 31  1  0  0  0  0
 33 29  1  0  0  0  0
 33 32  1  0  0  0  0
M  END
>  <minimizedAffinity>
-6.73917866

$$$$
