REMARK  Name = 
REMARK  9 active torsions:
REMARK  status: ('A' for Active; 'I' for Inactive)
REMARK    1  A    between atoms: C_1  and  N_2
REMARK    2  A    between atoms: N_2  and  C_3
REMARK    3  A    between atoms: N_2  and  C_4
REMARK    4  A    between atoms: C_7  and  C_8
REMARK    5  A    between atoms: C_8  and  C_10
REMARK    6  A    between atoms: C_10  and  N_11
REMARK    7  A    between atoms: C_12  and  C_13
REMARK    8  A    between atoms: C_20  and  C_21
REMARK    9  A    between atoms: C_30  and  C_31
REMARK                            x       y       z     vdW  Elec       q    Type
REMARK                         _______ _______ _______ _____ _____    ______ ____
ROOT
ATOM      1  N   UNL     1      -4.538  -1.516   1.948  0.00  0.00    -0.332 N 
ATOM      2  C   UNL     1      -4.715  -0.247   1.427  0.00  0.00    +0.054 A 
ATOM      3  C   UNL     1      -4.676   0.652   2.494  0.00  0.00    -0.011 A 
ATOM      4  C   UNL     1      -4.466  -0.118   3.687  0.00  0.00    +0.004 A 
ATOM      5  C   UNL     1      -4.230   0.203   5.042  0.00  0.00    +0.011 A 
ATOM      6  C   UNL     1      -3.821  -0.806   5.920  0.00  0.00    +0.010 A 
ATOM      7  C   UNL     1      -3.782  -2.133   5.496  0.00  0.00    -0.001 A 
ATOM      8  C   UNL     1      -4.349  -2.496   4.263  0.00  0.00    +0.036 A 
ATOM      9  C   UNL     1      -4.500  -1.465   3.325  0.00  0.00    +0.051 A 
ENDROOT
BRANCH   2  10
ATOM     10  C   UNL     1      -4.880   0.024  -0.003  0.00  0.00    -0.001 A 
ATOM     11  C   UNL     1      -3.903   0.743  -0.705  0.00  0.00    +0.011 A 
ATOM     12  C   UNL     1      -4.049   0.980  -2.073  0.00  0.00    +0.020 A 
ATOM     13  C   UNL     1      -5.174   0.502  -2.743  0.00  0.00    +0.041 A 
ATOM     14 CL   UNL     1      -5.341   0.782  -4.430  0.00  0.00    -0.084 Cl
ATOM     15  C   UNL     1      -6.159  -0.202  -2.054  0.00  0.00    +0.020 A 
ATOM     16  C   UNL     1      -6.015  -0.436  -0.684  0.00  0.00    +0.011 A 
ENDBRANCH   2  10
BRANCH   3  17
ATOM     17  C   UNL     1      -4.795   2.162   2.393  0.00  0.00    +0.022 C 
ATOM     18  C   UNL     1      -5.961   2.727   3.220  0.00  0.00    +0.008 C 
ATOM     19  C   UNL     1      -6.057   4.246   3.085  0.00  0.00    +0.001 C 
ATOM     20  C   UNL     1      -4.738   4.929   3.436  0.00  0.00    +0.000 C 
ATOM     21  C   UNL     1      -3.583   4.379   2.605  0.00  0.00    +0.001 C 
ATOM     22  C   UNL     1      -3.469   2.863   2.735  0.00  0.00    +0.008 C 
ENDBRANCH   3  17
BRANCH   7  23
ATOM     23  C   UNL     1      -2.822  -3.098   6.146  0.00  0.00    +0.072 C 
ATOM     24  O   UNL     1      -2.061  -3.691   5.294  0.00  0.00    -0.545 OA
ATOM     25  O   UNL     1      -2.696  -3.092   7.395  0.00  0.00    -0.545 OA
ENDBRANCH   7  23
BRANCH   1  26
ATOM     26  C   UNL     1      -4.325  -2.728   1.160  0.00  0.00    +0.202 C 
BRANCH  26  27
ATOM     27  C   UNL     1      -3.206  -3.643   1.615  0.00  0.00    +0.200 C 
ATOM     28  O   UNL     1      -3.414  -4.861   1.687  0.00  0.00    -0.290 OA
BRANCH  27  32
ATOM     29  C   UNL     1       0.052  -1.562   1.724  0.00  0.00    +0.116 C 
ATOM     30  C   UNL     1      -0.198  -1.876   3.219  0.00  0.00    +0.185 C 
ATOM     31  N   UNL     1      -1.475  -2.608   3.226  0.00  0.00    +0.239 N 
ATOM     32  C   UNL     1      -1.780  -3.148   1.878  0.00  0.00    +0.138 C 
ATOM     33  C   UNL     1      -1.178  -2.095   0.960  0.00  0.00    +0.122 C 
ATOM     34  H   UNL     1      -1.533  -3.340   4.010  0.00  0.00    +0.202 HD
ATOM     35  H   UNL     1      -2.202  -1.979   3.589  0.00  0.00    +0.202 HD
BRANCH  29  37
ATOM     36  C   UNL     1       2.573  -1.376   1.718  0.00  0.00    +0.190 C 
ATOM     37  N   UNL     1       1.367  -2.116   1.162  0.00  0.00    +0.237 N 
ATOM     38  C   UNL     1       1.591  -3.610   1.238  0.00  0.00    +0.190 C 
ATOM     39  H   UNL     1       1.380  -1.889   0.156  0.00  0.00    +0.203 HD
ENDBRANCH  29  37
ENDBRANCH  27  32
ENDBRANCH  26  27
ENDBRANCH   1  26
TORSDOF 7
