
 OpenBabel09132204463D

 39 43  0  0  1  0  0  0  0  0999 V2000
    4.3580   -5.3780    4.8490 N   0  0  0  0  0  0  0  0  0  0  0  0
    3.5490   -5.9870    5.7920 C   0  0  0  0  0  0  0  0  0  0  0  0
    2.9410   -7.0820    5.1770 C   0  0  0  0  0  0  0  0  0  0  0  0
    3.4110   -7.1190    3.8210 C   0  0  0  0  0  0  0  0  0  0  0  0
    3.2590   -8.0230    2.7470 C   0  0  0  0  0  3  0  0  0  0  0  0
    4.0650   -7.8760    1.6130 C   0  0  0  0  0  3  0  0  0  0  0  0
    4.9060   -6.7720    1.4880 C   0  0  0  0  0  0  0  0  0  0  0  0
    4.7990   -5.6980    2.3880 C   0  0  0  0  0  3  0  0  0  0  0  0
    4.1970   -5.9840    3.6210 C   0  0  0  0  0  0  0  0  0  0  0  0
    3.4290   -5.5200    7.1750 C   0  0  0  0  0  0  0  0  0  0  0  0
    4.4190   -5.8330    8.1170 C   0  0  0  0  0  3  0  0  0  0  0  0
    4.3160   -5.3680    9.4290 C   0  0  0  0  0  3  0  0  0  0  0  0
    3.2210   -4.5920    9.8050 C   0  0  0  0  0  0  0  0  0  0  0  0
    3.1070   -4.0080   11.4170 Cl  0  0  0  0  0  0  0  0  0  0  0  0
    2.2230   -4.2850    8.8820 C   0  0  0  0  0  3  0  0  0  0  0  0
    2.3240   -4.7540    7.5700 C   0  0  0  0  0  3  0  0  0  0  0  0
    1.9920   -8.0640    5.8400 C   0  0  0  0  0  3  0  0  0  0  0  0
    1.9920   -7.9540    7.3730 C   0  0  0  0  0  2  0  0  0  0  0  0
    1.0360   -8.9640    8.0050 C   0  0  0  0  0  2  0  0  0  0  0  0
   -0.3740   -8.8420    7.4340 C   0  0  0  0  0  2  0  0  0  0  0  0
   -0.3770   -8.9650    5.9140 C   0  0  0  0  0  2  0  0  0  0  0  0
    0.5680   -7.9580    5.2660 C   0  0  0  0  0  2  0  0  0  0  0  0
    6.1610   -6.8780    0.6570 C   0  0  0  0  0  0  0  0  0  0  0  0
    6.6110   -8.0820    0.5880 O   0  0  0  0  0  1  0  0  0  0  0  0
    6.5260   -5.8950   -0.0330 O   0  0  0  0  0  0  0  0  0  0  0  0
    5.3170   -4.3110    5.1240 C   0  0  0  0  0  2  0  0  0  0  0  0
    4.7400   -2.9750    5.5460 C   0  0  0  0  0  0  0  0  0  0  0  0
    3.7430   -2.5350    4.9580 O   0  0  0  0  0  0  0  0  0  0  0  0
    5.1010   -1.2410    8.9840 C   0  0  2  0  0  3  0  0  0  0  0  0
    6.3720   -2.1230    8.9150 C   0  0  0  0  0  2  0  0  0  0  0  0
    6.2340   -2.8580    7.6470 N   0  0  0  0  0  4  0  0  0  0  0  0
    5.2580   -2.1870    6.7530 C   0  0  2  0  0  3  0  0  0  0  0  0
    4.2610   -1.5980    7.7400 C   0  0  0  0  0  2  0  0  0  0  0  0
    7.1780   -3.0670    7.1810 H   0  0  0  0  0  0  0  0  0  0  0  0
    5.9860   -3.8300    7.8670 H   0  0  0  0  0  0  0  0  0  0  0  0
    5.2300    0.7630   10.5190 C   0  0  0  0  0  1  0  0  0  0  0  0
    5.3690    0.2650    9.0900 N   0  0  0  0  0  4  0  0  0  0  0  0
    6.6420    0.7990    8.4720 C   0  0  0  0  0  1  0  0  0  0  0  0
    4.6030    0.7390    8.5880 H   0  0  0  0  0  0  0  0  0  0  0  0
  1 26  1  0  0  0  0
  1  2  1  0  0  0  0
  2 10  1  0  0  0  0
  3  2  2  0  0  0  0
  3 17  1  0  0  0  0
  4  3  1  0  0  0  0
  5  4  2  0  0  0  0
  6  5  1  0  0  0  0
  7  6  2  0  0  0  0
  7  8  1  0  0  0  0
  8  9  2  0  0  0  0
  9  4  1  0  0  0  0
  9  1  1  0  0  0  0
 10 16  2  0  0  0  0
 10 11  1  0  0  0  0
 11 12  2  0  0  0  0
 12 13  1  0  0  0  0
 13 14  1  0  0  0  0
 15 13  2  0  0  0  0
 16 15  1  0  0  0  0
 17 18  1  0  0  0  0
 18 19  1  0  0  0  0
 20 19  1  0  0  0  0
 21 20  1  0  0  0  0
 22 17  1  0  0  0  0
 22 21  1  0  0  0  0
 23  7  1  0  0  0  0
 24 23  1  0  0  0  0
 25 23  2  0  0  0  0
 26 27  1  0  0  0  0
 28 27  2  0  0  0  0
 29 37  1  6  0  0  0
 30 29  1  0  0  0  0
 31 35  1  0  0  0  0
 31 30  1  0  0  0  0
 32 27  1  6  0  0  0
 32 31  1  0  0  0  0
 32 33  1  0  0  0  0
 33 29  1  0  0  0  0
 34 31  1  0  0  0  0
 37 36  1  0  0  0  0
 38 37  1  0  0  0  0
 39 37  1  0  0  0  0
M  END
>  <minimizedAffinity>
-4.93280363

$$$$
