
 OpenBabel09132204463D

 39 43  0  0  1  0  0  0  0  0999 V2000
    3.8590   -5.7560    7.6410 N   0  0  0  0  0  0  0  0  0  0  0  0
    3.0070   -6.5080    6.8520 C   0  0  0  0  0  0  0  0  0  0  0  0
    1.7830   -6.5890    7.5190 C   0  0  0  0  0  0  0  0  0  0  0  0
    1.9210   -5.8540    8.7440 C   0  0  0  0  0  0  0  0  0  0  0  0
    1.0330   -5.4770    9.7760 C   0  0  0  0  0  3  0  0  0  0  0  0
    1.4510   -4.5390   10.7250 C   0  0  0  0  0  3  0  0  0  0  0  0
    2.7700   -4.0890   10.7350 C   0  0  0  0  0  0  0  0  0  0  0  0
    3.7370   -4.7230    9.9370 C   0  0  0  0  0  3  0  0  0  0  0  0
    3.2520   -5.4490    8.8400 C   0  0  0  0  0  0  0  0  0  0  0  0
    3.3880   -7.0630    5.5510 C   0  0  0  0  0  0  0  0  0  0  0  0
    3.5520   -6.2200    4.4430 C   0  0  0  0  0  3  0  0  0  0  0  0
    3.9390   -6.7460    3.2090 C   0  0  0  0  0  3  0  0  0  0  0  0
    4.1590   -8.1160    3.0780 C   0  0  0  0  0  0  0  0  0  0  0  0
    4.6510   -8.7560    1.5610 Cl  0  0  0  0  0  0  0  0  0  0  0  0
    3.9860   -8.9660    4.1680 C   0  0  0  0  0  3  0  0  0  0  0  0
    3.5950   -8.4400    5.4020 C   0  0  0  0  0  3  0  0  0  0  0  0
    0.5360   -7.2910    7.0120 C   0  0  0  0  0  3  0  0  0  0  0  0
   -0.5790   -7.3660    8.0680 C   0  0  0  0  0  2  0  0  0  0  0  0
   -1.8120   -8.0890    7.5270 C   0  0  0  0  0  2  0  0  0  0  0  0
   -2.3100   -7.4620    6.2280 C   0  0  0  0  0  2  0  0  0  0  0  0
   -1.2080   -7.4020    5.1750 C   0  0  0  0  0  2  0  0  0  0  0  0
    0.0280   -6.6760    5.6970 C   0  0  0  0  0  2  0  0  0  0  0  0
    3.0890   -2.7200   11.2830 C   0  0  0  0  0  0  0  0  0  0  0  0
    4.3550   -2.4950   11.3490 O   0  0  0  0  0  0  0  0  0  0  0  0
    2.1650   -1.8820   11.4190 O   0  0  0  0  0  1  0  0  0  0  0  0
    5.1750   -5.2700    7.2320 C   0  0  0  0  0  2  0  0  0  0  0  0
    5.1990   -4.0220    6.3740 C   0  0  0  0  0  0  0  0  0  0  0  0
    5.9540   -3.9780    5.3930 O   0  0  0  0  0  0  0  0  0  0  0  0
    2.1610   -1.8140    7.2970 C   0  0  2  0  0  3  0  0  0  0  0  0
    3.3310   -1.0920    8.0080 C   0  0  0  0  0  2  0  0  0  0  0  0
    4.4990   -1.9470    7.7400 N   0  0  0  0  0  4  0  0  0  0  0  0
    4.2420   -2.8450    6.5870 C   0  0  2  0  0  3  0  0  0  0  0  0
    2.7500   -3.1140    6.7090 C   0  0  0  0  0  2  0  0  0  0  0  0
    5.4150   -1.3900    7.6610 H   0  0  0  0  0  0  0  0  0  0  0  0
    4.7330   -2.4490    8.6060 H   0  0  0  0  0  0  0  0  0  0  0  0
    1.9070    0.4700    6.2450 C   0  0  0  0  0  1  0  0  0  0  0  0
    1.4380   -0.9760    6.2360 N   0  0  0  0  0  4  0  0  0  0  0  0
    1.4090   -1.5050    4.8190 C   0  0  0  0  0  1  0  0  0  0  0  0
    0.4500   -0.9170    6.5250 H   0  0  0  0  0  0  0  0  0  0  0  0
  1  9  1  0  0  0  0
  2  3  2  0  0  0  0
  2  1  1  0  0  0  0
  3  4  1  0  0  0  0
  4  9  2  0  0  0  0
  4  5  1  0  0  0  0
  5  6  2  0  0  0  0
  6  7  1  0  0  0  0
  7 23  1  0  0  0  0
  8  7  2  0  0  0  0
  9  8  1  0  0  0  0
 10  2  1  0  0  0  0
 11 10  2  0  0  0  0
 12 11  1  0  0  0  0
 13 12  2  0  0  0  0
 13 15  1  0  0  0  0
 14 13  1  0  0  0  0
 15 16  2  0  0  0  0
 16 10  1  0  0  0  0
 17  3  1  0  0  0  0
 17 18  1  0  0  0  0
 19 18  1  0  0  0  0
 20 19  1  0  0  0  0
 21 22  1  0  0  0  0
 21 20  1  0  0  0  0
 22 17  1  0  0  0  0
 23 24  2  0  0  0  0
 23 25  1  0  0  0  0
 26  1  1  0  0  0  0
 27 26  1  0  0  0  0
 28 27  2  0  0  0  0
 29 37  1  6  0  0  0
 29 30  1  0  0  0  0
 31 30  1  0  0  0  0
 31 35  1  0  0  0  0
 32 27  1  1  0  0  0
 32 33  1  0  0  0  0
 32 31  1  0  0  0  0
 33 29  1  0  0  0  0
 34 31  1  0  0  0  0
 37 36  1  0  0  0  0
 37 39  1  0  0  0  0
 38 37  1  0  0  0  0
M  END
>  <minimizedAffinity>
-4.70589781

$$$$
