REMARK  Name = 
REMARK  7 active torsions:
REMARK  status: ('A' for Active; 'I' for Inactive)
REMARK    1  A    between atoms: C_2  and  C_4
REMARK    2  A    between atoms: C_11  and  C_12
REMARK    3  A    between atoms: C_15  and  O_16
REMARK    4  A    between atoms: O_16  and  C_17
REMARK    5  A    between atoms: C_17  and  C_18
REMARK    6  A    between atoms: C_17  and  C_24
REMARK    7  A    between atoms: N_33  and  C_34
REMARK                            x       y       z     vdW  Elec       q    Type
REMARK                         _______ _______ _______ _____ _____    ______ ____
ROOT
ATOM      1  C   UNL     1       6.704  -4.900  -2.494  0.00  0.00    +0.053 A 
ATOM      2  C   UNL     1       8.040  -4.686  -2.845  0.00  0.00    +0.018 A 
ATOM      3  C   UNL     1       8.875  -5.772  -3.122  0.00  0.00    +0.046 A 
ATOM      4  C   UNL     1       8.400  -7.083  -3.014  0.00  0.00    +0.125 A 
ATOM      5  C   UNL     1       7.075  -7.302  -2.649  0.00  0.00    +0.084 A 
ATOM      6  C   UNL     1       6.239  -6.213  -2.394  0.00  0.00    +0.137 A 
ATOM      7  F   UNL     1       4.954  -6.458  -2.096  0.00  0.00    -0.205 F 
ENDROOT
BRANCH   1  15
ATOM      8  C   UNL     1       3.498  -0.100  -0.907  0.00  0.00    -0.001 A 
ATOM      9  C   UNL     1       2.856  -0.309  -2.138  0.00  0.00    +0.012 A 
ATOM     10  C   UNL     1       3.211  -1.357  -2.997  0.00  0.00    +0.028 A 
ATOM     11  C   UNL     1       4.243  -2.210  -2.586  0.00  0.00    +0.069 A 
ATOM     12  C   UNL     1       4.905  -2.032  -1.373  0.00  0.00    +0.090 A 
ATOM     13  C   UNL     1       4.534  -0.975  -0.526  0.00  0.00    +0.039 A 
ATOM     14  N   UNL     1       5.885  -2.980  -1.206  0.00  0.00    -0.227 NA
ATOM     15  C   UNL     1       5.822  -3.761  -2.265  0.00  0.00    +0.145 A 
ATOM     16  N   UNL     1       4.856  -3.310  -3.151  0.00  0.00    -0.320 N 
BRANCH  16  17
ATOM     17  C   UNL     1       4.602  -3.863  -4.479  0.00  0.00    +0.089 C 
ATOM     18  C   UNL     1       3.188  -4.444  -4.633  0.00  0.00    +0.025 C 
ATOM     19  C   UNL     1       2.992  -5.059  -6.019  0.00  0.00    +0.002 C 
ATOM     20  C   UNL     1       3.329  -4.069  -7.131  0.00  0.00    +0.000 C 
ATOM     21  C   UNL     1       4.741  -3.509  -6.981  0.00  0.00    +0.002 C 
ATOM     22  C   UNL     1       4.951  -2.877  -5.606  0.00  0.00    +0.025 C 
ENDBRANCH  16  17
BRANCH   8  24
ATOM     23  O   UNL     1       2.142   1.798  -0.424  0.00  0.00    -0.545 OA
ATOM     24  C   UNL     1       3.085   1.050  -0.009  0.00  0.00    +0.072 C 
ATOM     25  O   UNL     1       3.710   1.187   1.089  0.00  0.00    -0.545 OA
ENDBRANCH   8  24
ENDBRANCH   1  15
BRANCH   4  26
ATOM     26  O   UNL     1       9.294  -8.052  -3.372  0.00  0.00    -0.479 OA
BRANCH  26  27
ATOM     27  C   UNL     1       9.321  -9.316  -2.673  0.00  0.00    +0.237 C 
BRANCH  27  28
ATOM     28  C   UNL     1       9.434  -9.146  -1.164  0.00  0.00    +0.015 A 
ATOM     29  C   UNL     1      10.626  -8.654  -0.609  0.00  0.00    +0.010 A 
ATOM     30  C   UNL     1      10.739  -8.480   0.767  0.00  0.00    +0.020 A 
ATOM     31  C   UNL     1       9.653  -8.807   1.558  0.00  0.00    +0.111 A 
ATOM     32  N   UNL     1       8.489  -9.281   1.068  0.00  0.00    -0.263 NA
ATOM     33  C   UNL     1       8.398  -9.415  -0.276  0.00  0.00    +0.118 A 
ENDBRANCH  27  28
BRANCH  27  34
ATOM     34  C   UNL     1       8.384 -10.380  -3.231  0.00  0.00    +0.015 A 
ATOM     35  C   UNL     1       8.269 -11.648  -2.642  0.00  0.00    +0.010 A 
ATOM     36  C   UNL     1       7.431 -12.611  -3.200  0.00  0.00    +0.020 A 
ATOM     37  C   UNL     1       6.747 -12.291  -4.358  0.00  0.00    +0.111 A 
ATOM     38  N   UNL     1       6.862 -11.104  -4.987  0.00  0.00    -0.263 NA
ATOM     39  C   UNL     1       7.682 -10.187  -4.420  0.00  0.00    +0.118 A 
ENDBRANCH  27  34
ENDBRANCH  26  27
ENDBRANCH   4  26
TORSDOF 7
