
 OpenBabel09122222393D

 39 44  0  0  1  0  0  0  0  0999 V2000
    6.2770   -6.7140    0.6320 C   0  0  0  0  0  0  0  0  0  0  0  0
    7.5400   -6.7930    1.2250 C   0  0  0  0  0  3  0  0  0  0  0  0
    8.5770   -5.9700    0.7770 C   0  0  0  0  0  3  0  0  0  0  0  0
    8.3790   -5.0890   -0.2910 C   0  0  0  0  0  0  0  0  0  0  0  0
    7.1270   -5.0190   -0.8960 C   0  0  0  0  0  3  0  0  0  0  0  0
    6.0880   -5.8280   -0.4310 C   0  0  0  0  0  0  0  0  0  0  0  0
    4.8810   -5.6970   -1.0010 F   0  0  0  0  0  0  0  0  0  0  0  0
    1.9790  -10.5840    2.1780 C   0  0  0  0  0  0  0  0  0  0  0  0
    1.7450   -9.6750    3.2220 C   0  0  0  0  0  3  0  0  0  0  0  0
    2.4970   -8.5040    3.3750 C   0  0  0  0  0  3  0  0  0  0  0  0
    3.5090   -8.2560    2.4380 C   0  0  0  0  0  0  0  0  0  0  0  0
    3.7720   -9.1370    1.3900 C   0  0  0  0  0  0  0  0  0  0  0  0
    3.0060  -10.3060    1.2540 C   0  0  0  0  0  3  0  0  0  0  0  0
    4.8170   -8.6850    0.6210 N   0  0  0  0  0  0  0  0  0  0  0  0
    5.1820   -7.5320    1.1430 C   0  0  0  0  0  0  0  0  0  0  0  0
    4.4340   -7.2450    2.2740 N   0  0  0  0  0  0  0  0  0  0  0  0
    4.6530   -6.1110    3.1680 C   0  0  0  0  0  3  0  0  0  0  0  0
    4.3070   -4.7580    2.5280 C   0  0  0  0  0  2  0  0  0  0  0  0
    4.6070   -3.6030    3.4830 C   0  0  0  0  0  2  0  0  0  0  0  0
    3.9180   -3.7900    4.8320 C   0  0  0  0  0  2  0  0  0  0  0  0
    4.2800   -5.1290    5.4710 C   0  0  0  0  0  2  0  0  0  0  0  0
    3.9740   -6.2970    4.5350 C   0  0  0  0  0  2  0  0  0  0  0  0
    1.3940  -12.6080    1.0650 O   0  0  0  0  0  0  0  0  0  0  0  0
    1.1430  -11.8430    2.0520 C   0  0  0  0  0  0  0  0  0  0  0  0
    0.2520  -12.0430    2.9350 O   0  0  0  0  0  1  0  0  0  0  0  0
    9.4490   -4.2960   -0.5920 O   0  0  0  0  0  0  0  0  0  0  0  0
    9.5270   -2.9470   -0.0800 C   0  0  1  0  0  3  0  0  0  0  0  0
    9.5140   -2.8990    1.4420 C   0  0  0  0  0  0  0  0  0  0  0  0
    8.2880   -2.8690    2.1250 C   0  0  0  0  0  3  0  0  0  0  0  0
    8.2610   -2.8390    3.5160 C   0  0  0  0  0  3  0  0  0  0  0  0
    9.4670   -2.8370    4.1930 C   0  0  0  0  0  3  0  0  0  0  0  0
   10.6670   -2.8670    3.5780 N   0  0  0  0  0  0  0  0  0  0  0  0
   10.6630   -2.9220    2.2260 C   0  0  0  0  0  3  0  0  0  0  0  0
   10.4660   -2.0220   -0.8430 C   0  0  0  0  0  0  0  0  0  0  0  0
   10.2080   -0.6490   -0.9750 C   0  0  0  0  0  3  0  0  0  0  0  0
   11.0680    0.1620   -1.7120 C   0  0  0  0  0  3  0  0  0  0  0  0
   12.1560   -0.4280   -2.3280 C   0  0  0  0  0  3  0  0  0  0  0  0
   12.4190   -1.7490   -2.2700 N   0  0  0  0  0  0  0  0  0  0  0  0
   11.5660   -2.5120   -1.5450 C   0  0  0  0  0  3  0  0  0  0  0  0
  1 15  1  0  0  0  0
  1  2  1  0  0  0  0
  3  2  2  0  0  0  0
  4  3  1  0  0  0  0
  5  6  1  0  0  0  0
  5  4  2  0  0  0  0
  6  1  2  0  0  0  0
  7  6  1  0  0  0  0
  8  9  1  0  0  0  0
  9 10  2  0  0  0  0
 11 10  1  0  0  0  0
 12 11  2  0  0  0  0
 13 12  1  0  0  0  0
 13  8  2  0  0  0  0
 14 15  2  0  0  0  0
 14 12  1  0  0  0  0
 15 16  1  0  0  0  0
 16 11  1  0  0  0  0
 16 17  1  0  0  0  0
 17 22  1  0  0  0  0
 18 17  1  0  0  0  0
 18 19  1  0  0  0  0
 19 20  1  0  0  0  0
 20 21  1  0  0  0  0
 22 21  1  0  0  0  0
 23 24  2  0  0  0  0
 24  8  1  0  0  0  0
 24 25  1  0  0  0  0
 26  4  1  0  0  0  0
 27 26  1  1  0  0  0
 27 28  1  0  0  0  0
 28 29  2  0  0  0  0
 28 33  1  0  0  0  0
 29 30  1  0  0  0  0
 30 31  2  0  0  0  0
 32 31  1  0  0  0  0
 33 32  2  0  0  0  0
 34 27  1  0  0  0  0
 35 34  1  0  0  0  0
 36 35  2  0  0  0  0
 37 38  2  0  0  0  0
 37 36  1  0  0  0  0
 38 39  1  0  0  0  0
 39 34  2  0  0  0  0
M  END
>  <minimizedAffinity>
-9.76711655

$$$$
