
 OpenBabel09122222393D

 39 44  0  0  1  0  0  0  0  0999 V2000
    3.6840  -11.1150    1.6370 C   0  0  0  0  0  0  0  0  0  0  0  0
    2.9820   -9.9130    1.5100 C   0  0  0  0  0  3  0  0  0  0  0  0
    3.4480   -8.7590    2.1470 C   0  0  0  0  0  3  0  0  0  0  0  0
    4.5940   -8.7990    2.9480 C   0  0  0  0  0  0  0  0  0  0  0  0
    5.2870   -9.9980    3.0900 C   0  0  0  0  0  3  0  0  0  0  0  0
    4.8290  -11.1430    2.4350 C   0  0  0  0  0  0  0  0  0  0  0  0
    5.5500  -12.2680    2.5510 F   0  0  0  0  0  0  0  0  0  0  0  0
    2.0260  -15.6130   -1.9490 C   0  0  0  0  0  0  0  0  0  0  0  0
    1.7490  -16.2740   -0.7410 C   0  0  0  0  0  3  0  0  0  0  0  0
    1.9560  -15.6700    0.5050 C   0  0  0  0  0  3  0  0  0  0  0  0
    2.4560  -14.3610    0.5160 C   0  0  0  0  0  0  0  0  0  0  0  0
    2.7450  -13.6750   -0.6620 C   0  0  0  0  0  0  0  0  0  0  0  0
    2.5300  -14.2990   -1.9020 C   0  0  0  0  0  3  0  0  0  0  0  0
    3.2380  -12.4220   -0.3900 N   0  0  0  0  0  0  0  0  0  0  0  0
    3.2260  -12.3010    0.9210 C   0  0  0  0  0  0  0  0  0  0  0  0
    2.7870  -13.4730    1.5180 N   0  0  0  0  0  0  0  0  0  0  0  0
    2.7650  -13.7330    2.9560 C   0  0  0  0  0  3  0  0  0  0  0  0
    1.3460  -13.9170    3.5160 C   0  0  0  0  0  2  0  0  0  0  0  0
    1.3740  -14.1300    5.0300 C   0  0  0  0  0  2  0  0  0  0  0  0
    2.2990  -15.2780    5.4240 C   0  0  0  0  0  2  0  0  0  0  0  0
    3.7110  -15.0800    4.8780 C   0  0  0  0  0  2  0  0  0  0  0  0
    3.7040  -14.8800    3.3630 C   0  0  0  0  0  2  0  0  0  0  0  0
    0.5800  -16.4950   -3.6240 O   0  0  0  0  0  1  0  0  0  0  0  0
    1.7900  -16.3060   -3.2770 C   0  0  0  0  0  0  0  0  0  0  0  0
    2.8140  -16.6510   -3.9450 O   0  0  0  0  0  0  0  0  0  0  0  0
    4.9800   -7.5940    3.4620 O   0  0  0  0  0  0  0  0  0  0  0  0
    4.6360   -6.3660    2.7850 C   0  0  1  0  0  3  0  0  0  0  0  0
    4.2680   -5.2490    3.7530 C   0  0  0  0  0  0  0  0  0  0  0  0
    2.9430   -5.1310    4.2040 C   0  0  0  0  0  3  0  0  0  0  0  0
    2.5950   -4.1250    5.1000 C   0  0  0  0  0  3  0  0  0  0  0  0
    3.5840   -3.2550    5.5210 C   0  0  0  0  0  3  0  0  0  0  0  0
    4.8680   -3.3320    5.1150 N   0  0  0  0  0  0  0  0  0  0  0  0
    5.1840   -4.3360    4.2650 C   0  0  0  0  0  3  0  0  0  0  0  0
    5.4930   -6.0390    1.5690 C   0  0  0  0  0  0  0  0  0  0  0  0
    4.9970   -6.1520    0.2610 C   0  0  0  0  0  3  0  0  0  0  0  0
    5.8200   -5.8820   -0.8300 C   0  0  0  0  0  3  0  0  0  0  0  0
    7.1350   -5.5330   -0.5880 C   0  0  0  0  0  3  0  0  0  0  0  0
    7.6700   -5.4590    0.6480 N   0  0  0  0  0  0  0  0  0  0  0  0
    6.8460   -5.7240    1.6890 C   0  0  0  0  0  3  0  0  0  0  0  0
  1  6  1  0  0  0  0
  2  1  2  0  0  0  0
  2  3  1  0  0  0  0
  3  4  2  0  0  0  0
  4  5  1  0  0  0  0
  4 26  1  0  0  0  0
  6  7  1  0  0  0  0
  6  5  2  0  0  0  0
  8 13  2  0  0  0  0
  8  9  1  0  0  0  0
  9 10  2  0  0  0  0
 10 11  1  0  0  0  0
 11 16  1  0  0  0  0
 12 14  1  0  0  0  0
 12 11  2  0  0  0  0
 13 12  1  0  0  0  0
 14 15  2  0  0  0  0
 15 16  1  0  0  0  0
 15  1  1  0  0  0  0
 16 17  1  0  0  0  0
 17 22  1  0  0  0  0
 17 18  1  0  0  0  0
 18 19  1  0  0  0  0
 19 20  1  0  0  0  0
 21 20  1  0  0  0  0
 22 21  1  0  0  0  0
 23 24  1  0  0  0  0
 24  8  1  0  0  0  0
 25 24  2  0  0  0  0
 27 26  1  1  0  0  0
 27 28  1  0  0  0  0
 28 29  2  0  0  0  0
 28 33  1  0  0  0  0
 29 30  1  0  0  0  0
 30 31  2  0  0  0  0
 32 31  1  0  0  0  0
 33 32  2  0  0  0  0
 34 39  1  0  0  0  0
 34 27  1  0  0  0  0
 35 34  2  0  0  0  0
 36 37  2  0  0  0  0
 36 35  1  0  0  0  0
 37 38  1  0  0  0  0
 38 39  2  0  0  0  0
M  END
>  <minimizedAffinity>
-8.53395939

$$$$
