REMARK  Name = 
REMARK  4 active torsions:
REMARK  status: ('A' for Active; 'I' for Inactive)
REMARK    1  A    between atoms: C_1  and  N_2
REMARK    2  A    between atoms: N_2  and  C_3
REMARK    3  A    between atoms: N_60  and  C_61
REMARK    4  A    between atoms: N_60  and  C_62
REMARK                            x       y       z     vdW  Elec       q    Type
REMARK                         _______ _______ _______ _____ _____    ______ ____
ROOT
ATOM      1  C   UNL     1       1.082   0.010  -0.057  0.00  0.00    +0.192 C 
ATOM      2  N   UNL     1       0.592  -0.029   1.329  0.00  0.00    +0.241 N 
ATOM      3  C   UNL     1       2.039   0.127   1.536  0.00  0.00    +0.192 C 
ATOM      4  C   UNL     1      -0.292  -1.510   1.990  0.00  0.00    +0.150 C 
ATOM      5  C   UNL     1      -0.634  -0.994   3.415  0.00  0.00    +0.078 C 
ATOM      6  C   UNL     1      -1.782  -1.813   3.983  0.00  0.00    -0.018 A 
ATOM      7  C   UNL     1      -3.021  -1.881   3.383  0.00  0.00    -0.026 A 
ATOM      8  C   UNL     1      -4.010  -2.696   3.905  0.00  0.00    -0.005 A 
ATOM      9  C   UNL     1      -5.299  -2.759   3.266  0.00  0.00    -0.008 A 
ATOM     10  C   UNL     1      -5.556  -1.975   2.085  0.00  0.00    -0.014 A 
ATOM     11  C   UNL     1      -6.916  -2.041   1.410  0.00  0.00    -0.004 A 
ATOM     12  C   UNL     1      -7.555  -0.865   0.989  0.00  0.00    -0.004 A 
ATOM     13  C   UNL     1      -6.956   0.394   1.188  0.00  0.00    -0.018 A 
ATOM     14  C   UNL     1      -7.589   1.520   0.772  0.00  0.00    -0.026 A 
ATOM     15  C   UNL     1      -8.844   1.450   0.144  0.00  0.00    -0.005 A 
ATOM     16  C   UNL     1      -9.535   2.728  -0.303  0.00  0.00    -0.004 A 
ATOM     17  C   UNL     1      -9.747   3.008  -1.641  0.00  0.00    -0.023 A 
ATOM     18  C   UNL     1     -10.286   4.249  -2.011  0.00  0.00    -0.009 A 
ATOM     19  C   UNL     1     -10.590   5.194  -1.035  0.00  0.00    -0.023 A 
ATOM     20  C   UNL     1     -10.371   4.902   0.297  0.00  0.00    -0.004 A 
ATOM     21  C   UNL     1       3.156  -3.990   9.548  0.00  0.00    -0.004 A 
ATOM     22  C   UNL     1       3.440  -3.107   8.539  0.00  0.00    -0.022 A 
ATOM     23  C   UNL     1       2.515  -2.745   7.561  0.00  0.00    -0.005 A 
ATOM     24  C   UNL     1       2.882  -1.810   6.528  0.00  0.00    -0.008 A 
ATOM     25  C   UNL     1       0.682  -1.659   5.150  0.00  0.00    -0.014 A 
ATOM     26  C   UNL     1      -0.321  -2.519   5.724  0.00  0.00    -0.004 A 
ATOM     27  C   UNL     1      -1.521  -2.577   5.136  0.00  0.00    -0.004 A 
ATOM     28  C   UNL     1      -2.538  -3.400   5.658  0.00  0.00    -0.000 A 
ATOM     29  C   UNL     1      -3.766  -3.455   5.045  0.00  0.00    -0.000 A 
ATOM     30  C   UNL     1      -7.533  -3.264   1.200  0.00  0.00    -0.000 A 
ATOM     31  C   UNL     1      -8.789  -3.332   0.570  0.00  0.00    -0.000 A 
ATOM     32  C   UNL     1      -2.271  -4.170   6.828  0.00  0.00    -0.000 A 
ATOM     33  C   UNL     1      -0.967  -4.068   7.411  0.00  0.00    -0.000 A 
ATOM     34  C   UNL     1      -0.010  -3.208   6.801  0.00  0.00    -0.000 A 
ATOM     35  C   UNL     1       1.241  -3.290   7.588  0.00  0.00    -0.000 A 
ATOM     36  C   UNL     1       0.969  -4.183   8.617  0.00  0.00    -0.000 A 
ATOM     37  C   UNL     1       1.874  -4.562   9.607  0.00  0.00    -0.000 A 
ATOM     38  C   UNL     1       1.424  -5.481  10.572  0.00  0.00    -0.000 A 
ATOM     39  C   UNL     1      -9.837   3.676   0.659  0.00  0.00    -0.001 A 
ATOM     40  C   UNL     1       0.128  -5.962  10.505  0.00  0.00    -0.000 A 
ATOM     41  C   UNL     1      -9.456   0.228  -0.070  0.00  0.00    -0.000 A 
ATOM     42  C   UNL     1      -8.822  -0.947   0.355  0.00  0.00    -0.000 A 
ATOM     43  C   UNL     1      -9.422  -2.206   0.157  0.00  0.00    -0.000 A 
ATOM     44  C   UNL     1      -0.782  -5.596   9.527  0.00  0.00    -0.000 A 
ATOM     45  C   UNL     1      -0.397  -4.679   8.529  0.00  0.00    -0.000 A 
ATOM     46  C   UNL     1       1.924  -1.438   5.520  0.00  0.00    -0.026 A 
ATOM     47  C   UNL     1     -11.899   7.072  -5.763  0.00  0.00    -0.022 A 
ATOM     48  C   UNL     1     -11.392   5.824  -5.255  0.00  0.00    -0.012 A 
ATOM     49  C   UNL     1     -11.088   5.711  -3.909  0.00  0.00    -0.023 A 
ATOM     50  C   UNL     1     -10.538   4.533  -3.438  0.00  0.00    -0.009 A 
ATOM     51  C   UNL     1     -10.163   3.524  -4.367  0.00  0.00    -0.027 A 
ATOM     52  C   UNL     1     -10.736   3.519  -5.632  0.00  0.00    -0.013 A 
ATOM     53  C   UNL     1     -11.217   4.752  -6.125  0.00  0.00    -0.027 A 
ATOM     54  C   UNL     1     -11.566   4.884  -7.464  0.00  0.00    +0.049 C 
ATOM     55  C   UNL     1     -11.811   3.733  -8.331  0.00  0.00    +0.059 C 
ATOM     56  C   UNL     1     -11.308   2.451  -7.740  0.00  0.00    -0.027 C 
ATOM     57  C   UNL     1     -10.819   2.346  -6.508  0.00  0.00    -0.022 C 
ATOM     58  C   UNL     1      -7.828   3.332  -3.751  0.00  0.00    +0.063 C 
ATOM     59  C   UNL     1      -7.821   4.509  -2.737  0.00  0.00    +0.146 C 
ATOM     60  N   UNL     1      -6.001   4.684  -2.477  0.00  0.00    +0.241 N 
ATOM     61  C   UNL     1      -5.959   6.127  -2.752  0.00  0.00    +0.192 C 
ATOM     62  C   UNL     1      -4.753   4.816  -1.711  0.00  0.00    +0.192 C 
ATOM     63  C   UNL     1      -5.537   2.913  -2.669  0.00  0.00    +0.150 C 
ATOM     64  C   UNL     1      -6.765   2.301  -3.371  0.00  0.00    +0.078 C 
ATOM     65  C   UNL     1      -9.153   2.593  -3.836  0.00  0.00    +0.049 C 
ATOM     66  C   UNL     1      -9.437   2.081  -2.594  0.00  0.00    +0.060 C 
ATOM     67  C   UNL     1      -1.044   0.478   3.361  0.00  0.00    +0.063 C 
ATOM     68  C   UNL     1      -0.355   1.266   2.231  0.00  0.00    +0.146 C 
ATOM     69  C   UNL     1       5.092  -1.719   9.766  0.00  0.00    +0.063 C 
ATOM     70  C   UNL     1       4.829  -2.494   8.485  0.00  0.00    +0.063 C 
ENDROOT
TORSDOF 0
REMARK  Name = 
REMARK  4 active torsions:
REMARK  status: ('A' for Active; 'I' for Inactive)
REMARK    1  A    between atoms: C_1  and  N_2
REMARK    2  A    between atoms: N_2  and  C_3
REMARK    3  A    between atoms: N_60  and  C_61
REMARK    4  A    between atoms: N_60  and  C_62
REMARK                            x       y       z     vdW  Elec       q    Type
REMARK                         _______ _______ _______ _____ _____    ______ ____
ROOT
ATOM      1  I   UNL     1       0.975  -0.038  -0.089  0.00  0.00    +0.000 I 
ENDROOT
TORSDOF 0
REMARK  Name = 
REMARK  4 active torsions:
REMARK  status: ('A' for Active; 'I' for Inactive)
REMARK    1  A    between atoms: C_1  and  N_2
REMARK    2  A    between atoms: N_2  and  C_3
REMARK    3  A    between atoms: N_60  and  C_61
REMARK    4  A    between atoms: N_60  and  C_62
REMARK                            x       y       z     vdW  Elec       q    Type
REMARK                         _______ _______ _______ _____ _____    ______ ____
ROOT
ATOM      1  I   UNL     1       0.936  -0.055   0.054  0.00  0.00    +0.000 I 
ENDROOT
TORSDOF 0
