@<TRIPOS>MOLECULE
11561383
 54 57 0 0 0
SMALL
GASTEIGER

@<TRIPOS>ATOM
      1 S          -4.2692    1.7087   -1.2545 S.O2    1  UNL1        0.0427
      2 F           7.5145    1.9912    0.3783 F       1  UNL1       -0.2055
      3 O           1.2992    1.2083    0.2201 O.2     1  UNL1       -0.4540
      4 O          -5.7101    1.7877   -1.0979 O.2     1  UNL1       -0.1553
      5 O          -3.6979    1.0693   -2.4249 O.2     1  UNL1       -0.1553
      6 O          -5.7291    0.1890    1.8495 O.3     1  UNL1       -0.3934
      7 O           3.4701   -2.2490   -0.9701 O.2     1  UNL1       -0.2701
      8 N          -3.5741    1.0476    0.1792 N.pl3   1  UNL1       -0.2050
      9 N           1.6915   -3.3864   -0.0436 N.am    1  UNL1       -0.3143
     10 C          -3.3887   -1.7767   -0.3740 C.3     1  UNL1       -0.0140
     11 C          -4.0489   -2.3469    0.8396 C.3     1  UNL1       -0.0456
     12 C          -3.2982   -3.2432   -0.1012 C.3     1  UNL1       -0.0456
     13 C          -2.1692   -0.9290   -0.2058 C.ar    1  UNL1       -0.0209
     14 C          -2.2844    0.4375    0.0621 C.ar    1  UNL1        0.0579
     15 C          -0.9129   -1.5391   -0.3242 C.ar    1  UNL1       -0.0450
     16 C           0.2386   -0.7482   -0.1672 C.ar    1  UNL1        0.0333
     17 C          -1.1529    1.2429    0.2224 C.ar    1  UNL1        0.0042
     18 C           0.0817    0.6080    0.0996 C.ar    1  UNL1        0.1383
     19 C           1.6397   -0.9737   -0.2098 C.ar    1  UNL1        0.0901
     20 C          -3.9057    1.7034    1.4746 C.3     1  UNL1        0.0577
     21 C           2.2357    0.2426    0.0308 C.ar    1  UNL1        0.1483
     22 C          -4.5237    0.6864    2.4165 C.3     1  UNL1        0.0616
     23 C          -3.6537    3.3790   -1.2063 C.3     1  UNL1        0.0738
     24 C           2.3352   -2.2053   -0.4504 C.2     1  UNL1        0.2481
     25 C           3.5973    0.6938    0.1206 C.ar    1  UNL1        0.0182
     26 C           4.2635    1.1485   -1.0206 C.ar    1  UNL1       -0.0484
     27 C           4.2626    0.6801    1.3495 C.ar    1  UNL1       -0.0484
     28 C           5.5851    1.5861   -0.9336 C.ar    1  UNL1       -0.0258
     29 C           5.5842    1.1178    1.4366 C.ar    1  UNL1       -0.0258
     30 C           2.2741   -4.7010   -0.1902 C.3     1  UNL1        0.0004
     31 C           6.2455    1.5708    0.2950 C.ar    1  UNL1        0.1234
     32 H          -4.0481   -1.5070   -1.1960 H       1  UNL1        0.0349
     33 H          -5.1295   -2.4205    0.8437 H       1  UNL1        0.0271
     34 H          -3.6058   -2.2068    1.8172 H       1  UNL1        0.0271
     35 H          -3.8802   -3.9069   -0.7317 H       1  UNL1        0.0271
     36 H          -2.4155   -3.7151    0.3107 H       1  UNL1        0.0271
     37 H          -0.8168   -2.5847   -0.5895 H       1  UNL1        0.0628
     38 H          -1.2114    2.3050    0.4290 H       1  UNL1        0.0674
     39 H          -4.6365    2.5026    1.3121 H       1  UNL1        0.0505
     40 H          -3.0265    2.1642    1.9348 H       1  UNL1        0.0505
     41 H          -3.8483   -0.1474    2.6161 H       1  UNL1        0.0573
     42 H          -4.7670    1.1535    3.3763 H       1  UNL1        0.0573
     43 H          -4.0471    3.8969   -2.0849 H       1  UNL1        0.0482
     44 H          -2.5649    3.3682   -1.2591 H       1  UNL1        0.0482
     45 H          -4.0032    3.8879   -0.3085 H       1  UNL1        0.0482
     46 H           0.8260   -3.3291    0.4814 H       1  UNL1        0.1487
     47 H           3.7633    1.1667   -1.9862 H       1  UNL1        0.0625
     48 H           3.7617    0.3299    2.2491 H       1  UNL1        0.0625
     49 H          -6.3224    0.9460    1.7072 H       1  UNL1        0.2095
     50 H           6.1004    1.9388   -1.8221 H       1  UNL1        0.0646
     51 H           6.0986    1.1060    2.3929 H       1  UNL1        0.0646
     52 H           2.9547   -4.8724    0.6475 H       1  UNL1        0.0426
     53 H           2.8276   -4.7652   -1.1303 H       1  UNL1        0.0426
     54 H           1.4713   -5.4414   -0.1749 H       1  UNL1        0.0426
@<TRIPOS>BOND
     1     1     4    2
     2     1     5    2
     3     1     8    1
     4     1    23    1
     5     2    31    1
     6     3    18   ar
     7     3    21   ar
     8     6    22    1
     9     6    49    1
    10     7    24    2
    11     8    14    1
    12     8    20    1
    13     9    24   am
    14     9    30    1
    15     9    46    1
    16    10    11    1
    17    10    12    1
    18    10    13    1
    19    10    32    1
    20    11    12    1
    21    11    33    1
    22    11    34    1
    23    12    35    1
    24    12    36    1
    25    13    14   ar
    26    13    15   ar
    27    14    17   ar
    28    15    16   ar
    29    15    37    1
    30    16    18   ar
    31    16    19   ar
    32    17    18   ar
    33    17    38    1
    34    19    21   ar
    35    19    24    1
    36    20    22    1
    37    20    39    1
    38    20    40    1
    39    21    25    1
    40    22    41    1
    41    22    42    1
    42    23    43    1
    43    23    44    1
    44    23    45    1
    45    25    26   ar
    46    25    27   ar
    47    26    28   ar
    48    26    47    1
    49    27    29   ar
    50    27    48    1
    51    28    31   ar
    52    28    50    1
    53    29    31   ar
    54    29    51    1
    55    30    52    1
    56    30    53    1
    57    30    54    1
