REMARK  8 active torsions:
REMARK  status: ('A' for Active; 'I' for Inactive)
REMARK    1  A    between atoms: S_1  and  N_8 
REMARK    2  A    between atoms: O_6  and  C_22 
REMARK    3  A    between atoms: N_8  and  C_14 
REMARK    4  A    between atoms: N_8  and  C_20 
REMARK       I    between atoms: N_9  and  C_24 
REMARK    5  A    between atoms: C_10  and  C_13 
REMARK    6  A    between atoms: C_19  and  C_24 
REMARK    7  A    between atoms: C_20  and  C_22 
REMARK    8  A    between atoms: C_21  and  C_25 
ROOT
ATOM      1  O   UNL d   1       1.299   1.208   0.220  0.00  0.00    -0.454 OA
ATOM      2  C   UNL d   1      -2.169  -0.929  -0.206  0.00  0.00    -0.021 A 
ATOM      3  C   UNL d   1      -2.284   0.438   0.062  0.00  0.00     0.058 A 
ATOM      4  C   UNL d   1      -0.913  -1.539  -0.324  0.00  0.00     0.018 A 
ATOM      5  C   UNL d   1       0.239  -0.748  -0.167  0.00  0.00     0.033 A 
ATOM      6  C   UNL d   1      -1.153   1.243   0.222  0.00  0.00     0.072 A 
ATOM      7  C   UNL d   1       0.082   0.608   0.100  0.00  0.00     0.138 A 
ATOM      8  C   UNL d   1       1.640  -0.974  -0.210  0.00  0.00     0.090 A 
ATOM      9  C   UNL d   1       2.236   0.243   0.031  0.00  0.00     0.148 A 
ENDROOT
BRANCH   3  10
ATOM     10  N   UNL d   1      -3.574   1.048   0.179  0.00  0.00    -0.205 N 
BRANCH  10  11
ATOM     11  S   UNL d   1      -4.269   1.709  -1.254  0.00  0.00     0.043 S 
ATOM     12  O   UNL d   1      -5.710   1.788  -1.098  0.00  0.00    -0.155 OA
ATOM     13  O   UNL d   1      -3.698   1.069  -2.425  0.00  0.00    -0.155 OA
ATOM     14  C   UNL d   1      -3.654   3.379  -1.206  0.00  0.00     0.218 C 
ENDBRANCH  10  11
BRANCH  10  15
ATOM     15  C   UNL d   1      -3.906   1.703   1.475  0.00  0.00     0.159 C 
BRANCH  15  16
ATOM     16  C   UNL d   1      -4.524   0.686   2.417  0.00  0.00     0.176 C 
BRANCH  16  17
ATOM     17  O   UNL d   1      -5.729   0.189   1.849  0.00  0.00    -0.393 OA
ATOM     18  H   UNL d   1      -6.322   0.946   1.707  0.00  0.00     0.209 HD
ENDBRANCH  16  17
ENDBRANCH  15  16
ENDBRANCH  10  15
ENDBRANCH   3  10
BRANCH   2  19
ATOM     19  C   UNL d   1      -3.389  -1.777  -0.374  0.00  0.00     0.021 A 
ATOM     20  C   UNL d   1      -4.049  -2.347   0.840  0.00  0.00     0.009 A 
ATOM     21  C   UNL d   1      -3.298  -3.243  -0.101  0.00  0.00     0.009 A 
ENDBRANCH   2  19
BRANCH   8  22
ATOM     22  C   UNL d   1       2.335  -2.205  -0.450  0.00  0.00     0.248 C 
ATOM     23  O   UNL d   1       3.470  -2.249  -0.970  0.00  0.00    -0.270 OA
ATOM     24  N   UNL d   1       1.692  -3.386  -0.044  0.00  0.00    -0.314 N 
ATOM     25  C   UNL d   1       2.274  -4.701  -0.190  0.00  0.00     0.128 C 
ATOM     26  H   UNL d   1       0.826  -3.329   0.481  0.00  0.00     0.149 HD
ENDBRANCH   8  22
BRANCH   9  27
ATOM     27  C   UNL d   1       3.597   0.694   0.121  0.00  0.00     0.018 A 
ATOM     28  C   UNL d   1       4.263   1.149  -1.021  0.00  0.00     0.014 A 
ATOM     29  C   UNL d   1       5.585   1.586  -0.934  0.00  0.00     0.039 A 
ATOM     30  C   UNL d   1       6.245   1.571   0.295  0.00  0.00     0.123 A 
ATOM     31  F   UNL d   1       7.514   1.991   0.378  0.00  0.00    -0.205 F 
ATOM     32  C   UNL d   1       5.584   1.118   1.437  0.00  0.00     0.039 A 
ATOM     33  C   UNL d   1       4.263   0.680   1.349  0.00  0.00     0.014 A 
ENDBRANCH   9  27
TORSDOF 8
