REMARK  Name = 
REMARK  10 active torsions:
REMARK  status: ('A' for Active; 'I' for Inactive)
REMARK    1  A    between atoms: C_1  and  N_2
REMARK    2  A    between atoms: C_3  and  C_5
REMARK    3  A    between atoms: C_6  and  C_7
REMARK    4  A    between atoms: C_17  and  N_18
REMARK    5  A    between atoms: N_18  and  C_19
REMARK    6  A    between atoms: N_18  and  S_22
REMARK    7  A    between atoms: C_19  and  C_20
REMARK    8  A    between atoms: C_20  and  O_21
REMARK    9  A    between atoms: S_22  and  C_23
REMARK   10  A    between atoms: C_26  and  C_27
REMARK                            x       y       z     vdW  Elec       q    Type
REMARK                         _______ _______ _______ _____ _____    ______ ____
ROOT
ATOM      1  C   UNL     1      -0.655   0.967  -1.775  0.00  0.00    +0.090 A 
ATOM      2  C   UNL     1      -0.435   1.471  -3.051  0.00  0.00    +0.148 A 
ATOM      3  O   UNL     1      -0.731   0.508  -3.979  0.00  0.00    -0.454 OA
ATOM      4  C   UNL     1      -1.176  -0.585  -3.313  0.00  0.00    +0.138 A 
ATOM      5  C   UNL     1      -1.605  -1.765  -3.902  0.00  0.00    +0.072 A 
ATOM      6  C   UNL     1      -2.061  -2.782  -3.043  0.00  0.00    +0.058 A 
ATOM      7  C   UNL     1      -2.110  -2.621  -1.633  0.00  0.00    -0.021 A 
ATOM      8  C   UNL     1      -1.652  -1.383  -1.112  0.00  0.00    +0.018 A 
ATOM      9  C   UNL     1      -1.166  -0.359  -1.951  0.00  0.00    +0.033 A 
ENDROOT
BRANCH   2  10
ATOM     10  C   UNL     1       0.045   2.733  -3.615  0.00  0.00    +0.018 A 
ATOM     11  C   UNL     1      -0.354   3.130  -4.905  0.00  0.00    +0.014 A 
ATOM     12  C   UNL     1       0.092   4.333  -5.459  0.00  0.00    +0.039 A 
ATOM     13  C   UNL     1       0.944   5.147  -4.727  0.00  0.00    +0.123 A 
ATOM     14  F   UNL     1       1.374   6.300  -5.256  0.00  0.00    -0.205 F 
ATOM     15  C   UNL     1       1.358   4.780  -3.454  0.00  0.00    +0.039 A 
ATOM     16  C   UNL     1       0.911   3.576  -2.900  0.00  0.00    +0.014 A 
ENDBRANCH   2  10
BRANCH   1  19
ATOM     17  C   UNL     1       1.267   0.054   0.285  0.00  0.00    +0.128 C 
ATOM     18  N   UNL     1       0.373   1.182   0.405  0.00  0.00    -0.314 N 
ATOM     19  C   UNL     1      -0.478   1.698  -0.540  0.00  0.00    +0.248 C 
ATOM     20  O   UNL     1      -1.047   2.762  -0.318  0.00  0.00    -0.270 OA
ATOM     21  H   UNL     1       0.403   1.733   1.254  0.00  0.00    +0.149 HD
ENDBRANCH   1  19
BRANCH   7  22
ATOM     22  C   UNL     1      -2.652  -3.702  -0.705  0.00  0.00    +0.021 C 
ATOM     23  C   UNL     1      -1.674  -4.471   0.158  0.00  0.00    +0.009 C 
ATOM     24  C   UNL     1      -2.695  -3.587   0.803  0.00  0.00    +0.009 C 
ENDBRANCH   7  22
BRANCH   6  25
ATOM     25  N   UNL     1      -2.548  -3.947  -3.735  0.00  0.00    -0.205 N 
BRANCH  25  26
ATOM     26  S   UNL     1      -1.676  -5.390  -3.699  0.00  0.00    +0.043 S 
ATOM     27  C   UNL     1       0.033  -4.880  -3.719  0.00  0.00    +0.218 C 
ATOM     28  O   UNL     1      -1.939  -6.077  -2.454  0.00  0.00    -0.155 OA
ATOM     29  O   UNL     1      -1.951  -6.053  -4.960  0.00  0.00    -0.155 OA
ENDBRANCH  25  26
BRANCH  25  30
ATOM     30  C   UNL     1      -4.030  -4.064  -3.885  0.00  0.00    +0.159 C 
BRANCH  30  31
ATOM     31  C   UNL     1      -4.425  -3.965  -5.361  0.00  0.00    +0.176 C 
BRANCH  31  32
ATOM     32  O   UNL     1      -4.294  -5.208  -6.042  0.00  0.00    -0.393 OA
ATOM     33  H   UNL     1      -3.400  -5.568  -5.854  0.00  0.00    +0.209 HD
ENDBRANCH  31  32
ENDBRANCH  30  31
ENDBRANCH  25  30
ENDBRANCH   6  25
TORSDOF 8
