REMARK  Name = 
REMARK  7 active torsions:
REMARK  status: ('A' for Active; 'I' for Inactive)
REMARK    1  A    between atoms: C_1  and  N_2
REMARK    2  A    between atoms: N_2  and  C_3
REMARK    3  A    between atoms: C_4  and  C_6
REMARK    4  A    between atoms: C_6  and  N_7
REMARK    5  A    between atoms: C_8  and  C_9
REMARK    6  A    between atoms: C_15  and  C_16
REMARK    7  A    between atoms: C_25  and  C_26
REMARK                            x       y       z     vdW  Elec       q    Type
REMARK                         _______ _______ _______ _____ _____    ______ ____
ROOT
ATOM      1  N   UNL     1       0.301  -0.987  -3.910  0.00  0.00    -0.331 N 
ATOM      2  C   UNL     1      -0.299  -2.230  -3.756  0.00  0.00    +0.055 A 
ATOM      3  C   UNL     1       0.505  -3.170  -4.396  0.00  0.00    -0.011 A 
ATOM      4  C   UNL     1       1.585  -2.451  -5.008  0.00  0.00    +0.004 A 
ATOM      5  C   UNL     1       2.690  -2.834  -5.799  0.00  0.00    +0.011 A 
ATOM      6  C   UNL     1       3.580  -1.869  -6.281  0.00  0.00    +0.010 A 
ATOM      7  C   UNL     1       3.403  -0.511  -6.002  0.00  0.00    -0.001 A 
ATOM      8  C   UNL     1       2.301  -0.117  -5.219  0.00  0.00    +0.036 A 
ATOM      9  C   UNL     1       1.415  -1.094  -4.721  0.00  0.00    +0.051 A 
ENDROOT
BRANCH   2  10
ATOM     10  C   UNL     1      -1.549  -2.448  -3.029  0.00  0.00    +0.017 A 
ATOM     11  C   UNL     1      -1.554  -3.073  -1.781  0.00  0.00    +0.013 A 
ATOM     12  C   UNL     1      -2.760  -3.264  -1.111  0.00  0.00    +0.020 A 
ATOM     13  C   UNL     1      -3.925  -2.825  -1.718  0.00  0.00    +0.111 A 
ATOM     14  N   UNL     1      -3.965  -2.225  -2.927  0.00  0.00    -0.263 NA
ATOM     15  C   UNL     1      -2.776  -2.057  -3.558  0.00  0.00    +0.120 A 
ENDBRANCH   2  10
BRANCH   3  16
ATOM     16  C   UNL     1       0.249  -4.662  -4.458  0.00  0.00    +0.022 C 
ATOM     17  C   UNL     1      -0.018  -5.158  -5.888  0.00  0.00    +0.008 C 
ATOM     18  C   UNL     1      -0.304  -6.659  -5.915  0.00  0.00    +0.001 C 
ATOM     19  C   UNL     1       0.811  -7.456  -5.244  0.00  0.00    +0.000 C 
ATOM     20  C   UNL     1       1.068  -6.974  -3.820  0.00  0.00    +0.001 C 
ATOM     21  C   UNL     1       1.361  -5.475  -3.776  0.00  0.00    +0.008 C 
ENDBRANCH   3  16
BRANCH   7  22
ATOM     22  C   UNL     1       4.389   0.516  -6.534  0.00  0.00    +0.072 C 
ATOM     23  O   UNL     1       4.190   1.732  -6.221  0.00  0.00    -0.545 OA
ATOM     24  O   UNL     1       5.349   0.082  -7.248  0.00  0.00    -0.545 OA
ENDBRANCH   7  22
BRANCH   1  25
ATOM     25  C   UNL     1      -0.211   0.261  -3.340  0.00  0.00    +0.218 C 
BRANCH  25  29
ATOM     26  C   UNL     1       2.773   1.522  -1.279  0.00  0.00    +0.131 C 
ATOM     27  N   UNL     1       1.659   0.691  -1.705  0.00  0.00    -0.306 N 
ATOM     28  C   UNL     1       1.607  -0.645  -1.143  0.00  0.00    +0.131 C 
ATOM     29  C   UNL     1       0.796   1.183  -2.675  0.00  0.00    +0.235 C 
ATOM     30  O   UNL     1       0.755   2.390  -2.941  0.00  0.00    -0.274 OA
ENDBRANCH  25  29
ENDBRANCH   1  25
TORSDOF 5
