
 OpenBabel08292220033D

 27 29  0  0  1  0  0  0  0  0999 V2000
  -11.8420    8.9570   11.3150 C   0  0  0  0  0  0  0  0  0  0  0  0
  -12.5610    8.5670   10.1400 C   0  0  0  0  0  3  0  0  0  0  0  0
  -13.4790    9.5090    9.7210 C   0  0  0  0  0  0  0  0  0  0  0  0
  -13.4690   10.8670   10.7630 S   0  0  0  0  0  0  0  0  0  0  0  0
  -12.2060   10.2280   11.7370 C   0  0  0  0  0  0  0  0  0  0  0  0
  -14.4080    9.4410    8.5850 C   0  0  0  0  0  0  0  0  0  0  0  0
  -14.7170   10.5750    7.8190 C   0  0  0  0  0  3  0  0  0  0  0  0
  -15.5880   10.4870    6.7290 C   0  0  0  0  0  3  0  0  0  0  0  0
  -16.1600    9.2630    6.3900 C   0  0  0  0  0  3  0  0  0  0  0  0
  -15.8620    8.1270    7.1380 C   0  0  0  0  0  3  0  0  0  0  0  0
  -14.9900    8.2160    8.2270 C   0  0  0  0  0  3  0  0  0  0  0  0
  -10.8640    8.1510   11.9340 N   0  0  0  0  0  0  0  0  0  0  0  0
   -9.6240    8.1170   11.2740 C   0  0  0  0  0  0  0  0  0  0  0  0
   -9.2110    9.0710   10.6010 O   0  0  0  0  0  0  0  0  0  0  0  0
   -8.7370    6.8760   11.4640 C   0  0  1  0  0  3  0  0  0  0  0  0
   -9.3540    5.6310   10.8010 C   0  0  0  0  0  2  0  0  0  0  0  0
   -9.1340    5.5320    9.2910 C   0  0  0  0  0  2  0  0  0  0  0  0
   -7.6780    5.7520    8.8710 C   0  0  2  0  0  3  0  0  0  0  0  0
   -6.7970    4.5530    9.2300 C   0  0  0  0  0  1  0  0  0  0  0  0
   -7.1410    7.0560    9.4690 C   0  0  0  0  0  2  0  0  0  0  0  0
   -7.3020    7.1330   10.9870 C   0  0  0  0  0  2  0  0  0  0  0  0
  -10.6690    8.0490   14.4140 C   0  0  0  0  0  1  0  0  0  0  0  0
  -11.1990    7.3710   13.1460 C   0  0  0  0  0  3  0  0  0  0  0  0
  -12.6940    7.0670   13.2880 C   0  0  0  0  0  1  0  0  0  0  0  0
  -11.5840   11.0170   12.8490 C   0  0  0  0  0  0  0  0  0  0  0  0
  -12.2350   11.0970   13.9390 O   0  0  0  0  0  1  0  0  0  0  0  0
  -10.4710   11.5950   12.6250 O   0  0  0  0  0  0  0  0  0  0  0  0
  1  5  2  0  0  0  0
  1 12  1  0  0  0  0
  2  1  1  0  0  0  0
  3  2  2  0  0  0  0
  3  4  1  0  0  0  0
  4  5  1  0  0  0  0
  5 25  1  0  0  0  0
  6  3  1  0  0  0  0
  7  6  2  0  0  0  0
  8  7  1  0  0  0  0
  9  8  2  0  0  0  0
  9 10  1  0  0  0  0
 10 11  2  0  0  0  0
 11  6  1  0  0  0  0
 12 23  1  0  0  0  0
 13 12  1  0  0  0  0
 14 13  2  0  0  0  0
 15 13  1  6  0  0  0
 16 15  1  0  0  0  0
 17 16  1  0  0  0  0
 18 19  1  1  0  0  0
 18 17  1  0  0  0  0
 18 20  1  0  0  0  0
 20 21  1  0  0  0  0
 21 15  1  0  0  0  0
 23 24  1  0  0  0  0
 23 22  1  0  0  0  0
 25 26  1  0  0  0  0
 27 25  2  0  0  0  0
M  END
>  <minimizedAffinity>
-7.58756161

$$$$
