
 OpenBabel08292220033D

 27 29  0  0  1  0  0  0  0  0999 V2000
  -19.4240   -0.2790    5.5940 C   0  0  0  0  0  0  0  0  0  0  0  0
  -20.3900    0.5130    6.2930 C   0  0  0  0  0  3  0  0  0  0  0  0
  -19.9790    0.8900    7.5560 C   0  0  0  0  0  0  0  0  0  0  0  0
  -18.4190    0.2740    7.8930 S   0  0  0  0  0  0  0  0  0  0  0  0
  -18.2650   -0.4460    6.3400 C   0  0  0  0  0  0  0  0  0  0  0  0
  -20.7100    1.6720    8.5620 C   0  0  0  0  0  0  0  0  0  0  0  0
  -21.1110    2.9940    8.3170 C   0  0  0  0  0  3  0  0  0  0  0  0
  -21.8240    3.7150    9.2790 C   0  0  0  0  0  3  0  0  0  0  0  0
  -22.1470    3.1230   10.4980 C   0  0  0  0  0  3  0  0  0  0  0  0
  -21.7590    1.8110   10.7560 C   0  0  0  0  0  3  0  0  0  0  0  0
  -21.0470    1.0900    9.7930 C   0  0  0  0  0  3  0  0  0  0  0  0
  -19.6280   -0.7910    4.2950 N   0  0  0  0  0  0  0  0  0  0  0  0
  -19.4840    0.1500    3.2620 C   0  0  0  0  0  0  0  0  0  0  0  0
  -18.7280    1.1260    3.3610 O   0  0  0  0  0  0  0  0  0  0  0  0
  -20.2450   -0.0960    1.9490 C   0  0  1  0  0  3  0  0  0  0  0  0
  -21.5900   -0.8050    2.1970 C   0  0  0  0  0  2  0  0  0  0  0  0
  -22.7230    0.1120    2.6600 C   0  0  0  0  0  2  0  0  0  0  0  0
  -22.8800    1.3700    1.8000 C   0  0  2  0  0  3  0  0  0  0  0  0
  -23.4930    1.0500    0.4350 C   0  0  0  0  0  1  0  0  0  0  0  0
  -21.5380    2.0970    1.6700 C   0  0  0  0  0  2  0  0  0  0  0  0
  -20.4160    1.2010    1.1480 C   0  0  0  0  0  2  0  0  0  0  0  0
  -18.8620   -3.0490    3.5810 C   0  0  0  0  0  1  0  0  0  0  0  0
  -20.0270   -2.2030    4.1050 C   0  0  0  0  0  3  0  0  0  0  0  0
  -20.6330   -2.8450    5.3560 C   0  0  0  0  0  1  0  0  0  0  0  0
  -16.9970   -1.1050    5.8920 C   0  0  0  0  0  0  0  0  0  0  0  0
  -16.2670   -0.4630    5.0710 O   0  0  0  0  0  0  0  0  0  0  0  0
  -16.7460   -2.2800    6.3190 O   0  0  0  0  0  1  0  0  0  0  0  0
  1  2  1  0  0  0  0
  1  5  2  0  0  0  0
  2  3  2  0  0  0  0
  3  4  1  0  0  0  0
  3  6  1  0  0  0  0
  5  4  1  0  0  0  0
  6 11  1  0  0  0  0
  7  6  2  0  0  0  0
  7  8  1  0  0  0  0
  8  9  2  0  0  0  0
  9 10  1  0  0  0  0
 11 10  2  0  0  0  0
 12  1  1  0  0  0  0
 13 14  2  0  0  0  0
 13 12  1  0  0  0  0
 15 16  1  0  0  0  0
 15 13  1  1  0  0  0
 16 17  1  0  0  0  0
 18 19  1  6  0  0  0
 18 17  1  0  0  0  0
 20 18  1  0  0  0  0
 21 20  1  0  0  0  0
 21 15  1  0  0  0  0
 22 23  1  0  0  0  0
 23 12  1  0  0  0  0
 23 24  1  0  0  0  0
 25 27  1  0  0  0  0
 25  5  1  0  0  0  0
 26 25  2  0  0  0  0
M  END
>  <minimizedAffinity>
-7.3650136

$$$$
