
 OpenBabel08292220033D

 27 29  0  0  1  0  0  0  0  0999 V2000
  -22.0100    0.0350    4.8600 C   0  0  0  0  0  0  0  0  0  0  0  0
  -21.4050    0.4780    6.0800 C   0  0  0  0  0  3  0  0  0  0  0  0
  -22.2590    1.2090    6.8810 C   0  0  0  0  0  0  0  0  0  0  0  0
  -23.7960    1.3620    6.1450 S   0  0  0  0  0  0  0  0  0  0  0  0
  -23.3460    0.4090    4.7880 C   0  0  0  0  0  0  0  0  0  0  0  0
  -21.9800    1.8440    8.1760 C   0  0  0  0  0  0  0  0  0  0  0  0
  -21.7380    3.2220    8.2830 C   0  0  0  0  0  3  0  0  0  0  0  0
  -21.4940    3.8110    9.5260 C   0  0  0  0  0  3  0  0  0  0  0  0
  -21.4910    3.0310   10.6800 C   0  0  0  0  0  3  0  0  0  0  0  0
  -21.7320    1.6630   10.5930 C   0  0  0  0  0  3  0  0  0  0  0  0
  -21.9770    1.0740    9.3480 C   0  0  0  0  0  3  0  0  0  0  0  0
  -21.3300   -0.7160    3.8790 N   0  0  0  0  0  0  0  0  0  0  0  0
  -21.2220   -2.0890    4.1570 C   0  0  0  0  0  0  0  0  0  0  0  0
  -22.0700   -2.6930    4.8280 O   0  0  0  0  0  0  0  0  0  0  0  0
  -20.0440   -2.8610    3.5420 C   0  0  1  0  0  3  0  0  0  0  0  0
  -18.6900   -2.2460    3.9460 C   0  0  0  0  0  2  0  0  0  0  0  0
  -18.1950   -2.6390    5.3380 C   0  0  0  0  0  2  0  0  0  0  0  0
  -18.2490   -4.1470    5.6010 C   0  0  2  0  0  3  0  0  0  0  0  0
  -17.1550   -4.8960    4.8360 C   0  0  0  0  0  1  0  0  0  0  0  0
  -19.6450   -4.6940    5.2860 C   0  0  0  0  0  2  0  0  0  0  0  0
  -20.1190   -4.3570    3.8730 C   0  0  0  0  0  2  0  0  0  0  0  0
  -21.4330   -0.4660    1.4040 C   0  0  0  0  0  1  0  0  0  0  0  0
  -20.7380   -0.0420    2.7020 C   0  0  0  0  0  3  0  0  0  0  0  0
  -20.7080    1.4850    2.8180 C   0  0  0  0  0  1  0  0  0  0  0  0
  -24.3300    0.0210    3.7280 C   0  0  0  0  0  0  0  0  0  0  0  0
  -25.0550   -1.0000    3.9540 O   0  0  0  0  0  1  0  0  0  0  0  0
  -24.3530    0.7020    2.6510 O   0  0  0  0  0  0  0  0  0  0  0  0
  1  2  1  0  0  0  0
  2  3  2  0  0  0  0
  3  6  1  0  0  0  0
  4  3  1  0  0  0  0
  5  1  2  0  0  0  0
  5  4  1  0  0  0  0
  6  7  2  0  0  0  0
  6 11  1  0  0  0  0
  7  8  1  0  0  0  0
  8  9  2  0  0  0  0
 10  9  1  0  0  0  0
 11 10  2  0  0  0  0
 12 13  1  0  0  0  0
 12  1  1  0  0  0  0
 13 14  2  0  0  0  0
 15 21  1  0  0  0  0
 15 16  1  0  0  0  0
 15 13  1  1  0  0  0
 16 17  1  0  0  0  0
 17 18  1  0  0  0  0
 18 19  1  6  0  0  0
 20 18  1  0  0  0  0
 21 20  1  0  0  0  0
 22 23  1  0  0  0  0
 23 24  1  0  0  0  0
 23 12  1  0  0  0  0
 25 26  1  0  0  0  0
 25  5  1  0  0  0  0
 27 25  2  0  0  0  0
M  END
>  <minimizedAffinity>
-8.00453472

$$$$

 OpenBabel08292220033D

 27 29  0  0  1  0  0  0  0  0999 V2000
  -26.2880  -15.7960    0.1470 C   0  0  0  0  0  0  0  0  0  0  0  0
  -25.1550  -15.0960   -0.3780 C   0  0  0  0  0  3  0  0  0  0  0  0
  -25.4950  -14.0450   -1.2060 C   0  0  0  0  0  0  0  0  0  0  0  0
  -27.1950  -13.9140   -1.3500 S   0  0  0  0  0  0  0  0  0  0  0  0
  -27.4810  -15.2180   -0.2670 C   0  0  0  0  0  0  0  0  0  0  0  0
  -24.6080  -13.1330   -1.9410 C   0  0  0  0  0  0  0  0  0  0  0  0
  -23.2230  -13.1160   -1.7180 C   0  0  0  0  0  3  0  0  0  0  0  0
  -22.3920  -12.2550   -2.4400 C   0  0  0  0  0  3  0  0  0  0  0  0
  -22.9350  -11.4010   -3.3970 C   0  0  0  0  0  3  0  0  0  0  0  0
  -24.3070  -11.4070   -3.6340 C   0  0  0  0  0  3  0  0  0  0  0  0
  -25.1380  -12.2690   -2.9110 C   0  0  0  0  0  3  0  0  0  0  0  0
  -26.1870  -16.9120    1.0040 N   0  0  0  0  0  0  0  0  0  0  0  0
  -26.5140  -18.1420    0.4090 C   0  0  0  0  0  0  0  0  0  0  0  0
  -26.3470  -18.3550   -0.7990 O   0  0  0  0  0  0  0  0  0  0  0  0
  -27.0290  -19.2700    1.3180 C   0  0  1  0  0  3  0  0  0  0  0  0
  -28.4640  -19.6880    0.9470 C   0  0  0  0  0  2  0  0  0  0  0  0
  -28.5690  -20.6320   -0.2510 C   0  0  0  0  0  2  0  0  0  0  0  0
  -27.6190  -21.8310   -0.1670 C   0  0  2  0  0  3  0  0  0  0  0  0
  -28.0860  -22.8530    0.8720 C   0  0  0  0  0  1  0  0  0  0  0  0
  -26.1860  -21.3580    0.0980 C   0  0  0  0  0  2  0  0  0  0  0  0
  -26.0650  -20.4640    1.3310 C   0  0  0  0  0  2  0  0  0  0  0  0
  -24.3380  -17.0040    2.6680 C   0  0  0  0  0  1  0  0  0  0  0  0
  -25.8260  -16.7290    2.4270 C   0  0  0  0  0  3  0  0  0  0  0  0
  -26.2130  -15.3570    2.9890 C   0  0  0  0  0  1  0  0  0  0  0  0
  -28.8610  -15.5940    0.1770 C   0  0  0  0  0  0  0  0  0  0  0  0
  -29.2070  -15.2530    1.3520 O   0  0  0  0  0  1  0  0  0  0  0  0
  -29.5870  -16.2690   -0.6250 O   0  0  0  0  0  0  0  0  0  0  0  0
  1 12  1  0  0  0  0
  2  1  1  0  0  0  0
  3  2  2  0  0  0  0
  4  3  1  0  0  0  0
  4  5  1  0  0  0  0
  5  1  2  0  0  0  0
  5 25  1  0  0  0  0
  6  7  1  0  0  0  0
  6  3  1  0  0  0  0
  8  7  2  0  0  0  0
  9  8  1  0  0  0  0
 10  9  2  0  0  0  0
 10 11  1  0  0  0  0
 11  6  2  0  0  0  0
 12 23  1  0  0  0  0
 13 12  1  0  0  0  0
 14 13  2  0  0  0  0
 15 13  1  6  0  0  0
 15 21  1  0  0  0  0
 16 15  1  0  0  0  0
 17 18  1  0  0  0  0
 17 16  1  0  0  0  0
 18 20  1  0  0  0  0
 18 19  1  1  0  0  0
 20 21  1  0  0  0  0
 23 22  1  0  0  0  0
 23 24  1  0  0  0  0
 25 26  1  0  0  0  0
 27 25  2  0  0  0  0
M  END
>  <minimizedAffinity>
-7.96213102

$$$$

 OpenBabel08292220033D

 27 29  0  0  1  0  0  0  0  0999 V2000
  -11.8420    8.9570   11.3150 C   0  0  0  0  0  0  0  0  0  0  0  0
  -12.5610    8.5670   10.1400 C   0  0  0  0  0  3  0  0  0  0  0  0
  -13.4790    9.5090    9.7210 C   0  0  0  0  0  0  0  0  0  0  0  0
  -13.4690   10.8670   10.7630 S   0  0  0  0  0  0  0  0  0  0  0  0
  -12.2060   10.2280   11.7370 C   0  0  0  0  0  0  0  0  0  0  0  0
  -14.4080    9.4410    8.5850 C   0  0  0  0  0  0  0  0  0  0  0  0
  -14.7170   10.5750    7.8190 C   0  0  0  0  0  3  0  0  0  0  0  0
  -15.5880   10.4870    6.7290 C   0  0  0  0  0  3  0  0  0  0  0  0
  -16.1600    9.2630    6.3900 C   0  0  0  0  0  3  0  0  0  0  0  0
  -15.8620    8.1270    7.1380 C   0  0  0  0  0  3  0  0  0  0  0  0
  -14.9900    8.2160    8.2270 C   0  0  0  0  0  3  0  0  0  0  0  0
  -10.8640    8.1510   11.9340 N   0  0  0  0  0  0  0  0  0  0  0  0
   -9.6240    8.1170   11.2740 C   0  0  0  0  0  0  0  0  0  0  0  0
   -9.2110    9.0710   10.6010 O   0  0  0  0  0  0  0  0  0  0  0  0
   -8.7370    6.8760   11.4640 C   0  0  1  0  0  3  0  0  0  0  0  0
   -9.3540    5.6310   10.8010 C   0  0  0  0  0  2  0  0  0  0  0  0
   -9.1340    5.5320    9.2910 C   0  0  0  0  0  2  0  0  0  0  0  0
   -7.6780    5.7520    8.8710 C   0  0  2  0  0  3  0  0  0  0  0  0
   -6.7970    4.5530    9.2300 C   0  0  0  0  0  1  0  0  0  0  0  0
   -7.1410    7.0560    9.4690 C   0  0  0  0  0  2  0  0  0  0  0  0
   -7.3020    7.1330   10.9870 C   0  0  0  0  0  2  0  0  0  0  0  0
  -10.6690    8.0490   14.4140 C   0  0  0  0  0  1  0  0  0  0  0  0
  -11.1990    7.3710   13.1460 C   0  0  0  0  0  3  0  0  0  0  0  0
  -12.6940    7.0670   13.2880 C   0  0  0  0  0  1  0  0  0  0  0  0
  -11.5840   11.0170   12.8490 C   0  0  0  0  0  0  0  0  0  0  0  0
  -12.2350   11.0970   13.9390 O   0  0  0  0  0  1  0  0  0  0  0  0
  -10.4710   11.5950   12.6250 O   0  0  0  0  0  0  0  0  0  0  0  0
  1  5  2  0  0  0  0
  1 12  1  0  0  0  0
  2  1  1  0  0  0  0
  3  2  2  0  0  0  0
  3  4  1  0  0  0  0
  4  5  1  0  0  0  0
  5 25  1  0  0  0  0
  6  3  1  0  0  0  0
  7  6  2  0  0  0  0
  8  7  1  0  0  0  0
  9  8  2  0  0  0  0
  9 10  1  0  0  0  0
 10 11  2  0  0  0  0
 11  6  1  0  0  0  0
 12 23  1  0  0  0  0
 13 12  1  0  0  0  0
 14 13  2  0  0  0  0
 15 13  1  6  0  0  0
 16 15  1  0  0  0  0
 17 16  1  0  0  0  0
 18 19  1  1  0  0  0
 18 17  1  0  0  0  0
 18 20  1  0  0  0  0
 20 21  1  0  0  0  0
 21 15  1  0  0  0  0
 23 24  1  0  0  0  0
 23 22  1  0  0  0  0
 25 26  1  0  0  0  0
 27 25  2  0  0  0  0
M  END
>  <minimizedAffinity>
-7.58756161

$$$$

 OpenBabel08292220033D

 27 29  0  0  1  0  0  0  0  0999 V2000
  -13.4550   -6.1670   11.6980 C   0  0  0  0  0  0  0  0  0  0  0  0
  -14.7530   -5.9470   12.2590 C   0  0  0  0  0  3  0  0  0  0  0  0
  -15.5120   -7.0960   12.3510 C   0  0  0  0  0  0  0  0  0  0  0  0
  -14.6460   -8.4430   11.7490 S   0  0  0  0  0  0  0  0  0  0  0  0
  -13.2410   -7.5100   11.4180 C   0  0  0  0  0  0  0  0  0  0  0  0
  -16.8900   -7.2480   12.8410 C   0  0  0  0  0  0  0  0  0  0  0  0
  -17.2060   -8.1300   13.8850 C   0  0  0  0  0  3  0  0  0  0  0  0
  -18.5190   -8.2460   14.3500 C   0  0  0  0  0  3  0  0  0  0  0  0
  -19.5320   -7.4790   13.7800 C   0  0  0  0  0  3  0  0  0  0  0  0
  -19.2350   -6.5970   12.7440 C   0  0  0  0  0  3  0  0  0  0  0  0
  -17.9220   -6.4810   12.2790 C   0  0  0  0  0  3  0  0  0  0  0  0
  -12.5090   -5.1410   11.4940 N   0  0  0  0  0  0  0  0  0  0  0  0
  -11.7750   -4.7790   12.6360 C   0  0  0  0  0  0  0  0  0  0  0  0
  -11.5300   -5.5850   13.5430 O   0  0  0  0  0  0  0  0  0  0  0  0
  -11.2090   -3.3520   12.7090 C   0  0  1  0  0  3  0  0  0  0  0  0
  -11.6470   -2.6330   13.9990 C   0  0  0  0  0  2  0  0  0  0  0  0
  -10.8370   -2.9970   15.2440 C   0  0  0  0  0  2  0  0  0  0  0  0
   -9.3220   -2.9290   15.0270 C   0  0  2  0  0  3  0  0  0  0  0  0
   -8.8260   -1.4840   14.9420 C   0  0  0  0  0  1  0  0  0  0  0  0
   -8.9230   -3.7460   13.7940 C   0  0  0  0  0  2  0  0  0  0  0  0
   -9.6850   -3.3430   12.5330 C   0  0  0  0  0  2  0  0  0  0  0  0
  -11.2830   -5.1220    9.3270 C   0  0  0  0  0  1  0  0  0  0  0  0
  -12.3930   -4.4870   10.1700 C   0  0  0  0  0  3  0  0  0  0  0  0
  -13.7070   -4.4520    9.3840 C   0  0  0  0  0  1  0  0  0  0  0  0
  -11.9650   -8.1360   10.9440 C   0  0  0  0  0  0  0  0  0  0  0  0
  -10.9800   -8.1300   11.7500 O   0  0  0  0  0  1  0  0  0  0  0  0
  -11.9270   -8.5940    9.7550 O   0  0  0  0  0  0  0  0  0  0  0  0
  1  2  1  0  0  0  0
  2  3  2  0  0  0  0
  3  6  1  0  0  0  0
  4  3  1  0  0  0  0
  5  1  2  0  0  0  0
  5  4  1  0  0  0  0
  6  7  1  0  0  0  0
  7  8  2  0  0  0  0
  9  8  1  0  0  0  0
 10  9  2  0  0  0  0
 11 10  1  0  0  0  0
 11  6  2  0  0  0  0
 12  1  1  0  0  0  0
 12 13  1  0  0  0  0
 13 14  2  0  0  0  0
 15 13  1  1  0  0  0
 15 16  1  0  0  0  0
 16 17  1  0  0  0  0
 18 19  1  6  0  0  0
 18 17  1  0  0  0  0
 20 18  1  0  0  0  0
 21 15  1  0  0  0  0
 21 20  1  0  0  0  0
 22 23  1  0  0  0  0
 23 12  1  0  0  0  0
 24 23  1  0  0  0  0
 25  5  1  0  0  0  0
 25 26  1  0  0  0  0
 27 25  2  0  0  0  0
M  END
>  <minimizedAffinity>
-7.53568697

$$$$

 OpenBabel08292220033D

 27 29  0  0  1  0  0  0  0  0999 V2000
  -24.0470   -2.8310    5.5330 C   0  0  0  0  0  0  0  0  0  0  0  0
  -23.1520   -2.7060    6.6440 C   0  0  0  0  0  3  0  0  0  0  0  0
  -23.0050   -3.8740    7.3630 C   0  0  0  0  0  0  0  0  0  0  0  0
  -23.9620   -5.1230    6.6910 S   0  0  0  0  0  0  0  0  0  0  0  0
  -24.5280   -4.1270    5.4100 C   0  0  0  0  0  0  0  0  0  0  0  0
  -22.2020   -4.1120    8.5710 C   0  0  0  0  0  0  0  0  0  0  0  0
  -20.9850   -3.4490    8.7860 C   0  0  0  0  0  3  0  0  0  0  0  0
  -20.2440   -3.6730    9.9500 C   0  0  0  0  0  3  0  0  0  0  0  0
  -20.7120   -4.5610   10.9150 C   0  0  0  0  0  3  0  0  0  0  0  0
  -21.9200   -5.2260   10.7190 C   0  0  0  0  0  3  0  0  0  0  0  0
  -22.6610   -5.0010    9.5540 C   0  0  0  0  0  3  0  0  0  0  0  0
  -24.3630   -1.7670    4.6630 N   0  0  0  0  0  0  0  0  0  0  0  0
  -23.4690   -1.5940    3.5930 C   0  0  0  0  0  0  0  0  0  0  0  0
  -22.8370   -2.5410    3.1040 O   0  0  0  0  0  0  0  0  0  0  0  0
  -23.3380   -0.1910    2.9790 C   0  0  1  0  0  3  0  0  0  0  0  0
  -22.2300    0.6280    3.6680 C   0  0  0  0  0  2  0  0  0  0  0  0
  -20.8100    0.3110    3.1980 C   0  0  0  0  0  2  0  0  0  0  0  0
  -20.6610    0.3000    1.6740 C   0  0  2  0  0  3  0  0  0  0  0  0
  -20.7000    1.7140    1.0900 C   0  0  0  0  0  1  0  0  0  0  0  0
  -21.7170   -0.6120    1.0410 C   0  0  0  0  0  2  0  0  0  0  0  0
  -23.1440   -0.2590    1.4590 C   0  0  0  0  0  2  0  0  0  0  0  0
  -26.6770   -1.6770    5.5780 C   0  0  0  0  0  1  0  0  0  0  0  0
  -25.5240   -0.8920    4.9450 C   0  0  0  0  0  3  0  0  0  0  0  0
  -25.1780    0.3320    5.8000 C   0  0  0  0  0  1  0  0  0  0  0  0
  -25.3820   -4.6650    4.3030 C   0  0  0  0  0  0  0  0  0  0  0  0
  -26.6250   -4.8020    4.5410 O   0  0  0  0  0  1  0  0  0  0  0  0
  -24.8130   -4.9950    3.2110 O   0  0  0  0  0  0  0  0  0  0  0  0
  1  2  1  0  0  0  0
  2  3  2  0  0  0  0
  3  6  1  0  0  0  0
  4  3  1  0  0  0  0
  5  1  2  0  0  0  0
  5  4  1  0  0  0  0
  6  7  2  0  0  0  0
  6 11  1  0  0  0  0
  7  8  1  0  0  0  0
  8  9  2  0  0  0  0
 10  9  1  0  0  0  0
 11 10  2  0  0  0  0
 12 23  1  0  0  0  0
 12  1  1  0  0  0  0
 13 12  1  0  0  0  0
 14 13  2  0  0  0  0
 15 13  1  1  0  0  0
 15 16  1  0  0  0  0
 17 16  1  0  0  0  0
 18 19  1  6  0  0  0
 18 17  1  0  0  0  0
 20 21  1  0  0  0  0
 20 18  1  0  0  0  0
 21 15  1  0  0  0  0
 23 22  1  0  0  0  0
 23 24  1  0  0  0  0
 25 26  1  0  0  0  0
 25  5  1  0  0  0  0
 27 25  2  0  0  0  0
M  END
>  <minimizedAffinity>
-7.53335238

$$$$

 OpenBabel08292220033D

 27 29  0  0  1  0  0  0  0  0999 V2000
  -18.8010   -2.7540    4.7210 C   0  0  0  0  0  0  0  0  0  0  0  0
  -19.7080   -2.3700    3.6820 C   0  0  0  0  0  3  0  0  0  0  0  0
  -19.6330   -1.0300    3.3570 C   0  0  0  0  0  0  0  0  0  0  0  0
  -18.4610   -0.2390    4.3200 S   0  0  0  0  0  0  0  0  0  0  0  0
  -18.0130   -1.6870    5.1310 C   0  0  0  0  0  0  0  0  0  0  0  0
  -20.4250   -0.2810    2.3720 C   0  0  0  0  0  0  0  0  0  0  0  0
  -21.6090   -0.8020    1.8310 C   0  0  0  0  0  3  0  0  0  0  0  0
  -22.3590   -0.0660    0.9090 C   0  0  0  0  0  3  0  0  0  0  0  0
  -21.9360    1.2020    0.5180 C   0  0  0  0  0  3  0  0  0  0  0  0
  -20.7630    1.7350    1.0470 C   0  0  0  0  0  3  0  0  0  0  0  0
  -20.0140    0.9990    1.9690 C   0  0  0  0  0  3  0  0  0  0  0  0
  -18.7080   -4.0670    5.2290 N   0  0  0  0  0  0  0  0  0  0  0  0
  -19.5630   -4.3420    6.3100 C   0  0  0  0  0  0  0  0  0  0  0  0
  -20.6520   -3.7680    6.4500 O   0  0  0  0  0  0  0  0  0  0  0  0
  -19.1460   -5.4410    7.2990 C   0  0  1  0  0  3  0  0  0  0  0  0
  -19.2370   -4.9570    8.7580 C   0  0  0  0  0  2  0  0  0  0  0  0
  -20.6450   -4.9790    9.3560 C   0  0  0  0  0  2  0  0  0  0  0  0
  -21.3780   -6.3060    9.1390 C   0  0  2  0  0  3  0  0  0  0  0  0
  -20.8170   -7.4160   10.0310 C   0  0  0  0  0  1  0  0  0  0  0  0
  -21.3520   -6.6940    7.6570 C   0  0  0  0  0  2  0  0  0  0  0  0
  -19.9420   -6.7330    7.0700 C   0  0  0  0  0  2  0  0  0  0  0  0
  -17.4780   -4.7580    3.1790 C   0  0  0  0  0  1  0  0  0  0  0  0
  -17.7190   -5.0150    4.6690 C   0  0  0  0  0  3  0  0  0  0  0  0
  -16.3900   -5.0380    5.4300 C   0  0  0  0  0  1  0  0  0  0  0  0
  -16.8730   -1.7340    6.1010 C   0  0  0  0  0  0  0  0  0  0  0  0
  -15.7000   -1.6040    5.6270 O   0  0  0  0  0  0  0  0  0  0  0  0
  -17.1390   -1.9450    7.3300 O   0  0  0  0  0  1  0  0  0  0  0  0
  1  5  2  0  0  0  0
  1 12  1  0  0  0  0
  2  1  1  0  0  0  0
  3  2  2  0  0  0  0
  3  4  1  0  0  0  0
  4  5  1  0  0  0  0
  5 25  1  0  0  0  0
  6  3  1  0  0  0  0
  7  6  2  0  0  0  0
  8  7  1  0  0  0  0
  9  8  2  0  0  0  0
  9 10  1  0  0  0  0
 10 11  2  0  0  0  0
 11  6  1  0  0  0  0
 12 13  1  0  0  0  0
 13 14  2  0  0  0  0
 15 13  1  6  0  0  0
 15 16  1  0  0  0  0
 16 17  1  0  0  0  0
 18 17  1  0  0  0  0
 18 19  1  1  0  0  0
 20 18  1  0  0  0  0
 21 15  1  0  0  0  0
 21 20  1  0  0  0  0
 22 23  1  0  0  0  0
 23 12  1  0  0  0  0
 23 24  1  0  0  0  0
 25 27  1  0  0  0  0
 26 25  2  0  0  0  0
M  END
>  <minimizedAffinity>
-7.42355204

$$$$

 OpenBabel08292220033D

 27 29  0  0  1  0  0  0  0  0999 V2000
   -2.7090   -2.6900   11.8940 C   0  0  0  0  0  0  0  0  0  0  0  0
   -2.2500   -1.8160   10.8560 C   0  0  0  0  0  3  0  0  0  0  0  0
   -1.4560   -2.4480    9.9200 C   0  0  0  0  0  0  0  0  0  0  0  0
   -1.2630   -4.1030   10.3080 S   0  0  0  0  0  0  0  0  0  0  0  0
   -2.2810   -3.9940   11.6880 C   0  0  0  0  0  0  0  0  0  0  0  0
   -0.7890   -1.8690    8.7460 C   0  0  0  0  0  0  0  0  0  0  0  0
    0.2010   -2.5710    8.0420 C   0  0  0  0  0  3  0  0  0  0  0  0
    0.8110   -2.0120    6.9160 C   0  0  0  0  0  3  0  0  0  0  0  0
    0.4370   -0.7450    6.4760 C   0  0  0  0  0  3  0  0  0  0  0  0
   -0.5460   -0.0350    7.1610 C   0  0  0  0  0  3  0  0  0  0  0  0
   -1.1560   -0.5950    8.2870 C   0  0  0  0  0  3  0  0  0  0  0  0
   -3.5210   -2.2670   12.9670 N   0  0  0  0  0  0  0  0  0  0  0  0
   -2.8910   -2.2770   14.2230 C   0  0  0  0  0  0  0  0  0  0  0  0
   -1.6720   -2.1010   14.3480 O   0  0  0  0  0  0  0  0  0  0  0  0
   -3.7710   -2.4420   15.4710 C   0  0  1  0  0  3  0  0  0  0  0  0
   -3.6860   -3.8710   16.0410 C   0  0  0  0  0  2  0  0  0  0  0  0
   -2.4510   -4.1470   16.8990 C   0  0  0  0  0  2  0  0  0  0  0  0
   -2.2000   -3.0800   17.9690 C   0  0  2  0  0  3  0  0  0  0  0  0
   -3.2070   -3.1810   19.1170 C   0  0  0  0  0  1  0  0  0  0  0  0
   -2.1890   -1.6840   17.3380 C   0  0  0  0  0  2  0  0  0  0  0  0
   -3.4500   -1.3790   16.5300 C   0  0  0  0  0  2  0  0  0  0  0  0
   -5.1240   -0.4070   12.5580 C   0  0  0  0  0  1  0  0  0  0  0  0
   -4.9400   -1.9170   12.7340 C   0  0  0  0  0  3  0  0  0  0  0  0
   -5.5760   -2.6730   11.5630 C   0  0  0  0  0  1  0  0  0  0  0  0
   -2.6640   -5.2010   12.4900 C   0  0  0  0  0  0  0  0  0  0  0  0
   -3.7890   -5.7370   12.2320 O   0  0  0  0  0  0  0  0  0  0  0  0
   -1.8690   -5.5900   13.4070 O   0  0  0  0  0  1  0  0  0  0  0  0
  1 12  1  0  0  0  0
  2  1  1  0  0  0  0
  3  4  1  0  0  0  0
  3  2  2  0  0  0  0
  4  5  1  0  0  0  0
  5  1  2  0  0  0  0
  5 25  1  0  0  0  0
  6  3  1  0  0  0  0
  7  6  2  0  0  0  0
  8  7  1  0  0  0  0
  9  8  2  0  0  0  0
  9 10  1  0  0  0  0
 10 11  2  0  0  0  0
 11  6  1  0  0  0  0
 12 13  1  0  0  0  0
 13 14  2  0  0  0  0
 15 13  1  6  0  0  0
 15 16  1  0  0  0  0
 15 21  1  0  0  0  0
 16 17  1  0  0  0  0
 17 18  1  0  0  0  0
 18 19  1  1  0  0  0
 20 18  1  0  0  0  0
 21 20  1  0  0  0  0
 22 23  1  0  0  0  0
 23 12  1  0  0  0  0
 24 23  1  0  0  0  0
 25 27  1  0  0  0  0
 26 25  2  0  0  0  0
M  END
>  <minimizedAffinity>
-7.42028332

$$$$

 OpenBabel08292220033D

 27 29  0  0  1  0  0  0  0  0999 V2000
  -19.4240   -0.2790    5.5940 C   0  0  0  0  0  0  0  0  0  0  0  0
  -20.3900    0.5130    6.2930 C   0  0  0  0  0  3  0  0  0  0  0  0
  -19.9790    0.8900    7.5560 C   0  0  0  0  0  0  0  0  0  0  0  0
  -18.4190    0.2740    7.8930 S   0  0  0  0  0  0  0  0  0  0  0  0
  -18.2650   -0.4460    6.3400 C   0  0  0  0  0  0  0  0  0  0  0  0
  -20.7100    1.6720    8.5620 C   0  0  0  0  0  0  0  0  0  0  0  0
  -21.1110    2.9940    8.3170 C   0  0  0  0  0  3  0  0  0  0  0  0
  -21.8240    3.7150    9.2790 C   0  0  0  0  0  3  0  0  0  0  0  0
  -22.1470    3.1230   10.4980 C   0  0  0  0  0  3  0  0  0  0  0  0
  -21.7590    1.8110   10.7560 C   0  0  0  0  0  3  0  0  0  0  0  0
  -21.0470    1.0900    9.7930 C   0  0  0  0  0  3  0  0  0  0  0  0
  -19.6280   -0.7910    4.2950 N   0  0  0  0  0  0  0  0  0  0  0  0
  -19.4840    0.1500    3.2620 C   0  0  0  0  0  0  0  0  0  0  0  0
  -18.7280    1.1260    3.3610 O   0  0  0  0  0  0  0  0  0  0  0  0
  -20.2450   -0.0960    1.9490 C   0  0  1  0  0  3  0  0  0  0  0  0
  -21.5900   -0.8050    2.1970 C   0  0  0  0  0  2  0  0  0  0  0  0
  -22.7230    0.1120    2.6600 C   0  0  0  0  0  2  0  0  0  0  0  0
  -22.8800    1.3700    1.8000 C   0  0  2  0  0  3  0  0  0  0  0  0
  -23.4930    1.0500    0.4350 C   0  0  0  0  0  1  0  0  0  0  0  0
  -21.5380    2.0970    1.6700 C   0  0  0  0  0  2  0  0  0  0  0  0
  -20.4160    1.2010    1.1480 C   0  0  0  0  0  2  0  0  0  0  0  0
  -18.8620   -3.0490    3.5810 C   0  0  0  0  0  1  0  0  0  0  0  0
  -20.0270   -2.2030    4.1050 C   0  0  0  0  0  3  0  0  0  0  0  0
  -20.6330   -2.8450    5.3560 C   0  0  0  0  0  1  0  0  0  0  0  0
  -16.9970   -1.1050    5.8920 C   0  0  0  0  0  0  0  0  0  0  0  0
  -16.2670   -0.4630    5.0710 O   0  0  0  0  0  0  0  0  0  0  0  0
  -16.7460   -2.2800    6.3190 O   0  0  0  0  0  1  0  0  0  0  0  0
  1  2  1  0  0  0  0
  1  5  2  0  0  0  0
  2  3  2  0  0  0  0
  3  4  1  0  0  0  0
  3  6  1  0  0  0  0
  5  4  1  0  0  0  0
  6 11  1  0  0  0  0
  7  6  2  0  0  0  0
  7  8  1  0  0  0  0
  8  9  2  0  0  0  0
  9 10  1  0  0  0  0
 11 10  2  0  0  0  0
 12  1  1  0  0  0  0
 13 14  2  0  0  0  0
 13 12  1  0  0  0  0
 15 16  1  0  0  0  0
 15 13  1  1  0  0  0
 16 17  1  0  0  0  0
 18 19  1  6  0  0  0
 18 17  1  0  0  0  0
 20 18  1  0  0  0  0
 21 20  1  0  0  0  0
 21 15  1  0  0  0  0
 22 23  1  0  0  0  0
 23 12  1  0  0  0  0
 23 24  1  0  0  0  0
 25 27  1  0  0  0  0
 25  5  1  0  0  0  0
 26 25  2  0  0  0  0
M  END
>  <minimizedAffinity>
-7.3650136

$$$$

 OpenBabel08292220033D

 27 29  0  0  1  0  0  0  0  0999 V2000
  -20.2420   -3.1780    5.9430 C   0  0  0  0  0  0  0  0  0  0  0  0
  -19.9270   -3.4280    7.3170 C   0  0  0  0  0  3  0  0  0  0  0  0
  -20.9210   -4.1060    7.9920 C   0  0  0  0  0  0  0  0  0  0  0  0
  -22.2420   -4.4330    6.9560 S   0  0  0  0  0  0  0  0  0  0  0  0
  -21.4700   -3.7240    5.5940 C   0  0  0  0  0  0  0  0  0  0  0  0
  -20.9600   -4.5040    9.4060 C   0  0  0  0  0  0  0  0  0  0  0  0
  -22.0230   -5.2540    9.9300 C   0  0  0  0  0  3  0  0  0  0  0  0
  -22.0330   -5.6400   11.2740 C   0  0  0  0  0  3  0  0  0  0  0  0
  -20.9780   -5.2840   12.1100 C   0  0  0  0  0  3  0  0  0  0  0  0
  -19.9130   -4.5420   11.6060 C   0  0  0  0  0  3  0  0  0  0  0  0
  -19.9030   -4.1570   10.2620 C   0  0  0  0  0  3  0  0  0  0  0  0
  -19.3860   -2.4890    5.0590 N   0  0  0  0  0  0  0  0  0  0  0  0
  -19.7930   -1.1820    4.7430 C   0  0  0  0  0  0  0  0  0  0  0  0
  -20.4490   -0.4880    5.5310 O   0  0  0  0  0  0  0  0  0  0  0  0
  -19.3390   -0.5880    3.4000 C   0  0  1  0  0  3  0  0  0  0  0  0
  -20.2580   -1.0270    2.2450 C   0  0  0  0  0  2  0  0  0  0  0  0
  -21.5650   -0.2410    2.1290 C   0  0  0  0  0  2  0  0  0  0  0  0
  -21.3670    1.2780    2.1680 C   0  0  2  0  0  3  0  0  0  0  0  0
  -20.7580    1.8040    0.8660 C   0  0  0  0  0  1  0  0  0  0  0  0
  -20.5360    1.6760    3.3910 C   0  0  0  0  0  2  0  0  0  0  0  0
  -19.2010    0.9380    3.4780 C   0  0  0  0  0  2  0  0  0  0  0  0
  -16.9200   -2.7830    5.2350 C   0  0  0  0  0  1  0  0  0  0  0  0
  -18.2010   -3.1680    4.4880 C   0  0  0  0  0  3  0  0  0  0  0  0
  -18.3410   -4.6920    4.4160 C   0  0  0  0  0  1  0  0  0  0  0  0
  -22.0740   -3.7720    4.2240 C   0  0  0  0  0  0  0  0  0  0  0  0
  -21.6240   -4.6510    3.4210 O   0  0  0  0  0  0  0  0  0  0  0  0
  -22.9640   -2.9090    3.9290 O   0  0  0  0  0  1  0  0  0  0  0  0
  1  2  1  0  0  0  0
  2  3  2  0  0  0  0
  3  6  1  0  0  0  0
  4  3  1  0  0  0  0
  5  1  2  0  0  0  0
  5  4  1  0  0  0  0
  6  7  2  0  0  0  0
  6 11  1  0  0  0  0
  7  8  1  0  0  0  0
  8  9  2  0  0  0  0
 10  9  1  0  0  0  0
 11 10  2  0  0  0  0
 12  1  1  0  0  0  0
 13 12  1  0  0  0  0
 13 14  2  0  0  0  0
 15 21  1  0  0  0  0
 15 13  1  1  0  0  0
 16 15  1  0  0  0  0
 17 18  1  0  0  0  0
 17 16  1  0  0  0  0
 18 19  1  6  0  0  0
 18 20  1  0  0  0  0
 20 21  1  0  0  0  0
 23 12  1  0  0  0  0
 23 22  1  0  0  0  0
 24 23  1  0  0  0  0
 25  5  1  0  0  0  0
 26 25  2  0  0  0  0
 27 25  1  0  0  0  0
M  END
>  <minimizedAffinity>
-7.24102783

$$$$

 OpenBabel08292220033D

 27 29  0  0  1  0  0  0  0  0999 V2000
  -20.7420   -1.4060    6.9780 C   0  0  0  0  0  0  0  0  0  0  0  0
  -21.3820   -2.0030    8.1100 C   0  0  0  0  0  3  0  0  0  0  0  0
  -20.7080   -3.1010    8.6050 C   0  0  0  0  0  0  0  0  0  0  0  0
  -19.2980   -3.4090    7.6870 S   0  0  0  0  0  0  0  0  0  0  0  0
  -19.5520   -2.0500    6.6660 C   0  0  0  0  0  0  0  0  0  0  0  0
  -21.0790   -3.9750    9.7270 C   0  0  0  0  0  0  0  0  0  0  0  0
  -22.3180   -4.6310    9.7690 C   0  0  0  0  0  3  0  0  0  0  0  0
  -22.6450   -5.4730   10.8350 C   0  0  0  0  0  3  0  0  0  0  0  0
  -21.7370   -5.6730   11.8720 C   0  0  0  0  0  3  0  0  0  0  0  0
  -20.5010   -5.0320   11.8440 C   0  0  0  0  0  3  0  0  0  0  0  0
  -20.1740   -4.1900   10.7770 C   0  0  0  0  0  3  0  0  0  0  0  0
  -21.2540   -0.2820    6.2950 N   0  0  0  0  0  0  0  0  0  0  0  0
  -21.8290   -0.5640    5.0450 C   0  0  0  0  0  0  0  0  0  0  0  0
  -22.3620   -1.6540    4.7960 O   0  0  0  0  0  0  0  0  0  0  0  0
  -21.8480    0.5530    3.9890 C   0  0  1  0  0  3  0  0  0  0  0  0
  -20.9860    0.1920    2.7650 C   0  0  0  0  0  2  0  0  0  0  0  0
  -21.6590   -0.7420    1.7590 C   0  0  0  0  0  2  0  0  0  0  0  0
  -23.0710   -0.2980    1.3640 C   0  0  2  0  0  3  0  0  0  0  0  0
  -23.0440    0.9230    0.4410 C   0  0  0  0  0  1  0  0  0  0  0  0
  -23.9210   -0.0530    2.6140 C   0  0  0  0  0  2  0  0  0  0  0  0
  -23.2820    0.9290    3.5950 C   0  0  0  0  0  2  0  0  0  0  0  0
  -22.3850    1.5220    7.5850 C   0  0  0  0  0  1  0  0  0  0  0  0
  -21.1050    1.0720    6.8730 C   0  0  0  0  0  3  0  0  0  0  0  0
  -19.8970    1.2150    7.8040 C   0  0  0  0  0  1  0  0  0  0  0  0
  -18.5520   -1.6350    5.6310 C   0  0  0  0  0  0  0  0  0  0  0  0
  -18.6810   -2.1320    4.4660 O   0  0  0  0  0  0  0  0  0  0  0  0
  -17.6110   -0.8520    5.9850 O   0  0  0  0  0  1  0  0  0  0  0  0
  1  2  1  0  0  0  0
  2  3  2  0  0  0  0
  3  6  1  0  0  0  0
  4  3  1  0  0  0  0
  5  1  2  0  0  0  0
  5  4  1  0  0  0  0
  6  7  2  0  0  0  0
  6 11  1  0  0  0  0
  7  8  1  0  0  0  0
  8  9  2  0  0  0  0
 10  9  1  0  0  0  0
 11 10  2  0  0  0  0
 12 23  1  0  0  0  0
 12  1  1  0  0  0  0
 13 12  1  0  0  0  0
 14 13  2  0  0  0  0
 15 13  1  1  0  0  0
 16 15  1  0  0  0  0
 17 16  1  0  0  0  0
 18 19  1  1  0  0  0
 18 17  1  0  0  0  0
 18 20  1  0  0  0  0
 20 21  1  0  0  0  0
 21 15  1  0  0  0  0
 23 22  1  0  0  0  0
 23 24  1  0  0  0  0
 25 27  1  0  0  0  0
 25  5  1  0  0  0  0
 26 25  2  0  0  0  0
M  END
>  <minimizedAffinity>
-7.22011375

$$$$
