REMARK  Name = 
REMARK  8 active torsions:
REMARK  status: ('A' for Active; 'I' for Inactive)
REMARK    1  A    between atoms: C_1  and  C_2
REMARK    2  A    between atoms: C_2  and  C_3
REMARK    3  A    between atoms: C_2  and  N_4
REMARK    4  A    between atoms: N_4  and  C_14
REMARK    5  A    between atoms: C_5  and  C_7
REMARK    6  A    between atoms: C_10  and  C_11
REMARK    7  A    between atoms: C_16  and  C_22
REMARK    8  A    between atoms: C_18  and  C_19
REMARK                            x       y       z     vdW  Elec       q    Type
REMARK                         _______ _______ _______ _____ _____    ______ ____
ROOT
ATOM      1  C   UNL     1      -1.134  -4.033   2.198  0.00  0.00    +0.053 A 
ATOM      2  C   UNL     1      -1.859  -4.808   3.159  0.00  0.00    +0.040 A 
ATOM      3  C   UNL     1      -1.173  -4.995   4.342  0.00  0.00    +0.022 A 
ATOM      4  S   UNL     1       0.357  -4.232   4.281  0.00  0.00    -0.085 S 
ATOM      5  C   UNL     1       0.086  -3.605   2.704  0.00  0.00    +0.056 A 
ENDROOT
BRANCH   3   6
ATOM      6  C   UNL     1      -1.586  -5.755   5.530  0.00  0.00    -0.011 A 
ATOM      7  C   UNL     1      -1.402  -5.251   6.826  0.00  0.00    +0.009 A 
ATOM      8  C   UNL     1      -1.819  -5.980   7.943  0.00  0.00    +0.001 A 
ATOM      9  C   UNL     1      -2.428  -7.222   7.779  0.00  0.00    +0.000 A 
ATOM     10  C   UNL     1      -2.621  -7.736   6.499  0.00  0.00    +0.001 A 
ATOM     11  C   UNL     1      -2.204  -7.006   5.382  0.00  0.00    +0.009 A 
ENDBRANCH   3   6
BRANCH   1  12
ATOM     12  N   UNL     1      -1.627  -3.724   0.913  0.00  0.00    -0.267 N 
ATOM     13  C   UNL     1      -0.926  -4.323  -0.147  0.00  0.00    +0.223 C 
ATOM     14  O   UNL     1      -0.348  -5.411  -0.022  0.00  0.00    -0.275 OA
BRANCH  13  15
ATOM     15  C   UNL     1      -0.948  -3.623  -1.515  0.00  0.00    +0.076 C 
ATOM     16  C   UNL     1       0.393  -3.782  -2.256  0.00  0.00    +0.013 C 
ATOM     17  C   UNL     1       0.579  -5.123  -2.967  0.00  0.00    +0.004 C 
ATOM     18  C   UNL     1      -0.616  -5.522  -3.838  0.00  0.00    -0.014 C 
ATOM     19  C   UNL     1      -0.691  -4.683  -5.116  0.00  0.00    +0.007 C 
ATOM     20  C   UNL     1      -1.914  -5.450  -3.028  0.00  0.00    +0.004 C 
ATOM     21  C   UNL     1      -2.136  -4.091  -2.366  0.00  0.00    +0.013 C 
ENDBRANCH  13  15
BRANCH  12  23
ATOM     22  C   UNL     1      -4.104  -3.480   0.963  0.00  0.00    +0.028 C 
ATOM     23  C   UNL     1      -2.757  -2.781   0.755  0.00  0.00    +0.075 C 
ATOM     24  C   UNL     1      -2.654  -1.542   1.650  0.00  0.00    +0.028 C 
ENDBRANCH  12  23
ENDBRANCH   1  12
BRANCH   5  25
ATOM     25  C   UNL     1       1.056  -2.676   2.041  0.00  0.00    +0.080 C 
ATOM     26  O   UNL     1       2.138  -2.425   2.662  0.00  0.00    -0.544 OA
ATOM     27  O   UNL     1       0.725  -2.159   0.924  0.00  0.00    -0.544 OA
ENDBRANCH   5  25
TORSDOF 5
