
 OpenBabel08292220033D

 27 29  0  0  1  0  0  0  0  0999 V2000
  -22.0100    0.0350    4.8600 C   0  0  0  0  0  0  0  0  0  0  0  0
  -21.4050    0.4780    6.0800 C   0  0  0  0  0  3  0  0  0  0  0  0
  -22.2590    1.2090    6.8810 C   0  0  0  0  0  0  0  0  0  0  0  0
  -23.7960    1.3620    6.1450 S   0  0  0  0  0  0  0  0  0  0  0  0
  -23.3460    0.4090    4.7880 C   0  0  0  0  0  0  0  0  0  0  0  0
  -21.9800    1.8440    8.1760 C   0  0  0  0  0  0  0  0  0  0  0  0
  -21.7380    3.2220    8.2830 C   0  0  0  0  0  3  0  0  0  0  0  0
  -21.4940    3.8110    9.5260 C   0  0  0  0  0  3  0  0  0  0  0  0
  -21.4910    3.0310   10.6800 C   0  0  0  0  0  3  0  0  0  0  0  0
  -21.7320    1.6630   10.5930 C   0  0  0  0  0  3  0  0  0  0  0  0
  -21.9770    1.0740    9.3480 C   0  0  0  0  0  3  0  0  0  0  0  0
  -21.3300   -0.7160    3.8790 N   0  0  0  0  0  0  0  0  0  0  0  0
  -21.2220   -2.0890    4.1570 C   0  0  0  0  0  0  0  0  0  0  0  0
  -22.0700   -2.6930    4.8280 O   0  0  0  0  0  0  0  0  0  0  0  0
  -20.0440   -2.8610    3.5420 C   0  0  1  0  0  3  0  0  0  0  0  0
  -18.6900   -2.2460    3.9460 C   0  0  0  0  0  2  0  0  0  0  0  0
  -18.1950   -2.6390    5.3380 C   0  0  0  0  0  2  0  0  0  0  0  0
  -18.2490   -4.1470    5.6010 C   0  0  2  0  0  3  0  0  0  0  0  0
  -17.1550   -4.8960    4.8360 C   0  0  0  0  0  1  0  0  0  0  0  0
  -19.6450   -4.6940    5.2860 C   0  0  0  0  0  2  0  0  0  0  0  0
  -20.1190   -4.3570    3.8730 C   0  0  0  0  0  2  0  0  0  0  0  0
  -21.4330   -0.4660    1.4040 C   0  0  0  0  0  1  0  0  0  0  0  0
  -20.7380   -0.0420    2.7020 C   0  0  0  0  0  3  0  0  0  0  0  0
  -20.7080    1.4850    2.8180 C   0  0  0  0  0  1  0  0  0  0  0  0
  -24.3300    0.0210    3.7280 C   0  0  0  0  0  0  0  0  0  0  0  0
  -25.0550   -1.0000    3.9540 O   0  0  0  0  0  1  0  0  0  0  0  0
  -24.3530    0.7020    2.6510 O   0  0  0  0  0  0  0  0  0  0  0  0
  1  2  1  0  0  0  0
  2  3  2  0  0  0  0
  3  6  1  0  0  0  0
  4  3  1  0  0  0  0
  5  1  2  0  0  0  0
  5  4  1  0  0  0  0
  6  7  2  0  0  0  0
  6 11  1  0  0  0  0
  7  8  1  0  0  0  0
  8  9  2  0  0  0  0
 10  9  1  0  0  0  0
 11 10  2  0  0  0  0
 12 13  1  0  0  0  0
 12  1  1  0  0  0  0
 13 14  2  0  0  0  0
 15 21  1  0  0  0  0
 15 16  1  0  0  0  0
 15 13  1  1  0  0  0
 16 17  1  0  0  0  0
 17 18  1  0  0  0  0
 18 19  1  6  0  0  0
 20 18  1  0  0  0  0
 21 20  1  0  0  0  0
 22 23  1  0  0  0  0
 23 24  1  0  0  0  0
 23 12  1  0  0  0  0
 25 26  1  0  0  0  0
 25  5  1  0  0  0  0
 27 25  2  0  0  0  0
M  END
>  <minimizedAffinity>
-8.00453472

$$$$
