REMARK  Name = 
REMARK  5 active torsions:
REMARK  status: ('A' for Active; 'I' for Inactive)
REMARK    1  A    between atoms: C_1  and  C_2
REMARK    2  A    between atoms: C_2  and  C_3
REMARK    3  A    between atoms: C_6  and  C_7
REMARK    4  A    between atoms: C_11  and  C_12
REMARK    5  A    between atoms: N_18  and  C_19
REMARK                            x       y       z     vdW  Elec       q    Type
REMARK                         _______ _______ _______ _____ _____    ______ ____
ROOT
ATOM      1  C   UNL     1       2.146   3.312   5.206  0.00  0.00    +0.149 A 
ATOM      2  N   UNL     1       3.450   3.369   5.364  0.00  0.00    -0.227 NA
ATOM      3  C   UNL     1       3.653   4.043   6.543  0.00  0.00    +0.090 A 
ATOM      4  C   UNL     1       4.859   4.392   7.172  0.00  0.00    +0.039 A 
ATOM      5  C   UNL     1       4.836   5.106   8.387  0.00  0.00    -0.001 A 
ATOM      6  C   UNL     1       3.595   5.453   8.943  0.00  0.00    +0.012 A 
ATOM      7  C   UNL     1       2.380   5.112   8.334  0.00  0.00    +0.028 A 
ATOM      8  C   UNL     1       2.439   4.401   7.128  0.00  0.00    +0.069 A 
ATOM      9  N   UNL     1       1.484   3.902   6.265  0.00  0.00    -0.320 N 
ENDROOT
BRANCH   9  10
ATOM     10  C   UNL     1       0.035   3.965   6.431  0.00  0.00    +0.089 C 
ATOM     11  C   UNL     1      -0.460   3.230   7.688  0.00  0.00    +0.025 C 
ATOM     12  C   UNL     1      -1.983   3.281   7.796  0.00  0.00    +0.002 C 
ATOM     13  C   UNL     1      -2.506   4.714   7.730  0.00  0.00    +0.000 C 
ATOM     14  C   UNL     1      -2.028   5.431   6.471  0.00  0.00    +0.002 C 
ATOM     15  C   UNL     1      -0.505   5.402   6.348  0.00  0.00    +0.025 C 
ENDBRANCH   9  10
BRANCH   1  19
ATOM     16  C   UNL     1       0.633   1.193   2.343  0.00  0.00    -0.010 A 
ATOM     17  C   UNL     1       0.396   2.516   2.028  0.00  0.00    +0.012 A 
ATOM     18  C   UNL     1       0.918   3.406   3.012  0.00  0.00    +0.019 A 
ATOM     19  C   UNL     1       1.524   2.734   4.053  0.00  0.00    +0.055 A 
ATOM     20  S   UNL     1       1.471   1.042   3.830  0.00  0.00    -0.090 S 
BRANCH  16  22
ATOM     21  C   UNL     1       1.297  -0.341   0.485  0.00  0.00    +0.009 C 
ATOM     22  C   UNL     1       0.262  -0.028   1.556  0.00  0.00    +0.039 C 
ENDBRANCH  16  22
ENDBRANCH   1  19
BRANCH   5  23
ATOM     23  C   UNL     1       6.127   5.497   9.080  0.00  0.00    +0.072 C 
ATOM     24  O   UNL     1       7.216   5.155   8.522  0.00  0.00    -0.545 OA
ATOM     25  O   UNL     1       6.023   6.143  10.172  0.00  0.00    -0.545 OA
ENDBRANCH   5  23
TORSDOF 4
