
 OpenBabel09122222393D

 25 28  0  0  0  0  0  0  0  0999 V2000
    5.8650   -2.8790    9.4910 C   0  0  0  0  0  0  0  0  0  0  0  0
    5.5920   -3.6590    8.4680 N   0  0  0  0  0  0  0  0  0  0  0  0
    4.6060   -3.0140    7.7620 C   0  0  0  0  0  0  0  0  0  0  0  0
    3.9420   -3.4170    6.5920 C   0  0  0  0  0  3  0  0  0  0  0  0
    2.9390   -2.5980    6.0360 C   0  0  0  0  0  0  0  0  0  0  0  0
    2.6270   -1.3860    6.6730 C   0  0  0  0  0  3  0  0  0  0  0  0
    3.2800   -0.9640    7.8390 C   0  0  0  0  0  3  0  0  0  0  0  0
    4.2720   -1.8020    8.3640 C   0  0  0  0  0  0  0  0  0  0  0  0
    5.1080   -1.7230    9.4600 N   0  0  0  0  0  0  0  0  0  0  0  0
    5.2000   -0.6230   10.4140 C   0  0  0  0  0  3  0  0  0  0  0  0
    5.8180    0.6490    9.8100 C   0  0  0  0  0  2  0  0  0  0  0  0
    5.9380    1.7570   10.8550 C   0  0  0  0  0  2  0  0  0  0  0  0
    4.5990    2.0400   11.5340 C   0  0  0  0  0  2  0  0  0  0  0  0
    4.0010    0.7780   12.1490 C   0  0  0  0  0  2  0  0  0  0  0  0
    3.8620   -0.3410   11.1180 C   0  0  0  0  0  2  0  0  0  0  0  0
    8.8550   -3.6340   11.8280 C   0  0  0  0  0  0  0  0  0  0  0  0
    7.7110   -3.9770   12.5210 C   0  0  0  0  0  3  0  0  0  0  0  0
    6.5290   -3.7500   11.7560 C   0  0  0  0  0  3  0  0  0  0  0  0
    6.8080   -3.2290   10.5100 C   0  0  0  0  0  0  0  0  0  0  0  0
    8.4870   -3.0310   10.2680 S   0  0  0  0  0  0  0  0  0  0  0  0
   10.4140   -3.5120   13.7780 C   0  0  0  0  0  1  0  0  0  0  0  0
   10.2800   -3.7460   12.2800 C   0  0  0  0  0  2  0  0  0  0  0  0
    2.2070   -3.0170    4.7760 C   0  0  0  0  0  0  0  0  0  0  0  0
    1.9300   -2.1080    3.9320 O   0  0  0  0  0  0  0  0  0  0  0  0
    1.9240   -4.2520    4.6570 O   0  0  0  0  0  1  0  0  0  0  0  0
  1 19  1  0  0  0  0
  2  1  2  0  0  0  0
  3  8  1  0  0  0  0
  3  2  1  0  0  0  0
  4  3  2  0  0  0  0
  5  4  1  0  0  0  0
  5  6  2  0  0  0  0
  6  7  1  0  0  0  0
  7  8  2  0  0  0  0
  8  9  1  0  0  0  0
  9  1  1  0  0  0  0
  9 10  1  0  0  0  0
 10 15  1  0  0  0  0
 11 10  1  0  0  0  0
 11 12  1  0  0  0  0
 12 13  1  0  0  0  0
 13 14  1  0  0  0  0
 15 14  1  0  0  0  0
 16 22  1  0  0  0  0
 16 17  2  0  0  0  0
 18 17  1  0  0  0  0
 19 18  2  0  0  0  0
 20 19  1  0  0  0  0
 20 16  1  0  0  0  0
 22 21  1  0  0  0  0
 23  5  1  0  0  0  0
 24 23  2  0  0  0  0
 25 23  1  0  0  0  0
M  END
>  <minimizedAffinity>
-5.70454121

$$$$
