
 OpenBabel09122222393D

 25 28  0  0  0  0  0  0  0  0999 V2000
    7.5870    0.2610    9.1190 C   0  0  0  0  0  0  0  0  0  0  0  0
    8.6190    0.2060    8.3060 N   0  0  0  0  0  0  0  0  0  0  0  0
    8.3340   -0.7940    7.4090 C   0  0  0  0  0  0  0  0  0  0  0  0
    9.1070   -1.2770    6.3400 C   0  0  0  0  0  3  0  0  0  0  0  0
    8.6210   -2.3340    5.5450 C   0  0  0  0  0  0  0  0  0  0  0  0
    7.3650   -2.8840    5.8460 C   0  0  0  0  0  3  0  0  0  0  0  0
    6.5770   -2.4150    6.9050 C   0  0  0  0  0  3  0  0  0  0  0  0
    7.0890   -1.3620    7.6750 C   0  0  0  0  0  0  0  0  0  0  0  0
    6.6160   -0.6550    8.7620 N   0  0  0  0  0  0  0  0  0  0  0  0
    5.3230   -0.8200    9.4190 C   0  0  0  0  0  3  0  0  0  0  0  0
    4.1330   -0.6690    8.4560 C   0  0  0  0  0  2  0  0  0  0  0  0
    2.8020   -0.8020    9.1940 C   0  0  0  0  0  2  0  0  0  0  0  0
    2.7280   -2.1010    9.9930 C   0  0  0  0  0  2  0  0  0  0  0  0
    3.9000   -2.2370   10.9610 C   0  0  0  0  0  2  0  0  0  0  0  0
    5.2430   -2.1170   10.2410 C   0  0  0  0  0  2  0  0  0  0  0  0
    7.4020    3.1170   11.7230 C   0  0  0  0  0  0  0  0  0  0  0  0
    7.4470    1.9330   12.4320 C   0  0  0  0  0  3  0  0  0  0  0  0
    7.5260    0.7960   11.5760 C   0  0  0  0  0  3  0  0  0  0  0  0
    7.5240    1.1460   10.2420 C   0  0  0  0  0  0  0  0  0  0  0  0
    7.4410    2.8380   10.0330 S   0  0  0  0  0  0  0  0  0  0  0  0
    6.5510    4.5840   13.5590 C   0  0  0  0  0  1  0  0  0  0  0  0
    7.3380    4.5160   12.2580 C   0  0  0  0  0  2  0  0  0  0  0  0
    9.4410   -2.8740    4.3890 C   0  0  0  0  0  0  0  0  0  0  0  0
   10.6800   -2.5900    4.3700 O   0  0  0  0  0  1  0  0  0  0  0  0
    8.8260   -3.5740    3.5230 O   0  0  0  0  0  0  0  0  0  0  0  0
  1 19  1  0  0  0  0
  2  1  2  0  0  0  0
  3  8  1  0  0  0  0
  3  2  1  0  0  0  0
  4  3  2  0  0  0  0
  5  6  2  0  0  0  0
  5  4  1  0  0  0  0
  6  7  1  0  0  0  0
  7  8  2  0  0  0  0
  8  9  1  0  0  0  0
  9  1  1  0  0  0  0
  9 10  1  0  0  0  0
 10 15  1  0  0  0  0
 11 12  1  0  0  0  0
 11 10  1  0  0  0  0
 12 13  1  0  0  0  0
 13 14  1  0  0  0  0
 15 14  1  0  0  0  0
 16 22  1  0  0  0  0
 16 17  2  0  0  0  0
 18 17  1  0  0  0  0
 19 18  2  0  0  0  0
 20 19  1  0  0  0  0
 20 16  1  0  0  0  0
 22 21  1  0  0  0  0
 23  5  1  0  0  0  0
 24 23  1  0  0  0  0
 25 23  2  0  0  0  0
M  END
>  <minimizedAffinity>
-5.78546095

$$$$
