
 OpenBabel09122219393D

 25 28  0  0  0  0  0  0  0  0999 V2000
    6.6180    0.2830    9.2370 C   0  0  0  0  0  0  0  0  0  0  0  0
    7.7980    0.3440    8.6600 N   0  0  0  0  0  0  0  0  0  0  0  0
    7.8130   -0.6700    7.7350 C   0  0  0  0  0  0  0  0  0  0  0  0
    8.8380   -1.0580    6.8570 C   0  0  0  0  0  3  0  0  0  0  0  0
    8.6430   -2.1520    5.9900 C   0  0  0  0  0  0  0  0  0  0  0  0
    7.4160   -2.8320    6.0260 C   0  0  0  0  0  3  0  0  0  0  0  0
    6.3790   -2.4600    6.8920 C   0  0  0  0  0  3  0  0  0  0  0  0
    6.6060   -1.3670    7.7390 C   0  0  0  0  0  0  0  0  0  0  0  0
    5.8440   -0.7240    8.6950 N   0  0  0  0  0  0  0  0  0  0  0  0
    4.4670   -1.0310    9.0690 C   0  0  0  0  0  3  0  0  0  0  0  0
    3.4840   -0.9180    7.8910 C   0  0  0  0  0  2  0  0  0  0  0  0
    2.0500   -1.1990    8.3370 C   0  0  0  0  0  2  0  0  0  0  0  0
    1.9350   -2.5450    9.0500 C   0  0  0  0  0  2  0  0  0  0  0  0
    2.8980   -2.6430   10.2290 C   0  0  0  0  0  2  0  0  0  0  0  0
    4.3410   -2.3750    9.8030 C   0  0  0  0  0  2  0  0  0  0  0  0
    6.1900    2.7060   12.2240 C   0  0  0  0  0  0  0  0  0  0  0  0
    4.9220    2.3270   11.8330 C   0  0  0  0  0  3  0  0  0  0  0  0
    4.9450    1.4190   10.7340 C   0  0  0  0  0  3  0  0  0  0  0  0
    6.2300    1.1450   10.3130 C   0  0  0  0  0  0  0  0  0  0  0  0
    7.3930    1.9700   11.2510 S   0  0  0  0  0  0  0  0  0  0  0  0
    7.2790    4.8720   12.8310 C   0  0  0  0  0  1  0  0  0  0  0  0
    6.5790    3.6220   13.3450 C   0  0  0  0  0  2  0  0  0  0  0  0
    9.7390   -2.5910    5.0380 C   0  0  0  0  0  0  0  0  0  0  0  0
    9.4180   -3.3980    4.1100 O   0  0  0  0  0  0  0  0  0  0  0  0
   10.9020   -2.1150    5.2380 O   0  0  0  0  0  1  0  0  0  0  0  0
  1 19  1  0  0  0  0
  2  1  2  0  0  0  0
  3  8  1  0  0  0  0
  3  2  1  0  0  0  0
  4  3  2  0  0  0  0
  5  6  2  0  0  0  0
  5  4  1  0  0  0  0
  6  7  1  0  0  0  0
  7  8  2  0  0  0  0
  8  9  1  0  0  0  0
  9 10  1  0  0  0  0
  9  1  1  0  0  0  0
 10 15  1  0  0  0  0
 11 12  1  0  0  0  0
 11 10  1  0  0  0  0
 12 13  1  0  0  0  0
 13 14  1  0  0  0  0
 15 14  1  0  0  0  0
 16 22  1  0  0  0  0
 17 16  2  0  0  0  0
 18 17  1  0  0  0  0
 19 18  2  0  0  0  0
 19 20  1  0  0  0  0
 20 16  1  0  0  0  0
 21 22  1  0  0  0  0
 23 25  1  0  0  0  0
 23  5  1  0  0  0  0
 24 23  2  0  0  0  0
M  END
>  <minimizedAffinity>
-6.32607698

$$$$

 OpenBabel09122219393D

 25 28  0  0  0  0  0  0  0  0999 V2000
    7.0880    3.8220   11.8550 C   0  0  0  0  0  0  0  0  0  0  0  0
    7.0650    4.7800   12.7560 N   0  0  0  0  0  0  0  0  0  0  0  0
    7.8290    5.7960   12.2380 C   0  0  0  0  0  0  0  0  0  0  0  0
    8.1470    7.0440   12.7980 C   0  0  0  0  0  3  0  0  0  0  0  0
    8.9710    7.9420   12.0900 C   0  0  0  0  0  0  0  0  0  0  0  0
    9.4580    7.5620   10.8300 C   0  0  0  0  0  3  0  0  0  0  0  0
    9.1510    6.3230   10.2510 C   0  0  0  0  0  3  0  0  0  0  0  0
    8.3280    5.4550   10.9810 C   0  0  0  0  0  0  0  0  0  0  0  0
    7.8210    4.1930   10.7440 N   0  0  0  0  0  0  0  0  0  0  0  0
    8.0040    3.3880    9.5410 C   0  0  0  0  0  3  0  0  0  0  0  0
    7.7780    4.1830    8.2440 C   0  0  0  0  0  2  0  0  0  0  0  0
    7.9330    3.2910    7.0130 C   0  0  0  0  0  2  0  0  0  0  0  0
    9.2750    2.5630    7.0090 C   0  0  0  0  0  2  0  0  0  0  0  0
    9.4840    1.7600    8.2900 C   0  0  0  0  0  2  0  0  0  0  0  0
    9.3440    2.6350    9.5340 C   0  0  0  0  0  2  0  0  0  0  0  0
    4.9030    0.6320   12.0130 C   0  0  0  0  0  0  0  0  0  0  0  0
    6.0370    0.3760   12.7580 C   0  0  0  0  0  3  0  0  0  0  0  0
    6.9270    1.4900   12.7840 C   0  0  0  0  0  3  0  0  0  0  0  0
    6.4510    2.5540   12.0470 C   0  0  0  0  0  0  0  0  0  0  0  0
    4.9340    2.2090   11.3430 S   0  0  0  0  0  0  0  0  0  0  0  0
    3.3820   -0.3450   10.2870 C   0  0  0  0  0  1  0  0  0  0  0  0
    3.7330   -0.2720   11.7660 C   0  0  0  0  0  2  0  0  0  0  0  0
    9.3310    9.2920   12.6800 C   0  0  0  0  0  0  0  0  0  0  0  0
    9.0750    9.4790   13.9100 O   0  0  0  0  0  1  0  0  0  0  0  0
    9.8660   10.1400   11.8950 O   0  0  0  0  0  0  0  0  0  0  0  0
  1 19  1  0  0  0  0
  1  2  2  0  0  0  0
  3  2  1  0  0  0  0
  3  4  1  0  0  0  0
  5 23  1  0  0  0  0
  5  4  2  0  0  0  0
  6  5  1  0  0  0  0
  7  6  2  0  0  0  0
  7  8  1  0  0  0  0
  8  3  2  0  0  0  0
  9  8  1  0  0  0  0
  9  1  1  0  0  0  0
 10  9  1  0  0  0  0
 11 10  1  0  0  0  0
 12 11  1  0  0  0  0
 13 12  1  0  0  0  0
 13 14  1  0  0  0  0
 14 15  1  0  0  0  0
 15 10  1  0  0  0  0
 16 17  2  0  0  0  0
 17 18  1  0  0  0  0
 19 18  2  0  0  0  0
 20 16  1  0  0  0  0
 20 19  1  0  0  0  0
 21 22  1  0  0  0  0
 22 16  1  0  0  0  0
 23 24  1  0  0  0  0
 25 23  2  0  0  0  0
M  END
>  <minimizedAffinity>
-6.25979662

$$$$

 OpenBabel09122219393D

 25 28  0  0  0  0  0  0  0  0999 V2000
    4.9490   -0.0280   10.7670 C   0  0  0  0  0  0  0  0  0  0  0  0
    5.1570    0.0800    9.4730 N   0  0  0  0  0  0  0  0  0  0  0  0
    4.2150   -0.7210    8.8760 C   0  0  0  0  0  0  0  0  0  0  0  0
    4.0030   -0.9810    7.5130 C   0  0  0  0  0  3  0  0  0  0  0  0
    2.9730   -1.8580    7.1170 C   0  0  0  0  0  0  0  0  0  0  0  0
    2.1770   -2.4550    8.1070 C   0  0  0  0  0  3  0  0  0  0  0  0
    2.3690   -2.2070    9.4730 C   0  0  0  0  0  3  0  0  0  0  0  0
    3.4010   -1.3290    9.8310 C   0  0  0  0  0  0  0  0  0  0  0  0
    3.8750   -0.8530   11.0370 N   0  0  0  0  0  0  0  0  0  0  0  0
    3.3420   -1.1460   12.3640 C   0  0  0  0  0  3  0  0  0  0  0  0
    2.0100   -0.4320   12.6500 C   0  0  0  0  0  2  0  0  0  0  0  0
    1.5150   -0.7280   14.0650 C   0  0  0  0  0  2  0  0  0  0  0  0
    1.4260   -2.2300   14.3280 C   0  0  0  0  0  2  0  0  0  0  0  0
    2.7560   -2.9290   14.0630 C   0  0  0  0  0  2  0  0  0  0  0  0
    3.2650   -2.6550   12.6480 C   0  0  0  0  0  2  0  0  0  0  0  0
    6.8490    2.2340   13.2670 C   0  0  0  0  0  0  0  0  0  0  0  0
    7.3870    0.9680   13.3860 C   0  0  0  0  0  3  0  0  0  0  0  0
    6.7700    0.0350   12.5020 C   0  0  0  0  0  3  0  0  0  0  0  0
    5.7730    0.6150   11.7460 C   0  0  0  0  0  0  0  0  0  0  0  0
    5.5970    2.2760   12.0980 S   0  0  0  0  0  0  0  0  0  0  0  0
    6.4570    4.6900   13.5130 C   0  0  0  0  0  1  0  0  0  0  0  0
    7.2400    3.4800   14.0020 C   0  0  0  0  0  2  0  0  0  0  0  0
    2.7310   -2.1560    5.6500 C   0  0  0  0  0  0  0  0  0  0  0  0
    1.6260   -1.7750    5.1520 O   0  0  0  0  0  1  0  0  0  0  0  0
    3.6570   -2.7660    5.0240 O   0  0  0  0  0  0  0  0  0  0  0  0
  1  9  1  0  0  0  0
  1 19  1  0  0  0  0
  2  1  2  0  0  0  0
  3  2  1  0  0  0  0
  3  8  1  0  0  0  0
  4  3  2  0  0  0  0
  5  4  1  0  0  0  0
  5  6  2  0  0  0  0
  6  7  1  0  0  0  0
  7  8  2  0  0  0  0
  8  9  1  0  0  0  0
  9 10  1  0  0  0  0
 10 15  1  0  0  0  0
 10 11  1  0  0  0  0
 11 12  1  0  0  0  0
 12 13  1  0  0  0  0
 14 13  1  0  0  0  0
 15 14  1  0  0  0  0
 16 17  2  0  0  0  0
 16 22  1  0  0  0  0
 18 17  1  0  0  0  0
 19 20  1  0  0  0  0
 19 18  2  0  0  0  0
 20 16  1  0  0  0  0
 21 22  1  0  0  0  0
 23  5  1  0  0  0  0
 24 23  1  0  0  0  0
 25 23  2  0  0  0  0
M  END
>  <minimizedAffinity>
-6.10630894

$$$$

 OpenBabel09122219393D

 25 28  0  0  0  0  0  0  0  0999 V2000
    6.7590   -3.2470    5.5940 C   0  0  0  0  0  0  0  0  0  0  0  0
    6.5600   -3.6580    4.3610 N   0  0  0  0  0  0  0  0  0  0  0  0
    7.7060   -3.3420    3.6740 C   0  0  0  0  0  0  0  0  0  0  0  0
    8.0170   -3.5470    2.3200 C   0  0  0  0  0  3  0  0  0  0  0  0
    9.2630   -3.1250    1.8140 C   0  0  0  0  0  0  0  0  0  0  0  0
   10.1710   -2.5060    2.6860 C   0  0  0  0  0  3  0  0  0  0  0  0
    9.8830   -2.2940    4.0410 C   0  0  0  0  0  3  0  0  0  0  0  0
    8.6360   -2.7270    4.5120 C   0  0  0  0  0  0  0  0  0  0  0  0
    8.0170   -2.6960    5.7450 N   0  0  0  0  0  0  0  0  0  0  0  0
    8.5770   -2.1910    6.9940 C   0  0  0  0  0  3  0  0  0  0  0  0
   10.0660   -2.5370    7.1700 C   0  0  0  0  0  2  0  0  0  0  0  0
   10.5980   -2.0310    8.5100 C   0  0  0  0  0  2  0  0  0  0  0  0
   10.3330   -0.5380    8.6950 C   0  0  0  0  0  2  0  0  0  0  0  0
    8.8520   -0.2050    8.5400 C   0  0  0  0  0  2  0  0  0  0  0  0
    8.3010   -0.6930    7.2010 C   0  0  0  0  0  2  0  0  0  0  0  0
    3.8210   -2.9800    8.1000 C   0  0  0  0  0  0  0  0  0  0  0  0
    4.5550   -4.0910    8.4620 C   0  0  0  0  0  3  0  0  0  0  0  0
    5.6810   -4.2950    7.6120 C   0  0  0  0  0  3  0  0  0  0  0  0
    5.7630   -3.3410    6.6180 C   0  0  0  0  0  0  0  0  0  0  0  0
    4.4940   -2.2040    6.7270 S   0  0  0  0  0  0  0  0  0  0  0  0
    1.9790   -1.2980    7.9370 C   0  0  0  0  0  1  0  0  0  0  0  0
    2.5910   -2.4270    8.7550 C   0  0  0  0  0  2  0  0  0  0  0  0
    9.6160   -3.3320    0.3540 C   0  0  0  0  0  0  0  0  0  0  0  0
    9.1120   -4.3420   -0.2310 O   0  0  0  0  0  0  0  0  0  0  0  0
   10.3920   -2.4760   -0.1790 O   0  0  0  0  0  1  0  0  0  0  0  0
  1  9  1  0  0  0  0
  1 19  1  0  0  0  0
  2  1  2  0  0  0  0
  3  2  1  0  0  0  0
  3  8  1  0  0  0  0
  4  3  2  0  0  0  0
  5  4  1  0  0  0  0
  5  6  2  0  0  0  0
  6  7  1  0  0  0  0
  7  8  2  0  0  0  0
  8  9  1  0  0  0  0
  9 10  1  0  0  0  0
 10 11  1  0  0  0  0
 10 15  1  0  0  0  0
 11 12  1  0  0  0  0
 12 13  1  0  0  0  0
 14 13  1  0  0  0  0
 15 14  1  0  0  0  0
 16 17  2  0  0  0  0
 16 22  1  0  0  0  0
 18 17  1  0  0  0  0
 19 20  1  0  0  0  0
 19 18  2  0  0  0  0
 20 16  1  0  0  0  0
 21 22  1  0  0  0  0
 23  5  1  0  0  0  0
 24 23  2  0  0  0  0
 25 23  1  0  0  0  0
M  END
>  <minimizedAffinity>
-5.82954454

$$$$

 OpenBabel09122219393D

 25 28  0  0  0  0  0  0  0  0999 V2000
    8.0980    2.0780   10.3890 C   0  0  0  0  0  0  0  0  0  0  0  0
    8.8000    3.1880   10.4390 N   0  0  0  0  0  0  0  0  0  0  0  0
    8.2030    3.9640   11.4010 C   0  0  0  0  0  0  0  0  0  0  0  0
    8.5430    5.2530   11.8420 C   0  0  0  0  0  3  0  0  0  0  0  0
    7.7740    5.8770   12.8460 C   0  0  0  0  0  0  0  0  0  0  0  0
    6.6780    5.1860   13.3850 C   0  0  0  0  0  3  0  0  0  0  0  0
    6.3240    3.8980   12.9620 C   0  0  0  0  0  3  0  0  0  0  0  0
    7.1100    3.3070   11.9640 C   0  0  0  0  0  0  0  0  0  0  0  0
    7.0740    2.0880   11.3160 N   0  0  0  0  0  0  0  0  0  0  0  0
    6.1400    0.9930   11.5610 C   0  0  0  0  0  3  0  0  0  0  0  0
    6.1910    0.4700   13.0070 C   0  0  0  0  0  2  0  0  0  0  0  0
    5.2340   -0.7040   13.2050 C   0  0  0  0  0  2  0  0  0  0  0  0
    3.8120   -0.3520   12.7750 C   0  0  0  0  0  2  0  0  0  0  0  0
    3.7660    0.1460   11.3340 C   0  0  0  0  0  2  0  0  0  0  0  0
    4.7080    1.3290   11.1150 C   0  0  0  0  0  2  0  0  0  0  0  0
    9.2690   -0.9510    8.2850 C   0  0  0  0  0  0  0  0  0  0  0  0
    8.2550   -0.3410    7.5750 C   0  0  0  0  0  3  0  0  0  0  0  0
    7.7400    0.8050    8.2490 C   0  0  0  0  0  3  0  0  0  0  0  0
    8.3670    1.0250    9.4570 C   0  0  0  0  0  0  0  0  0  0  0  0
    9.5770   -0.1400    9.7630 S   0  0  0  0  0  0  0  0  0  0  0  0
   10.7060   -2.0000    6.5290 C   0  0  0  0  0  1  0  0  0  0  0  0
   10.0710   -2.1590    7.9030 C   0  0  0  0  0  2  0  0  0  0  0  0
    8.1210    7.2710   13.3320 C   0  0  0  0  0  0  0  0  0  0  0  0
    9.3530    7.5660   13.4290 O   0  0  0  0  0  0  0  0  0  0  0  0
    7.1480    8.0460   13.6050 O   0  0  0  0  0  1  0  0  0  0  0  0
  1  2  2  0  0  0  0
  1  9  1  0  0  0  0
  2  3  1  0  0  0  0
  3  4  2  0  0  0  0
  3  8  1  0  0  0  0
  4  5  1  0  0  0  0
  5 23  1  0  0  0  0
  5  6  2  0  0  0  0
  7  6  1  0  0  0  0
  8  7  2  0  0  0  0
  9 10  1  0  0  0  0
  9  8  1  0  0  0  0
 10 11  1  0  0  0  0
 11 12  1  0  0  0  0
 13 12  1  0  0  0  0
 14 13  1  0  0  0  0
 15 14  1  0  0  0  0
 15 10  1  0  0  0  0
 16 20  1  0  0  0  0
 17 18  1  0  0  0  0
 17 16  2  0  0  0  0
 18 19  2  0  0  0  0
 19 20  1  0  0  0  0
 19  1  1  0  0  0  0
 21 22  1  0  0  0  0
 22 16  1  0  0  0  0
 23 24  2  0  0  0  0
 23 25  1  0  0  0  0
M  END
>  <minimizedAffinity>
-5.79582024

$$$$

 OpenBabel09122219393D

 25 28  0  0  0  0  0  0  0  0999 V2000
    7.5870    0.2610    9.1190 C   0  0  0  0  0  0  0  0  0  0  0  0
    8.6190    0.2060    8.3060 N   0  0  0  0  0  0  0  0  0  0  0  0
    8.3340   -0.7940    7.4090 C   0  0  0  0  0  0  0  0  0  0  0  0
    9.1070   -1.2770    6.3400 C   0  0  0  0  0  3  0  0  0  0  0  0
    8.6210   -2.3340    5.5450 C   0  0  0  0  0  0  0  0  0  0  0  0
    7.3650   -2.8840    5.8460 C   0  0  0  0  0  3  0  0  0  0  0  0
    6.5770   -2.4150    6.9050 C   0  0  0  0  0  3  0  0  0  0  0  0
    7.0890   -1.3620    7.6750 C   0  0  0  0  0  0  0  0  0  0  0  0
    6.6160   -0.6550    8.7620 N   0  0  0  0  0  0  0  0  0  0  0  0
    5.3230   -0.8200    9.4190 C   0  0  0  0  0  3  0  0  0  0  0  0
    4.1330   -0.6690    8.4560 C   0  0  0  0  0  2  0  0  0  0  0  0
    2.8020   -0.8020    9.1940 C   0  0  0  0  0  2  0  0  0  0  0  0
    2.7280   -2.1010    9.9930 C   0  0  0  0  0  2  0  0  0  0  0  0
    3.9000   -2.2370   10.9610 C   0  0  0  0  0  2  0  0  0  0  0  0
    5.2430   -2.1170   10.2410 C   0  0  0  0  0  2  0  0  0  0  0  0
    7.4020    3.1170   11.7230 C   0  0  0  0  0  0  0  0  0  0  0  0
    7.4470    1.9330   12.4320 C   0  0  0  0  0  3  0  0  0  0  0  0
    7.5260    0.7960   11.5760 C   0  0  0  0  0  3  0  0  0  0  0  0
    7.5240    1.1460   10.2420 C   0  0  0  0  0  0  0  0  0  0  0  0
    7.4410    2.8380   10.0330 S   0  0  0  0  0  0  0  0  0  0  0  0
    6.5510    4.5840   13.5590 C   0  0  0  0  0  1  0  0  0  0  0  0
    7.3380    4.5160   12.2580 C   0  0  0  0  0  2  0  0  0  0  0  0
    9.4410   -2.8740    4.3890 C   0  0  0  0  0  0  0  0  0  0  0  0
   10.6800   -2.5900    4.3700 O   0  0  0  0  0  1  0  0  0  0  0  0
    8.8260   -3.5740    3.5230 O   0  0  0  0  0  0  0  0  0  0  0  0
  1 19  1  0  0  0  0
  2  1  2  0  0  0  0
  3  8  1  0  0  0  0
  3  2  1  0  0  0  0
  4  3  2  0  0  0  0
  5  6  2  0  0  0  0
  5  4  1  0  0  0  0
  6  7  1  0  0  0  0
  7  8  2  0  0  0  0
  8  9  1  0  0  0  0
  9  1  1  0  0  0  0
  9 10  1  0  0  0  0
 10 15  1  0  0  0  0
 11 12  1  0  0  0  0
 11 10  1  0  0  0  0
 12 13  1  0  0  0  0
 13 14  1  0  0  0  0
 15 14  1  0  0  0  0
 16 22  1  0  0  0  0
 16 17  2  0  0  0  0
 18 17  1  0  0  0  0
 19 18  2  0  0  0  0
 20 19  1  0  0  0  0
 20 16  1  0  0  0  0
 22 21  1  0  0  0  0
 23  5  1  0  0  0  0
 24 23  1  0  0  0  0
 25 23  2  0  0  0  0
M  END
>  <minimizedAffinity>
-5.78546095

$$$$

 OpenBabel09122219393D

 25 28  0  0  0  0  0  0  0  0999 V2000
    5.2280   -0.2010    9.7990 C   0  0  0  0  0  0  0  0  0  0  0  0
    3.9940   -0.1790    9.3460 N   0  0  0  0  0  0  0  0  0  0  0  0
    4.0010   -0.9490    8.2090 C   0  0  0  0  0  0  0  0  0  0  0  0
    2.9490   -1.2450    7.3280 C   0  0  0  0  0  3  0  0  0  0  0  0
    3.1840   -2.0550    6.1990 C   0  0  0  0  0  0  0  0  0  0  0  0
    4.4790   -2.5520    5.9830 C   0  0  0  0  0  3  0  0  0  0  0  0
    5.5430   -2.2720    6.8510 C   0  0  0  0  0  3  0  0  0  0  0  0
    5.2740   -1.4650    7.9640 C   0  0  0  0  0  0  0  0  0  0  0  0
    6.0410   -0.9910    9.0090 N   0  0  0  0  0  0  0  0  0  0  0  0
    7.4510   -1.2730    9.2580 C   0  0  0  0  0  3  0  0  0  0  0  0
    7.7250   -2.7570    9.5580 C   0  0  0  0  0  2  0  0  0  0  0  0
    9.2030   -2.9980    9.8590 C   0  0  0  0  0  2  0  0  0  0  0  0
   10.1000   -2.4660    8.7440 C   0  0  0  0  0  2  0  0  0  0  0  0
    9.8380   -0.9890    8.4650 C   0  0  0  0  0  2  0  0  0  0  0  0
    8.3660   -0.7260    8.1500 C   0  0  0  0  0  2  0  0  0  0  0  0
    6.2310    2.3130   12.5640 C   0  0  0  0  0  0  0  0  0  0  0  0
    6.4450    1.0500   13.0780 C   0  0  0  0  0  3  0  0  0  0  0  0
    6.1170    0.0250   12.1420 C   0  0  0  0  0  3  0  0  0  0  0  0
    5.6500    0.5390   10.9500 C   0  0  0  0  0  0  0  0  0  0  0  0
    5.6240    2.2460   10.9630 S   0  0  0  0  0  0  0  0  0  0  0  0
    7.4520    4.4900   12.4310 C   0  0  0  0  0  1  0  0  0  0  0  0
    6.4750    3.6360   13.2260 C   0  0  0  0  0  2  0  0  0  0  0  0
    2.0620   -2.3830    5.2330 C   0  0  0  0  0  0  0  0  0  0  0  0
    2.0560   -3.5430    4.7160 O   0  0  0  0  0  0  0  0  0  0  0  0
    1.2060   -1.4670    5.0110 O   0  0  0  0  0  1  0  0  0  0  0  0
  1 19  1  0  0  0  0
  2  1  2  0  0  0  0
  3  2  1  0  0  0  0
  4  3  2  0  0  0  0
  5  4  1  0  0  0  0
  6  5  2  0  0  0  0
  6  7  1  0  0  0  0
  7  8  2  0  0  0  0
  8  3  1  0  0  0  0
  8  9  1  0  0  0  0
  9 10  1  0  0  0  0
  9  1  1  0  0  0  0
 10 11  1  0  0  0  0
 11 12  1  0  0  0  0
 13 12  1  0  0  0  0
 14 13  1  0  0  0  0
 15 14  1  0  0  0  0
 15 10  1  0  0  0  0
 16 17  2  0  0  0  0
 16 22  1  0  0  0  0
 18 17  1  0  0  0  0
 19 20  1  0  0  0  0
 19 18  2  0  0  0  0
 20 16  1  0  0  0  0
 21 22  1  0  0  0  0
 23  5  1  0  0  0  0
 24 23  2  0  0  0  0
 25 23  1  0  0  0  0
M  END
>  <minimizedAffinity>
-5.75323677

$$$$

 OpenBabel09122219393D

 25 28  0  0  0  0  0  0  0  0999 V2000
    5.8650   -2.8790    9.4910 C   0  0  0  0  0  0  0  0  0  0  0  0
    5.5920   -3.6590    8.4680 N   0  0  0  0  0  0  0  0  0  0  0  0
    4.6060   -3.0140    7.7620 C   0  0  0  0  0  0  0  0  0  0  0  0
    3.9420   -3.4170    6.5920 C   0  0  0  0  0  3  0  0  0  0  0  0
    2.9390   -2.5980    6.0360 C   0  0  0  0  0  0  0  0  0  0  0  0
    2.6270   -1.3860    6.6730 C   0  0  0  0  0  3  0  0  0  0  0  0
    3.2800   -0.9640    7.8390 C   0  0  0  0  0  3  0  0  0  0  0  0
    4.2720   -1.8020    8.3640 C   0  0  0  0  0  0  0  0  0  0  0  0
    5.1080   -1.7230    9.4600 N   0  0  0  0  0  0  0  0  0  0  0  0
    5.2000   -0.6230   10.4140 C   0  0  0  0  0  3  0  0  0  0  0  0
    5.8180    0.6490    9.8100 C   0  0  0  0  0  2  0  0  0  0  0  0
    5.9380    1.7570   10.8550 C   0  0  0  0  0  2  0  0  0  0  0  0
    4.5990    2.0400   11.5340 C   0  0  0  0  0  2  0  0  0  0  0  0
    4.0010    0.7780   12.1490 C   0  0  0  0  0  2  0  0  0  0  0  0
    3.8620   -0.3410   11.1180 C   0  0  0  0  0  2  0  0  0  0  0  0
    8.8550   -3.6340   11.8280 C   0  0  0  0  0  0  0  0  0  0  0  0
    7.7110   -3.9770   12.5210 C   0  0  0  0  0  3  0  0  0  0  0  0
    6.5290   -3.7500   11.7560 C   0  0  0  0  0  3  0  0  0  0  0  0
    6.8080   -3.2290   10.5100 C   0  0  0  0  0  0  0  0  0  0  0  0
    8.4870   -3.0310   10.2680 S   0  0  0  0  0  0  0  0  0  0  0  0
   10.4140   -3.5120   13.7780 C   0  0  0  0  0  1  0  0  0  0  0  0
   10.2800   -3.7460   12.2800 C   0  0  0  0  0  2  0  0  0  0  0  0
    2.2070   -3.0170    4.7760 C   0  0  0  0  0  0  0  0  0  0  0  0
    1.9300   -2.1080    3.9320 O   0  0  0  0  0  0  0  0  0  0  0  0
    1.9240   -4.2520    4.6570 O   0  0  0  0  0  1  0  0  0  0  0  0
  1 19  1  0  0  0  0
  2  1  2  0  0  0  0
  3  8  1  0  0  0  0
  3  2  1  0  0  0  0
  4  3  2  0  0  0  0
  5  4  1  0  0  0  0
  5  6  2  0  0  0  0
  6  7  1  0  0  0  0
  7  8  2  0  0  0  0
  8  9  1  0  0  0  0
  9  1  1  0  0  0  0
  9 10  1  0  0  0  0
 10 15  1  0  0  0  0
 11 10  1  0  0  0  0
 11 12  1  0  0  0  0
 12 13  1  0  0  0  0
 13 14  1  0  0  0  0
 15 14  1  0  0  0  0
 16 22  1  0  0  0  0
 16 17  2  0  0  0  0
 18 17  1  0  0  0  0
 19 18  2  0  0  0  0
 20 19  1  0  0  0  0
 20 16  1  0  0  0  0
 22 21  1  0  0  0  0
 23  5  1  0  0  0  0
 24 23  2  0  0  0  0
 25 23  1  0  0  0  0
M  END
>  <minimizedAffinity>
-5.70454121

$$$$

 OpenBabel09122219393D

 25 28  0  0  0  0  0  0  0  0999 V2000
    5.5310   -2.1790    8.9080 C   0  0  0  0  0  0  0  0  0  0  0  0
    5.3660   -2.1460   10.2120 N   0  0  0  0  0  0  0  0  0  0  0  0
    4.0670   -2.5330   10.4320 C   0  0  0  0  0  0  0  0  0  0  0  0
    3.3680   -2.6550   11.6440 C   0  0  0  0  0  3  0  0  0  0  0  0
    2.0180   -3.0590   11.6390 C   0  0  0  0  0  0  0  0  0  0  0  0
    1.4010   -3.3330   10.4090 C   0  0  0  0  0  3  0  0  0  0  0  0
    2.0800   -3.2220    9.1880 C   0  0  0  0  0  3  0  0  0  0  0  0
    3.4210   -2.8190    9.2300 C   0  0  0  0  0  0  0  0  0  0  0  0
    4.3860   -2.6070    8.2660 N   0  0  0  0  0  0  0  0  0  0  0  0
    4.2450   -2.8060    6.8260 C   0  0  0  0  0  3  0  0  0  0  0  0
    4.5000   -4.2590    6.3910 C   0  0  0  0  0  2  0  0  0  0  0  0
    4.3890   -4.4110    4.8750 C   0  0  0  0  0  2  0  0  0  0  0  0
    3.0540   -3.8860    4.3520 C   0  0  0  0  0  2  0  0  0  0  0  0
    2.8150   -2.4380    4.7700 C   0  0  0  0  0  2  0  0  0  0  0  0
    2.9120   -2.2640    6.2850 C   0  0  0  0  0  2  0  0  0  0  0  0
    8.9600   -1.7220    7.1720 C   0  0  0  0  0  0  0  0  0  0  0  0
    8.4080   -0.4640    7.3010 C   0  0  0  0  0  3  0  0  0  0  0  0
    7.1330   -0.4970    7.9400 C   0  0  0  0  0  3  0  0  0  0  0  0
    6.7480   -1.7810    8.2650 C   0  0  0  0  0  0  0  0  0  0  0  0
    7.9270   -2.9300    7.8120 S   0  0  0  0  0  0  0  0  0  0  0  0
   10.2340   -2.1160    5.0580 C   0  0  0  0  0  1  0  0  0  0  0  0
   10.2850   -2.0970    6.5790 C   0  0  0  0  0  2  0  0  0  0  0  0
    1.2440   -3.1920   12.9360 C   0  0  0  0  0  0  0  0  0  0  0  0
    0.7430   -2.1330   13.4280 O   0  0  0  0  0  0  0  0  0  0  0  0
    1.1520   -4.3590   13.4360 O   0  0  0  0  0  1  0  0  0  0  0  0
  1  2  2  0  0  0  0
  2  3  1  0  0  0  0
  3  4  1  0  0  0  0
  5  4  2  0  0  0  0
  5 23  1  0  0  0  0
  6  5  1  0  0  0  0
  7  8  1  0  0  0  0
  7  6  2  0  0  0  0
  8  3  2  0  0  0  0
  9  1  1  0  0  0  0
  9  8  1  0  0  0  0
 10  9  1  0  0  0  0
 11 10  1  0  0  0  0
 12 11  1  0  0  0  0
 13 14  1  0  0  0  0
 13 12  1  0  0  0  0
 14 15  1  0  0  0  0
 15 10  1  0  0  0  0
 16 17  2  0  0  0  0
 16 20  1  0  0  0  0
 17 18  1  0  0  0  0
 18 19  2  0  0  0  0
 19  1  1  0  0  0  0
 20 19  1  0  0  0  0
 21 22  1  0  0  0  0
 22 16  1  0  0  0  0
 23 24  2  0  0  0  0
 23 25  1  0  0  0  0
M  END
>  <minimizedAffinity>
-5.68152523

$$$$

 OpenBabel09122219393D

 25 28  0  0  0  0  0  0  0  0999 V2000
    5.4460    0.7480   12.3240 C   0  0  0  0  0  0  0  0  0  0  0  0
    5.8200    1.8540   12.9280 N   0  0  0  0  0  0  0  0  0  0  0  0
    6.5060    2.5790   11.9860 C   0  0  0  0  0  0  0  0  0  0  0  0
    7.1320    3.8300   12.1090 C   0  0  0  0  0  3  0  0  0  0  0  0
    7.8020    4.3920   11.0030 C   0  0  0  0  0  0  0  0  0  0  0  0
    7.8250    3.6790    9.7950 C   0  0  0  0  0  3  0  0  0  0  0  0
    7.2040    2.4310    9.6490 C   0  0  0  0  0  3  0  0  0  0  0  0
    6.5460    1.9030   10.7680 C   0  0  0  0  0  0  0  0  0  0  0  0
    5.8400    0.7390   11.0000 N   0  0  0  0  0  0  0  0  0  0  0  0
    5.5420   -0.3120   10.0330 C   0  0  0  0  0  3  0  0  0  0  0  0
    4.2210   -0.0820    9.2790 C   0  0  0  0  0  2  0  0  0  0  0  0
    3.9270   -1.2280    8.3130 C   0  0  0  0  0  2  0  0  0  0  0  0
    5.0930   -1.4760    7.3590 C   0  0  0  0  0  2  0  0  0  0  0  0
    6.3950   -1.7240    8.1130 C   0  0  0  0  0  2  0  0  0  0  0  0
    6.7160   -0.5830    9.0780 C   0  0  0  0  0  2  0  0  0  0  0  0
    3.0360   -1.8400   13.8970 C   0  0  0  0  0  0  0  0  0  0  0  0
    4.3150   -2.2100   14.2650 C   0  0  0  0  0  3  0  0  0  0  0  0
    5.3020   -1.3210   13.7490 C   0  0  0  0  0  3  0  0  0  0  0  0
    4.7490   -0.3090   12.9920 C   0  0  0  0  0  0  0  0  0  0  0  0
    3.0470   -0.4310   12.9210 S   0  0  0  0  0  0  0  0  0  0  0  0
    0.5810   -1.5150   14.2350 C   0  0  0  0  0  1  0  0  0  0  0  0
    1.7400   -2.5020   14.2570 C   0  0  0  0  0  2  0  0  0  0  0  0
    8.4890    5.7390   11.1160 C   0  0  0  0  0  0  0  0  0  0  0  0
    9.4400    5.8410   11.9520 O   0  0  0  0  0  1  0  0  0  0  0  0
    8.0610    6.6700   10.3600 O   0  0  0  0  0  0  0  0  0  0  0  0
  1  2  2  0  0  0  0
  1 19  1  0  0  0  0
  3  4  1  0  0  0  0
  3  2  1  0  0  0  0
  5 23  1  0  0  0  0
  5  4  2  0  0  0  0
  6  5  1  0  0  0  0
  7  6  2  0  0  0  0
  7  8  1  0  0  0  0
  8  9  1  0  0  0  0
  8  3  2  0  0  0  0
  9  1  1  0  0  0  0
 10  9  1  0  0  0  0
 11 10  1  0  0  0  0
 12 11  1  0  0  0  0
 13 14  1  0  0  0  0
 13 12  1  0  0  0  0
 14 15  1  0  0  0  0
 15 10  1  0  0  0  0
 16 22  1  0  0  0  0
 16 17  2  0  0  0  0
 18 17  1  0  0  0  0
 19 18  2  0  0  0  0
 20 19  1  0  0  0  0
 20 16  1  0  0  0  0
 21 22  1  0  0  0  0
 23 24  1  0  0  0  0
 25 23  2  0  0  0  0
M  END
>  <minimizedAffinity>
-5.68112183

$$$$
