
 OpenBabel09122222393D

 25 28  0  0  0  0  0  0  0  0999 V2000
    5.2280   -0.2010    9.7990 C   0  0  0  0  0  0  0  0  0  0  0  0
    3.9940   -0.1790    9.3460 N   0  0  0  0  0  0  0  0  0  0  0  0
    4.0010   -0.9490    8.2090 C   0  0  0  0  0  0  0  0  0  0  0  0
    2.9490   -1.2450    7.3280 C   0  0  0  0  0  3  0  0  0  0  0  0
    3.1840   -2.0550    6.1990 C   0  0  0  0  0  0  0  0  0  0  0  0
    4.4790   -2.5520    5.9830 C   0  0  0  0  0  3  0  0  0  0  0  0
    5.5430   -2.2720    6.8510 C   0  0  0  0  0  3  0  0  0  0  0  0
    5.2740   -1.4650    7.9640 C   0  0  0  0  0  0  0  0  0  0  0  0
    6.0410   -0.9910    9.0090 N   0  0  0  0  0  0  0  0  0  0  0  0
    7.4510   -1.2730    9.2580 C   0  0  0  0  0  3  0  0  0  0  0  0
    7.7250   -2.7570    9.5580 C   0  0  0  0  0  2  0  0  0  0  0  0
    9.2030   -2.9980    9.8590 C   0  0  0  0  0  2  0  0  0  0  0  0
   10.1000   -2.4660    8.7440 C   0  0  0  0  0  2  0  0  0  0  0  0
    9.8380   -0.9890    8.4650 C   0  0  0  0  0  2  0  0  0  0  0  0
    8.3660   -0.7260    8.1500 C   0  0  0  0  0  2  0  0  0  0  0  0
    6.2310    2.3130   12.5640 C   0  0  0  0  0  0  0  0  0  0  0  0
    6.4450    1.0500   13.0780 C   0  0  0  0  0  3  0  0  0  0  0  0
    6.1170    0.0250   12.1420 C   0  0  0  0  0  3  0  0  0  0  0  0
    5.6500    0.5390   10.9500 C   0  0  0  0  0  0  0  0  0  0  0  0
    5.6240    2.2460   10.9630 S   0  0  0  0  0  0  0  0  0  0  0  0
    7.4520    4.4900   12.4310 C   0  0  0  0  0  1  0  0  0  0  0  0
    6.4750    3.6360   13.2260 C   0  0  0  0  0  2  0  0  0  0  0  0
    2.0620   -2.3830    5.2330 C   0  0  0  0  0  0  0  0  0  0  0  0
    2.0560   -3.5430    4.7160 O   0  0  0  0  0  0  0  0  0  0  0  0
    1.2060   -1.4670    5.0110 O   0  0  0  0  0  1  0  0  0  0  0  0
  1 19  1  0  0  0  0
  2  1  2  0  0  0  0
  3  2  1  0  0  0  0
  4  3  2  0  0  0  0
  5  4  1  0  0  0  0
  6  5  2  0  0  0  0
  6  7  1  0  0  0  0
  7  8  2  0  0  0  0
  8  3  1  0  0  0  0
  8  9  1  0  0  0  0
  9 10  1  0  0  0  0
  9  1  1  0  0  0  0
 10 11  1  0  0  0  0
 11 12  1  0  0  0  0
 13 12  1  0  0  0  0
 14 13  1  0  0  0  0
 15 14  1  0  0  0  0
 15 10  1  0  0  0  0
 16 17  2  0  0  0  0
 16 22  1  0  0  0  0
 18 17  1  0  0  0  0
 19 20  1  0  0  0  0
 19 18  2  0  0  0  0
 20 16  1  0  0  0  0
 21 22  1  0  0  0  0
 23  5  1  0  0  0  0
 24 23  2  0  0  0  0
 25 23  1  0  0  0  0
M  END
>  <minimizedAffinity>
-5.75323677

$$$$
