
 OpenBabel09122222393D

 25 28  0  0  0  0  0  0  0  0999 V2000
    6.6180    0.2830    9.2370 C   0  0  0  0  0  0  0  0  0  0  0  0
    7.7980    0.3440    8.6600 N   0  0  0  0  0  0  0  0  0  0  0  0
    7.8130   -0.6700    7.7350 C   0  0  0  0  0  0  0  0  0  0  0  0
    8.8380   -1.0580    6.8570 C   0  0  0  0  0  3  0  0  0  0  0  0
    8.6430   -2.1520    5.9900 C   0  0  0  0  0  0  0  0  0  0  0  0
    7.4160   -2.8320    6.0260 C   0  0  0  0  0  3  0  0  0  0  0  0
    6.3790   -2.4600    6.8920 C   0  0  0  0  0  3  0  0  0  0  0  0
    6.6060   -1.3670    7.7390 C   0  0  0  0  0  0  0  0  0  0  0  0
    5.8440   -0.7240    8.6950 N   0  0  0  0  0  0  0  0  0  0  0  0
    4.4670   -1.0310    9.0690 C   0  0  0  0  0  3  0  0  0  0  0  0
    3.4840   -0.9180    7.8910 C   0  0  0  0  0  2  0  0  0  0  0  0
    2.0500   -1.1990    8.3370 C   0  0  0  0  0  2  0  0  0  0  0  0
    1.9350   -2.5450    9.0500 C   0  0  0  0  0  2  0  0  0  0  0  0
    2.8980   -2.6430   10.2290 C   0  0  0  0  0  2  0  0  0  0  0  0
    4.3410   -2.3750    9.8030 C   0  0  0  0  0  2  0  0  0  0  0  0
    6.1900    2.7060   12.2240 C   0  0  0  0  0  0  0  0  0  0  0  0
    4.9220    2.3270   11.8330 C   0  0  0  0  0  3  0  0  0  0  0  0
    4.9450    1.4190   10.7340 C   0  0  0  0  0  3  0  0  0  0  0  0
    6.2300    1.1450   10.3130 C   0  0  0  0  0  0  0  0  0  0  0  0
    7.3930    1.9700   11.2510 S   0  0  0  0  0  0  0  0  0  0  0  0
    7.2790    4.8720   12.8310 C   0  0  0  0  0  1  0  0  0  0  0  0
    6.5790    3.6220   13.3450 C   0  0  0  0  0  2  0  0  0  0  0  0
    9.7390   -2.5910    5.0380 C   0  0  0  0  0  0  0  0  0  0  0  0
    9.4180   -3.3980    4.1100 O   0  0  0  0  0  0  0  0  0  0  0  0
   10.9020   -2.1150    5.2380 O   0  0  0  0  0  1  0  0  0  0  0  0
  1 19  1  0  0  0  0
  2  1  2  0  0  0  0
  3  8  1  0  0  0  0
  3  2  1  0  0  0  0
  4  3  2  0  0  0  0
  5  6  2  0  0  0  0
  5  4  1  0  0  0  0
  6  7  1  0  0  0  0
  7  8  2  0  0  0  0
  8  9  1  0  0  0  0
  9 10  1  0  0  0  0
  9  1  1  0  0  0  0
 10 15  1  0  0  0  0
 11 12  1  0  0  0  0
 11 10  1  0  0  0  0
 12 13  1  0  0  0  0
 13 14  1  0  0  0  0
 15 14  1  0  0  0  0
 16 22  1  0  0  0  0
 17 16  2  0  0  0  0
 18 17  1  0  0  0  0
 19 18  2  0  0  0  0
 19 20  1  0  0  0  0
 20 16  1  0  0  0  0
 21 22  1  0  0  0  0
 23 25  1  0  0  0  0
 23  5  1  0  0  0  0
 24 23  2  0  0  0  0
M  END
>  <minimizedAffinity>
-6.32607698

$$$$
