
 OpenBabel09122222393D

 25 28  0  0  0  0  0  0  0  0999 V2000
    5.4460    0.7480   12.3240 C   0  0  0  0  0  0  0  0  0  0  0  0
    5.8200    1.8540   12.9280 N   0  0  0  0  0  0  0  0  0  0  0  0
    6.5060    2.5790   11.9860 C   0  0  0  0  0  0  0  0  0  0  0  0
    7.1320    3.8300   12.1090 C   0  0  0  0  0  3  0  0  0  0  0  0
    7.8020    4.3920   11.0030 C   0  0  0  0  0  0  0  0  0  0  0  0
    7.8250    3.6790    9.7950 C   0  0  0  0  0  3  0  0  0  0  0  0
    7.2040    2.4310    9.6490 C   0  0  0  0  0  3  0  0  0  0  0  0
    6.5460    1.9030   10.7680 C   0  0  0  0  0  0  0  0  0  0  0  0
    5.8400    0.7390   11.0000 N   0  0  0  0  0  0  0  0  0  0  0  0
    5.5420   -0.3120   10.0330 C   0  0  0  0  0  3  0  0  0  0  0  0
    4.2210   -0.0820    9.2790 C   0  0  0  0  0  2  0  0  0  0  0  0
    3.9270   -1.2280    8.3130 C   0  0  0  0  0  2  0  0  0  0  0  0
    5.0930   -1.4760    7.3590 C   0  0  0  0  0  2  0  0  0  0  0  0
    6.3950   -1.7240    8.1130 C   0  0  0  0  0  2  0  0  0  0  0  0
    6.7160   -0.5830    9.0780 C   0  0  0  0  0  2  0  0  0  0  0  0
    3.0360   -1.8400   13.8970 C   0  0  0  0  0  0  0  0  0  0  0  0
    4.3150   -2.2100   14.2650 C   0  0  0  0  0  3  0  0  0  0  0  0
    5.3020   -1.3210   13.7490 C   0  0  0  0  0  3  0  0  0  0  0  0
    4.7490   -0.3090   12.9920 C   0  0  0  0  0  0  0  0  0  0  0  0
    3.0470   -0.4310   12.9210 S   0  0  0  0  0  0  0  0  0  0  0  0
    0.5810   -1.5150   14.2350 C   0  0  0  0  0  1  0  0  0  0  0  0
    1.7400   -2.5020   14.2570 C   0  0  0  0  0  2  0  0  0  0  0  0
    8.4890    5.7390   11.1160 C   0  0  0  0  0  0  0  0  0  0  0  0
    9.4400    5.8410   11.9520 O   0  0  0  0  0  1  0  0  0  0  0  0
    8.0610    6.6700   10.3600 O   0  0  0  0  0  0  0  0  0  0  0  0
  1  2  2  0  0  0  0
  1 19  1  0  0  0  0
  3  4  1  0  0  0  0
  3  2  1  0  0  0  0
  5 23  1  0  0  0  0
  5  4  2  0  0  0  0
  6  5  1  0  0  0  0
  7  6  2  0  0  0  0
  7  8  1  0  0  0  0
  8  9  1  0  0  0  0
  8  3  2  0  0  0  0
  9  1  1  0  0  0  0
 10  9  1  0  0  0  0
 11 10  1  0  0  0  0
 12 11  1  0  0  0  0
 13 14  1  0  0  0  0
 13 12  1  0  0  0  0
 14 15  1  0  0  0  0
 15 10  1  0  0  0  0
 16 22  1  0  0  0  0
 16 17  2  0  0  0  0
 18 17  1  0  0  0  0
 19 18  2  0  0  0  0
 20 19  1  0  0  0  0
 20 16  1  0  0  0  0
 21 22  1  0  0  0  0
 23 24  1  0  0  0  0
 25 23  2  0  0  0  0
M  END
>  <minimizedAffinity>
-5.68112183

$$$$
