REMARK  Name = 
REMARK  2 active torsions:
REMARK  status: ('A' for Active; 'I' for Inactive)
REMARK    1  A    between atoms: C_2  and  C_4
REMARK    2  A    between atoms: C_14  and  O_15
REMARK                            x       y       z     vdW  Elec       q    Type
REMARK                         _______ _______ _______ _____ _____    ______ ____
ROOT
ATOM      1  C   UNL     1       3.066  -0.073   1.282  0.00  0.00    +0.196 A 
ATOM      2  O   UNL     1       4.113   0.831   1.403  0.00  0.00    -0.450 OA
ATOM      3  C   UNL     1       4.820   0.854   2.576  0.00  0.00    +0.140 A 
ATOM      4  C   UNL     1       5.871   1.766   2.669  0.00  0.00    +0.047 A 
ATOM      5  C   UNL     1       6.630   1.840   3.839  0.00  0.00    +0.004 A 
ATOM      6  C   UNL     1       6.338   1.002   4.917  0.00  0.00    +0.001 A 
ATOM      7  C   UNL     1       5.286   0.089   4.825  0.00  0.00    +0.015 A 
ATOM      8  C   UNL     1       4.531   0.020   3.650  0.00  0.00    +0.068 A 
ATOM      9  C   UNL     1       3.420  -0.933   3.521  0.00  0.00    +0.234 A 
ATOM     10  O   UNL     1       3.100  -1.703   4.424  0.00  0.00    -0.283 OA
ATOM     11  C   UNL     1       2.682  -0.935   2.234  0.00  0.00    +0.209 A 
ENDROOT
BRANCH   1  13
ATOM     12  O   UNL     1       1.324   0.730  -0.103  0.00  0.00    -0.541 OA
ATOM     13  C   UNL     1       2.332  -0.035  -0.061  0.00  0.00    +0.111 C 
ATOM     14  O   UNL     1       2.878  -0.704  -0.988  0.00  0.00    -0.541 OA
ENDBRANCH   1  13
BRANCH  11  15
ATOM     15  O   UNL     1       1.644  -1.837   2.108  0.00  0.00    -0.501 OA
ATOM     16  H   UNL     1       1.615  -2.303   2.966  0.00  0.00    +0.292 HD
ENDBRANCH  11  15
TORSDOF 2
