
 OpenBabel09122222393D

 16 17  0  0  0  0  0  0  0  0999 V2000
    5.3300   -3.6220    5.1060 C   0  0  0  0  0  0  0  0  0  0  0  0
    4.0100   -3.2530    5.3280 O   0  0  0  0  0  0  0  0  0  0  0  0
    3.7430   -2.3680    6.3380 C   0  0  0  0  0  0  0  0  0  0  0  0
    2.4100   -2.0080    6.5350 C   0  0  0  0  0  3  0  0  0  0  0  0
    2.0710   -1.1100    7.5500 C   0  0  0  0  0  3  0  0  0  0  0  0
    3.0660   -0.5710    8.3690 C   0  0  0  0  0  3  0  0  0  0  0  0
    4.4010   -0.9310    8.1720 C   0  0  0  0  0  3  0  0  0  0  0  0
    4.7320   -1.8300    7.1540 C   0  0  0  0  0  0  0  0  0  0  0  0
    6.1280   -2.2250    6.9200 C   0  0  0  0  0  0  0  0  0  0  0  0
    7.0600   -1.7960    7.5970 O   0  0  0  0  0  0  0  0  0  0  0  0
    6.3800   -3.1800    5.8120 C   0  0  0  0  0  0  0  0  0  0  0  0
    6.2920   -4.2030    3.0240 O   0  0  0  0  0  0  0  0  0  0  0  0
    5.5400   -4.6120    3.9570 C   0  0  0  0  0  0  0  0  0  0  0  0
    5.0070   -5.7490    4.1260 O   0  0  0  0  0  1  0  0  0  0  0  0
    7.6920   -3.5440    5.5850 O   0  0  0  0  0  0  0  0  0  0  0  0
    8.2040   -3.0640    6.2650 H   0  0  0  0  0  0  0  0  0  0  0  0
  1  2  1  0  0  0  0
  1 11  2  0  0  0  0
  2  3  1  0  0  0  0
  3  4  2  0  0  0  0
  3  8  1  0  0  0  0
  4  5  1  0  0  0  0
  5  6  2  0  0  0  0
  7  6  1  0  0  0  0
  8  7  2  0  0  0  0
  9  8  1  0  0  0  0
  9 10  2  0  0  0  0
 11  9  1  0  0  0  0
 12 13  2  0  0  0  0
 13 14  1  0  0  0  0
 13  1  1  0  0  0  0
 15 11  1  0  0  0  0
 15 16  1  0  0  0  0
M  END
>  <minimizedAffinity>
-5.02757263

$$$$
