
 OpenBabel09122222393D

 16 17  0  0  0  0  0  0  0  0999 V2000
    8.5930   -3.4760    2.3350 C   0  0  0  0  0  0  0  0  0  0  0  0
    7.4180   -4.1980    2.4990 O   0  0  0  0  0  0  0  0  0  0  0  0
    6.9420   -4.9160    1.4340 C   0  0  0  0  0  0  0  0  0  0  0  0
    5.7650   -5.6390    1.6280 C   0  0  0  0  0  3  0  0  0  0  0  0
    5.2260   -6.3900    0.5810 C   0  0  0  0  0  3  0  0  0  0  0  0
    5.8640   -6.4190   -0.6600 C   0  0  0  0  0  3  0  0  0  0  0  0
    7.0420   -5.6960   -0.8550 C   0  0  0  0  0  3  0  0  0  0  0  0
    7.5760   -4.9470    0.1980 C   0  0  0  0  0  0  0  0  0  0  0  0
    8.8170   -4.1780    0.0250 C   0  0  0  0  0  0  0  0  0  0  0  0
    9.4370   -4.1520   -1.0360 O   0  0  0  0  0  0  0  0  0  0  0  0
    9.3070   -3.4190    1.2020 C   0  0  0  0  0  0  0  0  0  0  0  0
    9.2930   -3.4180    4.5940 O   0  0  0  0  0  1  0  0  0  0  0  0
    9.0560   -2.7060    3.5740 C   0  0  0  0  0  0  0  0  0  0  0  0
    9.2310   -1.4640    3.3980 O   0  0  0  0  0  0  0  0  0  0  0  0
   10.4780   -2.7050    1.0440 O   0  0  0  0  0  0  0  0  0  0  0  0
   10.7390   -2.8590    0.1150 H   0  0  0  0  0  0  0  0  0  0  0  0
  1  2  1  0  0  0  0
  1 13  1  0  0  0  0
  3  4  1  0  0  0  0
  3  2  1  0  0  0  0
  5  4  2  0  0  0  0
  6  5  1  0  0  0  0
  7  6  2  0  0  0  0
  7  8  1  0  0  0  0
  8  3  2  0  0  0  0
  9  8  1  0  0  0  0
  9 11  1  0  0  0  0
 10  9  2  0  0  0  0
 11  1  2  0  0  0  0
 13 12  1  0  0  0  0
 14 13  2  0  0  0  0
 15 11  1  0  0  0  0
 16 15  1  0  0  0  0
M  END
>  <minimizedAffinity>
-6.07409382

$$$$
