
 OpenBabel09122222393D

 16 17  0  0  0  0  0  0  0  0999 V2000
    8.5930   -2.8560    1.9750 C   0  0  0  0  0  0  0  0  0  0  0  0
    8.7870   -1.4810    1.9950 O   0  0  0  0  0  0  0  0  0  0  0  0
    9.4280   -0.8990    0.9340 C   0  0  0  0  0  0  0  0  0  0  0  0
    9.6030    0.4840    0.9760 C   0  0  0  0  0  3  0  0  0  0  0  0
   10.2500    1.1380   -0.0750 C   0  0  0  0  0  3  0  0  0  0  0  0
   10.7220    0.4090   -1.1680 C   0  0  0  0  0  3  0  0  0  0  0  0
   10.5470   -0.9750   -1.2110 C   0  0  0  0  0  3  0  0  0  0  0  0
    9.8980   -1.6230   -0.1560 C   0  0  0  0  0  0  0  0  0  0  0  0
    9.6950   -3.0780   -0.1730 C   0  0  0  0  0  0  0  0  0  0  0  0
   10.0810   -3.7900   -1.0980 O   0  0  0  0  0  0  0  0  0  0  0  0
    8.9910   -3.6730    0.9890 C   0  0  0  0  0  0  0  0  0  0  0  0
    8.3720   -3.1160    4.3160 O   0  0  0  0  0  1  0  0  0  0  0  0
    7.8670   -3.4240    3.1970 C   0  0  0  0  0  0  0  0  0  0  0  0
    6.7990   -4.0560    2.9390 O   0  0  0  0  0  0  0  0  0  0  0  0
    8.7910   -5.0390    0.9690 O   0  0  0  0  0  0  0  0  0  0  0  0
    9.2000   -5.3370    0.1340 H   0  0  0  0  0  0  0  0  0  0  0  0
  1  2  1  0  0  0  0
  1 13  1  0  0  0  0
  3  4  1  0  0  0  0
  3  2  1  0  0  0  0
  5  4  2  0  0  0  0
  6  5  1  0  0  0  0
  7  6  2  0  0  0  0
  7  8  1  0  0  0  0
  8  3  2  0  0  0  0
  9  8  1  0  0  0  0
  9 11  1  0  0  0  0
 10  9  2  0  0  0  0
 11  1  2  0  0  0  0
 13 12  1  0  0  0  0
 14 13  2  0  0  0  0
 15 11  1  0  0  0  0
 16 15  1  0  0  0  0
M  END
>  <minimizedAffinity>
-6.00282145

$$$$
