
 OpenBabel09122222393D

 16 17  0  0  0  0  0  0  0  0999 V2000
    9.4940    0.0970    1.2130 C   0  0  0  0  0  0  0  0  0  0  0  0
    8.9080   -0.9380    1.9300 O   0  0  0  0  0  0  0  0  0  0  0  0
    8.8950   -2.1890    1.3730 C   0  0  0  0  0  0  0  0  0  0  0  0
    8.3070   -3.2120    2.1170 C   0  0  0  0  0  3  0  0  0  0  0  0
    8.2610   -4.5100    1.6040 C   0  0  0  0  0  3  0  0  0  0  0  0
    8.8020   -4.7860    0.3470 C   0  0  0  0  0  3  0  0  0  0  0  0
    9.3900   -3.7630   -0.3990 C   0  0  0  0  0  3  0  0  0  0  0  0
    9.4340   -2.4650    0.1220 C   0  0  0  0  0  0  0  0  0  0  0  0
   10.0490   -1.3680   -0.6370 C   0  0  0  0  0  0  0  0  0  0  0  0
   10.5460   -1.5290   -1.7490 O   0  0  0  0  0  0  0  0  0  0  0  0
   10.0520   -0.0280    0.0010 C   0  0  0  0  0  0  0  0  0  0  0  0
    9.2930    2.4530    1.1450 O   0  0  0  0  0  0  0  0  0  0  0  0
    9.4690    1.4600    1.9100 C   0  0  0  0  0  0  0  0  0  0  0  0
    9.5360    1.4160    3.1740 O   0  0  0  0  0  1  0  0  0  0  0  0
   10.6390    1.0020   -0.7060 O   0  0  0  0  0  0  0  0  0  0  0  0
   10.9360    0.5910   -1.5420 H   0  0  0  0  0  0  0  0  0  0  0  0
  1 13  1  0  0  0  0
  1  2  1  0  0  0  0
  3  2  1  0  0  0  0
  3  4  1  0  0  0  0
  5  4  2  0  0  0  0
  6  5  1  0  0  0  0
  7  8  1  0  0  0  0
  7  6  2  0  0  0  0
  8  3  2  0  0  0  0
  9 11  1  0  0  0  0
  9  8  1  0  0  0  0
 10  9  2  0  0  0  0
 11  1  2  0  0  0  0
 12 13  2  0  0  0  0
 13 14  1  0  0  0  0
 15 11  1  0  0  0  0
 16 15  1  0  0  0  0
M  END
>  <minimizedAffinity>
-5.3487978

$$$$
