
 OpenBabel09122222393D

 16 17  0  0  0  0  0  0  0  0999 V2000
    9.9960    2.4290    0.8730 C   0  0  0  0  0  0  0  0  0  0  0  0
   10.3930    1.8040   -0.3010 O   0  0  0  0  0  0  0  0  0  0  0  0
   10.3280    0.4370   -0.3640 C   0  0  0  0  0  0  0  0  0  0  0  0
   10.7260   -0.1650   -1.5570 C   0  0  0  0  0  3  0  0  0  0  0  0
   10.6850   -1.5560   -1.6850 C   0  0  0  0  0  3  0  0  0  0  0  0
   10.2480   -2.3440   -0.6190 C   0  0  0  0  0  3  0  0  0  0  0  0
    9.8500   -1.7420    0.5760 C   0  0  0  0  0  3  0  0  0  0  0  0
    9.8920   -0.3490    0.6960 C   0  0  0  0  0  0  0  0  0  0  0  0
    9.4770    0.3150    1.9400 C   0  0  0  0  0  0  0  0  0  0  0  0
    9.0800   -0.3080    2.9220 O   0  0  0  0  0  0  0  0  0  0  0  0
    9.5520    1.7960    1.9680 C   0  0  0  0  0  0  0  0  0  0  0  0
    9.4610    4.5290   -0.0770 O   0  0  0  0  0  0  0  0  0  0  0  0
   10.0950    3.9570    0.8570 C   0  0  0  0  0  0  0  0  0  0  0  0
   10.7260    4.4620    1.8330 O   0  0  0  0  0  1  0  0  0  0  0  0
    9.1530    2.4220    3.1330 O   0  0  0  0  0  0  0  0  0  0  0  0
    8.9000    1.6920    3.7320 H   0  0  0  0  0  0  0  0  0  0  0  0
  1 11  2  0  0  0  0
  2  1  1  0  0  0  0
  3  2  1  0  0  0  0
  3  8  1  0  0  0  0
  4  3  2  0  0  0  0
  5  4  1  0  0  0  0
  5  6  2  0  0  0  0
  6  7  1  0  0  0  0
  7  8  2  0  0  0  0
  8  9  1  0  0  0  0
  9 11  1  0  0  0  0
  9 10  2  0  0  0  0
 11 15  1  0  0  0  0
 12 13  2  0  0  0  0
 13  1  1  0  0  0  0
 13 14  1  0  0  0  0
 15 16  1  0  0  0  0
M  END
>  <minimizedAffinity>
-5.02590179

$$$$
