REMARK  Name = 
REMARK  4 active torsions:
REMARK  status: ('A' for Active; 'I' for Inactive)
REMARK    1  A    between atoms: C_2  and  C_4
REMARK    2  A    between atoms: C_6  and  C_7
REMARK    3  A    between atoms: C_13  and  O_14
REMARK    4  A    between atoms: C_15  and  O_16
REMARK                            x       y       z     vdW  Elec       q    Type
REMARK                         _______ _______ _______ _____ _____    ______ ____
ROOT
ATOM      1  C   UNK A   1       2.976  -1.080   0.999  0.00  0.00    +0.135 A 
ATOM      2  N   UNK A   1       3.993  -0.737   1.843  0.00  0.00    -0.220 NA
ATOM      3  C   UNK A   0       4.655  -1.731   2.473  0.00  0.00    +0.189 A 
ATOM      4  N   UNK A   1       4.396  -3.046   2.341  0.00  0.00    -0.188 NA
ATOM      5  C   UNK A   1       3.393  -3.335   1.506  0.00  0.00    +0.260 A 
ATOM      6  C   UNK A   1       2.646  -2.410   0.808  0.00  0.00    +0.206 A 
ENDROOT
BRANCH   3   7
ATOM      7  C   UNK A   0       5.759  -1.361   3.388  0.00  0.00    +0.145 A 
ATOM      8  N   UNK A   0       6.530  -2.204   4.065  0.00  0.00    -0.244 NA
ATOM      9  C   UNK A   0       7.457  -1.518   4.820  0.00  0.00    +0.119 A 
ATOM     10  C   UNK A   0       7.402  -0.148   4.728  0.00  0.00    +0.067 A 
ATOM     11  S   UNK A   0       6.149   0.309   3.659  0.00  0.00    -0.073 S 
ENDBRANCH   3   7
BRANCH   1  13
ATOM     12  O   UNK A   1       1.251  -0.459  -0.512  0.00  0.00    -0.543 OA
ATOM     13  C   UNK A   1       2.181  -0.012   0.249  0.00  0.00    +0.094 C 
ATOM     14  O   UNK A   1       2.476   1.211   0.417  0.00  0.00    -0.543 OA
ENDBRANCH   1  13
BRANCH   5  15
ATOM     15  O   UNK A   1       3.103  -4.669   1.350  0.00  0.00    -0.490 OA
ATOM     16  H   UNK A   1       2.360  -4.654   0.716  0.00  0.00    +0.294 HD
ENDBRANCH   5  15
BRANCH   6  17
ATOM     17  O   UNK A   1       1.645  -2.861  -0.014  0.00  0.00    -0.501 OA
ATOM     18  H   UNK A   1       1.245  -2.033  -0.411  0.00  0.00    +0.292 HD
ENDBRANCH   6  17
TORSDOF 4
