
 OpenBabel09132200253D

 18 19  0  0  0  0  0  0  0  0999 V2000
    9.4690   -3.6780    0.4200 C   0  0  0  0  0  0  0  0  0  0  0  0
    8.6120   -4.7270    0.2480 N   0  0  0  0  0  0  0  0  0  0  0  0
    7.7000   -4.9630    1.2150 C   0  0  0  0  0  0  0  0  0  0  0  0
    7.5610   -4.2480    2.3470 N   0  0  0  0  0  0  0  0  0  0  0  0
    8.4210   -3.2320    2.4740 C   0  0  0  0  0  0  0  0  0  0  0  0
    9.3930   -2.8930    1.5570 C   0  0  0  0  0  0  0  0  0  0  0  0
    6.7680   -6.1000    1.0300 C   0  0  0  0  0  0  0  0  0  0  0  0
    6.5110   -7.0530    1.9170 N   0  0  0  0  0  0  0  0  0  0  0  0
    5.5950   -7.9520    1.4150 C   0  0  0  0  0  3  0  0  0  0  0  0
    5.1460   -7.6950    0.1430 C   0  0  0  0  0  3  0  0  0  0  0  0
    5.8900   -6.2780   -0.4570 S   0  0  0  0  0  0  0  0  0  0  0  0
   10.3690   -2.2230   -1.2300 O   0  0  0  0  0  0  0  0  0  0  0  0
   10.5280   -3.3460   -0.6310 C   0  0  0  0  0  0  0  0  0  0  0  0
   11.4700   -4.1700   -0.8420 O   0  0  0  0  0  1  0  0  0  0  0  0
    8.3060   -2.4830    3.6200 O   0  0  0  0  0  0  0  0  0  0  0  0
    9.0100   -1.8140    3.5100 H   0  0  0  0  0  0  0  0  0  0  0  0
   10.2040   -1.8210    1.8270 O   0  0  0  0  0  0  0  0  0  0  0  0
   10.8210   -1.7600    1.0400 H   0  0  0  0  0  0  0  0  0  0  0  0
  1  6  2  0  0  0  0
  2  1  1  0  0  0  0
  2  3  2  0  0  0  0
  3  4  1  0  0  0  0
  4  5  2  0  0  0  0
  5 15  1  0  0  0  0
  6 17  1  0  0  0  0
  6  5  1  0  0  0  0
  7  3  1  0  0  0  0
  7  8  2  0  0  0  0
  9  8  1  0  0  0  0
 10  9  2  0  0  0  0
 11 10  1  0  0  0  0
 11  7  1  0  0  0  0
 12 13  2  0  0  0  0
 13  1  1  0  0  0  0
 14 13  1  0  0  0  0
 16 15  1  0  0  0  0
 18 17  1  0  0  0  0
M  END
>  <minimizedAffinity>
-6.43320847

$$$$

 OpenBabel09132200253D

 18 19  0  0  0  0  0  0  0  0999 V2000
    9.5540   -3.3730    0.2020 C   0  0  0  0  0  0  0  0  0  0  0  0
    9.5250   -2.8770    1.4740 N   0  0  0  0  0  0  0  0  0  0  0  0
    8.6480   -3.4210    2.3450 C   0  0  0  0  0  0  0  0  0  0  0  0
    7.7900   -4.4210    2.0660 N   0  0  0  0  0  0  0  0  0  0  0  0
    7.8530   -4.8740    0.8100 C   0  0  0  0  0  0  0  0  0  0  0  0
    8.7040   -4.4000   -0.1660 C   0  0  0  0  0  0  0  0  0  0  0  0
    8.6160   -2.8850    3.7260 C   0  0  0  0  0  0  0  0  0  0  0  0
    7.8720   -3.3440    4.7260 N   0  0  0  0  0  0  0  0  0  0  0  0
    8.0900   -2.6110    5.8720 C   0  0  0  0  0  3  0  0  0  0  0  0
    9.0000   -1.5870    5.7580 C   0  0  0  0  0  3  0  0  0  0  0  0
    9.6110   -1.5320    4.1630 S   0  0  0  0  0  0  0  0  0  0  0  0
   11.1990   -3.6870   -1.4830 O   0  0  0  0  0  0  0  0  0  0  0  0
   10.5190   -2.8100   -0.8400 C   0  0  0  0  0  0  0  0  0  0  0  0
   10.5900   -1.5540   -1.0040 O   0  0  0  0  0  1  0  0  0  0  0  0
    6.9890   -5.8940    0.4920 O   0  0  0  0  0  0  0  0  0  0  0  0
    7.1970   -6.0670   -0.4460 H   0  0  0  0  0  0  0  0  0  0  0  0
    8.6520   -4.9680   -1.4130 O   0  0  0  0  0  0  0  0  0  0  0  0
    9.3430   -4.4790   -1.9480 H   0  0  0  0  0  0  0  0  0  0  0  0
  1  2  1  0  0  0  0
  2  3  2  0  0  0  0
  3  7  1  0  0  0  0
  4  3  1  0  0  0  0
  5  4  2  0  0  0  0
  6  1  2  0  0  0  0
  6  5  1  0  0  0  0
  7 11  1  0  0  0  0
  7  8  2  0  0  0  0
  8  9  1  0  0  0  0
 10  9  2  0  0  0  0
 11 10  1  0  0  0  0
 12 13  2  0  0  0  0
 13  1  1  0  0  0  0
 14 13  1  0  0  0  0
 15  5  1  0  0  0  0
 16 15  1  0  0  0  0
 17  6  1  0  0  0  0
 18 17  1  0  0  0  0
M  END
>  <minimizedAffinity>
-6.41857004

$$$$

 OpenBabel09132200253D

 18 19  0  0  0  0  0  0  0  0999 V2000
    7.7060   -5.0780    0.9010 C   0  0  0  0  0  0  0  0  0  0  0  0
    7.7820   -4.5080    2.1390 N   0  0  0  0  0  0  0  0  0  0  0  0
    8.6060   -3.4500    2.3000 C   0  0  0  0  0  0  0  0  0  0  0  0
    9.3690   -2.9030    1.3340 N   0  0  0  0  0  0  0  0  0  0  0  0
    9.2630   -3.4940    0.1390 C   0  0  0  0  0  0  0  0  0  0  0  0
    8.4580   -4.5760   -0.1460 C   0  0  0  0  0  0  0  0  0  0  0  0
    8.6890   -2.8300    3.6420 C   0  0  0  0  0  0  0  0  0  0  0  0
    8.1090   -3.2790    4.7480 N   0  0  0  0  0  0  0  0  0  0  0  0
    8.3960   -2.4570    5.8170 C   0  0  0  0  0  3  0  0  0  0  0  0
    9.1950   -1.3750    5.5370 C   0  0  0  0  0  3  0  0  0  0  0  0
    9.6090   -1.3770    3.8790 S   0  0  0  0  0  0  0  0  0  0  0  0
    6.7940   -7.1700    1.5610 O   0  0  0  0  0  1  0  0  0  0  0  0
    6.7950   -6.2770    0.6410 C   0  0  0  0  0  0  0  0  0  0  0  0
    6.1170   -6.3180   -0.4310 O   0  0  0  0  0  0  0  0  0  0  0  0
   10.0300   -2.9590   -0.8680 O   0  0  0  0  0  0  0  0  0  0  0  0
    9.8060   -3.5260   -1.6320 H   0  0  0  0  0  0  0  0  0  0  0  0
    8.4570   -5.0740   -1.4240 O   0  0  0  0  0  0  0  0  0  0  0  0
    7.8130   -5.8410   -1.4010 H   0  0  0  0  0  0  0  0  0  0  0  0
  1  2  1  0  0  0  0
  2  3  2  0  0  0  0
  3  7  1  0  0  0  0
  4  3  1  0  0  0  0
  5  4  2  0  0  0  0
  6  5  1  0  0  0  0
  6  1  2  0  0  0  0
  7 11  1  0  0  0  0
  7  8  2  0  0  0  0
  8  9  1  0  0  0  0
 10  9  2  0  0  0  0
 11 10  1  0  0  0  0
 13  1  1  0  0  0  0
 13 12  1  0  0  0  0
 14 13  2  0  0  0  0
 15  5  1  0  0  0  0
 16 15  1  0  0  0  0
 17 18  1  0  0  0  0
 17  6  1  0  0  0  0
M  END
>  <minimizedAffinity>
-6.39545059

$$$$

 OpenBabel09132200253D

 18 19  0  0  0  0  0  0  0  0999 V2000
    8.6560   -3.5050    2.1300 C   0  0  0  0  0  0  0  0  0  0  0  0
    7.7210   -4.5000    2.1190 N   0  0  0  0  0  0  0  0  0  0  0  0
    7.6020   -5.2440    0.9980 C   0  0  0  0  0  0  0  0  0  0  0  0
    8.3320   -5.0860   -0.1230 N   0  0  0  0  0  0  0  0  0  0  0  0
    9.2330   -4.1010   -0.0680 C   0  0  0  0  0  0  0  0  0  0  0  0
    9.4460   -3.2770    1.0170 C   0  0  0  0  0  0  0  0  0  0  0  0
    6.5900   -6.3240    0.9840 C   0  0  0  0  0  0  0  0  0  0  0  0
    6.2980   -7.1350    1.9940 N   0  0  0  0  0  0  0  0  0  0  0  0
    5.3060   -8.0240    1.6360 C   0  0  0  0  0  3  0  0  0  0  0  0
    4.8340   -7.9000    0.3510 C   0  0  0  0  0  3  0  0  0  0  0  0
    5.6530   -6.6290   -0.4450 S   0  0  0  0  0  0  0  0  0  0  0  0
    8.7080   -3.2180    4.4870 O   0  0  0  0  0  1  0  0  0  0  0  0
    8.8510   -2.6210    3.3610 C   0  0  0  0  0  0  0  0  0  0  0  0
    9.1340   -1.3940    3.2040 O   0  0  0  0  0  0  0  0  0  0  0  0
    9.9930   -3.9140   -1.1970 O   0  0  0  0  0  0  0  0  0  0  0  0
   10.5690   -3.1660   -0.9460 H   0  0  0  0  0  0  0  0  0  0  0  0
   10.4100   -2.3060    0.9240 O   0  0  0  0  0  0  0  0  0  0  0  0
   10.3920   -1.8390    1.8100 H   0  0  0  0  0  0  0  0  0  0  0  0
  1 13  1  0  0  0  0
  2  1  1  0  0  0  0
  3  2  2  0  0  0  0
  4  5  2  0  0  0  0
  4  3  1  0  0  0  0
  5  6  1  0  0  0  0
  6  1  2  0  0  0  0
  7  3  1  0  0  0  0
  7  8  2  0  0  0  0
  9  8  1  0  0  0  0
 10  9  2  0  0  0  0
 11 10  1  0  0  0  0
 11  7  1  0  0  0  0
 13 12  1  0  0  0  0
 14 13  2  0  0  0  0
 15 16  1  0  0  0  0
 15  5  1  0  0  0  0
 17  6  1  0  0  0  0
 17 18  1  0  0  0  0
M  END
>  <minimizedAffinity>
-6.38465595

$$$$

 OpenBabel09132200253D

 18 19  0  0  0  0  0  0  0  0999 V2000
    5.2630   -6.4560    2.1470 C   0  0  0  0  0  0  0  0  0  0  0  0
    6.3380   -5.6260    2.0070 N   0  0  0  0  0  0  0  0  0  0  0  0
    6.9630   -5.5950    0.8110 C   0  0  0  0  0  0  0  0  0  0  0  0
    6.6160   -6.3210   -0.2690 N   0  0  0  0  0  0  0  0  0  0  0  0
    5.5590   -7.1190   -0.0870 C   0  0  0  0  0  0  0  0  0  0  0  0
    4.8410   -7.2360    1.0850 C   0  0  0  0  0  0  0  0  0  0  0  0
    8.1290   -4.6950    0.6580 C   0  0  0  0  0  0  0  0  0  0  0  0
    8.9620   -4.6620   -0.3760 N   0  0  0  0  0  0  0  0  0  0  0  0
    9.9340   -3.7030   -0.1890 C   0  0  0  0  0  3  0  0  0  0  0  0
    9.8540   -2.9970    0.9870 C   0  0  0  0  0  3  0  0  0  0  0  0
    8.5160   -3.5440    1.8990 S   0  0  0  0  0  0  0  0  0  0  0  0
    4.6200   -7.6600    4.0910 O   0  0  0  0  0  1  0  0  0  0  0  0
    4.5030   -6.5450    3.4690 C   0  0  0  0  0  0  0  0  0  0  0  0
    3.8260   -5.5460    3.8620 O   0  0  0  0  0  0  0  0  0  0  0  0
    5.1790   -7.8740   -1.1700 O   0  0  0  0  0  0  0  0  0  0  0  0
    4.4100   -8.3690   -0.8270 H   0  0  0  0  0  0  0  0  0  0  0  0
    3.7770   -8.1000    1.1190 O   0  0  0  0  0  0  0  0  0  0  0  0
    3.4120   -8.0230    2.0480 H   0  0  0  0  0  0  0  0  0  0  0  0
  1 13  1  0  0  0  0
  2  1  1  0  0  0  0
  3  2  2  0  0  0  0
  4  5  2  0  0  0  0
  4  3  1  0  0  0  0
  5  6  1  0  0  0  0
  6 17  1  0  0  0  0
  6  1  2  0  0  0  0
  7  3  1  0  0  0  0
  7 11  1  0  0  0  0
  8  9  1  0  0  0  0
  8  7  2  0  0  0  0
  9 10  2  0  0  0  0
 10 11  1  0  0  0  0
 13 14  2  0  0  0  0
 13 12  1  0  0  0  0
 15 16  1  0  0  0  0
 15  5  1  0  0  0  0
 17 18  1  0  0  0  0
M  END
>  <minimizedAffinity>
-6.18979454

$$$$

 OpenBabel09132200253D

 18 19  0  0  0  0  0  0  0  0999 V2000
    8.9290   -2.9810    1.3640 C   0  0  0  0  0  0  0  0  0  0  0  0
    9.0580   -1.6220    1.3990 N   0  0  0  0  0  0  0  0  0  0  0  0
    9.8100   -1.0330    0.4450 C   0  0  0  0  0  0  0  0  0  0  0  0
   10.4520   -1.6760   -0.5490 N   0  0  0  0  0  0  0  0  0  0  0  0
   10.2980   -3.0040   -0.5440 C   0  0  0  0  0  0  0  0  0  0  0  0
    9.5570   -3.7160    0.3740 C   0  0  0  0  0  0  0  0  0  0  0  0
    9.9510    0.4410    0.4810 C   0  0  0  0  0  0  0  0  0  0  0  0
    9.4960    1.2470    1.4330 N   0  0  0  0  0  0  0  0  0  0  0  0
    9.8030    2.5600    1.1470 C   0  0  0  0  0  3  0  0  0  0  0  0
   10.4910    2.7690   -0.0230 C   0  0  0  0  0  3  0  0  0  0  0  0
   10.7720    1.2740   -0.8020 S   0  0  0  0  0  0  0  0  0  0  0  0
    8.2110   -3.2830    3.6080 O   0  0  0  0  0  1  0  0  0  0  0  0
    8.0940   -3.7200    2.4080 C   0  0  0  0  0  0  0  0  0  0  0  0
    7.3580   -4.6870    2.0410 O   0  0  0  0  0  0  0  0  0  0  0  0
   10.9420   -3.6890   -1.5460 O   0  0  0  0  0  0  0  0  0  0  0  0
   10.7020   -4.6180   -1.3590 H   0  0  0  0  0  0  0  0  0  0  0  0
    9.4930   -5.0800    0.2490 O   0  0  0  0  0  0  0  0  0  0  0  0
    8.9130   -5.3820    1.0080 H   0  0  0  0  0  0  0  0  0  0  0  0
  1  2  1  0  0  0  0
  1 13  1  0  0  0  0
  3  7  1  0  0  0  0
  3  2  2  0  0  0  0
  4  5  2  0  0  0  0
  4  3  1  0  0  0  0
  5  6  1  0  0  0  0
  6  1  2  0  0  0  0
  7  8  2  0  0  0  0
  9  8  1  0  0  0  0
 10  9  2  0  0  0  0
 11 10  1  0  0  0  0
 11  7  1  0  0  0  0
 13 12  1  0  0  0  0
 14 13  2  0  0  0  0
 15 16  1  0  0  0  0
 15  5  1  0  0  0  0
 17  6  1  0  0  0  0
 17 18  1  0  0  0  0
M  END
>  <minimizedAffinity>
-6.1201129

$$$$

 OpenBabel09132200253D

 18 19  0  0  0  0  0  0  0  0999 V2000
    6.4640   -5.7390    1.4800 C   0  0  0  0  0  0  0  0  0  0  0  0
    7.0430   -4.8510    2.3410 N   0  0  0  0  0  0  0  0  0  0  0  0
    8.0260   -4.0570    1.8650 C   0  0  0  0  0  0  0  0  0  0  0  0
    8.4920   -4.0660    0.6010 N   0  0  0  0  0  0  0  0  0  0  0  0
    7.8970   -4.9510   -0.2050 C   0  0  0  0  0  0  0  0  0  0  0  0
    6.8860   -5.8120    0.1640 C   0  0  0  0  0  0  0  0  0  0  0  0
    8.6530   -3.0920    2.7960 C   0  0  0  0  0  0  0  0  0  0  0  0
    8.9100   -3.3000    4.0830 N   0  0  0  0  0  0  0  0  0  0  0  0
    9.4990   -2.1900    4.6480 C   0  0  0  0  0  3  0  0  0  0  0  0
    9.6970   -1.1260    3.8010 C   0  0  0  0  0  3  0  0  0  0  0  0
    9.1290   -1.5190    2.2380 S   0  0  0  0  0  0  0  0  0  0  0  0
    5.5160   -7.1940    3.1020 O   0  0  0  0  0  1  0  0  0  0  0  0
    5.3450   -6.6700    1.9440 C   0  0  0  0  0  0  0  0  0  0  0  0
    4.3460   -6.8630    1.1850 O   0  0  0  0  0  0  0  0  0  0  0  0
    8.3510   -4.9860   -1.5020 O   0  0  0  0  0  0  0  0  0  0  0  0
    7.7960   -5.6820   -1.9040 H   0  0  0  0  0  0  0  0  0  0  0  0
    6.3740   -6.6660   -0.7790 O   0  0  0  0  0  0  0  0  0  0  0  0
    5.6660   -7.1860   -0.2980 H   0  0  0  0  0  0  0  0  0  0  0  0
  1 13  1  0  0  0  0
  1  2  1  0  0  0  0
  3  2  2  0  0  0  0
  3  7  1  0  0  0  0
  4  3  1  0  0  0  0
  5  6  1  0  0  0  0
  5  4  2  0  0  0  0
  6  1  2  0  0  0  0
  7  8  2  0  0  0  0
  8  9  1  0  0  0  0
 10  9  2  0  0  0  0
 11  7  1  0  0  0  0
 11 10  1  0  0  0  0
 13 12  1  0  0  0  0
 14 13  2  0  0  0  0
 15  5  1  0  0  0  0
 16 15  1  0  0  0  0
 17 18  1  0  0  0  0
 17  6  1  0  0  0  0
M  END
>  <minimizedAffinity>
-6.05823421

$$$$

 OpenBabel09132200253D

 18 19  0  0  0  0  0  0  0  0999 V2000
    4.9890   -7.0060    2.5120 C   0  0  0  0  0  0  0  0  0  0  0  0
    5.9470   -6.0340    2.4760 N   0  0  0  0  0  0  0  0  0  0  0  0
    6.6380   -5.8690    1.3280 C   0  0  0  0  0  0  0  0  0  0  0  0
    6.4630   -6.5880    0.2030 N   0  0  0  0  0  0  0  0  0  0  0  0
    5.5160   -7.5270    0.2840 C   0  0  0  0  0  0  0  0  0  0  0  0
    4.7470   -7.7890    1.3980 C   0  0  0  0  0  0  0  0  0  0  0  0
    7.6770   -4.8150    1.2870 C   0  0  0  0  0  0  0  0  0  0  0  0
    7.9800   -3.9760    2.2710 N   0  0  0  0  0  0  0  0  0  0  0  0
    8.9970   -3.1260    1.8920 C   0  0  0  0  0  3  0  0  0  0  0  0
    9.4780   -3.3060    0.6170 C   0  0  0  0  0  3  0  0  0  0  0  0
    8.6350   -4.5850   -0.1420 S   0  0  0  0  0  0  0  0  0  0  0  0
    3.3910   -6.2890    4.1180 O   0  0  0  0  0  0  0  0  0  0  0  0
    4.1640   -7.2530    3.7750 C   0  0  0  0  0  0  0  0  0  0  0  0
    4.2870   -8.3570    4.3890 O   0  0  0  0  0  1  0  0  0  0  0  0
    5.3130   -8.2790   -0.8480 O   0  0  0  0  0  0  0  0  0  0  0  0
    4.5990   -8.8870   -0.5770 H   0  0  0  0  0  0  0  0  0  0  0  0
    3.8110   -8.7890    1.3280 O   0  0  0  0  0  0  0  0  0  0  0  0
    3.3800   -8.8020    2.2320 H   0  0  0  0  0  0  0  0  0  0  0  0
  1 13  1  0  0  0  0
  2  1  1  0  0  0  0
  3  2  2  0  0  0  0
  4  5  2  0  0  0  0
  4  3  1  0  0  0  0
  5  6  1  0  0  0  0
  6  1  2  0  0  0  0
  7  3  1  0  0  0  0
  7  8  2  0  0  0  0
  9  8  1  0  0  0  0
 10  9  2  0  0  0  0
 11 10  1  0  0  0  0
 11  7  1  0  0  0  0
 13 12  2  0  0  0  0
 13 14  1  0  0  0  0
 15 16  1  0  0  0  0
 15  5  1  0  0  0  0
 17  6  1  0  0  0  0
 17 18  1  0  0  0  0
M  END
>  <minimizedAffinity>
-6.0319643

$$$$

 OpenBabel09132200253D

 18 19  0  0  0  0  0  0  0  0999 V2000
    5.6780   -6.3750    0.5020 C   0  0  0  0  0  0  0  0  0  0  0  0
    6.7940   -5.7080    0.0850 N   0  0  0  0  0  0  0  0  0  0  0  0
    7.4320   -4.9200    0.9770 C   0  0  0  0  0  0  0  0  0  0  0  0
    7.0580   -4.7320    2.2570 N   0  0  0  0  0  0  0  0  0  0  0  0
    5.9610   -5.4030    2.6210 C   0  0  0  0  0  0  0  0  0  0  0  0
    5.2270   -6.2350    1.8030 C   0  0  0  0  0  0  0  0  0  0  0  0
    8.6430   -4.1970    0.5260 C   0  0  0  0  0  0  0  0  0  0  0  0
    9.3160   -4.4220   -0.5960 N   0  0  0  0  0  0  0  0  0  0  0  0
   10.3920   -3.5660   -0.6990 C   0  0  0  0  0  3  0  0  0  0  0  0
   10.5500   -2.6820    0.3410 C   0  0  0  0  0  3  0  0  0  0  0  0
    9.3120   -2.9210    1.4950 S   0  0  0  0  0  0  0  0  0  0  0  0
    3.6270   -7.2000   -0.3660 O   0  0  0  0  0  1  0  0  0  0  0  0
    4.9030   -7.2860   -0.4490 C   0  0  0  0  0  0  0  0  0  0  0  0
    5.5450   -8.0460   -1.2380 O   0  0  0  0  0  0  0  0  0  0  0  0
    5.5530   -5.2310    3.9220 O   0  0  0  0  0  0  0  0  0  0  0  0
    4.7570   -5.7950    3.9730 H   0  0  0  0  0  0  0  0  0  0  0  0
    4.1210   -6.8570    2.3220 O   0  0  0  0  0  0  0  0  0  0  0  0
    3.7520   -7.4000    1.5650 H   0  0  0  0  0  0  0  0  0  0  0  0
  1  6  2  0  0  0  0
  2  1  1  0  0  0  0
  2  3  2  0  0  0  0
  3  4  1  0  0  0  0
  4  5  2  0  0  0  0
  5 15  1  0  0  0  0
  6 17  1  0  0  0  0
  6  5  1  0  0  0  0
  7  3  1  0  0  0  0
  7 11  1  0  0  0  0
  8  7  2  0  0  0  0
  9  8  1  0  0  0  0
  9 10  2  0  0  0  0
 10 11  1  0  0  0  0
 13 12  1  0  0  0  0
 13  1  1  0  0  0  0
 14 13  2  0  0  0  0
 15 16  1  0  0  0  0
 18 17  1  0  0  0  0
M  END
>  <minimizedAffinity>
-5.99933863

$$$$

 OpenBabel09132200253D

 18 19  0  0  0  0  0  0  0  0999 V2000
    6.2820   -6.0510    0.6110 C   0  0  0  0  0  0  0  0  0  0  0  0
    6.0340   -5.5740    1.8670 N   0  0  0  0  0  0  0  0  0  0  0  0
    4.9800   -6.0830    2.5400 C   0  0  0  0  0  0  0  0  0  0  0  0
    4.1420   -7.0290    2.0760 N   0  0  0  0  0  0  0  0  0  0  0  0
    4.4210   -7.4650    0.8430 C   0  0  0  0  0  0  0  0  0  0  0  0
    5.4670   -7.0230    0.0600 C   0  0  0  0  0  0  0  0  0  0  0  0
    4.7110   -5.5690    3.9020 C   0  0  0  0  0  0  0  0  0  0  0  0
    5.4490   -4.6870    4.5660 N   0  0  0  0  0  0  0  0  0  0  0  0
    4.9070   -4.4330    5.8070 C   0  0  0  0  0  3  0  0  0  0  0  0
    3.7530   -5.1180    6.1040 C   0  0  0  0  0  3  0  0  0  0  0  0
    3.3210   -6.1180    4.7860 S   0  0  0  0  0  0  0  0  0  0  0  0
    8.5980   -5.5820    0.3680 O   0  0  0  0  0  1  0  0  0  0  0  0
    7.4570   -5.5250   -0.2130 C   0  0  0  0  0  0  0  0  0  0  0  0
    7.2420   -5.0800   -1.3820 O   0  0  0  0  0  0  0  0  0  0  0  0
    3.5830   -8.4310    0.3400 O   0  0  0  0  0  0  0  0  0  0  0  0
    3.9590   -8.6000   -0.5460 H   0  0  0  0  0  0  0  0  0  0  0  0
    5.6260   -7.5670   -1.1890 O   0  0  0  0  0  0  0  0  0  0  0  0
    6.4310   -7.1080   -1.5690 H   0  0  0  0  0  0  0  0  0  0  0  0
  1  2  1  0  0  0  0
  2  3  2  0  0  0  0
  3  7  1  0  0  0  0
  4  3  1  0  0  0  0
  5  4  2  0  0  0  0
  6  1  2  0  0  0  0
  6  5  1  0  0  0  0
  7  8  2  0  0  0  0
  7 11  1  0  0  0  0
  8  9  1  0  0  0  0
  9 10  2  0  0  0  0
 11 10  1  0  0  0  0
 13 12  1  0  0  0  0
 13  1  1  0  0  0  0
 14 13  2  0  0  0  0
 15  5  1  0  0  0  0
 16 15  1  0  0  0  0
 17  6  1  0  0  0  0
 18 17  1  0  0  0  0
M  END
>  <minimizedAffinity>
-5.9763279

$$$$
