
 OpenBabel09132204463D

 18 19  0  0  0  0  0  0  0  0999 V2000
    6.2820   -6.0510    0.6110 C   0  0  0  0  0  0  0  0  0  0  0  0
    6.0340   -5.5740    1.8670 N   0  0  0  0  0  0  0  0  0  0  0  0
    4.9800   -6.0830    2.5400 C   0  0  0  0  0  0  0  0  0  0  0  0
    4.1420   -7.0290    2.0760 N   0  0  0  0  0  0  0  0  0  0  0  0
    4.4210   -7.4650    0.8430 C   0  0  0  0  0  0  0  0  0  0  0  0
    5.4670   -7.0230    0.0600 C   0  0  0  0  0  0  0  0  0  0  0  0
    4.7110   -5.5690    3.9020 C   0  0  0  0  0  0  0  0  0  0  0  0
    5.4490   -4.6870    4.5660 N   0  0  0  0  0  0  0  0  0  0  0  0
    4.9070   -4.4330    5.8070 C   0  0  0  0  0  3  0  0  0  0  0  0
    3.7530   -5.1180    6.1040 C   0  0  0  0  0  3  0  0  0  0  0  0
    3.3210   -6.1180    4.7860 S   0  0  0  0  0  0  0  0  0  0  0  0
    8.5980   -5.5820    0.3680 O   0  0  0  0  0  1  0  0  0  0  0  0
    7.4570   -5.5250   -0.2130 C   0  0  0  0  0  0  0  0  0  0  0  0
    7.2420   -5.0800   -1.3820 O   0  0  0  0  0  0  0  0  0  0  0  0
    3.5830   -8.4310    0.3400 O   0  0  0  0  0  0  0  0  0  0  0  0
    3.9590   -8.6000   -0.5460 H   0  0  0  0  0  0  0  0  0  0  0  0
    5.6260   -7.5670   -1.1890 O   0  0  0  0  0  0  0  0  0  0  0  0
    6.4310   -7.1080   -1.5690 H   0  0  0  0  0  0  0  0  0  0  0  0
  1  2  1  0  0  0  0
  2  3  2  0  0  0  0
  3  7  1  0  0  0  0
  4  3  1  0  0  0  0
  5  4  2  0  0  0  0
  6  1  2  0  0  0  0
  6  5  1  0  0  0  0
  7  8  2  0  0  0  0
  7 11  1  0  0  0  0
  8  9  1  0  0  0  0
  9 10  2  0  0  0  0
 11 10  1  0  0  0  0
 13 12  1  0  0  0  0
 13  1  1  0  0  0  0
 14 13  2  0  0  0  0
 15  5  1  0  0  0  0
 16 15  1  0  0  0  0
 17  6  1  0  0  0  0
 18 17  1  0  0  0  0
M  END
>  <minimizedAffinity>
-5.9763279

$$$$
