
 OpenBabel09132204463D

 18 19  0  0  0  0  0  0  0  0999 V2000
    7.7060   -5.0780    0.9010 C   0  0  0  0  0  0  0  0  0  0  0  0
    7.7820   -4.5080    2.1390 N   0  0  0  0  0  0  0  0  0  0  0  0
    8.6060   -3.4500    2.3000 C   0  0  0  0  0  0  0  0  0  0  0  0
    9.3690   -2.9030    1.3340 N   0  0  0  0  0  0  0  0  0  0  0  0
    9.2630   -3.4940    0.1390 C   0  0  0  0  0  0  0  0  0  0  0  0
    8.4580   -4.5760   -0.1460 C   0  0  0  0  0  0  0  0  0  0  0  0
    8.6890   -2.8300    3.6420 C   0  0  0  0  0  0  0  0  0  0  0  0
    8.1090   -3.2790    4.7480 N   0  0  0  0  0  0  0  0  0  0  0  0
    8.3960   -2.4570    5.8170 C   0  0  0  0  0  3  0  0  0  0  0  0
    9.1950   -1.3750    5.5370 C   0  0  0  0  0  3  0  0  0  0  0  0
    9.6090   -1.3770    3.8790 S   0  0  0  0  0  0  0  0  0  0  0  0
    6.7940   -7.1700    1.5610 O   0  0  0  0  0  1  0  0  0  0  0  0
    6.7950   -6.2770    0.6410 C   0  0  0  0  0  0  0  0  0  0  0  0
    6.1170   -6.3180   -0.4310 O   0  0  0  0  0  0  0  0  0  0  0  0
   10.0300   -2.9590   -0.8680 O   0  0  0  0  0  0  0  0  0  0  0  0
    9.8060   -3.5260   -1.6320 H   0  0  0  0  0  0  0  0  0  0  0  0
    8.4570   -5.0740   -1.4240 O   0  0  0  0  0  0  0  0  0  0  0  0
    7.8130   -5.8410   -1.4010 H   0  0  0  0  0  0  0  0  0  0  0  0
  1  2  1  0  0  0  0
  2  3  2  0  0  0  0
  3  7  1  0  0  0  0
  4  3  1  0  0  0  0
  5  4  2  0  0  0  0
  6  5  1  0  0  0  0
  6  1  2  0  0  0  0
  7 11  1  0  0  0  0
  7  8  2  0  0  0  0
  8  9  1  0  0  0  0
 10  9  2  0  0  0  0
 11 10  1  0  0  0  0
 13  1  1  0  0  0  0
 13 12  1  0  0  0  0
 14 13  2  0  0  0  0
 15  5  1  0  0  0  0
 16 15  1  0  0  0  0
 17 18  1  0  0  0  0
 17  6  1  0  0  0  0
M  END
>  <minimizedAffinity>
-6.39545059

$$$$
