
 OpenBabel09132204463D

 18 19  0  0  0  0  0  0  0  0999 V2000
    9.4690   -3.6780    0.4200 C   0  0  0  0  0  0  0  0  0  0  0  0
    8.6120   -4.7270    0.2480 N   0  0  0  0  0  0  0  0  0  0  0  0
    7.7000   -4.9630    1.2150 C   0  0  0  0  0  0  0  0  0  0  0  0
    7.5610   -4.2480    2.3470 N   0  0  0  0  0  0  0  0  0  0  0  0
    8.4210   -3.2320    2.4740 C   0  0  0  0  0  0  0  0  0  0  0  0
    9.3930   -2.8930    1.5570 C   0  0  0  0  0  0  0  0  0  0  0  0
    6.7680   -6.1000    1.0300 C   0  0  0  0  0  0  0  0  0  0  0  0
    6.5110   -7.0530    1.9170 N   0  0  0  0  0  0  0  0  0  0  0  0
    5.5950   -7.9520    1.4150 C   0  0  0  0  0  3  0  0  0  0  0  0
    5.1460   -7.6950    0.1430 C   0  0  0  0  0  3  0  0  0  0  0  0
    5.8900   -6.2780   -0.4570 S   0  0  0  0  0  0  0  0  0  0  0  0
   10.3690   -2.2230   -1.2300 O   0  0  0  0  0  0  0  0  0  0  0  0
   10.5280   -3.3460   -0.6310 C   0  0  0  0  0  0  0  0  0  0  0  0
   11.4700   -4.1700   -0.8420 O   0  0  0  0  0  1  0  0  0  0  0  0
    8.3060   -2.4830    3.6200 O   0  0  0  0  0  0  0  0  0  0  0  0
    9.0100   -1.8140    3.5100 H   0  0  0  0  0  0  0  0  0  0  0  0
   10.2040   -1.8210    1.8270 O   0  0  0  0  0  0  0  0  0  0  0  0
   10.8210   -1.7600    1.0400 H   0  0  0  0  0  0  0  0  0  0  0  0
  1  6  2  0  0  0  0
  2  1  1  0  0  0  0
  2  3  2  0  0  0  0
  3  4  1  0  0  0  0
  4  5  2  0  0  0  0
  5 15  1  0  0  0  0
  6 17  1  0  0  0  0
  6  5  1  0  0  0  0
  7  3  1  0  0  0  0
  7  8  2  0  0  0  0
  9  8  1  0  0  0  0
 10  9  2  0  0  0  0
 11 10  1  0  0  0  0
 11  7  1  0  0  0  0
 12 13  2  0  0  0  0
 13  1  1  0  0  0  0
 14 13  1  0  0  0  0
 16 15  1  0  0  0  0
 18 17  1  0  0  0  0
M  END
>  <minimizedAffinity>
-6.43320847

$$$$
