
 OpenBabel09122222393D

 39 44  0  0  0  0  0  0  0  0999 V2000
    6.7570   -6.5880    1.0940 C   0  0  0  0  0  0  0  0  0  0  0  0
    7.1140   -7.6210    1.9660 C   0  0  0  0  0  3  0  0  0  0  0  0
    6.2270   -8.6750    2.2090 C   0  0  0  0  0  3  0  0  0  0  0  0
    4.9620   -8.6910    1.6190 C   0  0  0  0  0  0  0  0  0  0  0  0
    4.6170   -7.6830    0.7210 C   0  0  0  0  0  3  0  0  0  0  0  0
    5.5030   -6.6280    0.4760 C   0  0  0  0  0  3  0  0  0  0  0  0
   10.4450   -2.2130   -0.6730 C   0  0  0  0  0  0  0  0  0  0  0  0
   10.0920   -1.6190    0.5490 C   0  0  0  0  0  3  0  0  0  0  0  0
    9.2200   -2.2350    1.4560 C   0  0  0  0  0  3  0  0  0  0  0  0
    8.6960   -3.4860    1.1030 C   0  0  0  0  0  0  0  0  0  0  0  0
    9.0190   -4.1020   -0.1030 C   0  0  0  0  0  0  0  0  0  0  0  0
    9.8980   -3.4700   -0.9970 C   0  0  0  0  0  3  0  0  0  0  0  0
    8.3790   -5.3080   -0.2210 N   0  0  0  0  0  0  0  0  0  0  0  0
    7.6370   -5.4420    0.8610 C   0  0  0  0  0  0  0  0  0  0  0  0
    7.8490   -4.3800    1.7280 N   0  0  0  0  0  0  0  0  0  0  0  0
    7.3190   -4.2690    3.0850 C   0  0  0  0  0  3  0  0  0  0  0  0
    7.9820   -3.1450    3.9000 C   0  0  0  0  0  2  0  0  0  0  0  0
    7.4330   -3.0930    5.3240 C   0  0  0  0  0  2  0  0  0  0  0  0
    5.9110   -2.9840    5.3390 C   0  0  0  0  0  2  0  0  0  0  0  0
    5.2590   -4.1140    4.5470 C   0  0  0  0  0  2  0  0  0  0  0  0
    5.7850   -4.1780    3.1140 C   0  0  0  0  0  2  0  0  0  0  0  0
   10.8740   -0.8330   -2.5650 O   0  0  0  0  0  0  0  0  0  0  0  0
   11.3950   -1.5140   -1.6250 C   0  0  0  0  0  0  0  0  0  0  0  0
   12.6410   -1.6550   -1.4150 O   0  0  0  0  0  1  0  0  0  0  0  0
    4.1700   -9.7500    1.9690 O   0  0  0  0  0  0  0  0  0  0  0  0
    4.6570  -10.6380    2.9820 C   0  0  0  0  0  2  0  0  0  0  0  0
    4.5700  -12.1150    2.5600 C   0  0  0  0  0  2  0  0  0  0  0  0
    3.7000  -12.3980    1.3490 C   0  0  0  0  0  0  0  0  0  0  0  0
    4.3180  -12.5910    0.0970 C   0  0  0  0  0  3  0  0  0  0  0  0
    3.5650  -12.7980   -1.0570 C   0  0  0  0  0  3  0  0  0  0  0  0
    2.1790  -12.8410   -0.9820 C   0  0  0  0  0  3  0  0  0  0  0  0
    1.5500  -12.7060    0.2550 C   0  0  0  0  0  3  0  0  0  0  0  0
    2.2910  -12.4970    1.4350 C   0  0  0  0  0  0  0  0  0  0  0  0
    1.5590  -12.4160    2.7060 C   0  0  0  0  0  0  0  0  0  0  0  0
    1.6330  -13.4490    3.6490 C   0  0  0  0  0  3  0  0  0  0  0  0
    0.9380  -13.3640    4.8590 C   0  0  0  0  0  3  0  0  0  0  0  0
    0.1710  -12.2360    5.1430 C   0  0  0  0  0  3  0  0  0  0  0  0
    0.0970  -11.1940    4.2220 C   0  0  0  0  0  3  0  0  0  0  0  0
    0.7860  -11.2840    3.0100 C   0  0  0  0  0  3  0  0  0  0  0  0
  1  2  1  0  0  0  0
  2  3  2  0  0  0  0
  4 25  1  0  0  0  0
  4  3  1  0  0  0  0
  5  4  2  0  0  0  0
  6  5  1  0  0  0  0
  6  1  2  0  0  0  0
  7  8  1  0  0  0  0
  8  9  2  0  0  0  0
 10  9  1  0  0  0  0
 10 15  1  0  0  0  0
 11 10  2  0  0  0  0
 12  7  2  0  0  0  0
 12 11  1  0  0  0  0
 13 11  1  0  0  0  0
 13 14  2  0  0  0  0
 14  1  1  0  0  0  0
 14 15  1  0  0  0  0
 15 16  1  0  0  0  0
 16 21  1  0  0  0  0
 16 17  1  0  0  0  0
 17 18  1  0  0  0  0
 18 19  1  0  0  0  0
 20 19  1  0  0  0  0
 21 20  1  0  0  0  0
 22 23  2  0  0  0  0
 23 24  1  0  0  0  0
 23  7  1  0  0  0  0
 25 26  1  0  0  0  0
 27 26  1  0  0  0  0
 28 33  1  0  0  0  0
 28 27  1  0  0  0  0
 29 28  2  0  0  0  0
 30 31  2  0  0  0  0
 30 29  1  0  0  0  0
 31 32  1  0  0  0  0
 32 33  2  0  0  0  0
 33 34  1  0  0  0  0
 34 39  2  0  0  0  0
 34 35  1  0  0  0  0
 35 36  2  0  0  0  0
 36 37  1  0  0  0  0
 38 37  2  0  0  0  0
 39 38  1  0  0  0  0
M  END
>  <minimizedAffinity>
-8.70326424

$$$$
