
 OpenBabel09122222393D

 39 44  0  0  0  0  0  0  0  0999 V2000
    5.6090   -7.1540    0.8490 C   0  0  0  0  0  0  0  0  0  0  0  0
    5.3380   -6.5000   -0.3570 C   0  0  0  0  0  3  0  0  0  0  0  0
    6.3200   -5.7130   -0.9670 C   0  0  0  0  0  3  0  0  0  0  0  0
    7.5670   -5.5350   -0.3640 C   0  0  0  0  0  0  0  0  0  0  0  0
    7.8530   -6.2140    0.8190 C   0  0  0  0  0  3  0  0  0  0  0  0
    6.8720   -7.0030    1.4310 C   0  0  0  0  0  3  0  0  0  0  0  0
    1.6770  -11.0270    3.1730 C   0  0  0  0  0  0  0  0  0  0  0  0
    1.4750  -10.0240    4.1330 C   0  0  0  0  0  3  0  0  0  0  0  0
    2.1490   -8.7960    4.0850 C   0  0  0  0  0  3  0  0  0  0  0  0
    3.0510   -8.5930    3.0330 C   0  0  0  0  0  0  0  0  0  0  0  0
    3.2820   -9.5690    2.0660 C   0  0  0  0  0  0  0  0  0  0  0  0
    2.5940  -10.7900    2.1290 C   0  0  0  0  0  3  0  0  0  0  0  0
    4.2080   -9.1390    1.1510 N   0  0  0  0  0  0  0  0  0  0  0  0
    4.5870   -7.9390    1.5430 C   0  0  0  0  0  0  0  0  0  0  0  0
    3.8590   -7.5390    2.6540 N   0  0  0  0  0  0  0  0  0  0  0  0
    3.8980   -6.2130    3.2660 C   0  0  0  0  0  3  0  0  0  0  0  0
    4.4900   -6.2240    4.6870 C   0  0  0  0  0  2  0  0  0  0  0  0
    4.4690   -4.8280    5.3080 C   0  0  0  0  0  2  0  0  0  0  0  0
    5.1580   -3.8020    4.4130 C   0  0  0  0  0  2  0  0  0  0  0  0
    4.5530   -3.7810    3.0120 C   0  0  0  0  0  2  0  0  0  0  0  0
    4.5730   -5.1660    2.3670 C   0  0  0  0  0  2  0  0  0  0  0  0
    0.2590  -12.5560    4.3210 O   0  0  0  0  0  1  0  0  0  0  0  0
    0.9250  -12.3410    3.2580 C   0  0  0  0  0  0  0  0  0  0  0  0
    1.0120  -13.1290    2.2650 O   0  0  0  0  0  0  0  0  0  0  0  0
    8.4250   -4.7090   -1.0340 O   0  0  0  0  0  0  0  0  0  0  0  0
    9.4940   -4.1150   -0.2870 C   0  0  0  0  0  2  0  0  0  0  0  0
    9.2380   -2.6310    0.0280 C   0  0  0  0  0  2  0  0  0  0  0  0
    9.2050   -2.2730    1.5030 C   0  0  0  0  0  0  0  0  0  0  0  0
    8.9490   -3.2910    2.4440 C   0  0  0  0  0  3  0  0  0  0  0  0
    8.8520   -3.0090    3.8050 C   0  0  0  0  0  3  0  0  0  0  0  0
    9.0330   -1.7080    4.2580 C   0  0  0  0  0  3  0  0  0  0  0  0
    9.3400   -0.6970    3.3490 C   0  0  0  0  0  3  0  0  0  0  0  0
    9.4440   -0.9590    1.9690 C   0  0  0  0  0  0  0  0  0  0  0  0
    9.8210    0.1490    1.0820 C   0  0  0  0  0  0  0  0  0  0  0  0
    9.7470    1.4790    1.5150 C   0  0  0  0  0  3  0  0  0  0  0  0
   10.1130    2.5290    0.6680 C   0  0  0  0  0  3  0  0  0  0  0  0
   10.5700    2.2570   -0.6200 C   0  0  0  0  0  3  0  0  0  0  0  0
   10.6620    0.9400   -1.0630 C   0  0  0  0  0  3  0  0  0  0  0  0
   10.2890   -0.1080   -0.2170 C   0  0  0  0  0  3  0  0  0  0  0  0
  1  6  1  0  0  0  0
  1 14  1  0  0  0  0
  2  1  2  0  0  0  0
  3  4  2  0  0  0  0
  3  2  1  0  0  0  0
  4  5  1  0  0  0  0
  5  6  2  0  0  0  0
  7 23  1  0  0  0  0
  7  8  1  0  0  0  0
  9  8  2  0  0  0  0
 10  9  1  0  0  0  0
 11 12  1  0  0  0  0
 11 10  2  0  0  0  0
 12  7  2  0  0  0  0
 13 14  2  0  0  0  0
 13 11  1  0  0  0  0
 14 15  1  0  0  0  0
 15 10  1  0  0  0  0
 15 16  1  0  0  0  0
 16 17  1  0  0  0  0
 17 18  1  0  0  0  0
 19 18  1  0  0  0  0
 20 19  1  0  0  0  0
 21 20  1  0  0  0  0
 21 16  1  0  0  0  0
 23 22  1  0  0  0  0
 24 23  2  0  0  0  0
 25  4  1  0  0  0  0
 25 26  1  0  0  0  0
 26 27  1  0  0  0  0
 27 28  1  0  0  0  0
 28 33  2  0  0  0  0
 28 29  1  0  0  0  0
 29 30  2  0  0  0  0
 30 31  1  0  0  0  0
 32 31  2  0  0  0  0
 33 32  1  0  0  0  0
 34 35  1  0  0  0  0
 34 33  1  0  0  0  0
 36 35  2  0  0  0  0
 37 36  1  0  0  0  0
 38 37  2  0  0  0  0
 38 39  1  0  0  0  0
 39 34  2  0  0  0  0
M  END
>  <minimizedAffinity>
-8.78581619

$$$$
