
 OpenBabel09122222393D

 39 44  0  0  0  0  0  0  0  0999 V2000
    6.1710   -6.6950    0.4690 C   0  0  0  0  0  0  0  0  0  0  0  0
    6.0000   -5.9880   -0.7260 C   0  0  0  0  0  3  0  0  0  0  0  0
    7.0210   -5.1650   -1.2090 C   0  0  0  0  0  3  0  0  0  0  0  0
    8.2060   -5.0030   -0.4890 C   0  0  0  0  0  0  0  0  0  0  0  0
    8.3960   -5.7320    0.6830 C   0  0  0  0  0  3  0  0  0  0  0  0
    7.3760   -6.5580    1.1680 C   0  0  0  0  0  3  0  0  0  0  0  0
    1.9820  -10.6390    2.1300 C   0  0  0  0  0  0  0  0  0  0  0  0
    1.8850   -9.8340    3.2760 C   0  0  0  0  0  3  0  0  0  0  0  0
    2.6570   -8.6770    3.4460 C   0  0  0  0  0  3  0  0  0  0  0  0
    3.5500   -8.3390    2.4210 C   0  0  0  0  0  0  0  0  0  0  0  0
    3.6780   -9.1170    1.2740 C   0  0  0  0  0  0  0  0  0  0  0  0
    2.8930  -10.2700    1.1200 C   0  0  0  0  0  3  0  0  0  0  0  0
    4.6170   -8.5860    0.4260 N   0  0  0  0  0  0  0  0  0  0  0  0
    5.1030   -7.5210    1.0330 C   0  0  0  0  0  0  0  0  0  0  0  0
    4.4350   -7.2950    2.2270 N   0  0  0  0  0  0  0  0  0  0  0  0
    4.5970   -6.1260    3.0870 C   0  0  0  0  0  3  0  0  0  0  0  0
    4.2140   -4.8080    2.3900 C   0  0  0  0  0  2  0  0  0  0  0  0
    4.4420   -3.6080    3.3070 C   0  0  0  0  0  2  0  0  0  0  0  0
    3.7240   -3.7740    4.6430 C   0  0  0  0  0  2  0  0  0  0  0  0
    4.1240   -5.0720    5.3390 C   0  0  0  0  0  2  0  0  0  0  0  0
    3.8940   -6.2880    4.4440 C   0  0  0  0  0  2  0  0  0  0  0  0
    1.5370  -12.7740    1.1760 O   0  0  0  0  0  0  0  0  0  0  0  0
    1.1250  -11.8810    1.9840 C   0  0  0  0  0  0  0  0  0  0  0  0
    0.0620  -11.9410    2.6780 O   0  0  0  0  0  1  0  0  0  0  0  0
    9.1090   -4.1370   -1.0420 O   0  0  0  0  0  0  0  0  0  0  0  0
   10.4860   -4.2920   -0.6790 C   0  0  0  0  0  2  0  0  0  0  0  0
   10.9210   -3.3030    0.4170 C   0  0  0  0  0  2  0  0  0  0  0  0
   10.5080   -1.8600    0.1940 C   0  0  0  0  0  0  0  0  0  0  0  0
   10.8560   -1.2320   -1.0200 C   0  0  0  0  0  3  0  0  0  0  0  0
   10.5510    0.1070   -1.2540 C   0  0  0  0  0  3  0  0  0  0  0  0
    9.8710    0.8420   -0.2920 C   0  0  0  0  0  3  0  0  0  0  0  0
    9.4720    0.2260    0.8930 C   0  0  0  0  0  3  0  0  0  0  0  0
    9.7680   -1.1270    1.1510 C   0  0  0  0  0  0  0  0  0  0  0  0
    9.2680   -1.7170    2.4000 C   0  0  0  0  0  0  0  0  0  0  0  0
    8.3360   -2.7630    2.3820 C   0  0  0  0  0  3  0  0  0  0  0  0
    7.8680   -3.3240    3.5730 C   0  0  0  0  0  3  0  0  0  0  0  0
    8.3390   -2.8530    4.7970 C   0  0  0  0  0  3  0  0  0  0  0  0
    9.2750   -1.8230    4.8330 C   0  0  0  0  0  3  0  0  0  0  0  0
    9.7370   -1.2580    3.6410 C   0  0  0  0  0  3  0  0  0  0  0  0
  1 14  1  0  0  0  0
  1  6  1  0  0  0  0
  2  1  2  0  0  0  0
  3  2  1  0  0  0  0
  3  4  2  0  0  0  0
  4  5  1  0  0  0  0
  5  6  2  0  0  0  0
  7  8  1  0  0  0  0
  8  9  2  0  0  0  0
 10  9  1  0  0  0  0
 11 10  2  0  0  0  0
 12 11  1  0  0  0  0
 12  7  2  0  0  0  0
 13 14  2  0  0  0  0
 13 11  1  0  0  0  0
 14 15  1  0  0  0  0
 15 10  1  0  0  0  0
 15 16  1  0  0  0  0
 16 21  1  0  0  0  0
 17 16  1  0  0  0  0
 17 18  1  0  0  0  0
 18 19  1  0  0  0  0
 19 20  1  0  0  0  0
 21 20  1  0  0  0  0
 22 23  2  0  0  0  0
 23  7  1  0  0  0  0
 23 24  1  0  0  0  0
 25 26  1  0  0  0  0
 25  4  1  0  0  0  0
 26 27  1  0  0  0  0
 28 27  1  0  0  0  0
 28 33  1  0  0  0  0
 29 28  2  0  0  0  0
 30 29  1  0  0  0  0
 30 31  2  0  0  0  0
 31 32  1  0  0  0  0
 32 33  2  0  0  0  0
 33 34  1  0  0  0  0
 34 39  1  0  0  0  0
 35 34  2  0  0  0  0
 35 36  1  0  0  0  0
 36 37  2  0  0  0  0
 37 38  1  0  0  0  0
 39 38  2  0  0  0  0
M  END
>  <minimizedAffinity>
-10.5100708

$$$$
