REMARK  Name = 
REMARK  13 active torsions:
REMARK  status: ('A' for Active; 'I' for Inactive)
REMARK    1  A    between atoms: C_1  and  N_2
REMARK    2  A    between atoms: N_2  and  C_3
REMARK    3  A    between atoms: C_4  and  C_6
REMARK    4  A    between atoms: C_9  and  C_10
REMARK    5  A    between atoms: C_10  and  O_11
REMARK    6  A    between atoms: C_10  and  C_37
REMARK    7  A    between atoms: O_11  and  C_12
REMARK    8  A    between atoms: C_15  and  C_16
REMARK    9  A    between atoms: C_20  and  C_21
REMARK   10  A    between atoms: N_27  and  C_28
REMARK   11  A    between atoms: C_40  and  C_41
REMARK   12  A    between atoms: N_43  and  C_44
REMARK   13  A    between atoms: N_43  and  C_45
REMARK                            x       y       z     vdW  Elec       q    Type
REMARK                         _______ _______ _______ _____ _____    ______ ____
ROOT
ATOM      1  C   UNL     1      -1.428   6.473   4.743  0.00  0.00    +0.125 A 
ATOM      2  C   UNL     1      -2.822   6.540   4.733  0.00  0.00    +0.046 A 
ATOM      3  C   UNL     1      -3.559   5.737   5.607  0.00  0.00    +0.018 A 
ATOM      4  C   UNL     1      -2.907   4.901   6.526  0.00  0.00    +0.053 A 
ATOM      5  C   UNL     1      -1.510   4.870   6.534  0.00  0.00    +0.137 A 
ATOM      6  F   UNL     1      -0.851   4.067   7.382  0.00  0.00    -0.205 F 
ATOM      7  C   UNL     1      -0.768   5.661   5.662  0.00  0.00    +0.084 A 
ENDROOT
BRANCH   4   8
ATOM      8  C   UNL     1      -3.694   4.017   7.375  0.00  0.00    +0.145 A 
ATOM      9  N   UNL     1      -4.296   2.942   6.901  0.00  0.00    -0.227 NA
ATOM     10  C   UNL     1      -4.905   2.337   7.968  0.00  0.00    +0.090 A 
ATOM     11  C   UNL     1      -5.652   1.149   8.015  0.00  0.00    +0.039 A 
ATOM     12  C   UNL     1      -6.192   0.709   9.239  0.00  0.00    -0.001 A 
ATOM     13  C   UNL     1      -5.963   1.476  10.394  0.00  0.00    +0.012 A 
ATOM     14  C   UNL     1      -5.224   2.665  10.367  0.00  0.00    +0.028 A 
ATOM     15  C   UNL     1      -4.708   3.075   9.130  0.00  0.00    +0.069 A 
ATOM     16  N   UNL     1      -3.971   4.176   8.722  0.00  0.00    -0.320 N 
BRANCH  16  17
ATOM     17  C   UNL     1      -3.650   5.298   9.601  0.00  0.00    +0.089 C 
ATOM     18  C   UNL     1      -2.188   5.312  10.067  0.00  0.00    +0.025 C 
ATOM     19  C   UNL     1      -1.951   6.412  11.102  0.00  0.00    +0.002 C 
ATOM     20  C   UNL     1      -2.398   7.780  10.588  0.00  0.00    +0.000 C 
ATOM     21  C   UNL     1      -3.849   7.764  10.114  0.00  0.00    +0.002 C 
ATOM     22  C   UNL     1      -4.085   6.674   9.068  0.00  0.00    +0.025 C 
ENDBRANCH  16  17
BRANCH  12  23
ATOM     23  C   UNL     1      -7.007  -0.567   9.309  0.00  0.00    +0.072 C 
ATOM     24  O   UNL     1      -7.184  -1.207   8.225  0.00  0.00    -0.545 OA
ATOM     25  O   UNL     1      -7.459  -0.902  10.451  0.00  0.00    -0.545 OA
ENDBRANCH  12  23
ENDBRANCH   4   8
BRANCH   1  26
ATOM     26  O   UNL     1      -0.656   7.219   3.894  0.00  0.00    -0.479 OA
BRANCH  26  27
ATOM     27  C   UNL     1      -0.861   6.904   2.501  0.00  0.00    +0.234 C 
BRANCH  27  31
ATOM     28  C   UNL     1       1.372   3.314   1.507  0.00  0.00    +0.037 A 
ATOM     29  C   UNL     1       2.040   4.537   1.614  0.00  0.00    +0.013 A 
ATOM     30  C   UNL     1       1.329   5.697   1.932  0.00  0.00    +0.008 A 
ATOM     31  C   UNL     1      -0.060   5.653   2.139  0.00  0.00    -0.003 A 
ATOM     32  C   UNL     1      -0.711   4.408   2.071  0.00  0.00    +0.008 A 
ATOM     33  C   UNL     1       0.001   3.244   1.772  0.00  0.00    +0.013 A 
BRANCH  28  37
ATOM     34  C   UNL     1       2.335  -0.103   0.138  0.00  0.00    +0.132 C 
ATOM     35  N   UNL     1       1.693   1.197   0.243  0.00  0.00    -0.304 N 
ATOM     36  C   UNL     1       0.652   1.479  -0.734  0.00  0.00    +0.132 C 
ATOM     37  C   UNL     1       2.161   2.095   1.201  0.00  0.00    +0.246 C 
ATOM     38  O   UNL     1       3.214   1.932   1.817  0.00  0.00    -0.270 OA
ENDBRANCH  28  37
ENDBRANCH  27  31
BRANCH  27  39
ATOM     39  C   UNL     1      -0.501   8.114   1.630  0.00  0.00    -0.003 A 
ATOM     40  C   UNL     1       0.163   9.239   2.151  0.00  0.00    +0.008 A 
ATOM     41  C   UNL     1       0.499  10.315   1.328  0.00  0.00    +0.013 A 
ATOM     42  C   UNL     1       0.191  10.270  -0.032  0.00  0.00    +0.037 A 
ATOM     43  C   UNL     1      -0.496   9.176  -0.566  0.00  0.00    +0.013 A 
ATOM     44  C   UNL     1      -0.834   8.102   0.261  0.00  0.00    +0.008 A 
BRANCH  42  45
ATOM     45  C   UNL     1       0.555  11.419  -0.889  0.00  0.00    +0.246 C 
ATOM     46  O   UNL     1       0.102  12.519  -0.583  0.00  0.00    -0.270 OA
ATOM     47  N   UNL     1       1.381  11.200  -1.990  0.00  0.00    -0.304 N 
ATOM     48  C   UNL     1       2.121   9.972  -2.248  0.00  0.00    +0.132 C 
ATOM     49  C   UNL     1       1.593  12.287  -2.929  0.00  0.00    +0.132 C 
ENDBRANCH  42  45
ENDBRANCH  27  39
ENDBRANCH  26  27
ENDBRANCH   1  26
TORSDOF 9
