REMARK  Name = 
REMARK  7 active torsions:
REMARK  status: ('A' for Active; 'I' for Inactive)
REMARK    1  A    between atoms: C_2  and  C_4
REMARK    2  A    between atoms: C_4  and  C_5
REMARK    3  A    between atoms: C_4  and  N_12
REMARK    4  A    between atoms: C_5  and  C_6
REMARK    5  A    between atoms: N_12  and  C_13
REMARK    6  A    between atoms: C_13  and  C_14
REMARK    7  A    between atoms: C_21  and  C_23
REMARK                            x       y       z     vdW  Elec       q    Type
REMARK                         _______ _______ _______ _____ _____    ______ ____
ROOT
ATOM      1  N   UNL     1       2.241  -1.303  -2.263  0.00  0.00    -0.285 N 
ATOM      2  C   UNL     1       0.901  -1.025  -2.530  0.00  0.00    +0.247 C 
ATOM      3  O   UNL     1       0.053  -0.732  -1.691  0.00  0.00    -0.270 OA
ENDROOT
BRANCH   2   4
ATOM      4  C   UNL     1       0.458  -1.022  -3.939  0.00  0.00    +0.037 A 
ATOM      5  C   UNL     1      -0.051   0.156  -4.494  0.00  0.00    +0.014 A 
ATOM      6  C   UNL     1      -0.477   0.164  -5.823  0.00  0.00    +0.021 A 
ATOM      7  C   UNL     1      -0.405  -1.008  -6.580  0.00  0.00    +0.041 A 
ATOM      8 CL   UNL     1      -0.929  -0.994  -8.220  0.00  0.00    -0.084 Cl
ATOM      9  C   UNL     1       0.078  -2.191  -6.018  0.00  0.00    +0.021 A 
ATOM     10  C   UNL     1       0.504  -2.201  -4.689  0.00  0.00    +0.014 A 
ENDBRANCH   2   4
BRANCH   1  11
ATOM     11  C   UNL     1       2.635  -1.633  -0.853  0.00  0.00    +0.127 C 
BRANCH  11  13
ATOM     12  O   UNL     1       1.426  -3.719  -1.064  0.00  0.00    -0.548 OA
ATOM     13  C   UNL     1       1.949  -2.910  -0.238  0.00  0.00    +0.062 C 
ATOM     14  O   UNL     1       2.082  -3.052   1.015  0.00  0.00    -0.548 OA
ENDBRANCH  11  13
BRANCH  11  15
ATOM     15  C   UNL     1       2.479  -0.451   0.127  0.00  0.00    +0.063 C 
BRANCH  15  16
ATOM     16  C   UNL     1       3.223   0.803  -0.292  0.00  0.00    -0.045 A 
ATOM     17  C   UNL     1       4.605   0.910  -0.089  0.00  0.00    +0.004 A 
ATOM     18  C   UNL     1       5.291   2.055  -0.498  0.00  0.00    +0.000 A 
ATOM     19  C   UNL     1       4.602   3.100  -1.112  0.00  0.00    +0.000 A 
ATOM     20  C   UNL     1       3.227   3.002  -1.317  0.00  0.00    +0.000 A 
ATOM     21  C   UNL     1       2.540   1.859  -0.909  0.00  0.00    +0.004 A 
ENDBRANCH  15  16
ENDBRANCH  11  15
ENDBRANCH   1  11
BRANCH   1  22
ATOM     22  C   UNL     1       3.313  -1.081  -3.235  0.00  0.00    +0.144 C 
BRANCH  22  23
ATOM     23  C   UNL     1       4.108  -2.280  -3.708  0.00  0.00    -0.029 A 
ATOM     24  C   UNL     1       3.704  -3.605  -3.518  0.00  0.00    +0.005 A 
ATOM     25  C   UNL     1       4.471  -4.671  -3.998  0.00  0.00    +0.001 A 
ATOM     26  C   UNL     1       5.654  -4.427  -4.691  0.00  0.00    +0.015 A 
ATOM     27  C   UNL     1       6.063  -3.114  -4.899  0.00  0.00    +0.018 A 
ATOM     28 BR   UNL     1       7.664  -2.770  -5.845  0.00  0.00    -0.050 Br
ATOM     29  C   UNL     1       5.302  -2.048  -4.417  0.00  0.00    +0.020 A 
ENDBRANCH  22  23
ENDBRANCH   1  22
TORSDOF 7
