
 OpenBabel09122222393D

 29 31  0  0  1  0  0  0  0  0999 V2000
    9.5610   -2.8540    1.3870 N   0  0  0  0  0  0  0  0  0  0  0  0
    8.9590   -2.2800    2.5060 C   0  0  0  0  0  0  0  0  0  0  0  0
    8.1950   -2.8540    3.2780 O   0  0  0  0  0  0  0  0  0  0  0  0
    9.3000   -0.8820    2.8390 C   0  0  0  0  0  0  0  0  0  0  0  0
   10.0270   -0.6140    4.0030 C   0  0  0  0  0  3  0  0  0  0  0  0
   10.3470    0.7050    4.3270 C   0  0  0  0  0  3  0  0  0  0  0  0
    9.9260    1.7440    3.4940 C   0  0  0  0  0  0  0  0  0  0  0  0
   10.3250    3.3700    3.8960 Cl  0  0  0  0  0  0  0  0  0  0  0  0
    9.1770    1.4790    2.3470 C   0  0  0  0  0  3  0  0  0  0  0  0
    8.8550    0.1600    2.0210 C   0  0  0  0  0  3  0  0  0  0  0  0
    8.9910   -4.1330    0.8460 C   0  0  2  0  0  3  0  0  0  0  0  0
   10.7600   -4.8810   -0.6260 O   0  0  0  0  0  1  0  0  0  0  0  0
    9.5310   -4.5730   -0.5660 C   0  0  0  0  0  0  0  0  0  0  0  0
    8.6560   -4.6760   -1.4780 O   0  0  0  0  0  0  0  0  0  0  0  0
    7.4480   -4.1680    0.8340 C   0  0  0  0  0  2  0  0  0  0  0  0
    6.8530   -5.4520    1.3790 C   0  0  0  0  0  0  0  0  0  0  0  0
    5.6200   -5.4370    2.0450 C   0  0  0  0  0  3  0  0  0  0  0  0
    5.0630   -6.6240    2.5240 C   0  0  0  0  0  3  0  0  0  0  0  0
    5.7330   -7.8330    2.3410 C   0  0  0  0  0  3  0  0  0  0  0  0
    6.9600   -7.8570    1.6810 C   0  0  0  0  0  3  0  0  0  0  0  0
    7.5180   -6.6720    1.2020 C   0  0  0  0  0  3  0  0  0  0  0  0
   10.8410   -2.3970    0.8440 C   0  0  0  0  0  2  0  0  0  0  0  0
   10.8180   -1.4030   -0.2980 C   0  0  0  0  0  0  0  0  0  0  0  0
   10.6770   -1.7640   -1.6410 C   0  0  0  0  0  3  0  0  0  0  0  0
   10.6400   -0.7970   -2.6510 C   0  0  0  0  0  3  0  0  0  0  0  0
   10.7320    0.5550   -2.3300 C   0  0  0  0  0  3  0  0  0  0  0  0
   10.8600    0.9310   -0.9970 C   0  0  0  0  0  0  0  0  0  0  0  0
   10.9780    2.7650   -0.5480 Br  0  0  0  0  0  0  0  0  0  0  0  0
   10.9020   -0.0320    0.0120 C   0  0  0  0  0  3  0  0  0  0  0  0
  1  2  1  0  0  0  0
  2  4  1  0  0  0  0
  2  3  2  0  0  0  0
  4  5  1  0  0  0  0
  5  6  2  0  0  0  0
  7  8  1  0  0  0  0
  7  6  1  0  0  0  0
  9  7  2  0  0  0  0
 10  9  1  0  0  0  0
 10  4  2  0  0  0  0
 11 15  1  6  0  0  0
 11  1  1  0  0  0  0
 12 13  1  0  0  0  0
 13 11  1  0  0  0  0
 14 13  2  0  0  0  0
 15 16  1  0  0  0  0
 16 17  1  0  0  0  0
 17 18  2  0  0  0  0
 19 18  1  0  0  0  0
 20 19  2  0  0  0  0
 21 16  2  0  0  0  0
 21 20  1  0  0  0  0
 22  1  1  0  0  0  0
 23 29  1  0  0  0  0
 23 22  1  0  0  0  0
 24 23  2  0  0  0  0
 25 26  2  0  0  0  0
 25 24  1  0  0  0  0
 26 27  1  0  0  0  0
 27 28  1  0  0  0  0
 27 29  2  0  0  0  0
M  END
>  <minimizedAffinity>
-3.15987253

$$$$
