
 OpenBabel09122222393D

 29 31  0  0  1  0  0  0  0  0999 V2000
    6.8650   -3.5750    2.9810 N   0  0  0  0  0  0  0  0  0  0  0  0
    6.1500   -3.3330    4.1530 C   0  0  0  0  0  0  0  0  0  0  0  0
    6.4450   -2.5030    5.0100 O   0  0  0  0  0  0  0  0  0  0  0  0
    4.8980   -4.0860    4.3730 C   0  0  0  0  0  0  0  0  0  0  0  0
    4.9660   -5.4160    4.8010 C   0  0  0  0  0  3  0  0  0  0  0  0
    3.7880   -6.1350    5.0050 C   0  0  0  0  0  3  0  0  0  0  0  0
    2.5540   -5.5250    4.7650 C   0  0  0  0  0  0  0  0  0  0  0  0
    1.1020   -6.4150    5.0200 Cl  0  0  0  0  0  0  0  0  0  0  0  0
    2.4870   -4.2070    4.3120 C   0  0  0  0  0  3  0  0  0  0  0  0
    3.6640   -3.4860    4.1070 C   0  0  0  0  0  3  0  0  0  0  0  0
    8.2780   -3.0780    2.8910 C   0  0  2  0  0  3  0  0  0  0  0  0
    9.4650   -3.8800    4.8420 O   0  0  0  0  0  1  0  0  0  0  0  0
    9.0050   -2.8460    4.2690 C   0  0  0  0  0  0  0  0  0  0  0  0
    9.1480   -1.6340    4.6140 O   0  0  0  0  0  0  0  0  0  0  0  0
    8.4380   -1.8190    2.0140 C   0  0  0  0  0  2  0  0  0  0  0  0
    9.3810   -1.9980    0.8390 C   0  0  0  0  0  0  0  0  0  0  0  0
    9.8220   -0.8880    0.1070 C   0  0  0  0  0  3  0  0  0  0  0  0
   10.7090   -1.0540   -0.9590 C   0  0  0  0  0  3  0  0  0  0  0  0
   11.1620   -2.3280   -1.2990 C   0  0  0  0  0  3  0  0  0  0  0  0
   10.7270   -3.4380   -0.5760 C   0  0  0  0  0  3  0  0  0  0  0  0
    9.8410   -3.2740    0.4880 C   0  0  0  0  0  3  0  0  0  0  0  0
    6.2470   -4.0940    1.7590 C   0  0  0  0  0  2  0  0  0  0  0  0
    6.2790   -5.5900    1.5230 C   0  0  0  0  0  0  0  0  0  0  0  0
    7.4520   -6.3510    1.5090 C   0  0  0  0  0  3  0  0  0  0  0  0
    7.4140   -7.7340    1.3080 C   0  0  0  0  0  3  0  0  0  0  0  0
    6.1960   -8.3840    1.1300 C   0  0  0  0  0  3  0  0  0  0  0  0
    5.0190   -7.6430    1.1540 C   0  0  0  0  0  0  0  0  0  0  0  0
    3.3570   -8.5150    0.9210 Br  0  0  0  0  0  0  0  0  0  0  0  0
    5.0530   -6.2610    1.3500 C   0  0  0  0  0  3  0  0  0  0  0  0
  1  2  1  0  0  0  0
  2  4  1  0  0  0  0
  2  3  2  0  0  0  0
  4  5  1  0  0  0  0
  5  6  2  0  0  0  0
  7  6  1  0  0  0  0
  7  8  1  0  0  0  0
  9  7  2  0  0  0  0
 10  9  1  0  0  0  0
 10  4  2  0  0  0  0
 11 15  1  1  0  0  0
 11  1  1  0  0  0  0
 11 13  1  0  0  0  0
 13 14  2  0  0  0  0
 13 12  1  0  0  0  0
 16 15  1  0  0  0  0
 17 16  2  0  0  0  0
 18 17  1  0  0  0  0
 19 18  2  0  0  0  0
 19 20  1  0  0  0  0
 20 21  2  0  0  0  0
 21 16  1  0  0  0  0
 22  1  1  0  0  0  0
 23 22  1  0  0  0  0
 24 23  1  0  0  0  0
 25 24  2  0  0  0  0
 26 27  2  0  0  0  0
 26 25  1  0  0  0  0
 27 29  1  0  0  0  0
 28 27  1  0  0  0  0
 29 23  2  0  0  0  0
M  END
>  <minimizedAffinity>
-3.37789345

$$$$
