
 OpenBabel09122217443D

 29 31  0  0  1  0  0  0  0  0999 V2000
    8.2060   -3.9900    1.5750 N   0  0  0  0  0  0  0  0  0  0  0  0
    8.0410   -4.9290    0.5580 C   0  0  0  0  0  0  0  0  0  0  0  0
    8.7870   -5.0730   -0.4080 O   0  0  0  0  0  0  0  0  0  0  0  0
    6.9130   -5.8780    0.6620 C   0  0  0  0  0  0  0  0  0  0  0  0
    7.1050   -7.1010    1.3120 C   0  0  0  0  0  3  0  0  0  0  0  0
    6.0450   -8.0040    1.4080 C   0  0  0  0  0  3  0  0  0  0  0  0
    4.8090   -7.6830    0.8420 C   0  0  0  0  0  0  0  0  0  0  0  0
    3.5030   -8.7980    0.9650 Cl  0  0  0  0  0  0  0  0  0  0  0  0
    4.6250   -6.4730    0.1700 C   0  0  0  0  0  3  0  0  0  0  0  0
    5.6840   -5.5690    0.0720 C   0  0  0  0  0  3  0  0  0  0  0  0
    9.1240   -2.8280    1.3320 C   0  0  2  0  0  3  0  0  0  0  0  0
   11.4630   -3.2790    0.9080 O   0  0  0  0  0  0  0  0  0  0  0  0
   10.6100   -3.0250    1.8120 C   0  0  0  0  0  0  0  0  0  0  0  0
   10.8210   -2.8060    3.0430 O   0  0  0  0  0  1  0  0  0  0  0  0
    8.5870   -1.4890    1.8810 C   0  0  0  0  0  2  0  0  0  0  0  0
    9.2220   -0.2630    1.2520 C   0  0  0  0  0  0  0  0  0  0  0  0
    9.2460    0.9570    1.9400 C   0  0  0  0  0  3  0  0  0  0  0  0
    9.8520    2.0770    1.3690 C   0  0  0  0  0  3  0  0  0  0  0  0
   10.4390    1.9860    0.1080 C   0  0  0  0  0  3  0  0  0  0  0  0
   10.4190    0.7770   -0.5850 C   0  0  0  0  0  3  0  0  0  0  0  0
    9.8130   -0.3430   -0.0160 C   0  0  0  0  0  3  0  0  0  0  0  0
    7.7050   -4.1890    2.9360 C   0  0  0  0  0  2  0  0  0  0  0  0
    6.2080   -4.1340    3.1610 C   0  0  0  0  0  0  0  0  0  0  0  0
    5.4180   -3.0200    2.8670 C   0  0  0  0  0  3  0  0  0  0  0  0
    4.0350   -3.0380    3.0760 C   0  0  0  0  0  3  0  0  0  0  0  0
    3.4170   -4.1820    3.5740 C   0  0  0  0  0  3  0  0  0  0  0  0
    4.1880   -5.3030    3.8600 C   0  0  0  0  0  0  0  0  0  0  0  0
    3.3580   -6.8650    4.5300 Br  0  0  0  0  0  0  0  0  0  0  0  0
    5.5680   -5.2870    3.6570 C   0  0  0  0  0  3  0  0  0  0  0  0
  1 22  1  0  0  0  0
  2  4  1  0  0  0  0
  2  1  1  0  0  0  0
  3  2  2  0  0  0  0
  4  5  1  0  0  0  0
  5  6  2  0  0  0  0
  7  8  1  0  0  0  0
  7  6  1  0  0  0  0
  9  7  2  0  0  0  0
 10  9  1  0  0  0  0
 10  4  2  0  0  0  0
 11  1  1  0  0  0  0
 11 13  1  0  0  0  0
 11 15  1  1  0  0  0
 12 13  2  0  0  0  0
 13 14  1  0  0  0  0
 16 15  1  0  0  0  0
 16 17  1  0  0  0  0
 18 17  2  0  0  0  0
 19 18  1  0  0  0  0
 20 21  1  0  0  0  0
 20 19  2  0  0  0  0
 21 16  2  0  0  0  0
 22 23  1  0  0  0  0
 23 29  1  0  0  0  0
 24 25  1  0  0  0  0
 24 23  2  0  0  0  0
 25 26  2  0  0  0  0
 26 27  1  0  0  0  0
 27 28  1  0  0  0  0
 29 27  2  0  0  0  0
M  END
>  <minimizedAffinity>
-5.67847204

$$$$

 OpenBabel09122217443D

 29 31  0  0  1  0  0  0  0  0999 V2000
    8.0360   -4.0200    2.2520 N   0  0  0  0  0  0  0  0  0  0  0  0
    7.9270   -4.8750    1.1560 C   0  0  0  0  0  0  0  0  0  0  0  0
    8.7610   -4.9990    0.2630 O   0  0  0  0  0  0  0  0  0  0  0  0
    6.7430   -5.7540    1.0740 C   0  0  0  0  0  0  0  0  0  0  0  0
    6.8150   -7.0500    1.5950 C   0  0  0  0  0  3  0  0  0  0  0  0
    5.7020   -7.8880    1.5160 C   0  0  0  0  0  3  0  0  0  0  0  0
    4.5330   -7.4290    0.9040 C   0  0  0  0  0  0  0  0  0  0  0  0
    3.1600   -8.4650    0.8100 Cl  0  0  0  0  0  0  0  0  0  0  0  0
    4.4690   -6.1450    0.3600 C   0  0  0  0  0  3  0  0  0  0  0  0
    5.5820   -5.3060    0.4380 C   0  0  0  0  0  3  0  0  0  0  0  0
    9.0380   -2.9040    2.1900 C   0  0  2  0  0  3  0  0  0  0  0  0
   10.3640   -3.1040    4.2050 O   0  0  0  0  0  1  0  0  0  0  0  0
    9.5410   -2.3660    3.5820 C   0  0  0  0  0  0  0  0  0  0  0  0
    9.1520   -1.1990    3.8900 O   0  0  0  0  0  0  0  0  0  0  0  0
    8.5880   -1.7130    1.3180 C   0  0  0  0  0  2  0  0  0  0  0  0
    9.5960   -1.3030    0.2620 C   0  0  0  0  0  0  0  0  0  0  0  0
   10.3330   -2.2730   -0.4310 C   0  0  0  0  0  3  0  0  0  0  0  0
   11.2420   -1.8940   -1.4200 C   0  0  0  0  0  3  0  0  0  0  0  0
   11.4210   -0.5450   -1.7240 C   0  0  0  0  0  3  0  0  0  0  0  0
   10.6930    0.4260   -1.0390 C   0  0  0  0  0  3  0  0  0  0  0  0
    9.7840    0.0490   -0.0510 C   0  0  0  0  0  3  0  0  0  0  0  0
    7.3840   -4.2790    3.5370 C   0  0  0  0  0  2  0  0  0  0  0  0
    5.8820   -4.1090    3.6220 C   0  0  0  0  0  0  0  0  0  0  0  0
    5.1980   -2.9880    3.1410 C   0  0  0  0  0  3  0  0  0  0  0  0
    3.8050   -2.8980    3.2290 C   0  0  0  0  0  3  0  0  0  0  0  0
    3.0700   -3.9390    3.7910 C   0  0  0  0  0  3  0  0  0  0  0  0
    3.7350   -5.0660    4.2630 C   0  0  0  0  0  0  0  0  0  0  0  0
    2.7460   -6.4880    5.0210 Br  0  0  0  0  0  0  0  0  0  0  0  0
    5.1250   -5.1560    4.1810 C   0  0  0  0  0  3  0  0  0  0  0  0
  1 22  1  0  0  0  0
  2  1  1  0  0  0  0
  3  2  2  0  0  0  0
  4  2  1  0  0  0  0
  4  5  1  0  0  0  0
  6  5  2  0  0  0  0
  7  6  1  0  0  0  0
  8  7  1  0  0  0  0
  9 10  1  0  0  0  0
  9  7  2  0  0  0  0
 10  4  2  0  0  0  0
 11 15  1  1  0  0  0
 11  1  1  0  0  0  0
 11 13  1  0  0  0  0
 13 14  2  0  0  0  0
 13 12  1  0  0  0  0
 16 15  1  0  0  0  0
 17 16  2  0  0  0  0
 18 17  1  0  0  0  0
 19 18  2  0  0  0  0
 19 20  1  0  0  0  0
 20 21  2  0  0  0  0
 21 16  1  0  0  0  0
 22 23  1  0  0  0  0
 23 29  1  0  0  0  0
 24 25  1  0  0  0  0
 24 23  2  0  0  0  0
 25 26  2  0  0  0  0
 26 27  1  0  0  0  0
 27 28  1  0  0  0  0
 29 27  2  0  0  0  0
M  END
>  <minimizedAffinity>
-5.19915676

$$$$

 OpenBabel09122217443D

 29 31  0  0  1  0  0  0  0  0999 V2000
    8.5010   -4.2430    0.5600 N   0  0  0  0  0  0  0  0  0  0  0  0
    7.7980   -4.8850   -0.4590 C   0  0  0  0  0  0  0  0  0  0  0  0
    8.0290   -4.7810   -1.6610 O   0  0  0  0  0  0  0  0  0  0  0  0
    6.7170   -5.8170   -0.0780 C   0  0  0  0  0  0  0  0  0  0  0  0
    7.0320   -6.9740    0.6410 C   0  0  0  0  0  3  0  0  0  0  0  0
    6.0160   -7.8620    0.9990 C   0  0  0  0  0  3  0  0  0  0  0  0
    4.6980   -7.5930    0.6230 C   0  0  0  0  0  0  0  0  0  0  0  0
    3.4470   -8.6890    1.0680 Cl  0  0  0  0  0  0  0  0  0  0  0  0
    4.3870   -6.4520   -0.1180 C   0  0  0  0  0  3  0  0  0  0  0  0
    5.4010   -5.5630   -0.4780 C   0  0  0  0  0  3  0  0  0  0  0  0
    9.3610   -3.0660    0.2020 C   0  0  2  0  0  3  0  0  0  0  0  0
   11.6190   -3.1970    1.0610 O   0  0  0  0  0  1  0  0  0  0  0  0
   10.8960   -3.3740    0.0340 C   0  0  0  0  0  0  0  0  0  0  0  0
   11.2360   -3.8680   -1.0840 O   0  0  0  0  0  0  0  0  0  0  0  0
    9.1850   -1.8590    1.1470 C   0  0  0  0  0  2  0  0  0  0  0  0
    9.6620   -0.5420    0.5650 C   0  0  0  0  0  0  0  0  0  0  0  0
    9.5640    0.6400    1.3100 C   0  0  0  0  0  3  0  0  0  0  0  0
   10.0260    1.8470    0.7820 C   0  0  0  0  0  3  0  0  0  0  0  0
   10.5900    1.8810   -0.4930 C   0  0  0  0  0  3  0  0  0  0  0  0
   10.6910    0.7090   -1.2410 C   0  0  0  0  0  3  0  0  0  0  0  0
   10.2290   -0.4970   -0.7150 C   0  0  0  0  0  3  0  0  0  0  0  0
    8.6160   -4.7820    1.9160 C   0  0  0  0  0  2  0  0  0  0  0  0
    7.7240   -4.2020    2.9930 C   0  0  0  0  0  0  0  0  0  0  0  0
    8.1910   -3.4100    4.0470 C   0  0  0  0  0  3  0  0  0  0  0  0
    7.3140   -2.8830    5.0000 C   0  0  0  0  0  3  0  0  0  0  0  0
    5.9470   -3.1300    4.9070 C   0  0  0  0  0  3  0  0  0  0  0  0
    5.4650   -3.9060    3.8570 C   0  0  0  0  0  0  0  0  0  0  0  0
    3.6090   -4.2420    3.7160 Br  0  0  0  0  0  0  0  0  0  0  0  0
    6.3380   -4.4370    2.9070 C   0  0  0  0  0  3  0  0  0  0  0  0
  1 22  1  0  0  0  0
  2  4  1  0  0  0  0
  2  1  1  0  0  0  0
  3  2  2  0  0  0  0
  4  5  1  0  0  0  0
  5  6  2  0  0  0  0
  7  6  1  0  0  0  0
  7  8  1  0  0  0  0
  9  7  2  0  0  0  0
 10  9  1  0  0  0  0
 10  4  2  0  0  0  0
 11  1  1  0  0  0  0
 11 15  1  1  0  0  0
 13 11  1  0  0  0  0
 13 12  1  0  0  0  0
 14 13  2  0  0  0  0
 16 15  1  0  0  0  0
 16 17  1  0  0  0  0
 18 17  2  0  0  0  0
 19 18  1  0  0  0  0
 20 21  1  0  0  0  0
 20 19  2  0  0  0  0
 21 16  2  0  0  0  0
 22 23  1  0  0  0  0
 23 24  1  0  0  0  0
 24 25  2  0  0  0  0
 26 25  1  0  0  0  0
 27 26  2  0  0  0  0
 28 27  1  0  0  0  0
 29 23  2  0  0  0  0
 29 27  1  0  0  0  0
M  END
>  <minimizedAffinity>
-5.14913225

$$$$

 OpenBabel09122217443D

 29 31  0  0  1  0  0  0  0  0999 V2000
    8.6630   -3.6680    0.6460 N   0  0  0  0  0  0  0  0  0  0  0  0
    8.5240   -5.0070    0.2830 C   0  0  0  0  0  0  0  0  0  0  0  0
    9.3750   -5.6810   -0.2920 O   0  0  0  0  0  0  0  0  0  0  0  0
    7.2810   -5.7070    0.6640 C   0  0  0  0  0  0  0  0  0  0  0  0
    7.2980   -6.5940    1.7450 C   0  0  0  0  0  3  0  0  0  0  0  0
    6.1270   -7.2630    2.1060 C   0  0  0  0  0  3  0  0  0  0  0  0
    4.9560   -7.0510    1.3750 C   0  0  0  0  0  0  0  0  0  0  0  0
    3.5130   -7.8760    1.8250 Cl  0  0  0  0  0  0  0  0  0  0  0  0
    4.9450   -6.1860    0.2800 C   0  0  0  0  0  3  0  0  0  0  0  0
    6.1150   -5.5170   -0.0830 C   0  0  0  0  0  3  0  0  0  0  0  0
    9.7480   -2.8600   -0.0030 C   0  0  2  0  0  3  0  0  0  0  0  0
   11.6370   -3.0870    1.4920 O   0  0  0  0  0  1  0  0  0  0  0  0
   11.2200   -3.3190    0.3160 C   0  0  0  0  0  0  0  0  0  0  0  0
   11.8010   -3.9690   -0.6040 O   0  0  0  0  0  0  0  0  0  0  0  0
    9.6240   -1.3420    0.2460 C   0  0  0  0  0  2  0  0  0  0  0  0
   10.3840   -0.4870   -0.7500 C   0  0  0  0  0  0  0  0  0  0  0  0
   10.7320   -1.0000   -2.0060 C   0  0  0  0  0  3  0  0  0  0  0  0
   11.4100   -0.2020   -2.9300 C   0  0  0  0  0  3  0  0  0  0  0  0
   11.7450    1.1120   -2.6060 C   0  0  0  0  0  3  0  0  0  0  0  0
   11.4040    1.6290   -1.3580 C   0  0  0  0  0  3  0  0  0  0  0  0
   10.7260    0.8340   -0.4340 C   0  0  0  0  0  3  0  0  0  0  0  0
    7.9520   -3.0680    1.7770 C   0  0  0  0  0  2  0  0  0  0  0  0
    8.7700   -2.5450    2.9390 C   0  0  0  0  0  0  0  0  0  0  0  0
    9.2940   -3.3580    3.9490 C   0  0  0  0  0  3  0  0  0  0  0  0
   10.0620   -2.8190    4.9860 C   0  0  0  0  0  3  0  0  0  0  0  0
   10.3290   -1.4530    5.0220 C   0  0  0  0  0  3  0  0  0  0  0  0
    9.8250   -0.6330    4.0180 C   0  0  0  0  0  0  0  0  0  0  0  0
   10.1890    1.2230    4.0530 Br  0  0  0  0  0  0  0  0  0  0  0  0
    9.0550   -1.1670    2.9840 C   0  0  0  0  0  3  0  0  0  0  0  0
  1 22  1  0  0  0  0
  2  1  1  0  0  0  0
  2  4  1  0  0  0  0
  3  2  2  0  0  0  0
  4  5  1  0  0  0  0
  5  6  2  0  0  0  0
  7  8  1  0  0  0  0
  7  6  1  0  0  0  0
  9  7  2  0  0  0  0
 10  9  1  0  0  0  0
 10  4  2  0  0  0  0
 11 15  1  1  0  0  0
 11 13  1  0  0  0  0
 11  1  1  0  0  0  0
 13 12  1  0  0  0  0
 14 13  2  0  0  0  0
 16 21  1  0  0  0  0
 16 15  1  0  0  0  0
 17 16  2  0  0  0  0
 18 19  2  0  0  0  0
 18 17  1  0  0  0  0
 19 20  1  0  0  0  0
 20 21  2  0  0  0  0
 22 23  1  0  0  0  0
 23 29  2  0  0  0  0
 23 24  1  0  0  0  0
 24 25  2  0  0  0  0
 25 26  1  0  0  0  0
 27 28  1  0  0  0  0
 27 26  2  0  0  0  0
 29 27  1  0  0  0  0
M  END
>  <minimizedAffinity>
-4.93359613

$$$$

 OpenBabel09122217443D

 29 31  0  0  1  0  0  0  0  0999 V2000
    9.6190   -1.6930    0.4030 N   0  0  0  0  0  0  0  0  0  0  0  0
   10.2530   -0.9460   -0.5890 C   0  0  0  0  0  0  0  0  0  0  0  0
   10.6450   -1.3820   -1.6690 O   0  0  0  0  0  0  0  0  0  0  0  0
   10.4270    0.5040   -0.3660 C   0  0  0  0  0  0  0  0  0  0  0  0
   11.1640    1.2550   -1.2860 C   0  0  0  0  0  3  0  0  0  0  0  0
   11.3370    2.6240   -1.0770 C   0  0  0  0  0  3  0  0  0  0  0  0
   10.7850    3.2270    0.0560 C   0  0  0  0  0  0  0  0  0  0  0  0
   10.9980    4.9160    0.3090 Cl  0  0  0  0  0  0  0  0  0  0  0  0
   10.0720    2.4720    0.9890 C   0  0  0  0  0  3  0  0  0  0  0  0
    9.8980    1.1030    0.7820 C   0  0  0  0  0  3  0  0  0  0  0  0
    9.7260   -3.1890    0.3490 C   0  0  2  0  0  3  0  0  0  0  0  0
   11.8050   -3.6880    1.4830 O   0  0  0  0  0  1  0  0  0  0  0  0
   11.1910   -3.7660    0.3750 C   0  0  0  0  0  0  0  0  0  0  0  0
   11.5690   -4.3460   -0.6870 O   0  0  0  0  0  0  0  0  0  0  0  0
    8.9510   -3.8230   -0.8260 C   0  0  0  0  0  2  0  0  0  0  0  0
    7.9180   -4.8510   -0.4030 C   0  0  0  0  0  0  0  0  0  0  0  0
    6.9130   -5.2540   -1.2910 C   0  0  0  0  0  3  0  0  0  0  0  0
    5.9790   -6.2180   -0.9070 C   0  0  0  0  0  3  0  0  0  0  0  0
    6.0430   -6.7850    0.3650 C   0  0  0  0  0  3  0  0  0  0  0  0
    7.0390   -6.3890    1.2550 C   0  0  0  0  0  3  0  0  0  0  0  0
    7.9730   -5.4260    0.8740 C   0  0  0  0  0  3  0  0  0  0  0  0
    8.6820   -1.1110    1.3650 C   0  0  0  0  0  2  0  0  0  0  0  0
    8.4240   -1.8630    2.6540 C   0  0  0  0  0  0  0  0  0  0  0  0
    9.2660   -1.8080    3.7690 C   0  0  0  0  0  3  0  0  0  0  0  0
    8.9620   -2.5080    4.9410 C   0  0  0  0  0  3  0  0  0  0  0  0
    7.7980   -3.2680    5.0210 C   0  0  0  0  0  3  0  0  0  0  0  0
    6.9440   -3.3230    3.9250 C   0  0  0  0  0  0  0  0  0  0  0  0
    5.3570   -4.3460    4.0250 Br  0  0  0  0  0  0  0  0  0  0  0  0
    7.2470   -2.6290    2.7530 C   0  0  0  0  0  3  0  0  0  0  0  0
  1 22  1  0  0  0  0
  2  4  1  0  0  0  0
  2  1  1  0  0  0  0
  3  2  2  0  0  0  0
  4 10  1  0  0  0  0
  5  6  1  0  0  0  0
  5  4  2  0  0  0  0
  6  7  2  0  0  0  0
  7  8  1  0  0  0  0
  7  9  1  0  0  0  0
 10  9  2  0  0  0  0
 11 15  1  6  0  0  0
 11 13  1  0  0  0  0
 11  1  1  0  0  0  0
 13 12  1  0  0  0  0
 14 13  2  0  0  0  0
 15 16  1  0  0  0  0
 16 21  1  0  0  0  0
 17 18  1  0  0  0  0
 17 16  2  0  0  0  0
 18 19  2  0  0  0  0
 19 20  1  0  0  0  0
 21 20  2  0  0  0  0
 22 23  1  0  0  0  0
 23 29  2  0  0  0  0
 23 24  1  0  0  0  0
 24 25  2  0  0  0  0
 25 26  1  0  0  0  0
 27 28  1  0  0  0  0
 27 26  2  0  0  0  0
 29 27  1  0  0  0  0
M  END
>  <minimizedAffinity>
-4.78670263

$$$$

 OpenBabel09122217443D

 29 31  0  0  1  0  0  0  0  0999 V2000
    7.9940   -4.5710    0.3670 N   0  0  0  0  0  0  0  0  0  0  0  0
    7.3180   -4.9980   -0.7750 C   0  0  0  0  0  0  0  0  0  0  0  0
    7.6360   -4.7340   -1.9320 O   0  0  0  0  0  0  0  0  0  0  0  0
    6.1530   -5.8890   -0.6030 C   0  0  0  0  0  0  0  0  0  0  0  0
    4.9020   -5.3330   -0.3210 C   0  0  0  0  0  3  0  0  0  0  0  0
    3.7980   -6.1690   -0.1500 C   0  0  0  0  0  3  0  0  0  0  0  0
    3.9570   -7.5540   -0.2480 C   0  0  0  0  0  0  0  0  0  0  0  0
    2.5930   -8.5830   -0.0400 Cl  0  0  0  0  0  0  0  0  0  0  0  0
    5.2120   -8.1110   -0.5020 C   0  0  0  0  0  3  0  0  0  0  0  0
    6.3170   -7.2760   -0.6720 C   0  0  0  0  0  3  0  0  0  0  0  0
    8.9550   -3.4250    0.2420 C   0  0  2  0  0  3  0  0  0  0  0  0
   10.6440   -4.0180   -1.3870 O   0  0  0  0  0  0  0  0  0  0  0  0
   10.4290   -3.8150   -0.1530 C   0  0  0  0  0  0  0  0  0  0  0  0
   11.2740   -3.7820    0.7910 O   0  0  0  0  0  1  0  0  0  0  0  0
    8.9880   -2.5060    1.4820 C   0  0  0  0  0  2  0  0  0  0  0  0
    9.3340   -1.0620    1.1730 C   0  0  0  0  0  0  0  0  0  0  0  0
    9.9080   -0.7170   -0.0570 C   0  0  0  0  0  3  0  0  0  0  0  0
   10.2030    0.6160   -0.3490 C   0  0  0  0  0  3  0  0  0  0  0  0
    9.9260    1.6130    0.5860 C   0  0  0  0  0  3  0  0  0  0  0  0
    9.3560    1.2780    1.8130 C   0  0  0  0  0  3  0  0  0  0  0  0
    9.0610   -0.0530    2.1060 C   0  0  0  0  0  3  0  0  0  0  0  0
    7.9810   -5.3140    1.6290 C   0  0  0  0  0  2  0  0  0  0  0  0
    6.6480   -5.5390    2.3110 C   0  0  0  0  0  0  0  0  0  0  0  0
    6.1210   -6.8030    2.5920 C   0  0  0  0  0  3  0  0  0  0  0  0
    4.8940   -6.9470    3.2460 C   0  0  0  0  0  3  0  0  0  0  0  0
    4.1750   -5.8220    3.6420 C   0  0  0  0  0  3  0  0  0  0  0  0
    4.6910   -4.5570    3.3810 C   0  0  0  0  0  0  0  0  0  0  0  0
    3.7280   -3.0220    3.9210 Br  0  0  0  0  0  0  0  0  0  0  0  0
    5.9140   -4.4100    2.7250 C   0  0  0  0  0  3  0  0  0  0  0  0
  1 22  1  0  0  0  0
  2  4  1  0  0  0  0
  2  1  1  0  0  0  0
  3  2  2  0  0  0  0
  4  5  1  0  0  0  0
  5  6  2  0  0  0  0
  7  6  1  0  0  0  0
  7  8  1  0  0  0  0
  9  7  2  0  0  0  0
 10  4  2  0  0  0  0
 10  9  1  0  0  0  0
 11  1  1  0  0  0  0
 11 15  1  1  0  0  0
 12 13  2  0  0  0  0
 13 11  1  0  0  0  0
 13 14  1  0  0  0  0
 16 15  1  0  0  0  0
 16 21  1  0  0  0  0
 17 16  2  0  0  0  0
 18 17  1  0  0  0  0
 18 19  2  0  0  0  0
 19 20  1  0  0  0  0
 20 21  2  0  0  0  0
 22 23  1  0  0  0  0
 23 24  2  0  0  0  0
 23 29  1  0  0  0  0
 24 25  1  0  0  0  0
 25 26  2  0  0  0  0
 27 26  1  0  0  0  0
 27 28  1  0  0  0  0
 29 27  2  0  0  0  0
M  END
>  <minimizedAffinity>
-4.56805515

$$$$

 OpenBabel09122217443D

 29 31  0  0  1  0  0  0  0  0999 V2000
    8.2450   -3.3120    2.2230 N   0  0  0  0  0  0  0  0  0  0  0  0
    8.9950   -3.0170    3.3600 C   0  0  0  0  0  0  0  0  0  0  0  0
    9.3870   -3.8360    4.1880 O   0  0  0  0  0  0  0  0  0  0  0  0
    9.4130   -1.6170    3.5750 C   0  0  0  0  0  0  0  0  0  0  0  0
    9.9570   -1.2460    4.8090 C   0  0  0  0  0  3  0  0  0  0  0  0
   10.3490    0.0770    5.0200 C   0  0  0  0  0  3  0  0  0  0  0  0
   10.1790    1.0200    4.0040 C   0  0  0  0  0  0  0  0  0  0  0  0
   10.6650    2.6500    4.2670 Cl  0  0  0  0  0  0  0  0  0  0  0  0
    9.6110    0.6560    2.7810 C   0  0  0  0  0  3  0  0  0  0  0  0
    9.2180   -0.6670    2.5680 C   0  0  0  0  0  3  0  0  0  0  0  0
    7.5400   -4.6350    2.1550 C   0  0  2  0  0  3  0  0  0  0  0  0
    8.3860   -6.7220    1.2660 O   0  0  0  0  0  1  0  0  0  0  0  0
    7.9610   -5.5670    0.9570 C   0  0  0  0  0  0  0  0  0  0  0  0
    7.7320   -5.1040   -0.2010 O   0  0  0  0  0  0  0  0  0  0  0  0
    6.0020   -4.5210    2.1940 C   0  0  0  0  0  2  0  0  0  0  0  0
    5.2770   -5.8080    1.8470 C   0  0  0  0  0  0  0  0  0  0  0  0
    4.6870   -5.9750    0.5870 C   0  0  0  0  0  3  0  0  0  0  0  0
    4.0420   -7.1690    0.2630 C   0  0  0  0  0  3  0  0  0  0  0  0
    3.9820   -8.2050    1.1940 C   0  0  0  0  0  3  0  0  0  0  0  0
    4.5650   -8.0480    2.4500 C   0  0  0  0  0  3  0  0  0  0  0  0
    5.2090   -6.8550    2.7760 C   0  0  0  0  0  3  0  0  0  0  0  0
    8.2810   -2.4970    1.0070 C   0  0  0  0  0  2  0  0  0  0  0  0
    9.5330   -2.5380    0.1560 C   0  0  0  0  0  0  0  0  0  0  0  0
   10.4660   -3.5790    0.1960 C   0  0  0  0  0  3  0  0  0  0  0  0
   11.5930   -3.5720   -0.6320 C   0  0  0  0  0  3  0  0  0  0  0  0
   11.7990   -2.5240   -1.5260 C   0  0  0  0  0  3  0  0  0  0  0  0
   10.8740   -1.4880   -1.5860 C   0  0  0  0  0  0  0  0  0  0  0  0
   11.1400   -0.0630   -2.8010 Br  0  0  0  0  0  0  0  0  0  0  0  0
    9.7500   -1.4900   -0.7580 C   0  0  0  0  0  3  0  0  0  0  0  0
  1  2  1  0  0  0  0
  2  4  1  0  0  0  0
  2  3  2  0  0  0  0
  4  5  1  0  0  0  0
  5  6  2  0  0  0  0
  7  8  1  0  0  0  0
  7  6  1  0  0  0  0
  9  7  2  0  0  0  0
 10  9  1  0  0  0  0
 10  4  2  0  0  0  0
 11 15  1  6  0  0  0
 11  1  1  0  0  0  0
 13 12  1  0  0  0  0
 13 11  1  0  0  0  0
 14 13  2  0  0  0  0
 16 15  1  0  0  0  0
 16 21  1  0  0  0  0
 17 16  2  0  0  0  0
 18 17  1  0  0  0  0
 18 19  2  0  0  0  0
 19 20  1  0  0  0  0
 20 21  2  0  0  0  0
 22  1  1  0  0  0  0
 23 24  1  0  0  0  0
 23 22  1  0  0  0  0
 25 24  2  0  0  0  0
 26 25  1  0  0  0  0
 27 26  2  0  0  0  0
 27 29  1  0  0  0  0
 28 27  1  0  0  0  0
 29 23  2  0  0  0  0
M  END
>  <minimizedAffinity>
-3.70513964

$$$$

 OpenBabel09122217443D

 29 31  0  0  1  0  0  0  0  0999 V2000
    6.8650   -3.5750    2.9810 N   0  0  0  0  0  0  0  0  0  0  0  0
    6.1500   -3.3330    4.1530 C   0  0  0  0  0  0  0  0  0  0  0  0
    6.4450   -2.5030    5.0100 O   0  0  0  0  0  0  0  0  0  0  0  0
    4.8980   -4.0860    4.3730 C   0  0  0  0  0  0  0  0  0  0  0  0
    4.9660   -5.4160    4.8010 C   0  0  0  0  0  3  0  0  0  0  0  0
    3.7880   -6.1350    5.0050 C   0  0  0  0  0  3  0  0  0  0  0  0
    2.5540   -5.5250    4.7650 C   0  0  0  0  0  0  0  0  0  0  0  0
    1.1020   -6.4150    5.0200 Cl  0  0  0  0  0  0  0  0  0  0  0  0
    2.4870   -4.2070    4.3120 C   0  0  0  0  0  3  0  0  0  0  0  0
    3.6640   -3.4860    4.1070 C   0  0  0  0  0  3  0  0  0  0  0  0
    8.2780   -3.0780    2.8910 C   0  0  2  0  0  3  0  0  0  0  0  0
    9.4650   -3.8800    4.8420 O   0  0  0  0  0  1  0  0  0  0  0  0
    9.0050   -2.8460    4.2690 C   0  0  0  0  0  0  0  0  0  0  0  0
    9.1480   -1.6340    4.6140 O   0  0  0  0  0  0  0  0  0  0  0  0
    8.4380   -1.8190    2.0140 C   0  0  0  0  0  2  0  0  0  0  0  0
    9.3810   -1.9980    0.8390 C   0  0  0  0  0  0  0  0  0  0  0  0
    9.8220   -0.8880    0.1070 C   0  0  0  0  0  3  0  0  0  0  0  0
   10.7090   -1.0540   -0.9590 C   0  0  0  0  0  3  0  0  0  0  0  0
   11.1620   -2.3280   -1.2990 C   0  0  0  0  0  3  0  0  0  0  0  0
   10.7270   -3.4380   -0.5760 C   0  0  0  0  0  3  0  0  0  0  0  0
    9.8410   -3.2740    0.4880 C   0  0  0  0  0  3  0  0  0  0  0  0
    6.2470   -4.0940    1.7590 C   0  0  0  0  0  2  0  0  0  0  0  0
    6.2790   -5.5900    1.5230 C   0  0  0  0  0  0  0  0  0  0  0  0
    7.4520   -6.3510    1.5090 C   0  0  0  0  0  3  0  0  0  0  0  0
    7.4140   -7.7340    1.3080 C   0  0  0  0  0  3  0  0  0  0  0  0
    6.1960   -8.3840    1.1300 C   0  0  0  0  0  3  0  0  0  0  0  0
    5.0190   -7.6430    1.1540 C   0  0  0  0  0  0  0  0  0  0  0  0
    3.3570   -8.5150    0.9210 Br  0  0  0  0  0  0  0  0  0  0  0  0
    5.0530   -6.2610    1.3500 C   0  0  0  0  0  3  0  0  0  0  0  0
  1  2  1  0  0  0  0
  2  4  1  0  0  0  0
  2  3  2  0  0  0  0
  4  5  1  0  0  0  0
  5  6  2  0  0  0  0
  7  6  1  0  0  0  0
  7  8  1  0  0  0  0
  9  7  2  0  0  0  0
 10  9  1  0  0  0  0
 10  4  2  0  0  0  0
 11 15  1  1  0  0  0
 11  1  1  0  0  0  0
 11 13  1  0  0  0  0
 13 14  2  0  0  0  0
 13 12  1  0  0  0  0
 16 15  1  0  0  0  0
 17 16  2  0  0  0  0
 18 17  1  0  0  0  0
 19 18  2  0  0  0  0
 19 20  1  0  0  0  0
 20 21  2  0  0  0  0
 21 16  1  0  0  0  0
 22  1  1  0  0  0  0
 23 22  1  0  0  0  0
 24 23  1  0  0  0  0
 25 24  2  0  0  0  0
 26 27  2  0  0  0  0
 26 25  1  0  0  0  0
 27 29  1  0  0  0  0
 28 27  1  0  0  0  0
 29 23  2  0  0  0  0
M  END
>  <minimizedAffinity>
-3.37789345

$$$$

 OpenBabel09122217443D

 29 31  0  0  1  0  0  0  0  0999 V2000
    8.9620   -1.1180    2.7000 N   0  0  0  0  0  0  0  0  0  0  0  0
    9.8520   -0.6800    3.6800 C   0  0  0  0  0  0  0  0  0  0  0  0
   10.4860   -1.4050    4.4420 O   0  0  0  0  0  0  0  0  0  0  0  0
   10.1110    0.7700    3.7870 C   0  0  0  0  0  0  0  0  0  0  0  0
    9.7750    1.6070    2.7190 C   0  0  0  0  0  3  0  0  0  0  0  0
   10.0220    2.9770    2.8110 C   0  0  0  0  0  3  0  0  0  0  0  0
   10.6170    3.4970    3.9640 C   0  0  0  0  0  0  0  0  0  0  0  0
   10.9190    5.1880    4.0760 Cl  0  0  0  0  0  0  0  0  0  0  0  0
   10.9780    2.6580    5.0200 C   0  0  0  0  0  3  0  0  0  0  0  0
   10.7320    1.2870    4.9290 C   0  0  0  0  0  3  0  0  0  0  0  0
    8.4390   -2.5220    2.7860 C   0  0  2  0  0  3  0  0  0  0  0  0
    7.5180   -3.0650    4.9580 O   0  0  0  0  0  1  0  0  0  0  0  0
    8.5330   -3.1950    4.2070 C   0  0  0  0  0  0  0  0  0  0  0  0
    9.5730   -3.8890    4.4150 O   0  0  0  0  0  0  0  0  0  0  0  0
    9.0430   -3.4740    1.7320 C   0  0  0  0  0  2  0  0  0  0  0  0
    8.0320   -4.4030    1.0870 C   0  0  0  0  0  0  0  0  0  0  0  0
    6.9090   -4.8370    1.8010 C   0  0  0  0  0  3  0  0  0  0  0  0
    5.9680   -5.6730    1.1970 C   0  0  0  0  0  3  0  0  0  0  0  0
    6.1430   -6.0800   -0.1250 C   0  0  0  0  0  3  0  0  0  0  0  0
    7.2590   -5.6540   -0.8430 C   0  0  0  0  0  3  0  0  0  0  0  0
    8.2000   -4.8190   -0.2410 C   0  0  0  0  0  3  0  0  0  0  0  0
    8.6780   -0.3590    1.4810 C   0  0  0  0  0  2  0  0  0  0  0  0
    9.6530   -0.4700    0.3270 C   0  0  0  0  0  0  0  0  0  0  0  0
   10.0880    0.6210   -0.4310 C   0  0  0  0  0  3  0  0  0  0  0  0
   11.0090    0.4580   -1.4710 C   0  0  0  0  0  3  0  0  0  0  0  0
   11.5210   -0.8040   -1.7620 C   0  0  0  0  0  3  0  0  0  0  0  0
   11.1080   -1.8970   -1.0080 C   0  0  0  0  0  0  0  0  0  0  0  0
   11.8030   -3.6140   -1.3890 Br  0  0  0  0  0  0  0  0  0  0  0  0
   10.1860   -1.7380    0.0270 C   0  0  0  0  0  3  0  0  0  0  0  0
  1 11  1  0  0  0  0
  1  2  1  0  0  0  0
  2  4  1  0  0  0  0
  2  3  2  0  0  0  0
  4 10  1  0  0  0  0
  5  6  1  0  0  0  0
  5  4  2  0  0  0  0
  6  7  2  0  0  0  0
  7  8  1  0  0  0  0
  7  9  1  0  0  0  0
 10  9  2  0  0  0  0
 11 15  1  6  0  0  0
 11 13  1  0  0  0  0
 13 14  2  0  0  0  0
 13 12  1  0  0  0  0
 16 15  1  0  0  0  0
 16 17  1  0  0  0  0
 18 17  2  0  0  0  0
 19 18  1  0  0  0  0
 20 21  1  0  0  0  0
 20 19  2  0  0  0  0
 21 16  2  0  0  0  0
 22  1  1  0  0  0  0
 23 22  1  0  0  0  0
 24 23  2  0  0  0  0
 25 24  1  0  0  0  0
 26 25  2  0  0  0  0
 26 27  1  0  0  0  0
 27 29  2  0  0  0  0
 28 27  1  0  0  0  0
 29 23  1  0  0  0  0
M  END
>  <minimizedAffinity>
-3.34205031

$$$$

 OpenBabel09122217443D

 29 31  0  0  1  0  0  0  0  0999 V2000
    9.5610   -2.8540    1.3870 N   0  0  0  0  0  0  0  0  0  0  0  0
    8.9590   -2.2800    2.5060 C   0  0  0  0  0  0  0  0  0  0  0  0
    8.1950   -2.8540    3.2780 O   0  0  0  0  0  0  0  0  0  0  0  0
    9.3000   -0.8820    2.8390 C   0  0  0  0  0  0  0  0  0  0  0  0
   10.0270   -0.6140    4.0030 C   0  0  0  0  0  3  0  0  0  0  0  0
   10.3470    0.7050    4.3270 C   0  0  0  0  0  3  0  0  0  0  0  0
    9.9260    1.7440    3.4940 C   0  0  0  0  0  0  0  0  0  0  0  0
   10.3250    3.3700    3.8960 Cl  0  0  0  0  0  0  0  0  0  0  0  0
    9.1770    1.4790    2.3470 C   0  0  0  0  0  3  0  0  0  0  0  0
    8.8550    0.1600    2.0210 C   0  0  0  0  0  3  0  0  0  0  0  0
    8.9910   -4.1330    0.8460 C   0  0  2  0  0  3  0  0  0  0  0  0
   10.7600   -4.8810   -0.6260 O   0  0  0  0  0  1  0  0  0  0  0  0
    9.5310   -4.5730   -0.5660 C   0  0  0  0  0  0  0  0  0  0  0  0
    8.6560   -4.6760   -1.4780 O   0  0  0  0  0  0  0  0  0  0  0  0
    7.4480   -4.1680    0.8340 C   0  0  0  0  0  2  0  0  0  0  0  0
    6.8530   -5.4520    1.3790 C   0  0  0  0  0  0  0  0  0  0  0  0
    5.6200   -5.4370    2.0450 C   0  0  0  0  0  3  0  0  0  0  0  0
    5.0630   -6.6240    2.5240 C   0  0  0  0  0  3  0  0  0  0  0  0
    5.7330   -7.8330    2.3410 C   0  0  0  0  0  3  0  0  0  0  0  0
    6.9600   -7.8570    1.6810 C   0  0  0  0  0  3  0  0  0  0  0  0
    7.5180   -6.6720    1.2020 C   0  0  0  0  0  3  0  0  0  0  0  0
   10.8410   -2.3970    0.8440 C   0  0  0  0  0  2  0  0  0  0  0  0
   10.8180   -1.4030   -0.2980 C   0  0  0  0  0  0  0  0  0  0  0  0
   10.6770   -1.7640   -1.6410 C   0  0  0  0  0  3  0  0  0  0  0  0
   10.6400   -0.7970   -2.6510 C   0  0  0  0  0  3  0  0  0  0  0  0
   10.7320    0.5550   -2.3300 C   0  0  0  0  0  3  0  0  0  0  0  0
   10.8600    0.9310   -0.9970 C   0  0  0  0  0  0  0  0  0  0  0  0
   10.9780    2.7650   -0.5480 Br  0  0  0  0  0  0  0  0  0  0  0  0
   10.9020   -0.0320    0.0120 C   0  0  0  0  0  3  0  0  0  0  0  0
  1  2  1  0  0  0  0
  2  4  1  0  0  0  0
  2  3  2  0  0  0  0
  4  5  1  0  0  0  0
  5  6  2  0  0  0  0
  7  8  1  0  0  0  0
  7  6  1  0  0  0  0
  9  7  2  0  0  0  0
 10  9  1  0  0  0  0
 10  4  2  0  0  0  0
 11 15  1  6  0  0  0
 11  1  1  0  0  0  0
 12 13  1  0  0  0  0
 13 11  1  0  0  0  0
 14 13  2  0  0  0  0
 15 16  1  0  0  0  0
 16 17  1  0  0  0  0
 17 18  2  0  0  0  0
 19 18  1  0  0  0  0
 20 19  2  0  0  0  0
 21 16  2  0  0  0  0
 21 20  1  0  0  0  0
 22  1  1  0  0  0  0
 23 29  1  0  0  0  0
 23 22  1  0  0  0  0
 24 23  2  0  0  0  0
 25 26  2  0  0  0  0
 25 24  1  0  0  0  0
 26 27  1  0  0  0  0
 27 28  1  0  0  0  0
 27 29  2  0  0  0  0
M  END
>  <minimizedAffinity>
-3.15987253

$$$$
