
 OpenBabel09122222393D

 29 31  0  0  1  0  0  0  0  0999 V2000
    8.9620   -1.1180    2.7000 N   0  0  0  0  0  0  0  0  0  0  0  0
    9.8520   -0.6800    3.6800 C   0  0  0  0  0  0  0  0  0  0  0  0
   10.4860   -1.4050    4.4420 O   0  0  0  0  0  0  0  0  0  0  0  0
   10.1110    0.7700    3.7870 C   0  0  0  0  0  0  0  0  0  0  0  0
    9.7750    1.6070    2.7190 C   0  0  0  0  0  3  0  0  0  0  0  0
   10.0220    2.9770    2.8110 C   0  0  0  0  0  3  0  0  0  0  0  0
   10.6170    3.4970    3.9640 C   0  0  0  0  0  0  0  0  0  0  0  0
   10.9190    5.1880    4.0760 Cl  0  0  0  0  0  0  0  0  0  0  0  0
   10.9780    2.6580    5.0200 C   0  0  0  0  0  3  0  0  0  0  0  0
   10.7320    1.2870    4.9290 C   0  0  0  0  0  3  0  0  0  0  0  0
    8.4390   -2.5220    2.7860 C   0  0  2  0  0  3  0  0  0  0  0  0
    7.5180   -3.0650    4.9580 O   0  0  0  0  0  1  0  0  0  0  0  0
    8.5330   -3.1950    4.2070 C   0  0  0  0  0  0  0  0  0  0  0  0
    9.5730   -3.8890    4.4150 O   0  0  0  0  0  0  0  0  0  0  0  0
    9.0430   -3.4740    1.7320 C   0  0  0  0  0  2  0  0  0  0  0  0
    8.0320   -4.4030    1.0870 C   0  0  0  0  0  0  0  0  0  0  0  0
    6.9090   -4.8370    1.8010 C   0  0  0  0  0  3  0  0  0  0  0  0
    5.9680   -5.6730    1.1970 C   0  0  0  0  0  3  0  0  0  0  0  0
    6.1430   -6.0800   -0.1250 C   0  0  0  0  0  3  0  0  0  0  0  0
    7.2590   -5.6540   -0.8430 C   0  0  0  0  0  3  0  0  0  0  0  0
    8.2000   -4.8190   -0.2410 C   0  0  0  0  0  3  0  0  0  0  0  0
    8.6780   -0.3590    1.4810 C   0  0  0  0  0  2  0  0  0  0  0  0
    9.6530   -0.4700    0.3270 C   0  0  0  0  0  0  0  0  0  0  0  0
   10.0880    0.6210   -0.4310 C   0  0  0  0  0  3  0  0  0  0  0  0
   11.0090    0.4580   -1.4710 C   0  0  0  0  0  3  0  0  0  0  0  0
   11.5210   -0.8040   -1.7620 C   0  0  0  0  0  3  0  0  0  0  0  0
   11.1080   -1.8970   -1.0080 C   0  0  0  0  0  0  0  0  0  0  0  0
   11.8030   -3.6140   -1.3890 Br  0  0  0  0  0  0  0  0  0  0  0  0
   10.1860   -1.7380    0.0270 C   0  0  0  0  0  3  0  0  0  0  0  0
  1 11  1  0  0  0  0
  1  2  1  0  0  0  0
  2  4  1  0  0  0  0
  2  3  2  0  0  0  0
  4 10  1  0  0  0  0
  5  6  1  0  0  0  0
  5  4  2  0  0  0  0
  6  7  2  0  0  0  0
  7  8  1  0  0  0  0
  7  9  1  0  0  0  0
 10  9  2  0  0  0  0
 11 15  1  6  0  0  0
 11 13  1  0  0  0  0
 13 14  2  0  0  0  0
 13 12  1  0  0  0  0
 16 15  1  0  0  0  0
 16 17  1  0  0  0  0
 18 17  2  0  0  0  0
 19 18  1  0  0  0  0
 20 21  1  0  0  0  0
 20 19  2  0  0  0  0
 21 16  2  0  0  0  0
 22  1  1  0  0  0  0
 23 22  1  0  0  0  0
 24 23  2  0  0  0  0
 25 24  1  0  0  0  0
 26 25  2  0  0  0  0
 26 27  1  0  0  0  0
 27 29  2  0  0  0  0
 28 27  1  0  0  0  0
 29 23  1  0  0  0  0
M  END
>  <minimizedAffinity>
-3.34205031

$$$$
