
 OpenBabel09082221123D

 43 48  0  0  0  0  0  0  0  0999 V2000
    6.5550   -5.4260    0.3590 C   0  0  0  0  0  0  0  0  0  0  0  0
    5.5330   -4.5160    0.1200 C   0  0  0  0  0  3  0  0  0  0  0  0
    4.9850   -4.3990   -1.1610 C   0  0  0  0  0  3  0  0  0  0  0  0
    5.4290   -5.1970   -2.2300 C   0  0  0  0  0  0  0  0  0  0  0  0
    6.5160   -6.0760   -2.0020 C   0  0  0  0  0  0  0  0  0  0  0  0
    7.0420   -6.1940   -0.7010 C   0  0  0  0  0  3  0  0  0  0  0  0
    7.1670   -6.8990   -3.0440 C   0  0  0  0  0  3  0  0  0  0  0  0
    7.3330   -6.4830   -4.3120 C   0  0  0  0  0  0  0  0  0  0  0  0
    6.9590   -5.0970   -4.7620 C   0  0  0  0  0  2  0  0  0  0  0  0
    5.5100   -4.9400   -4.7190 N   0  0  0  0  0  0  0  0  0  0  0  0
    4.7760   -5.0310   -3.5540 C   0  0  0  0  0  0  0  0  0  0  0  0
    3.4220   -4.9860   -3.9220 C   0  0  0  0  0  0  0  0  0  0  0  0
    3.3830   -4.6900   -5.3380 C   0  0  0  0  0  0  0  0  0  0  0  0
    2.3640   -4.4180   -6.2860 C   0  0  0  0  0  3  0  0  0  0  0  0
    2.6680   -4.2380   -7.6420 C   0  0  0  0  0  3  0  0  0  0  0  0
    3.9780   -4.3770   -8.0790 C   0  0  0  0  0  0  0  0  0  0  0  0
    5.0190   -4.6070   -7.1740 C   0  0  0  0  0  3  0  0  0  0  0  0
    4.6990   -4.7370   -5.8100 C   0  0  0  0  0  0  0  0  0  0  0  0
    4.2910   -4.2490   -9.5140 C   0  0  0  0  0  0  0  0  0  0  0  0
    4.0380   -3.2320  -10.1380 O   0  0  0  0  0  0  0  0  0  0  0  0
    5.0200   -5.3060  -10.0990 N   0  0  0  0  0  0  0  0  0  0  0  0
    4.3330   -6.8170  -10.2980 S   0  0  0  0  0  0  0  0  0  0  0  0
    2.9050   -6.6480  -10.4280 O   0  0  0  0  0  0  0  0  0  0  0  0
    5.1060   -7.4510  -11.3410 O   0  0  0  0  0  0  0  0  0  0  0  0
    4.6660   -7.5820   -8.8630 N   0  0  0  0  0  0  0  0  0  0  0  0
    3.6300   -7.7380   -7.8380 C   0  0  0  0  0  1  0  0  0  0  0  0
    6.0400   -7.9910   -8.5160 C   0  0  0  0  0  2  0  0  0  0  0  0
    6.0500   -9.4630   -8.1010 C   0  0  0  0  0  2  0  0  0  0  0  0
    7.4130  -10.0530   -7.7320 C   0  0  0  0  0  2  0  0  0  0  0  0
    8.2960   -9.2570   -6.7610 C   0  0  0  0  0  2  0  0  0  0  0  0
    7.6160   -8.5810   -5.6500 N   0  0  0  0  0  0  0  0  0  0  0  0
    6.7400   -9.3780   -4.7990 C   0  0  0  0  0  1  0  0  0  0  0  0
    8.0260   -7.2800   -5.3640 C   0  0  0  0  0  0  0  0  0  0  0  0
    8.8900   -6.6990   -6.0230 O   0  0  0  0  0  0  0  0  0  0  0  0
    5.3080   -5.0240  -11.0360 H   0  0  0  0  0  0  0  0  0  0  0  0
    2.2650   -5.2750   -2.9730 C   0  0  0  0  0  3  0  0  0  0  0  0
    1.3200   -4.1070   -2.6670 C   0  0  0  0  0  2  0  0  0  0  0  0
    0.2740   -4.5010   -1.6230 C   0  0  0  0  0  2  0  0  0  0  0  0
   -0.5320   -5.7130   -2.0830 C   0  0  0  0  0  2  0  0  0  0  0  0
    0.3700   -6.8850   -2.4570 C   0  0  0  0  0  2  0  0  0  0  0  0
    1.4440   -6.4840   -3.4680 C   0  0  0  0  0  2  0  0  0  0  0  0
    7.5330   -6.9900    1.8580 C   0  0  0  0  0  1  0  0  0  0  0  0
    7.1740   -5.6470    1.5570 O   0  0  0  0  0  0  0  0  0  0  0  0
  1 43  1  0  0  0  0
  2  1  1  0  0  0  0
  3  2  2  0  0  0  0
  4  5  2  0  0  0  0
  4  3  1  0  0  0  0
  5  6  1  0  0  0  0
  6  1  2  0  0  0  0
  7  5  1  0  0  0  0
  8  7  2  0  0  0  0
  9 10  1  0  0  0  0
  9  8  1  0  0  0  0
 10 11  1  0  0  0  0
 11  4  1  0  0  0  0
 12 11  2  0  0  0  0
 12 36  1  0  0  0  0
 13 12  1  0  0  0  0
 14 13  2  0  0  0  0
 15 14  1  0  0  0  0
 16 15  2  0  0  0  0
 16 17  1  0  0  0  0
 17 18  2  0  0  0  0
 18 13  1  0  0  0  0
 18 10  1  0  0  0  0
 19 16  1  0  0  0  0
 20 19  2  0  0  0  0
 21 19  1  0  0  0  0
 22 21  1  0  0  0  0
 22 25  1  0  0  0  0
 23 22  2  0  0  0  0
 24 22  2  0  0  0  0
 25 27  1  0  0  0  0
 25 26  1  0  0  0  0
 27 28  1  0  0  0  0
 28 29  1  0  0  0  0
 29 30  1  0  0  0  0
 30 31  1  0  0  0  0
 31 33  1  0  0  0  0
 31 32  1  0  0  0  0
 33  8  1  0  0  0  0
 34 33  2  0  0  0  0
 35 21  1  0  0  0  0
 36 37  1  0  0  0  0
 37 38  1  0  0  0  0
 39 38  1  0  0  0  0
 40 39  1  0  0  0  0
 41 36  1  0  0  0  0
 41 40  1  0  0  0  0
 43 42  1  0  0  0  0
M  END
>  <minimizedAffinity>
-5.13904762

$$$$

 OpenBabel09082221123D

 43 48  0  0  0  0  0  0  0  0999 V2000
    5.4140   -4.0880    0.1510 C   0  0  0  0  0  0  0  0  0  0  0  0
    4.3030   -3.4200   -0.3470 C   0  0  0  0  0  3  0  0  0  0  0  0
    3.9110   -3.6070   -1.6760 C   0  0  0  0  0  3  0  0  0  0  0  0
    4.6050   -4.4770   -2.5360 C   0  0  0  0  0  0  0  0  0  0  0  0
    5.7760   -5.1060   -2.0470 C   0  0  0  0  0  0  0  0  0  0  0  0
    6.1440   -4.9210   -0.7010 C   0  0  0  0  0  3  0  0  0  0  0  0
    6.6730   -5.9610   -2.8550 C   0  0  0  0  0  3  0  0  0  0  0  0
    6.9320   -5.7310   -4.1550 C   0  0  0  0  0  0  0  0  0  0  0  0
    6.4100   -4.5210   -4.8810 C   0  0  0  0  0  2  0  0  0  0  0  0
    4.9610   -4.6130   -5.0100 N   0  0  0  0  0  0  0  0  0  0  0  0
    4.1070   -4.6420   -3.9250 C   0  0  0  0  0  0  0  0  0  0  0  0
    2.8200   -4.8920   -4.4270 C   0  0  0  0  0  0  0  0  0  0  0  0
    2.9170   -4.8380   -5.8710 C   0  0  0  0  0  0  0  0  0  0  0  0
    1.9970   -4.9030   -6.9480 C   0  0  0  0  0  3  0  0  0  0  0  0
    2.4390   -4.8930   -8.2780 C   0  0  0  0  0  3  0  0  0  0  0  0
    3.7990   -4.8710   -8.5510 C   0  0  0  0  0  0  0  0  0  0  0  0
    4.7400   -4.7690   -7.5210 C   0  0  0  0  0  3  0  0  0  0  0  0
    4.2730   -4.7310   -6.1940 C   0  0  0  0  0  0  0  0  0  0  0  0
    4.2690   -4.9230   -9.9470 C   0  0  0  0  0  0  0  0  0  0  0  0
    3.9430   -4.0790  -10.7660 O   0  0  0  0  0  0  0  0  0  0  0  0
    5.2200   -5.9170  -10.2580 N   0  0  0  0  0  0  0  0  0  0  0  0
    4.8040   -7.5370  -10.2500 S   0  0  0  0  0  0  0  0  0  0  0  0
    3.3960   -7.6400  -10.5480 O   0  0  0  0  0  0  0  0  0  0  0  0
    5.7920   -8.1860  -11.0810 O   0  0  0  0  0  0  0  0  0  0  0  0
    5.0670   -7.9920   -8.6760 N   0  0  0  0  0  0  0  0  0  0  0  0
    3.9450   -8.1590   -7.7470 C   0  0  0  0  0  1  0  0  0  0  0  0
    6.4310   -8.0950   -8.1270 C   0  0  0  0  0  2  0  0  0  0  0  0
    6.6150   -9.4570   -7.4550 C   0  0  0  0  0  2  0  0  0  0  0  0
    7.9940   -9.7350   -6.8540 C   0  0  0  0  0  2  0  0  0  0  0  0
    8.6140   -8.6530   -5.9590 C   0  0  0  0  0  2  0  0  0  0  0  0
    7.7030   -7.9350   -5.0600 N   0  0  0  0  0  0  0  0  0  0  0  0
    6.8590   -8.7250   -4.1710 C   0  0  0  0  0  1  0  0  0  0  0  0
    7.8670   -6.5540   -4.9730 C   0  0  0  0  0  0  0  0  0  0  0  0
    8.7090   -5.9460   -5.6370 O   0  0  0  0  0  0  0  0  0  0  0  0
    5.5780   -5.7440  -11.1970 H   0  0  0  0  0  0  0  0  0  0  0  0
    1.6100   -5.2200   -3.5610 C   0  0  0  0  0  3  0  0  0  0  0  0
    0.4320   -4.2420   -3.6290 C   0  0  0  0  0  2  0  0  0  0  0  0
   -0.6640   -4.6290   -2.6340 C   0  0  0  0  0  2  0  0  0  0  0  0
   -1.1570   -6.0520   -2.8850 C   0  0  0  0  0  2  0  0  0  0  0  0
   -0.0090   -7.0560   -2.8870 C   0  0  0  0  0  2  0  0  0  0  0  0
    1.1080   -6.6510   -3.8480 C   0  0  0  0  0  2  0  0  0  0  0  0
    6.8700   -2.9920    1.6770 C   0  0  0  0  0  1  0  0  0  0  0  0
    5.9030   -4.0040    1.4250 O   0  0  0  0  0  0  0  0  0  0  0  0
  1 43  1  0  0  0  0
  2  1  1  0  0  0  0
  3  2  2  0  0  0  0
  4  5  2  0  0  0  0
  4  3  1  0  0  0  0
  5  6  1  0  0  0  0
  6  1  2  0  0  0  0
  7  5  1  0  0  0  0
  8  7  2  0  0  0  0
  9  8  1  0  0  0  0
 10  9  1  0  0  0  0
 10 11  1  0  0  0  0
 11  4  1  0  0  0  0
 12 11  2  0  0  0  0
 12 36  1  0  0  0  0
 13 12  1  0  0  0  0
 14 13  2  0  0  0  0
 15 14  1  0  0  0  0
 16 15  2  0  0  0  0
 16 17  1  0  0  0  0
 17 18  2  0  0  0  0
 18 13  1  0  0  0  0
 18 10  1  0  0  0  0
 19 16  1  0  0  0  0
 20 19  2  0  0  0  0
 21 22  1  0  0  0  0
 21 19  1  0  0  0  0
 22 25  1  0  0  0  0
 23 22  2  0  0  0  0
 24 22  2  0  0  0  0
 25 27  1  0  0  0  0
 25 26  1  0  0  0  0
 27 28  1  0  0  0  0
 28 29  1  0  0  0  0
 29 30  1  0  0  0  0
 30 31  1  0  0  0  0
 31 33  1  0  0  0  0
 31 32  1  0  0  0  0
 33  8  1  0  0  0  0
 34 33  2  0  0  0  0
 35 21  1  0  0  0  0
 37 36  1  0  0  0  0
 37 38  1  0  0  0  0
 39 38  1  0  0  0  0
 40 39  1  0  0  0  0
 41 36  1  0  0  0  0
 41 40  1  0  0  0  0
 43 42  1  0  0  0  0
M  END
>  <minimizedAffinity>
-5.12668037

$$$$

 OpenBabel09082221123D

 43 48  0  0  0  0  0  0  0  0999 V2000
    6.8940   -5.9110    0.4290 C   0  0  0  0  0  0  0  0  0  0  0  0
    6.0490   -4.9610    0.9880 C   0  0  0  0  0  3  0  0  0  0  0  0
    5.0840   -4.3300    0.1970 C   0  0  0  0  0  3  0  0  0  0  0  0
    4.9260   -4.6410   -1.1650 C   0  0  0  0  0  0  0  0  0  0  0  0
    5.8300   -5.5610   -1.7500 C   0  0  0  0  0  0  0  0  0  0  0  0
    6.7830   -6.2000   -0.9340 C   0  0  0  0  0  3  0  0  0  0  0  0
    5.8650   -5.9110   -3.1860 C   0  0  0  0  0  3  0  0  0  0  0  0
    5.6060   -5.0250   -4.1650 C   0  0  0  0  0  0  0  0  0  0  0  0
    5.3560   -3.5680   -3.8890 C   0  0  0  0  0  2  0  0  0  0  0  0
    4.0930   -3.4120   -3.1800 N   0  0  0  0  0  0  0  0  0  0  0  0
    3.8580   -3.9460   -1.9290 C   0  0  0  0  0  0  0  0  0  0  0  0
    2.5010   -3.7300   -1.6420 C   0  0  0  0  0  0  0  0  0  0  0  0
    1.9790   -2.8910   -2.6990 C   0  0  0  0  0  0  0  0  0  0  0  0
    0.7450   -2.2420   -2.9570 C   0  0  0  0  0  3  0  0  0  0  0  0
    0.5330   -1.5400   -4.1510 C   0  0  0  0  0  3  0  0  0  0  0  0
    1.5240   -1.5190   -5.1230 C   0  0  0  0  0  0  0  0  0  0  0  0
    2.7690   -2.1140   -4.8950 C   0  0  0  0  0  3  0  0  0  0  0  0
    2.9790   -2.7720   -3.6700 C   0  0  0  0  0  0  0  0  0  0  0  0
    1.2810   -0.8340   -6.4050 C   0  0  0  0  0  0  0  0  0  0  0  0
    1.0030    0.3530   -6.4560 O   0  0  0  0  0  0  0  0  0  0  0  0
    1.5170   -1.5830   -7.5770 N   0  0  0  0  0  0  0  0  0  0  0  0
    0.5350   -2.8740   -7.9850 S   0  0  0  0  0  0  0  0  0  0  0  0
   -0.7730   -2.6370   -7.4240 O   0  0  0  0  0  0  0  0  0  0  0  0
    0.7160   -3.0520   -9.4070 O   0  0  0  0  0  0  0  0  0  0  0  0
    1.2430   -4.1550   -7.2040 N   0  0  0  0  0  0  0  0  0  0  0  0
    0.6700   -4.6880   -5.9640 C   0  0  0  0  0  1  0  0  0  0  0  0
    2.5420   -4.6970   -7.6460 C   0  0  0  0  0  2  0  0  0  0  0  0
    2.4340   -6.2120   -7.8260 C   0  0  0  0  0  2  0  0  0  0  0  0
    3.6970   -6.9290   -8.3090 C   0  0  0  0  0  2  0  0  0  0  0  0
    5.0170   -6.6060   -7.5960 C   0  0  0  0  0  2  0  0  0  0  0  0
    4.9560   -6.4170   -6.1420 N   0  0  0  0  0  0  0  0  0  0  0  0
    4.3400   -7.4700   -5.3430 C   0  0  0  0  0  1  0  0  0  0  0  0
    5.6800   -5.3490   -5.6180 C   0  0  0  0  0  0  0  0  0  0  0  0
    6.3180   -4.5710   -6.3300 O   0  0  0  0  0  0  0  0  0  0  0  0
    1.4710   -0.9560   -8.3800 H   0  0  0  0  0  0  0  0  0  0  0  0
    1.7650   -4.3510   -0.4600 C   0  0  0  0  0  3  0  0  0  0  0  0
    1.1740   -3.3790    0.5670 C   0  0  0  0  0  2  0  0  0  0  0  0
    0.5610   -4.1310    1.7500 C   0  0  0  0  0  2  0  0  0  0  0  0
   -0.5150   -5.1080    1.2830 C   0  0  0  0  0  2  0  0  0  0  0  0
    0.0110   -6.0600    0.2120 C   0  0  0  0  0  2  0  0  0  0  0  0
    0.6630   -5.3130   -0.9510 C   0  0  0  0  0  2  0  0  0  0  0  0
    8.4020   -7.7490    0.4220 C   0  0  0  0  0  1  0  0  0  0  0  0
    7.8720   -6.6060    1.0830 O   0  0  0  0  0  0  0  0  0  0  0  0
  1  2  1  0  0  0  0
  1 43  1  0  0  0  0
  3  2  2  0  0  0  0
  4  3  1  0  0  0  0
  5  4  2  0  0  0  0
  5  6  1  0  0  0  0
  6  1  2  0  0  0  0
  7  5  1  0  0  0  0
  8  9  1  0  0  0  0
  8  7  2  0  0  0  0
  9 10  1  0  0  0  0
 10 11  1  0  0  0  0
 11 12  2  0  0  0  0
 11  4  1  0  0  0  0
 12 36  1  0  0  0  0
 13 12  1  0  0  0  0
 14 13  1  0  0  0  0
 15 14  2  0  0  0  0
 16 17  2  0  0  0  0
 16 15  1  0  0  0  0
 17 18  1  0  0  0  0
 18 10  1  0  0  0  0
 18 13  2  0  0  0  0
 19 16  1  0  0  0  0
 20 19  2  0  0  0  0
 21 19  1  0  0  0  0
 22 21  1  0  0  0  0
 22 23  2  0  0  0  0
 22 25  1  0  0  0  0
 24 22  2  0  0  0  0
 25 26  1  0  0  0  0
 27 25  1  0  0  0  0
 28 27  1  0  0  0  0
 29 28  1  0  0  0  0
 29 30  1  0  0  0  0
 30 31  1  0  0  0  0
 31 33  1  0  0  0  0
 31 32  1  0  0  0  0
 33  8  1  0  0  0  0
 34 33  2  0  0  0  0
 35 21  1  0  0  0  0
 36 37  1  0  0  0  0
 37 38  1  0  0  0  0
 39 38  1  0  0  0  0
 40 39  1  0  0  0  0
 41 36  1  0  0  0  0
 41 40  1  0  0  0  0
 42 43  1  0  0  0  0
M  END
>  <minimizedAffinity>
-4.8451705

$$$$

 OpenBabel09082221123D

 43 48  0  0  0  0  0  0  0  0999 V2000
    8.6560   -6.9430   -6.0690 C   0  0  0  0  0  0  0  0  0  0  0  0
    8.6690   -5.7740   -5.3190 C   0  0  0  0  0  3  0  0  0  0  0  0
    7.4820   -5.0620   -5.1140 C   0  0  0  0  0  3  0  0  0  0  0  0
    6.2550   -5.5040   -5.6360 C   0  0  0  0  0  0  0  0  0  0  0  0
    6.2540   -6.6590   -6.4550 C   0  0  0  0  0  0  0  0  0  0  0  0
    7.4540   -7.3740   -6.6350 C   0  0  0  0  0  3  0  0  0  0  0  0
    5.0690   -7.1890   -7.1630 C   0  0  0  0  0  3  0  0  0  0  0  0
    4.1160   -6.4010   -7.6930 C   0  0  0  0  0  0  0  0  0  0  0  0
    4.2210   -4.9010   -7.7000 C   0  0  0  0  0  2  0  0  0  0  0  0
    4.1230   -4.3950   -6.3360 N   0  0  0  0  0  0  0  0  0  0  0  0
    5.0360   -4.7050   -5.3490 C   0  0  0  0  0  0  0  0  0  0  0  0
    4.5340   -4.1750   -4.1490 C   0  0  0  0  0  0  0  0  0  0  0  0
    3.3700   -3.3870   -4.4950 C   0  0  0  0  0  0  0  0  0  0  0  0
    2.4840   -2.5330   -3.7920 C   0  0  0  0  0  3  0  0  0  0  0  0
    1.3740   -1.9600   -4.4290 C   0  0  0  0  0  3  0  0  0  0  0  0
    1.1050   -2.2710   -5.7550 C   0  0  0  0  0  0  0  0  0  0  0  0
    1.9730   -3.0780   -6.4960 C   0  0  0  0  0  3  0  0  0  0  0  0
    3.1080   -3.6050   -5.8520 C   0  0  0  0  0  0  0  0  0  0  0  0
   -0.0950   -1.7190   -6.4100 C   0  0  0  0  0  0  0  0  0  0  0  0
   -0.2800   -0.5170   -6.5020 O   0  0  0  0  0  0  0  0  0  0  0  0
   -0.9520   -2.6440   -7.0420 N   0  0  0  0  0  0  0  0  0  0  0  0
   -1.8410   -3.7430   -6.1490 S   0  0  0  0  0  0  0  0  0  0  0  0
   -2.0880   -3.1690   -4.8480 O   0  0  0  0  0  0  0  0  0  0  0  0
   -2.9330   -4.1350   -7.0100 O   0  0  0  0  0  0  0  0  0  0  0  0
   -0.8100   -5.0340   -5.9930 N   0  0  0  0  0  0  0  0  0  0  0  0
   -0.0920   -5.2720   -4.7370 C   0  0  0  0  0  1  0  0  0  0  0  0
   -0.4730   -5.8870   -7.1470 C   0  0  0  0  0  2  0  0  0  0  0  0
   -0.6940   -7.3560   -6.7850 C   0  0  0  0  0  2  0  0  0  0  0  0
   -0.4120   -8.3760   -7.8910 C   0  0  0  0  0  2  0  0  0  0  0  0
    0.9100   -8.2490   -8.6580 C   0  0  0  0  0  2  0  0  0  0  0  0
    2.0950   -7.8670   -7.8790 N   0  0  0  0  0  0  0  0  0  0  0  0
    2.4170   -8.6580   -6.6970 C   0  0  0  0  0  1  0  0  0  0  0  0
    2.9380   -6.9160   -8.4480 C   0  0  0  0  0  0  0  0  0  0  0  0
    2.6990   -6.3850   -9.5340 O   0  0  0  0  0  0  0  0  0  0  0  0
   -1.6430   -2.1290   -7.5860 H   0  0  0  0  0  0  0  0  0  0  0  0
    5.1130   -4.4720   -2.7710 C   0  0  0  0  0  3  0  0  0  0  0  0
    4.7760   -3.4770   -1.6560 C   0  0  0  0  0  2  0  0  0  0  0  0
    5.5060   -3.8320   -0.3590 C   0  0  0  0  0  2  0  0  0  0  0  0
    5.1660   -5.2510    0.0920 C   0  0  0  0  0  2  0  0  0  0  0  0
    5.4300   -6.2730   -1.0090 C   0  0  0  0  0  2  0  0  0  0  0  0
    4.7370   -5.8990   -2.3190 C   0  0  0  0  0  2  0  0  0  0  0  0
    9.6810   -8.5070   -7.5380 C   0  0  0  0  0  1  0  0  0  0  0  0
    9.7340   -7.7380   -6.3420 O   0  0  0  0  0  0  0  0  0  0  0  0
  1  2  1  0  0  0  0
  2  3  2  0  0  0  0
  4 11  1  0  0  0  0
  4  3  1  0  0  0  0
  5  4  2  0  0  0  0
  6  5  1  0  0  0  0
  6  1  2  0  0  0  0
  7  5  1  0  0  0  0
  8  7  2  0  0  0  0
  9  8  1  0  0  0  0
  9 10  1  0  0  0  0
 10 18  1  0  0  0  0
 10 11  1  0  0  0  0
 11 12  2  0  0  0  0
 12 36  1  0  0  0  0
 13 12  1  0  0  0  0
 13 14  1  0  0  0  0
 15 14  2  0  0  0  0
 16 15  1  0  0  0  0
 17 18  1  0  0  0  0
 17 16  2  0  0  0  0
 18 13  2  0  0  0  0
 19 16  1  0  0  0  0
 20 19  2  0  0  0  0
 21 19  1  0  0  0  0
 21 22  1  0  0  0  0
 22 25  1  0  0  0  0
 22 23  2  0  0  0  0
 24 22  2  0  0  0  0
 25 26  1  0  0  0  0
 27 28  1  0  0  0  0
 27 25  1  0  0  0  0
 29 28  1  0  0  0  0
 30 29  1  0  0  0  0
 30 31  1  0  0  0  0
 31 32  1  0  0  0  0
 33 31  1  0  0  0  0
 33  8  1  0  0  0  0
 34 33  2  0  0  0  0
 35 21  1  0  0  0  0
 36 41  1  0  0  0  0
 36 37  1  0  0  0  0
 37 38  1  0  0  0  0
 38 39  1  0  0  0  0
 40 39  1  0  0  0  0
 41 40  1  0  0  0  0
 42 43  1  0  0  0  0
 43  1  1  0  0  0  0
M  END
>  <minimizedAffinity>
-4.75077295

$$$$

 OpenBabel09082221123D

 43 48  0  0  0  0  0  0  0  0999 V2000
    2.4670   -3.9470  -10.3820 C   0  0  0  0  0  0  0  0  0  0  0  0
    3.8100   -4.1470  -10.0890 C   0  0  0  0  0  3  0  0  0  0  0  0
    4.2260   -4.2640   -8.7580 C   0  0  0  0  0  3  0  0  0  0  0  0
    3.3130   -4.2020   -7.6910 C   0  0  0  0  0  0  0  0  0  0  0  0
    1.9550   -3.9330   -7.9870 C   0  0  0  0  0  0  0  0  0  0  0  0
    1.5520   -3.8380   -9.3330 C   0  0  0  0  0  3  0  0  0  0  0  0
    0.8950   -3.7320   -6.9750 C   0  0  0  0  0  3  0  0  0  0  0  0
    1.1100   -3.1170   -5.7980 C   0  0  0  0  0  0  0  0  0  0  0  0
    2.4310   -2.4870   -5.4460 C   0  0  0  0  0  2  0  0  0  0  0  0
    3.4430   -3.5230   -5.2850 N   0  0  0  0  0  0  0  0  0  0  0  0
    3.8320   -4.3640   -6.3080 C   0  0  0  0  0  0  0  0  0  0  0  0
    4.6940   -5.3180   -5.7450 C   0  0  0  0  0  0  0  0  0  0  0  0
    4.9380   -4.9070   -4.3790 C   0  0  0  0  0  0  0  0  0  0  0  0
    5.7680   -5.3570   -3.3220 C   0  0  0  0  0  3  0  0  0  0  0  0
    5.7110   -4.7620   -2.0540 C   0  0  0  0  0  3  0  0  0  0  0  0
    4.7950   -3.7490   -1.8100 C   0  0  0  0  0  0  0  0  0  0  0  0
    3.9840   -3.2480   -2.8330 C   0  0  0  0  0  3  0  0  0  0  0  0
    4.0900   -3.8270   -4.1110 C   0  0  0  0  0  0  0  0  0  0  0  0
    4.6900   -3.1630   -0.4610 C   0  0  0  0  0  0  0  0  0  0  0  0
    5.6430   -2.6300    0.0830 O   0  0  0  0  0  0  0  0  0  0  0  0
    3.4030   -3.1270    0.1150 N   0  0  0  0  0  0  0  0  0  0  0  0
    2.6280   -4.5360    0.5760 S   0  0  0  0  0  0  0  0  0  0  0  0
    3.6350   -5.5160    0.9020 O   0  0  0  0  0  0  0  0  0  0  0  0
    1.6430   -4.1250    1.5500 O   0  0  0  0  0  0  0  0  0  0  0  0
    1.8330   -5.0040   -0.8040 N   0  0  0  0  0  0  0  0  0  0  0  0
    2.3540   -6.0920   -1.6360 C   0  0  0  0  0  1  0  0  0  0  0  0
    0.6710   -4.2500   -1.3100 C   0  0  0  0  0  2  0  0  0  0  0  0
   -0.4940   -5.2080   -1.5640 C   0  0  0  0  0  2  0  0  0  0  0  0
   -1.7920   -4.5760   -2.0710 C   0  0  0  0  0  2  0  0  0  0  0  0
   -1.6950   -3.5910   -3.2440 C   0  0  0  0  0  2  0  0  0  0  0  0
   -0.7330   -3.9150   -4.3040 N   0  0  0  0  0  0  0  0  0  0  0  0
   -0.8180   -5.2340   -4.9220 C   0  0  0  0  0  1  0  0  0  0  0  0
    0.0460   -2.8660   -4.7860 C   0  0  0  0  0  0  0  0  0  0  0  0
   -0.0310   -1.7230   -4.3310 O   0  0  0  0  0  0  0  0  0  0  0  0
    3.4400   -2.5600    0.9620 H   0  0  0  0  0  0  0  0  0  0  0  0
    5.1840   -6.5660   -6.4710 C   0  0  0  0  0  3  0  0  0  0  0  0
    6.7020   -6.7690   -6.5370 C   0  0  0  0  0  2  0  0  0  0  0  0
    7.0580   -7.9930   -7.3820 C   0  0  0  0  0  2  0  0  0  0  0  0
    6.3900   -9.2520   -6.8360 C   0  0  0  0  0  2  0  0  0  0  0  0
    4.8810   -9.0770   -6.6960 C   0  0  0  0  0  2  0  0  0  0  0  0
    4.5200   -7.8300   -5.8880 C   0  0  0  0  0  2  0  0  0  0  0  0
    1.1380   -2.6640  -11.8780 C   0  0  0  0  0  1  0  0  0  0  0  0
    1.9240   -3.8230  -11.6300 O   0  0  0  0  0  0  0  0  0  0  0  0
  1  2  2  0  0  0  0
  1  6  1  0  0  0  0
  2  3  1  0  0  0  0
  3  4  2  0  0  0  0
  4 11  1  0  0  0  0
  5  4  1  0  0  0  0
  5  7  1  0  0  0  0
  6  5  2  0  0  0  0
  7  8  2  0  0  0  0
  8  9  1  0  0  0  0
  8 33  1  0  0  0  0
  9 10  1  0  0  0  0
 10 18  1  0  0  0  0
 11 12  2  0  0  0  0
 11 10  1  0  0  0  0
 12 13  1  0  0  0  0
 13 18  2  0  0  0  0
 13 14  1  0  0  0  0
 14 15  2  0  0  0  0
 15 16  1  0  0  0  0
 16 19  1  0  0  0  0
 17 16  2  0  0  0  0
 18 17  1  0  0  0  0
 19 20  2  0  0  0  0
 19 21  1  0  0  0  0
 21 22  1  0  0  0  0
 21 35  1  0  0  0  0
 22 23  2  0  0  0  0
 22 24  2  0  0  0  0
 25 22  1  0  0  0  0
 26 25  1  0  0  0  0
 27 25  1  0  0  0  0
 28 27  1  0  0  0  0
 29 28  1  0  0  0  0
 30 29  1  0  0  0  0
 31 30  1  0  0  0  0
 32 31  1  0  0  0  0
 33 34  2  0  0  0  0
 33 31  1  0  0  0  0
 36 41  1  0  0  0  0
 36 12  1  0  0  0  0
 37 36  1  0  0  0  0
 38 39  1  0  0  0  0
 38 37  1  0  0  0  0
 39 40  1  0  0  0  0
 40 41  1  0  0  0  0
 42 43  1  0  0  0  0
 43  1  1  0  0  0  0
M  END
>  <minimizedAffinity>
-4.65915203

$$$$

 OpenBabel09082221123D

 43 48  0  0  0  0  0  0  0  0999 V2000
    0.0760   -0.9410   -4.8420 C   0  0  0  0  0  0  0  0  0  0  0  0
    0.4720   -1.2660   -6.1330 C   0  0  0  0  0  3  0  0  0  0  0  0
    1.4760   -2.2180   -6.3390 C   0  0  0  0  0  3  0  0  0  0  0  0
    2.0970   -2.8800   -5.2670 C   0  0  0  0  0  0  0  0  0  0  0  0
    1.7400   -2.5010   -3.9490 C   0  0  0  0  0  0  0  0  0  0  0  0
    0.7140   -1.5560   -3.7620 C   0  0  0  0  0  3  0  0  0  0  0  0
    2.3760   -3.0240   -2.7210 C   0  0  0  0  0  3  0  0  0  0  0  0
    3.6850   -3.3240   -2.6410 C   0  0  0  0  0  0  0  0  0  0  0  0
    4.6440   -3.0590   -3.7690 C   0  0  0  0  0  2  0  0  0  0  0  0
    4.3360   -3.9350   -4.8920 N   0  0  0  0  0  0  0  0  0  0  0  0
    3.1350   -3.8980   -5.5710 C   0  0  0  0  0  0  0  0  0  0  0  0
    3.1420   -4.9770   -6.4700 C   0  0  0  0  0  0  0  0  0  0  0  0
    4.4680   -5.5550   -6.4190 C   0  0  0  0  0  0  0  0  0  0  0  0
    5.1530   -6.5750   -7.1260 C   0  0  0  0  0  3  0  0  0  0  0  0
    6.4550   -6.9520   -6.7700 C   0  0  0  0  0  3  0  0  0  0  0  0
    7.0700   -6.3570   -5.6770 C   0  0  0  0  0  0  0  0  0  0  0  0
    6.4460   -5.3210   -4.9750 C   0  0  0  0  0  3  0  0  0  0  0  0
    5.1580   -4.9240   -5.3790 C   0  0  0  0  0  0  0  0  0  0  0  0
    8.4150   -6.7950   -5.2620 C   0  0  0  0  0  0  0  0  0  0  0  0
    9.3710   -6.7340   -6.0170 O   0  0  0  0  0  0  0  0  0  0  0  0
    8.5710   -7.1620   -3.9090 N   0  0  0  0  0  0  0  0  0  0  0  0
    7.8440   -8.5400   -3.3020 S   0  0  0  0  0  0  0  0  0  0  0  0
    7.6930   -9.4820   -4.3840 O   0  0  0  0  0  0  0  0  0  0  0  0
    8.6010   -8.8780   -2.1190 O   0  0  0  0  0  0  0  0  0  0  0  0
    6.3460   -8.0050   -2.8270 N   0  0  0  0  0  0  0  0  0  0  0  0
    5.1590   -8.2780   -3.6430 C   0  0  0  0  0  1  0  0  0  0  0  0
    6.1860   -7.1190   -1.6590 C   0  0  0  0  0  2  0  0  0  0  0  0
    5.1270   -7.6940   -0.7170 C   0  0  0  0  0  2  0  0  0  0  0  0
    4.8580   -6.9010    0.5640 C   0  0  0  0  0  2  0  0  0  0  0  0
    4.6370   -5.3890    0.4330 C   0  0  0  0  0  2  0  0  0  0  0  0
    3.8650   -4.9290   -0.7270 N   0  0  0  0  0  0  0  0  0  0  0  0
    2.5540   -5.5250   -0.9540 C   0  0  0  0  0  1  0  0  0  0  0  0
    4.3510   -3.8090   -1.3990 C   0  0  0  0  0  0  0  0  0  0  0  0
    5.3940   -3.2420   -1.0690 O   0  0  0  0  0  0  0  0  0  0  0  0
    9.5650   -7.2850   -3.7170 H   0  0  0  0  0  0  0  0  0  0  0  0
    1.9260   -5.4410   -7.2630 C   0  0  0  0  0  3  0  0  0  0  0  0
    2.0220   -5.3380   -8.7890 C   0  0  0  0  0  2  0  0  0  0  0  0
    0.7010   -5.7310   -9.4530 C   0  0  0  0  0  2  0  0  0  0  0  0
    0.2850   -7.1440   -9.0550 C   0  0  0  0  0  2  0  0  0  0  0  0
    0.2330   -7.3140   -7.5400 C   0  0  0  0  0  2  0  0  0  0  0  0
    1.5360   -6.8810   -6.8680 C   0  0  0  0  0  2  0  0  0  0  0  0
   -0.6190    0.8020   -3.3830 C   0  0  0  0  0  1  0  0  0  0  0  0
   -0.8910   -0.0400   -4.4970 O   0  0  0  0  0  0  0  0  0  0  0  0
  1 43  1  0  0  0  0
  1  6  1  0  0  0  0
  2  1  2  0  0  0  0
  3  2  1  0  0  0  0
  3  4  2  0  0  0  0
  4  5  1  0  0  0  0
  5  6  2  0  0  0  0
  5  7  1  0  0  0  0
  7  8  2  0  0  0  0
  8 33  1  0  0  0  0
  9  8  1  0  0  0  0
 10  9  1  0  0  0  0
 11  4  1  0  0  0  0
 11 10  1  0  0  0  0
 12 13  1  0  0  0  0
 12 11  2  0  0  0  0
 13 18  1  0  0  0  0
 14 15  1  0  0  0  0
 14 13  2  0  0  0  0
 15 16  2  0  0  0  0
 16 19  1  0  0  0  0
 16 17  1  0  0  0  0
 18 17  2  0  0  0  0
 18 10  1  0  0  0  0
 19 21  1  0  0  0  0
 20 19  2  0  0  0  0
 21 35  1  0  0  0  0
 21 22  1  0  0  0  0
 22 25  1  0  0  0  0
 22 24  2  0  0  0  0
 23 22  2  0  0  0  0
 25 27  1  0  0  0  0
 26 25  1  0  0  0  0
 27 28  1  0  0  0  0
 28 29  1  0  0  0  0
 30 29  1  0  0  0  0
 31 30  1  0  0  0  0
 32 31  1  0  0  0  0
 33 34  2  0  0  0  0
 33 31  1  0  0  0  0
 36 41  1  0  0  0  0
 36 12  1  0  0  0  0
 37 36  1  0  0  0  0
 38 39  1  0  0  0  0
 38 37  1  0  0  0  0
 39 40  1  0  0  0  0
 40 41  1  0  0  0  0
 43 42  1  0  0  0  0
M  END
>  <minimizedAffinity>
-4.64465284

$$$$

 OpenBabel09082221123D

 43 48  0  0  0  0  0  0  0  0999 V2000
    8.0520   -7.7030   -7.1420 C   0  0  0  0  0  0  0  0  0  0  0  0
    8.8950   -7.5480   -6.0490 C   0  0  0  0  0  3  0  0  0  0  0  0
    8.3980   -7.0240   -4.8510 C   0  0  0  0  0  3  0  0  0  0  0  0
    7.0480   -6.6590   -4.7070 C   0  0  0  0  0  0  0  0  0  0  0  0
    6.2050   -6.7560   -5.8420 C   0  0  0  0  0  0  0  0  0  0  0  0
    6.7180   -7.3030   -7.0330 C   0  0  0  0  0  3  0  0  0  0  0  0
    4.7950   -6.3130   -5.8830 C   0  0  0  0  0  3  0  0  0  0  0  0
    4.3440   -5.2320   -5.2210 C   0  0  0  0  0  0  0  0  0  0  0  0
    5.2590   -4.3150   -4.4550 C   0  0  0  0  0  2  0  0  0  0  0  0
    5.7970   -5.0140   -3.2950 N   0  0  0  0  0  0  0  0  0  0  0  0
    6.5940   -6.1370   -3.3930 C   0  0  0  0  0  0  0  0  0  0  0  0
    6.7840   -6.6170   -2.0870 C   0  0  0  0  0  0  0  0  0  0  0  0
    6.2110   -5.6330   -1.1930 C   0  0  0  0  0  0  0  0  0  0  0  0
    6.1530   -5.4580    0.2130 C   0  0  0  0  0  3  0  0  0  0  0  0
    5.4320   -4.3980    0.7800 C   0  0  0  0  0  3  0  0  0  0  0  0
    4.7190   -3.5340   -0.0390 C   0  0  0  0  0  0  0  0  0  0  0  0
    4.7790   -3.6470   -1.4310 C   0  0  0  0  0  3  0  0  0  0  0  0
    5.5480   -4.6880   -1.9830 C   0  0  0  0  0  0  0  0  0  0  0  0
    3.9110   -2.4560    0.5580 C   0  0  0  0  0  0  0  0  0  0  0  0
    4.4070   -1.6010    1.2740 O   0  0  0  0  0  0  0  0  0  0  0  0
    2.5610   -2.3810    0.1560 N   0  0  0  0  0  0  0  0  0  0  0  0
    1.4640   -3.5630    0.5980 S   0  0  0  0  0  0  0  0  0  0  0  0
    1.9070   -4.1430    1.8430 O   0  0  0  0  0  0  0  0  0  0  0  0
    0.1670   -2.9370    0.4860 O   0  0  0  0  0  0  0  0  0  0  0  0
    1.6060   -4.6890   -0.6130 N   0  0  0  0  0  0  0  0  0  0  0  0
    2.3530   -5.9320   -0.3980 C   0  0  0  0  0  1  0  0  0  0  0  0
    1.1170   -4.4120   -1.9760 C   0  0  0  0  0  2  0  0  0  0  0  0
    0.2150   -5.5550   -2.4430 C   0  0  0  0  0  2  0  0  0  0  0  0
   -0.3990   -5.4080   -3.8380 C   0  0  0  0  0  2  0  0  0  0  0  0
    0.5340   -5.0100   -4.9890 C   0  0  0  0  0  2  0  0  0  0  0  0
    1.8790   -5.5990   -4.9860 N   0  0  0  0  0  0  0  0  0  0  0  0
    1.9870   -7.0500   -4.8940 C   0  0  0  0  0  1  0  0  0  0  0  0
    2.9370   -4.7450   -5.2870 C   0  0  0  0  0  0  0  0  0  0  0  0
    2.7740   -3.5450   -5.5130 O   0  0  0  0  0  0  0  0  0  0  0  0
    2.1630   -1.5100    0.5080 H   0  0  0  0  0  0  0  0  0  0  0  0
    7.4180   -7.9610   -1.7510 C   0  0  0  0  0  3  0  0  0  0  0  0
    8.5970   -7.9370   -0.7700 C   0  0  0  0  0  2  0  0  0  0  0  0
    9.2060   -9.3310   -0.6060 C   0  0  0  0  0  2  0  0  0  0  0  0
    8.1590  -10.3360   -0.1340 C   0  0  0  0  0  2  0  0  0  0  0  0
    6.9370  -10.3530   -1.0470 C   0  0  0  0  0  2  0  0  0  0  0  0
    6.3510   -8.9550   -1.2490 C   0  0  0  0  0  2  0  0  0  0  0  0
    9.6200   -8.9340   -8.4370 C   0  0  0  0  0  1  0  0  0  0  0  0
    8.4000   -8.2050   -8.3650 O   0  0  0  0  0  0  0  0  0  0  0  0
  1  6  2  0  0  0  0
  1  2  1  0  0  0  0
  2  3  2  0  0  0  0
  3  4  1  0  0  0  0
  4 11  1  0  0  0  0
  5  4  2  0  0  0  0
  6  5  1  0  0  0  0
  7  5  1  0  0  0  0
  7  8  2  0  0  0  0
  8  9  1  0  0  0  0
  9 10  1  0  0  0  0
 10 18  1  0  0  0  0
 11 10  1  0  0  0  0
 11 12  2  0  0  0  0
 12 36  1  0  0  0  0
 12 13  1  0  0  0  0
 13 14  1  0  0  0  0
 14 15  2  0  0  0  0
 16 19  1  0  0  0  0
 16 15  1  0  0  0  0
 17 16  2  0  0  0  0
 18 17  1  0  0  0  0
 18 13  2  0  0  0  0
 19 20  2  0  0  0  0
 21 35  1  0  0  0  0
 21 19  1  0  0  0  0
 21 22  1  0  0  0  0
 22 23  2  0  0  0  0
 24 22  2  0  0  0  0
 25 26  1  0  0  0  0
 25 22  1  0  0  0  0
 27 25  1  0  0  0  0
 28 27  1  0  0  0  0
 29 28  1  0  0  0  0
 30 31  1  0  0  0  0
 30 29  1  0  0  0  0
 31 32  1  0  0  0  0
 33  8  1  0  0  0  0
 33 31  1  0  0  0  0
 34 33  2  0  0  0  0
 36 41  1  0  0  0  0
 36 37  1  0  0  0  0
 37 38  1  0  0  0  0
 38 39  1  0  0  0  0
 40 39  1  0  0  0  0
 41 40  1  0  0  0  0
 42 43  1  0  0  0  0
 43  1  1  0  0  0  0
M  END
>  <minimizedAffinity>
-4.63078737

$$$$

 OpenBabel09082221123D

 43 48  0  0  0  0  0  0  0  0999 V2000
    8.9380   -8.1720   -7.3340 C   0  0  0  0  0  0  0  0  0  0  0  0
    9.2690   -7.3850   -6.2380 C   0  0  0  0  0  3  0  0  0  0  0  0
    8.2910   -6.6000   -5.6200 C   0  0  0  0  0  3  0  0  0  0  0  0
    6.9580   -6.5920   -6.0660 C   0  0  0  0  0  0  0  0  0  0  0  0
    6.6360   -7.3440   -7.2230 C   0  0  0  0  0  0  0  0  0  0  0  0
    7.6290   -8.1430   -7.8200 C   0  0  0  0  0  3  0  0  0  0  0  0
    5.3100   -7.3550   -7.8780 C   0  0  0  0  0  3  0  0  0  0  0  0
    4.5160   -6.2710   -7.9500 C   0  0  0  0  0  0  0  0  0  0  0  0
    4.9520   -4.9190   -7.4550 C   0  0  0  0  0  2  0  0  0  0  0  0
    5.0760   -4.9430   -6.0030 N   0  0  0  0  0  0  0  0  0  0  0  0
    5.9740   -5.7520   -5.3370 C   0  0  0  0  0  0  0  0  0  0  0  0
    5.6990   -5.6220   -3.9660 C   0  0  0  0  0  0  0  0  0  0  0  0
    4.7150   -4.5690   -3.8350 C   0  0  0  0  0  0  0  0  0  0  0  0
    4.0990   -3.8910   -2.7530 C   0  0  0  0  0  3  0  0  0  0  0  0
    3.0970   -2.9360   -2.9750 C   0  0  0  0  0  3  0  0  0  0  0  0
    2.6610   -2.6830   -4.2680 C   0  0  0  0  0  0  0  0  0  0  0  0
    3.2670   -3.3000   -5.3660 C   0  0  0  0  0  3  0  0  0  0  0  0
    4.3040   -4.2200   -5.1260 C   0  0  0  0  0  0  0  0  0  0  0  0
    1.5650   -1.7240   -4.4990 C   0  0  0  0  0  0  0  0  0  0  0  0
    1.6440   -0.5600   -4.1420 O   0  0  0  0  0  0  0  0  0  0  0  0
    0.4770   -2.1820   -5.2700 N   0  0  0  0  0  0  0  0  0  0  0  0
   -0.5600   -3.3560   -4.6840 S   0  0  0  0  0  0  0  0  0  0  0  0
   -0.5690   -3.2680   -3.2440 O   0  0  0  0  0  0  0  0  0  0  0  0
   -1.7770   -3.2020   -5.4480 O   0  0  0  0  0  0  0  0  0  0  0  0
    0.1680   -4.7750   -5.1430 N   0  0  0  0  0  0  0  0  0  0  0  0
    0.9130   -5.5830   -4.1740 C   0  0  0  0  0  1  0  0  0  0  0  0
    0.2150   -5.1870   -6.5590 C   0  0  0  0  0  2  0  0  0  0  0  0
   -0.2980   -6.6210   -6.6950 C   0  0  0  0  0  2  0  0  0  0  0  0
   -0.3380   -7.1940   -8.1130 C   0  0  0  0  0  2  0  0  0  0  0  0
    0.9150   -7.0300   -8.9850 C   0  0  0  0  0  2  0  0  0  0  0  0
    2.2120   -7.1800   -8.3150 N   0  0  0  0  0  0  0  0  0  0  0  0
    2.4450   -8.3950   -7.5420 C   0  0  0  0  0  1  0  0  0  0  0  0
    3.1980   -6.2520   -8.6440 C   0  0  0  0  0  0  0  0  0  0  0  0
    2.9970   -5.3250   -9.4300 O   0  0  0  0  0  0  0  0  0  0  0  0
   -0.1250   -1.3890   -5.4900 H   0  0  0  0  0  0  0  0  0  0  0  0
    6.3060   -6.5050   -2.8820 C   0  0  0  0  0  3  0  0  0  0  0  0
    6.5200   -5.8560   -1.5090 C   0  0  0  0  0  2  0  0  0  0  0  0
    7.2320   -6.8140   -0.5520 C   0  0  0  0  0  2  0  0  0  0  0  0
    6.4510   -8.1160   -0.3940 C   0  0  0  0  0  2  0  0  0  0  0  0
    6.1610   -8.7690   -1.7410 C   0  0  0  0  0  2  0  0  0  0  0  0
    5.4880   -7.8020   -2.7160 C   0  0  0  0  0  2  0  0  0  0  0  0
    9.9990   -8.6820   -9.3990 C   0  0  0  0  0  1  0  0  0  0  0  0
    9.7880   -8.9890   -8.0270 O   0  0  0  0  0  0  0  0  0  0  0  0
  1  2  1  0  0  0  0
  2  3  2  0  0  0  0
  4  3  1  0  0  0  0
  4 11  1  0  0  0  0
  5  4  2  0  0  0  0
  6  1  2  0  0  0  0
  6  5  1  0  0  0  0
  7  5  1  0  0  0  0
  8  7  2  0  0  0  0
  8  9  1  0  0  0  0
  9 10  1  0  0  0  0
 10 11  1  0  0  0  0
 10 18  1  0  0  0  0
 11 12  2  0  0  0  0
 12 13  1  0  0  0  0
 12 36  1  0  0  0  0
 13 14  1  0  0  0  0
 15 14  2  0  0  0  0
 16 15  1  0  0  0  0
 17 18  1  0  0  0  0
 17 16  2  0  0  0  0
 18 13  2  0  0  0  0
 19 16  1  0  0  0  0
 19 20  2  0  0  0  0
 21 22  1  0  0  0  0
 21 19  1  0  0  0  0
 22 23  2  0  0  0  0
 24 22  2  0  0  0  0
 25 22  1  0  0  0  0
 25 26  1  0  0  0  0
 27 25  1  0  0  0  0
 28 27  1  0  0  0  0
 29 28  1  0  0  0  0
 30 31  1  0  0  0  0
 30 29  1  0  0  0  0
 31 32  1  0  0  0  0
 33 31  1  0  0  0  0
 33  8  1  0  0  0  0
 34 33  2  0  0  0  0
 35 21  1  0  0  0  0
 36 41  1  0  0  0  0
 36 37  1  0  0  0  0
 37 38  1  0  0  0  0
 38 39  1  0  0  0  0
 40 39  1  0  0  0  0
 41 40  1  0  0  0  0
 42 43  1  0  0  0  0
 43  1  1  0  0  0  0
M  END
>  <minimizedAffinity>
-4.62454891

$$$$

 OpenBabel09082221123D

 43 48  0  0  0  0  0  0  0  0999 V2000
    2.5470   -2.9060   -8.0650 C   0  0  0  0  0  0  0  0  0  0  0  0
    3.4210   -3.7530   -8.7340 C   0  0  0  0  0  3  0  0  0  0  0  0
    4.2030   -4.6620   -8.0130 C   0  0  0  0  0  3  0  0  0  0  0  0
    4.1200   -4.7610   -6.6140 C   0  0  0  0  0  0  0  0  0  0  0  0
    3.2790   -3.8520   -5.9280 C   0  0  0  0  0  0  0  0  0  0  0  0
    2.4850   -2.9570   -6.6700 C   0  0  0  0  0  3  0  0  0  0  0  0
    3.1640   -3.7560   -4.4560 C   0  0  0  0  0  3  0  0  0  0  0  0
    4.2040   -3.9430   -3.6240 C   0  0  0  0  0  0  0  0  0  0  0  0
    5.6060   -4.1710   -4.1230 C   0  0  0  0  0  2  0  0  0  0  0  0
    5.6860   -5.4630   -4.7910 N   0  0  0  0  0  0  0  0  0  0  0  0
    4.9640   -5.7720   -5.9260 C   0  0  0  0  0  0  0  0  0  0  0  0
    5.1750   -7.1360   -6.1840 C   0  0  0  0  0  0  0  0  0  0  0  0
    6.1910   -7.5850   -5.2560 C   0  0  0  0  0  0  0  0  0  0  0  0
    6.9130   -8.7880   -5.0530 C   0  0  0  0  0  3  0  0  0  0  0  0
    7.8050   -8.9230   -3.9800 C   0  0  0  0  0  3  0  0  0  0  0  0
    7.9500   -7.8860   -3.0700 C   0  0  0  0  0  0  0  0  0  0  0  0
    7.2870   -6.6680   -3.2530 C   0  0  0  0  0  3  0  0  0  0  0  0
    6.4320   -6.5350   -4.3630 C   0  0  0  0  0  0  0  0  0  0  0  0
    8.8410   -8.0480   -1.9070 C   0  0  0  0  0  0  0  0  0  0  0  0
   10.0290   -8.2930   -2.0380 O   0  0  0  0  0  0  0  0  0  0  0  0
    8.2840   -7.7740   -0.6410 N   0  0  0  0  0  0  0  0  0  0  0  0
    7.1080   -8.7660    0.0150 S   0  0  0  0  0  0  0  0  0  0  0  0
    7.2940  -10.0940   -0.5180 O   0  0  0  0  0  0  0  0  0  0  0  0
    7.1560   -8.5200    1.4380 O   0  0  0  0  0  0  0  0  0  0  0  0
    5.6960   -8.1290   -0.5770 N   0  0  0  0  0  0  0  0  0  0  0  0
    4.9890   -8.7760   -1.6870 C   0  0  0  0  0  1  0  0  0  0  0  0
    5.1900   -6.8240   -0.1110 C   0  0  0  0  0  2  0  0  0  0  0  0
    3.7280   -6.9610    0.3180 C   0  0  0  0  0  2  0  0  0  0  0  0
    3.0590   -5.6940    0.8550 C   0  0  0  0  0  2  0  0  0  0  0  0
    3.2190   -4.4030    0.0410 C   0  0  0  0  0  2  0  0  0  0  0  0
    3.1720   -4.5310   -1.4200 N   0  0  0  0  0  0  0  0  0  0  0  0
    2.0240   -5.2110   -2.0090 C   0  0  0  0  0  1  0  0  0  0  0  0
    4.1180   -3.8070   -2.1430 C   0  0  0  0  0  0  0  0  0  0  0  0
    4.9790   -3.1160   -1.5960 O   0  0  0  0  0  0  0  0  0  0  0  0
    9.0340   -7.7650    0.0510 H   0  0  0  0  0  0  0  0  0  0  0  0
    4.3960   -7.9440   -7.2150 C   0  0  0  0  0  3  0  0  0  0  0  0
    5.2020   -8.5260   -8.3830 C   0  0  0  0  0  2  0  0  0  0  0  0
    4.2860   -9.2170   -9.3940 C   0  0  0  0  0  2  0  0  0  0  0  0
    3.4670  -10.3210   -8.7300 C   0  0  0  0  0  2  0  0  0  0  0  0
    2.6920   -9.8020   -7.5230 C   0  0  0  0  0  2  0  0  0  0  0  0
    3.5970   -9.0720   -6.5300 C   0  0  0  0  0  2  0  0  0  0  0  0
    1.9970   -0.6120   -8.3590 C   0  0  0  0  0  1  0  0  0  0  0  0
    1.7230   -1.9790   -8.6400 O   0  0  0  0  0  0  0  0  0  0  0  0
  1  6  1  0  0  0  0
  2  1  2  0  0  0  0
  2  3  1  0  0  0  0
  3  4  2  0  0  0  0
  4  5  1  0  0  0  0
  4 11  1  0  0  0  0
  5  7  1  0  0  0  0
  6  5  2  0  0  0  0
  7  8  2  0  0  0  0
  8 33  1  0  0  0  0
  9  8  1  0  0  0  0
 10 18  1  0  0  0  0
 10  9  1  0  0  0  0
 11 10  1  0  0  0  0
 12 11  2  0  0  0  0
 12 13  1  0  0  0  0
 13 14  2  0  0  0  0
 13 18  1  0  0  0  0
 14 15  1  0  0  0  0
 15 16  2  0  0  0  0
 16 19  1  0  0  0  0
 17 16  1  0  0  0  0
 18 17  2  0  0  0  0
 19 21  1  0  0  0  0
 20 19  2  0  0  0  0
 21 22  1  0  0  0  0
 21 35  1  0  0  0  0
 22 24  2  0  0  0  0
 23 22  2  0  0  0  0
 25 27  1  0  0  0  0
 25 22  1  0  0  0  0
 26 25  1  0  0  0  0
 27 28  1  0  0  0  0
 28 29  1  0  0  0  0
 30 29  1  0  0  0  0
 31 30  1  0  0  0  0
 32 31  1  0  0  0  0
 33 34  2  0  0  0  0
 33 31  1  0  0  0  0
 36 41  1  0  0  0  0
 36 12  1  0  0  0  0
 37 36  1  0  0  0  0
 38 39  1  0  0  0  0
 38 37  1  0  0  0  0
 39 40  1  0  0  0  0
 40 41  1  0  0  0  0
 43 42  1  0  0  0  0
 43  1  1  0  0  0  0
M  END
>  <minimizedAffinity>
-4.56684303

$$$$

 OpenBabel09082221123D

 43 48  0  0  0  0  0  0  0  0999 V2000
    2.1500   -3.2610   -1.0030 C   0  0  0  0  0  0  0  0  0  0  0  0
    2.8080   -4.4730   -1.1750 C   0  0  0  0  0  3  0  0  0  0  0  0
    2.9790   -5.0000   -2.4590 C   0  0  0  0  0  3  0  0  0  0  0  0
    2.5160   -4.3270   -3.6020 C   0  0  0  0  0  0  0  0  0  0  0  0
    1.7880   -3.1250   -3.4220 C   0  0  0  0  0  0  0  0  0  0  0  0
    1.6420   -2.6000   -2.1240 C   0  0  0  0  0  3  0  0  0  0  0  0
    1.1460   -2.3570   -4.5100 C   0  0  0  0  0  3  0  0  0  0  0  0
    0.5750   -2.9380   -5.5810 C   0  0  0  0  0  0  0  0  0  0  0  0
    0.4500   -4.4310   -5.7190 C   0  0  0  0  0  2  0  0  0  0  0  0
    1.7720   -5.0210   -5.8900 N   0  0  0  0  0  0  0  0  0  0  0  0
    2.7630   -4.9410   -4.9320 C   0  0  0  0  0  0  0  0  0  0  0  0
    3.9270   -5.4760   -5.5060 C   0  0  0  0  0  0  0  0  0  0  0  0
    3.5430   -6.0380   -6.7840 C   0  0  0  0  0  0  0  0  0  0  0  0
    4.1950   -6.7920   -7.7920 C   0  0  0  0  0  3  0  0  0  0  0  0
    3.5360   -7.1270   -8.9830 C   0  0  0  0  0  3  0  0  0  0  0  0
    2.2440   -6.6730   -9.2070 C   0  0  0  0  0  0  0  0  0  0  0  0
    1.5510   -5.9590   -8.2240 C   0  0  0  0  0  3  0  0  0  0  0  0
    2.2130   -5.6740   -7.0160 C   0  0  0  0  0  0  0  0  0  0  0  0
    1.5710   -6.9720  -10.4840 C   0  0  0  0  0  0  0  0  0  0  0  0
    1.3890   -8.1170  -10.8610 O   0  0  0  0  0  0  0  0  0  0  0  0
    1.0280   -5.8740  -11.1840 N   0  0  0  0  0  0  0  0  0  0  0  0
    2.0200   -4.7210  -11.8790 S   0  0  0  0  0  0  0  0  0  0  0  0
    3.2770   -5.3500  -12.2070 O   0  0  0  0  0  0  0  0  0  0  0  0
    1.2120   -4.0920  -12.8990 O   0  0  0  0  0  0  0  0  0  0  0  0
    2.2560   -3.6290  -10.6530 N   0  0  0  0  0  0  0  0  0  0  0  0
    3.5130   -3.6090   -9.8980 C   0  0  0  0  0  1  0  0  0  0  0  0
    1.1650   -2.7520  -10.1890 C   0  0  0  0  0  2  0  0  0  0  0  0
    1.6430   -1.3000  -10.1690 C   0  0  0  0  0  2  0  0  0  0  0  0
    0.6150   -0.2540   -9.7330 C   0  0  0  0  0  2  0  0  0  0  0  0
   -0.1850   -0.5300   -8.4530 C   0  0  0  0  0  2  0  0  0  0  0  0
    0.5400   -1.1570   -7.3410 N   0  0  0  0  0  0  0  0  0  0  0  0
    1.7730   -0.5250   -6.8880 C   0  0  0  0  0  1  0  0  0  0  0  0
   -0.1160   -2.1840   -6.6650 C   0  0  0  0  0  0  0  0  0  0  0  0
   -1.2350   -2.5810   -6.9930 O   0  0  0  0  0  0  0  0  0  0  0  0
    0.4580   -6.2270  -11.9530 H   0  0  0  0  0  0  0  0  0  0  0  0
    5.3130   -5.3860   -4.8780 C   0  0  0  0  0  3  0  0  0  0  0  0
    5.8400   -6.6520   -4.1930 C   0  0  0  0  0  2  0  0  0  0  0  0
    7.1860   -6.3930   -3.5150 C   0  0  0  0  0  2  0  0  0  0  0  0
    8.2170   -5.8780   -4.5160 C   0  0  0  0  0  2  0  0  0  0  0  0
    7.7120   -4.6500   -5.2670 C   0  0  0  0  0  2  0  0  0  0  0  0
    6.3470   -4.8910   -5.9110 C   0  0  0  0  0  2  0  0  0  0  0  0
    0.9770   -1.5650    0.1790 C   0  0  0  0  0  1  0  0  0  0  0  0
    1.9190   -2.6300    0.1870 O   0  0  0  0  0  0  0  0  0  0  0  0
  1 43  1  0  0  0  0
  2  1  1  0  0  0  0
  3  2  2  0  0  0  0
  4  5  2  0  0  0  0
  4  3  1  0  0  0  0
  5  6  1  0  0  0  0
  6  1  2  0  0  0  0
  7  5  1  0  0  0  0
  8  7  2  0  0  0  0
  9  8  1  0  0  0  0
 10  9  1  0  0  0  0
 10 11  1  0  0  0  0
 11  4  1  0  0  0  0
 12 11  2  0  0  0  0
 12 36  1  0  0  0  0
 13 12  1  0  0  0  0
 14 13  2  0  0  0  0
 15 14  1  0  0  0  0
 16 15  2  0  0  0  0
 16 17  1  0  0  0  0
 17 18  2  0  0  0  0
 18 13  1  0  0  0  0
 18 10  1  0  0  0  0
 19 16  1  0  0  0  0
 20 19  2  0  0  0  0
 21 19  1  0  0  0  0
 22 21  1  0  0  0  0
 22 25  1  0  0  0  0
 23 22  2  0  0  0  0
 24 22  2  0  0  0  0
 25 27  1  0  0  0  0
 25 26  1  0  0  0  0
 27 28  1  0  0  0  0
 28 29  1  0  0  0  0
 29 30  1  0  0  0  0
 30 31  1  0  0  0  0
 31 32  1  0  0  0  0
 31 33  1  0  0  0  0
 33  8  1  0  0  0  0
 34 33  2  0  0  0  0
 35 21  1  0  0  0  0
 36 37  1  0  0  0  0
 37 38  1  0  0  0  0
 39 38  1  0  0  0  0
 40 39  1  0  0  0  0
 41 40  1  0  0  0  0
 41 36  1  0  0  0  0
 42 43  1  0  0  0  0
M  END
>  <minimizedAffinity>
-4.52988672

$$$$
