
 OpenBabel09092210413D

 43 48  0  0  0  0  0  0  0  0999 V2000
    2.5470   -2.9060   -8.0650 C   0  0  0  0  0  0  0  0  0  0  0  0
    3.4210   -3.7530   -8.7340 C   0  0  0  0  0  3  0  0  0  0  0  0
    4.2030   -4.6620   -8.0130 C   0  0  0  0  0  3  0  0  0  0  0  0
    4.1200   -4.7610   -6.6140 C   0  0  0  0  0  0  0  0  0  0  0  0
    3.2790   -3.8520   -5.9280 C   0  0  0  0  0  0  0  0  0  0  0  0
    2.4850   -2.9570   -6.6700 C   0  0  0  0  0  3  0  0  0  0  0  0
    3.1640   -3.7560   -4.4560 C   0  0  0  0  0  3  0  0  0  0  0  0
    4.2040   -3.9430   -3.6240 C   0  0  0  0  0  0  0  0  0  0  0  0
    5.6060   -4.1710   -4.1230 C   0  0  0  0  0  2  0  0  0  0  0  0
    5.6860   -5.4630   -4.7910 N   0  0  0  0  0  0  0  0  0  0  0  0
    4.9640   -5.7720   -5.9260 C   0  0  0  0  0  0  0  0  0  0  0  0
    5.1750   -7.1360   -6.1840 C   0  0  0  0  0  0  0  0  0  0  0  0
    6.1910   -7.5850   -5.2560 C   0  0  0  0  0  0  0  0  0  0  0  0
    6.9130   -8.7880   -5.0530 C   0  0  0  0  0  3  0  0  0  0  0  0
    7.8050   -8.9230   -3.9800 C   0  0  0  0  0  3  0  0  0  0  0  0
    7.9500   -7.8860   -3.0700 C   0  0  0  0  0  0  0  0  0  0  0  0
    7.2870   -6.6680   -3.2530 C   0  0  0  0  0  3  0  0  0  0  0  0
    6.4320   -6.5350   -4.3630 C   0  0  0  0  0  0  0  0  0  0  0  0
    8.8410   -8.0480   -1.9070 C   0  0  0  0  0  0  0  0  0  0  0  0
   10.0290   -8.2930   -2.0380 O   0  0  0  0  0  0  0  0  0  0  0  0
    8.2840   -7.7740   -0.6410 N   0  0  0  0  0  0  0  0  0  0  0  0
    7.1080   -8.7660    0.0150 S   0  0  0  0  0  0  0  0  0  0  0  0
    7.2940  -10.0940   -0.5180 O   0  0  0  0  0  0  0  0  0  0  0  0
    7.1560   -8.5200    1.4380 O   0  0  0  0  0  0  0  0  0  0  0  0
    5.6960   -8.1290   -0.5770 N   0  0  0  0  0  0  0  0  0  0  0  0
    4.9890   -8.7760   -1.6870 C   0  0  0  0  0  1  0  0  0  0  0  0
    5.1900   -6.8240   -0.1110 C   0  0  0  0  0  2  0  0  0  0  0  0
    3.7280   -6.9610    0.3180 C   0  0  0  0  0  2  0  0  0  0  0  0
    3.0590   -5.6940    0.8550 C   0  0  0  0  0  2  0  0  0  0  0  0
    3.2190   -4.4030    0.0410 C   0  0  0  0  0  2  0  0  0  0  0  0
    3.1720   -4.5310   -1.4200 N   0  0  0  0  0  0  0  0  0  0  0  0
    2.0240   -5.2110   -2.0090 C   0  0  0  0  0  1  0  0  0  0  0  0
    4.1180   -3.8070   -2.1430 C   0  0  0  0  0  0  0  0  0  0  0  0
    4.9790   -3.1160   -1.5960 O   0  0  0  0  0  0  0  0  0  0  0  0
    9.0340   -7.7650    0.0510 H   0  0  0  0  0  0  0  0  0  0  0  0
    4.3960   -7.9440   -7.2150 C   0  0  0  0  0  3  0  0  0  0  0  0
    5.2020   -8.5260   -8.3830 C   0  0  0  0  0  2  0  0  0  0  0  0
    4.2860   -9.2170   -9.3940 C   0  0  0  0  0  2  0  0  0  0  0  0
    3.4670  -10.3210   -8.7300 C   0  0  0  0  0  2  0  0  0  0  0  0
    2.6920   -9.8020   -7.5230 C   0  0  0  0  0  2  0  0  0  0  0  0
    3.5970   -9.0720   -6.5300 C   0  0  0  0  0  2  0  0  0  0  0  0
    1.9970   -0.6120   -8.3590 C   0  0  0  0  0  1  0  0  0  0  0  0
    1.7230   -1.9790   -8.6400 O   0  0  0  0  0  0  0  0  0  0  0  0
  1  6  1  0  0  0  0
  2  1  2  0  0  0  0
  2  3  1  0  0  0  0
  3  4  2  0  0  0  0
  4  5  1  0  0  0  0
  4 11  1  0  0  0  0
  5  7  1  0  0  0  0
  6  5  2  0  0  0  0
  7  8  2  0  0  0  0
  8 33  1  0  0  0  0
  9  8  1  0  0  0  0
 10 18  1  0  0  0  0
 10  9  1  0  0  0  0
 11 10  1  0  0  0  0
 12 11  2  0  0  0  0
 12 13  1  0  0  0  0
 13 14  2  0  0  0  0
 13 18  1  0  0  0  0
 14 15  1  0  0  0  0
 15 16  2  0  0  0  0
 16 19  1  0  0  0  0
 17 16  1  0  0  0  0
 18 17  2  0  0  0  0
 19 21  1  0  0  0  0
 20 19  2  0  0  0  0
 21 22  1  0  0  0  0
 21 35  1  0  0  0  0
 22 24  2  0  0  0  0
 23 22  2  0  0  0  0
 25 27  1  0  0  0  0
 25 22  1  0  0  0  0
 26 25  1  0  0  0  0
 27 28  1  0  0  0  0
 28 29  1  0  0  0  0
 30 29  1  0  0  0  0
 31 30  1  0  0  0  0
 32 31  1  0  0  0  0
 33 34  2  0  0  0  0
 33 31  1  0  0  0  0
 36 41  1  0  0  0  0
 36 12  1  0  0  0  0
 37 36  1  0  0  0  0
 38 39  1  0  0  0  0
 38 37  1  0  0  0  0
 39 40  1  0  0  0  0
 40 41  1  0  0  0  0
 43 42  1  0  0  0  0
 43  1  1  0  0  0  0
M  END
>  <minimizedAffinity>
-4.56684303

$$$$
