
 OpenBabel09092210413D

 43 48  0  0  0  0  0  0  0  0999 V2000
    2.4670   -3.9470  -10.3820 C   0  0  0  0  0  0  0  0  0  0  0  0
    3.8100   -4.1470  -10.0890 C   0  0  0  0  0  3  0  0  0  0  0  0
    4.2260   -4.2640   -8.7580 C   0  0  0  0  0  3  0  0  0  0  0  0
    3.3130   -4.2020   -7.6910 C   0  0  0  0  0  0  0  0  0  0  0  0
    1.9550   -3.9330   -7.9870 C   0  0  0  0  0  0  0  0  0  0  0  0
    1.5520   -3.8380   -9.3330 C   0  0  0  0  0  3  0  0  0  0  0  0
    0.8950   -3.7320   -6.9750 C   0  0  0  0  0  3  0  0  0  0  0  0
    1.1100   -3.1170   -5.7980 C   0  0  0  0  0  0  0  0  0  0  0  0
    2.4310   -2.4870   -5.4460 C   0  0  0  0  0  2  0  0  0  0  0  0
    3.4430   -3.5230   -5.2850 N   0  0  0  0  0  0  0  0  0  0  0  0
    3.8320   -4.3640   -6.3080 C   0  0  0  0  0  0  0  0  0  0  0  0
    4.6940   -5.3180   -5.7450 C   0  0  0  0  0  0  0  0  0  0  0  0
    4.9380   -4.9070   -4.3790 C   0  0  0  0  0  0  0  0  0  0  0  0
    5.7680   -5.3570   -3.3220 C   0  0  0  0  0  3  0  0  0  0  0  0
    5.7110   -4.7620   -2.0540 C   0  0  0  0  0  3  0  0  0  0  0  0
    4.7950   -3.7490   -1.8100 C   0  0  0  0  0  0  0  0  0  0  0  0
    3.9840   -3.2480   -2.8330 C   0  0  0  0  0  3  0  0  0  0  0  0
    4.0900   -3.8270   -4.1110 C   0  0  0  0  0  0  0  0  0  0  0  0
    4.6900   -3.1630   -0.4610 C   0  0  0  0  0  0  0  0  0  0  0  0
    5.6430   -2.6300    0.0830 O   0  0  0  0  0  0  0  0  0  0  0  0
    3.4030   -3.1270    0.1150 N   0  0  0  0  0  0  0  0  0  0  0  0
    2.6280   -4.5360    0.5760 S   0  0  0  0  0  0  0  0  0  0  0  0
    3.6350   -5.5160    0.9020 O   0  0  0  0  0  0  0  0  0  0  0  0
    1.6430   -4.1250    1.5500 O   0  0  0  0  0  0  0  0  0  0  0  0
    1.8330   -5.0040   -0.8040 N   0  0  0  0  0  0  0  0  0  0  0  0
    2.3540   -6.0920   -1.6360 C   0  0  0  0  0  1  0  0  0  0  0  0
    0.6710   -4.2500   -1.3100 C   0  0  0  0  0  2  0  0  0  0  0  0
   -0.4940   -5.2080   -1.5640 C   0  0  0  0  0  2  0  0  0  0  0  0
   -1.7920   -4.5760   -2.0710 C   0  0  0  0  0  2  0  0  0  0  0  0
   -1.6950   -3.5910   -3.2440 C   0  0  0  0  0  2  0  0  0  0  0  0
   -0.7330   -3.9150   -4.3040 N   0  0  0  0  0  0  0  0  0  0  0  0
   -0.8180   -5.2340   -4.9220 C   0  0  0  0  0  1  0  0  0  0  0  0
    0.0460   -2.8660   -4.7860 C   0  0  0  0  0  0  0  0  0  0  0  0
   -0.0310   -1.7230   -4.3310 O   0  0  0  0  0  0  0  0  0  0  0  0
    3.4400   -2.5600    0.9620 H   0  0  0  0  0  0  0  0  0  0  0  0
    5.1840   -6.5660   -6.4710 C   0  0  0  0  0  3  0  0  0  0  0  0
    6.7020   -6.7690   -6.5370 C   0  0  0  0  0  2  0  0  0  0  0  0
    7.0580   -7.9930   -7.3820 C   0  0  0  0  0  2  0  0  0  0  0  0
    6.3900   -9.2520   -6.8360 C   0  0  0  0  0  2  0  0  0  0  0  0
    4.8810   -9.0770   -6.6960 C   0  0  0  0  0  2  0  0  0  0  0  0
    4.5200   -7.8300   -5.8880 C   0  0  0  0  0  2  0  0  0  0  0  0
    1.1380   -2.6640  -11.8780 C   0  0  0  0  0  1  0  0  0  0  0  0
    1.9240   -3.8230  -11.6300 O   0  0  0  0  0  0  0  0  0  0  0  0
  1  2  2  0  0  0  0
  1  6  1  0  0  0  0
  2  3  1  0  0  0  0
  3  4  2  0  0  0  0
  4 11  1  0  0  0  0
  5  4  1  0  0  0  0
  5  7  1  0  0  0  0
  6  5  2  0  0  0  0
  7  8  2  0  0  0  0
  8  9  1  0  0  0  0
  8 33  1  0  0  0  0
  9 10  1  0  0  0  0
 10 18  1  0  0  0  0
 11 12  2  0  0  0  0
 11 10  1  0  0  0  0
 12 13  1  0  0  0  0
 13 18  2  0  0  0  0
 13 14  1  0  0  0  0
 14 15  2  0  0  0  0
 15 16  1  0  0  0  0
 16 19  1  0  0  0  0
 17 16  2  0  0  0  0
 18 17  1  0  0  0  0
 19 20  2  0  0  0  0
 19 21  1  0  0  0  0
 21 22  1  0  0  0  0
 21 35  1  0  0  0  0
 22 23  2  0  0  0  0
 22 24  2  0  0  0  0
 25 22  1  0  0  0  0
 26 25  1  0  0  0  0
 27 25  1  0  0  0  0
 28 27  1  0  0  0  0
 29 28  1  0  0  0  0
 30 29  1  0  0  0  0
 31 30  1  0  0  0  0
 32 31  1  0  0  0  0
 33 34  2  0  0  0  0
 33 31  1  0  0  0  0
 36 41  1  0  0  0  0
 36 12  1  0  0  0  0
 37 36  1  0  0  0  0
 38 39  1  0  0  0  0
 38 37  1  0  0  0  0
 39 40  1  0  0  0  0
 40 41  1  0  0  0  0
 42 43  1  0  0  0  0
 43  1  1  0  0  0  0
M  END
>  <minimizedAffinity>
-4.65915203

$$$$
