
 OpenBabel09092210413D

 43 48  0  0  0  0  0  0  0  0999 V2000
    0.0760   -0.9410   -4.8420 C   0  0  0  0  0  0  0  0  0  0  0  0
    0.4720   -1.2660   -6.1330 C   0  0  0  0  0  3  0  0  0  0  0  0
    1.4760   -2.2180   -6.3390 C   0  0  0  0  0  3  0  0  0  0  0  0
    2.0970   -2.8800   -5.2670 C   0  0  0  0  0  0  0  0  0  0  0  0
    1.7400   -2.5010   -3.9490 C   0  0  0  0  0  0  0  0  0  0  0  0
    0.7140   -1.5560   -3.7620 C   0  0  0  0  0  3  0  0  0  0  0  0
    2.3760   -3.0240   -2.7210 C   0  0  0  0  0  3  0  0  0  0  0  0
    3.6850   -3.3240   -2.6410 C   0  0  0  0  0  0  0  0  0  0  0  0
    4.6440   -3.0590   -3.7690 C   0  0  0  0  0  2  0  0  0  0  0  0
    4.3360   -3.9350   -4.8920 N   0  0  0  0  0  0  0  0  0  0  0  0
    3.1350   -3.8980   -5.5710 C   0  0  0  0  0  0  0  0  0  0  0  0
    3.1420   -4.9770   -6.4700 C   0  0  0  0  0  0  0  0  0  0  0  0
    4.4680   -5.5550   -6.4190 C   0  0  0  0  0  0  0  0  0  0  0  0
    5.1530   -6.5750   -7.1260 C   0  0  0  0  0  3  0  0  0  0  0  0
    6.4550   -6.9520   -6.7700 C   0  0  0  0  0  3  0  0  0  0  0  0
    7.0700   -6.3570   -5.6770 C   0  0  0  0  0  0  0  0  0  0  0  0
    6.4460   -5.3210   -4.9750 C   0  0  0  0  0  3  0  0  0  0  0  0
    5.1580   -4.9240   -5.3790 C   0  0  0  0  0  0  0  0  0  0  0  0
    8.4150   -6.7950   -5.2620 C   0  0  0  0  0  0  0  0  0  0  0  0
    9.3710   -6.7340   -6.0170 O   0  0  0  0  0  0  0  0  0  0  0  0
    8.5710   -7.1620   -3.9090 N   0  0  0  0  0  0  0  0  0  0  0  0
    7.8440   -8.5400   -3.3020 S   0  0  0  0  0  0  0  0  0  0  0  0
    7.6930   -9.4820   -4.3840 O   0  0  0  0  0  0  0  0  0  0  0  0
    8.6010   -8.8780   -2.1190 O   0  0  0  0  0  0  0  0  0  0  0  0
    6.3460   -8.0050   -2.8270 N   0  0  0  0  0  0  0  0  0  0  0  0
    5.1590   -8.2780   -3.6430 C   0  0  0  0  0  1  0  0  0  0  0  0
    6.1860   -7.1190   -1.6590 C   0  0  0  0  0  2  0  0  0  0  0  0
    5.1270   -7.6940   -0.7170 C   0  0  0  0  0  2  0  0  0  0  0  0
    4.8580   -6.9010    0.5640 C   0  0  0  0  0  2  0  0  0  0  0  0
    4.6370   -5.3890    0.4330 C   0  0  0  0  0  2  0  0  0  0  0  0
    3.8650   -4.9290   -0.7270 N   0  0  0  0  0  0  0  0  0  0  0  0
    2.5540   -5.5250   -0.9540 C   0  0  0  0  0  1  0  0  0  0  0  0
    4.3510   -3.8090   -1.3990 C   0  0  0  0  0  0  0  0  0  0  0  0
    5.3940   -3.2420   -1.0690 O   0  0  0  0  0  0  0  0  0  0  0  0
    9.5650   -7.2850   -3.7170 H   0  0  0  0  0  0  0  0  0  0  0  0
    1.9260   -5.4410   -7.2630 C   0  0  0  0  0  3  0  0  0  0  0  0
    2.0220   -5.3380   -8.7890 C   0  0  0  0  0  2  0  0  0  0  0  0
    0.7010   -5.7310   -9.4530 C   0  0  0  0  0  2  0  0  0  0  0  0
    0.2850   -7.1440   -9.0550 C   0  0  0  0  0  2  0  0  0  0  0  0
    0.2330   -7.3140   -7.5400 C   0  0  0  0  0  2  0  0  0  0  0  0
    1.5360   -6.8810   -6.8680 C   0  0  0  0  0  2  0  0  0  0  0  0
   -0.6190    0.8020   -3.3830 C   0  0  0  0  0  1  0  0  0  0  0  0
   -0.8910   -0.0400   -4.4970 O   0  0  0  0  0  0  0  0  0  0  0  0
  1 43  1  0  0  0  0
  1  6  1  0  0  0  0
  2  1  2  0  0  0  0
  3  2  1  0  0  0  0
  3  4  2  0  0  0  0
  4  5  1  0  0  0  0
  5  6  2  0  0  0  0
  5  7  1  0  0  0  0
  7  8  2  0  0  0  0
  8 33  1  0  0  0  0
  9  8  1  0  0  0  0
 10  9  1  0  0  0  0
 11  4  1  0  0  0  0
 11 10  1  0  0  0  0
 12 13  1  0  0  0  0
 12 11  2  0  0  0  0
 13 18  1  0  0  0  0
 14 15  1  0  0  0  0
 14 13  2  0  0  0  0
 15 16  2  0  0  0  0
 16 19  1  0  0  0  0
 16 17  1  0  0  0  0
 18 17  2  0  0  0  0
 18 10  1  0  0  0  0
 19 21  1  0  0  0  0
 20 19  2  0  0  0  0
 21 35  1  0  0  0  0
 21 22  1  0  0  0  0
 22 25  1  0  0  0  0
 22 24  2  0  0  0  0
 23 22  2  0  0  0  0
 25 27  1  0  0  0  0
 26 25  1  0  0  0  0
 27 28  1  0  0  0  0
 28 29  1  0  0  0  0
 30 29  1  0  0  0  0
 31 30  1  0  0  0  0
 32 31  1  0  0  0  0
 33 34  2  0  0  0  0
 33 31  1  0  0  0  0
 36 41  1  0  0  0  0
 36 12  1  0  0  0  0
 37 36  1  0  0  0  0
 38 39  1  0  0  0  0
 38 37  1  0  0  0  0
 39 40  1  0  0  0  0
 40 41  1  0  0  0  0
 43 42  1  0  0  0  0
M  END
>  <minimizedAffinity>
-4.64465284

$$$$
