REMARK  Name = 
REMARK  5 active torsions:
REMARK  status: ('A' for Active; 'I' for Inactive)
REMARK    1  A    between atoms: C_1  and  O_2
REMARK    2  A    between atoms: O_2  and  C_3
REMARK    3  A    between atoms: C_14  and  C_15
REMARK    4  A    between atoms: N_33  and  C_34
REMARK    5  A    between atoms: N_39  and  C_40
REMARK                            x       y       z     vdW  Elec       q    Type
REMARK                         _______ _______ _______ _____ _____    ______ ____
ROOT
ATOM      1  C   UNL     1       0.526   0.223  -4.137  0.00  0.00    +0.121 A 
ATOM      2  C   UNL     1       1.317  -0.743  -3.528  0.00  0.00    +0.046 A 
ATOM      3  C   UNL     1       2.304  -1.406  -4.265  0.00  0.00    +0.014 A 
ATOM      4  C   UNL     1       2.538  -1.111  -5.619  0.00  0.00    +0.006 A 
ATOM      5  C   UNL     1       1.688  -0.174  -6.256  0.00  0.00    -0.012 A 
ATOM      6  C   UNL     1       0.713   0.497  -5.494  0.00  0.00    +0.054 A 
ATOM      7  C   UNL     1       1.735   0.164  -7.695  0.00  0.00    +0.019 C 
ATOM      8  C   UNL     1       2.019  -0.737  -8.653  0.00  0.00    +0.035 C 
ATOM      9  C   UNL     1       2.217  -2.198  -8.353  0.00  0.00    +0.162 C 
ATOM     10  N   UNL     1       3.439  -2.380  -7.580  0.00  0.00    -0.335 N 
ATOM     11  C   UNL     1       3.624  -1.840  -6.323  0.00  0.00    +0.054 A 
ATOM     12  C   UNL     1       4.959  -2.088  -5.966  0.00  0.00    -0.011 A 
ATOM     13  C   UNL     1       5.512  -2.950  -6.989  0.00  0.00    +0.004 A 
ATOM     14  C   UNL     1       6.740  -3.633  -7.179  0.00  0.00    +0.011 A 
ATOM     15  C   UNL     1       6.993  -4.351  -8.356  0.00  0.00    +0.014 A 
ATOM     16  C   UNL     1       6.052  -4.355  -9.376  0.00  0.00    +0.040 A 
ATOM     17  C   UNL     1       4.813  -3.727  -9.216  0.00  0.00    +0.039 A 
ATOM     18  C   UNL     1       4.559  -3.052  -8.008  0.00  0.00    +0.051 A 
ATOM     19  C   UNL     1       6.341  -5.058 -10.639  0.00  0.00    +0.264 C 
ATOM     20  O   UNL     1       6.590  -6.252 -10.667  0.00  0.00    -0.269 OA
ATOM     21  N   UNL     1       6.184  -4.314 -11.827  0.00  0.00    -0.171 N 
ATOM     22  S   UNL     1       7.218  -3.052 -12.195  0.00  0.00    +0.114 S 
ATOM     23  O   UNL     1       8.490  -3.317 -11.567  0.00  0.00    -0.138 OA
ATOM     24  O   UNL     1       7.114  -2.882 -13.626  0.00  0.00    -0.138 OA
ATOM     25  N   UNL     1       6.505  -1.746 -11.461  0.00  0.00    -0.167 NA
ATOM     26  C   UNL     1       7.029  -1.217 -10.198  0.00  0.00    +0.133 C 
ATOM     27  C   UNL     1       5.245  -1.175 -11.972  0.00  0.00    +0.110 C 
ATOM     28  C   UNL     1       5.401   0.335 -12.158  0.00  0.00    +0.019 C 
ATOM     29  C   UNL     1       4.183   1.079 -12.710  0.00  0.00    +0.020 C 
ATOM     30  C   UNL     1       2.821   0.797 -12.062  0.00  0.00    +0.108 C 
ATOM     31  N   UNL     1       2.804   0.620 -10.605  0.00  0.00    -0.301 N 
ATOM     32  C   UNL     1       3.406   1.664  -9.784  0.00  0.00    +0.132 C 
ATOM     33  C   UNL     1       2.027  -0.425 -10.110  0.00  0.00    +0.244 C 
ATOM     34  O   UNL     1       1.406  -1.193 -10.847  0.00  0.00    -0.270 OA
ATOM     35  H   UNL     1       6.254  -4.949 -12.622  0.00  0.00    +0.178 HD
ENDROOT
BRANCH  12  36
ATOM     36  C   UNL     1       5.651  -1.476  -4.754  0.00  0.00    +0.022 C 
ATOM     37  C   UNL     1       6.863  -2.234  -4.200  0.00  0.00    +0.008 C 
ATOM     38  C   UNL     1       7.392  -1.573  -2.926  0.00  0.00    +0.001 C 
ATOM     39  C   UNL     1       7.764  -0.114  -3.177  0.00  0.00    +0.000 C 
ATOM     40  C   UNL     1       6.605   0.669  -3.786  0.00  0.00    +0.001 C 
ATOM     41  C   UNL     1       6.045  -0.011  -5.035  0.00  0.00    +0.008 C 
ENDBRANCH  12  36
BRANCH   1  43
ATOM     42  C   UNL     1      -0.702   0.699  -2.158  0.00  0.00    +0.277 C 
ATOM     43  O   UNL     1      -0.465   0.949  -3.538  0.00  0.00    -0.495 OA
ENDBRANCH   1  43
TORSDOF 2
