
 OpenBabel09092210413D

 43 48  0  0  0  0  0  0  0  0999 V2000
    3.6510   -6.1320  -11.7440 C   0  0  0  0  0  0  0  0  0  0  0  0
    4.2770   -6.2320  -10.5080 C   0  0  0  0  0  3  0  0  0  0  0  0
    3.8970   -5.3870   -9.4600 C   0  0  0  0  0  3  0  0  0  0  0  0
    2.8750   -4.4340   -9.6130 C   0  0  0  0  0  0  0  0  0  0  0  0
    2.2840   -4.2870  -10.8920 C   0  0  0  0  0  0  0  0  0  0  0  0
    2.6650   -5.1590  -11.9290 C   0  0  0  0  0  3  0  0  0  0  0  0
    1.2760   -3.2620  -11.2420 C   0  0  0  0  0  3  0  0  0  0  0  0
    1.2860   -2.0170  -10.7310 C   0  0  0  0  0  0  0  0  0  0  0  0
    2.3860   -1.5230   -9.8320 C   0  0  0  0  0  2  0  0  0  0  0  0
    2.3340   -2.2290   -8.5580 N   0  0  0  0  0  0  0  0  0  0  0  0
    2.5120   -3.5930   -8.4440 C   0  0  0  0  0  0  0  0  0  0  0  0
    2.2380   -3.9290   -7.1080 C   0  0  0  0  0  0  0  0  0  0  0  0
    2.0590   -2.6840   -6.3920 C   0  0  0  0  0  0  0  0  0  0  0  0
    1.8610   -2.3170   -5.0370 C   0  0  0  0  0  3  0  0  0  0  0  0
    1.6430   -0.9810   -4.6740 C   0  0  0  0  0  3  0  0  0  0  0  0
    1.5660   -0.0050   -5.6570 C   0  0  0  0  0  0  0  0  0  0  0  0
    1.7910   -0.3160   -7.0010 C   0  0  0  0  0  3  0  0  0  0  0  0
    2.0570   -1.6550   -7.3400 C   0  0  0  0  0  0  0  0  0  0  0  0
    1.2740    1.3920   -5.2840 C   0  0  0  0  0  0  0  0  0  0  0  0
    1.9900    2.0140   -4.5170 O   0  0  0  0  0  0  0  0  0  0  0  0
    0.2050    2.0170   -5.9590 N   0  0  0  0  0  0  0  0  0  0  0  0
   -1.3750    1.5310   -5.7050 S   0  0  0  0  0  0  0  0  0  0  0  0
   -1.4670    0.9840   -4.3730 O   0  0  0  0  0  0  0  0  0  0  0  0
   -2.1870    2.6560   -6.1070 O   0  0  0  0  0  0  0  0  0  0  0  0
   -1.5840    0.3140   -6.8130 N   0  0  0  0  0  0  0  0  0  0  0  0
   -1.5560   -1.0920   -6.3980 C   0  0  0  0  0  1  0  0  0  0  0  0
   -1.6550    0.5990   -8.2580 C   0  0  0  0  0  2  0  0  0  0  0  0
   -2.8990   -0.0610   -8.8540 C   0  0  0  0  0  2  0  0  0  0  0  0
   -3.1340    0.1630  -10.3500 C   0  0  0  0  0  2  0  0  0  0  0  0
   -1.9500   -0.0630  -11.2990 C   0  0  0  0  0  2  0  0  0  0  0  0
   -1.0620   -1.1910  -10.9950 N   0  0  0  0  0  0  0  0  0  0  0  0
   -1.6660   -2.5070  -10.8230 C   0  0  0  0  0  1  0  0  0  0  0  0
    0.3070   -0.9590  -11.1060 C   0  0  0  0  0  0  0  0  0  0  0  0
    0.7670    0.1430  -11.4090 O   0  0  0  0  0  0  0  0  0  0  0  0
    0.2120    3.0110   -5.7320 H   0  0  0  0  0  0  0  0  0  0  0  0
    2.1010   -5.3570   -6.5930 C   0  0  0  0  0  3  0  0  0  0  0  0
    3.0980   -5.7970   -5.5160 C   0  0  0  0  0  2  0  0  0  0  0  0
    2.9190   -7.2760   -5.1690 C   0  0  0  0  0  2  0  0  0  0  0  0
    1.4940   -7.5640   -4.7050 C   0  0  0  0  0  2  0  0  0  0  0  0
    0.4600   -7.0880   -5.7200 C   0  0  0  0  0  2  0  0  0  0  0  0
    0.6620   -5.6220   -6.1020 C   0  0  0  0  0  2  0  0  0  0  0  0
    4.3060   -6.2040  -14.0280 C   0  0  0  0  0  1  0  0  0  0  0  0
    3.9160   -6.8940  -12.8470 O   0  0  0  0  0  0  0  0  0  0  0  0
  1  2  1  0  0  0  0
  2  3  2  0  0  0  0
  4  3  1  0  0  0  0
  4 11  1  0  0  0  0
  5  4  2  0  0  0  0
  6  1  2  0  0  0  0
  6  5  1  0  0  0  0
  7  5  1  0  0  0  0
  7  8  2  0  0  0  0
  8  9  1  0  0  0  0
  9 10  1  0  0  0  0
 10 11  1  0  0  0  0
 10 18  1  0  0  0  0
 11 12  2  0  0  0  0
 12 36  1  0  0  0  0
 12 13  1  0  0  0  0
 13 14  1  0  0  0  0
 14 15  2  0  0  0  0
 16 19  1  0  0  0  0
 16 15  1  0  0  0  0
 17 16  2  0  0  0  0
 18 17  1  0  0  0  0
 18 13  2  0  0  0  0
 19 20  2  0  0  0  0
 21 35  1  0  0  0  0
 21 22  1  0  0  0  0
 21 19  1  0  0  0  0
 22 23  2  0  0  0  0
 24 22  2  0  0  0  0
 25 26  1  0  0  0  0
 25 22  1  0  0  0  0
 27 25  1  0  0  0  0
 28 27  1  0  0  0  0
 29 28  1  0  0  0  0
 30 31  1  0  0  0  0
 30 29  1  0  0  0  0
 31 32  1  0  0  0  0
 33 31  1  0  0  0  0
 33  8  1  0  0  0  0
 34 33  2  0  0  0  0
 36 41  1  0  0  0  0
 36 37  1  0  0  0  0
 37 38  1  0  0  0  0
 38 39  1  0  0  0  0
 40 39  1  0  0  0  0
 41 40  1  0  0  0  0
 42 43  1  0  0  0  0
 43  1  1  0  0  0  0
M  END
>  <minimizedAffinity>
-4.38156748

$$$$
