
 OpenBabel09092210413D

 43 48  0  0  0  0  0  0  0  0999 V2000
    2.5060   -4.0100  -10.3970 C   0  0  0  0  0  0  0  0  0  0  0  0
    3.8470   -4.2300  -10.1110 C   0  0  0  0  0  3  0  0  0  0  0  0
    4.2690   -4.3500   -8.7830 C   0  0  0  0  0  3  0  0  0  0  0  0
    3.3640   -4.2700   -7.7100 C   0  0  0  0  0  0  0  0  0  0  0  0
    2.0080   -3.9800   -7.9990 C   0  0  0  0  0  0  0  0  0  0  0  0
    1.5990   -3.8820   -9.3420 C   0  0  0  0  0  3  0  0  0  0  0  0
    0.9580   -3.7590   -6.9810 C   0  0  0  0  0  3  0  0  0  0  0  0
    1.1910   -3.1440   -5.8070 C   0  0  0  0  0  0  0  0  0  0  0  0
    2.5230   -2.5340   -5.4660 C   0  0  0  0  0  2  0  0  0  0  0  0
    3.5190   -3.5860   -5.3070 N   0  0  0  0  0  0  0  0  0  0  0  0
    3.8880   -4.4360   -6.3300 C   0  0  0  0  0  0  0  0  0  0  0  0
    4.7380   -5.4030   -5.7700 C   0  0  0  0  0  0  0  0  0  0  0  0
    4.9970   -4.9910   -4.4060 C   0  0  0  0  0  0  0  0  0  0  0  0
    5.8270   -5.4520   -3.3520 C   0  0  0  0  0  3  0  0  0  0  0  0
    5.7870   -4.8520   -2.0870 C   0  0  0  0  0  3  0  0  0  0  0  0
    4.8880   -3.8230   -1.8400 C   0  0  0  0  0  0  0  0  0  0  0  0
    4.0790   -3.3130   -2.8600 C   0  0  0  0  0  3  0  0  0  0  0  0
    4.1680   -3.8970   -4.1360 C   0  0  0  0  0  0  0  0  0  0  0  0
    4.8010   -3.2320   -0.4920 C   0  0  0  0  0  0  0  0  0  0  0  0
    5.7660   -2.7120    0.0440 O   0  0  0  0  0  0  0  0  0  0  0  0
    3.5190   -3.1740    0.0910 N   0  0  0  0  0  0  0  0  0  0  0  0
    2.7230   -4.5680    0.5610 S   0  0  0  0  0  0  0  0  0  0  0  0
    3.7170   -5.5630    0.8850 O   0  0  0  0  0  0  0  0  0  0  0  0
    1.7520   -4.1380    1.5400 O   0  0  0  0  0  0  0  0  0  0  0  0
    1.9130   -5.0280   -0.8120 N   0  0  0  0  0  0  0  0  0  0  0  0
    2.4110   -6.1270   -1.6450 C   0  0  0  0  0  1  0  0  0  0  0  0
    0.7600   -4.2570   -1.3140 C   0  0  0  0  0  2  0  0  0  0  0  0
   -0.4220   -5.1960   -1.5580 C   0  0  0  0  0  2  0  0  0  0  0  0
   -1.7120   -4.5450   -2.0590 C   0  0  0  0  0  2  0  0  0  0  0  0
   -1.6070   -3.5650   -3.2350 C   0  0  0  0  0  2  0  0  0  0  0  0
   -0.6570   -3.9080   -4.3000 N   0  0  0  0  0  0  0  0  0  0  0  0
   -0.7670   -5.2270   -4.9140 C   0  0  0  0  0  1  0  0  0  0  0  0
    0.1370   -2.8730   -4.7900 C   0  0  0  0  0  0  0  0  0  0  0  0
    0.0810   -1.7280   -4.3380 O   0  0  0  0  0  0  0  0  0  0  0  0
    3.5690   -2.6050    0.9360 H   0  0  0  0  0  0  0  0  0  0  0  0
    5.2040   -6.6600   -6.4950 C   0  0  0  0  0  3  0  0  0  0  0  0
    6.7180   -6.8770   -6.5880 C   0  0  0  0  0  2  0  0  0  0  0  0
    7.0480   -8.1110   -7.4300 C   0  0  0  0  0  2  0  0  0  0  0  0
    6.3800   -9.3600   -6.8610 C   0  0  0  0  0  2  0  0  0  0  0  0
    4.8750   -9.1700   -6.6930 C   0  0  0  0  0  2  0  0  0  0  0  0
    4.5400   -7.9140   -5.8890 C   0  0  0  0  0  2  0  0  0  0  0  0
    1.1490   -2.7330  -11.8740 C   0  0  0  0  0  1  0  0  0  0  0  0
    1.9570   -3.8810  -11.6420 O   0  0  0  0  0  0  0  0  0  0  0  0
  1  2  2  0  0  0  0
  1  6  1  0  0  0  0
  2  3  1  0  0  0  0
  3  4  2  0  0  0  0
  4 11  1  0  0  0  0
  5  4  1  0  0  0  0
  5  7  1  0  0  0  0
  6  5  2  0  0  0  0
  7  8  2  0  0  0  0
  8  9  1  0  0  0  0
  8 33  1  0  0  0  0
  9 10  1  0  0  0  0
 10 18  1  0  0  0  0
 11 12  2  0  0  0  0
 11 10  1  0  0  0  0
 12 13  1  0  0  0  0
 13 18  2  0  0  0  0
 13 14  1  0  0  0  0
 14 15  2  0  0  0  0
 15 16  1  0  0  0  0
 16 19  1  0  0  0  0
 17 16  2  0  0  0  0
 18 17  1  0  0  0  0
 19 20  2  0  0  0  0
 19 21  1  0  0  0  0
 21 22  1  0  0  0  0
 21 35  1  0  0  0  0
 22 23  2  0  0  0  0
 22 24  2  0  0  0  0
 25 22  1  0  0  0  0
 26 25  1  0  0  0  0
 27 25  1  0  0  0  0
 28 27  1  0  0  0  0
 29 28  1  0  0  0  0
 30 29  1  0  0  0  0
 31 30  1  0  0  0  0
 32 31  1  0  0  0  0
 33 34  2  0  0  0  0
 33 31  1  0  0  0  0
 36 41  1  0  0  0  0
 36 12  1  0  0  0  0
 37 36  1  0  0  0  0
 38 39  1  0  0  0  0
 38 37  1  0  0  0  0
 39 40  1  0  0  0  0
 40 41  1  0  0  0  0
 42 43  1  0  0  0  0
 43  1  1  0  0  0  0
M  END
>  <minimizedAffinity>
-4.63162804

$$$$
