
 OpenBabel09092210413D

 43 48  0  0  0  0  0  0  0  0999 V2000
    2.4900   -3.5770   -0.7460 C   0  0  0  0  0  0  0  0  0  0  0  0
    3.1280   -4.7840   -1.0050 C   0  0  0  0  0  3  0  0  0  0  0  0
    3.2430   -5.2470   -2.3200 C   0  0  0  0  0  3  0  0  0  0  0  0
    2.7410   -4.5130   -3.4080 C   0  0  0  0  0  0  0  0  0  0  0  0
    2.0330   -3.3160   -3.1380 C   0  0  0  0  0  0  0  0  0  0  0  0
    1.9450   -2.8560   -1.8110 C   0  0  0  0  0  3  0  0  0  0  0  0
    1.3550   -2.4900   -4.1600 C   0  0  0  0  0  3  0  0  0  0  0  0
    0.7350   -3.0110   -5.2350 C   0  0  0  0  0  0  0  0  0  0  0  0
    0.5900   -4.4940   -5.4420 C   0  0  0  0  0  2  0  0  0  0  0  0
    1.8980   -5.0850   -5.6950 N   0  0  0  0  0  0  0  0  0  0  0  0
    2.9280   -5.0610   -4.7760 C   0  0  0  0  0  0  0  0  0  0  0  0
    4.0630   -5.5760   -5.4230 C   0  0  0  0  0  0  0  0  0  0  0  0
    3.6220   -6.0700   -6.7110 C   0  0  0  0  0  0  0  0  0  0  0  0
    4.2240   -6.7770   -7.7810 C   0  0  0  0  0  3  0  0  0  0  0  0
    3.5150   -7.0460   -8.9600 C   0  0  0  0  0  3  0  0  0  0  0  0
    2.2190   -6.5710   -9.1070 C   0  0  0  0  0  0  0  0  0  0  0  0
    1.5740   -5.9020   -8.0630 C   0  0  0  0  0  3  0  0  0  0  0  0
    2.2870   -5.6840   -6.8700 C   0  0  0  0  0  0  0  0  0  0  0  0
    1.4930   -6.7990  -10.3690 C   0  0  0  0  0  0  0  0  0  0  0  0
    1.2840   -7.9230  -10.7960 O   0  0  0  0  0  0  0  0  0  0  0  0
    0.9330   -5.6640  -10.9910 N   0  0  0  0  0  0  0  0  0  0  0  0
    1.9080   -4.4850  -11.6680 S   0  0  0  0  0  0  0  0  0  0  0  0
    3.1440   -5.1070  -12.0780 O   0  0  0  0  0  0  0  0  0  0  0  0
    1.0660   -3.7990  -12.6210 O   0  0  0  0  0  0  0  0  0  0  0  0
    2.2040   -3.4580  -10.3990 N   0  0  0  0  0  0  0  0  0  0  0  0
    3.4900   -3.4860   -9.6960 C   0  0  0  0  0  1  0  0  0  0  0  0
    1.1410   -2.5970   -9.8470 C   0  0  0  0  0  2  0  0  0  0  0  0
    1.6350   -1.1510   -9.7740 C   0  0  0  0  0  2  0  0  0  0  0  0
    0.6360   -0.1200   -9.2440 C   0  0  0  0  0  2  0  0  0  0  0  0
   -0.1150   -0.4550   -7.9480 C   0  0  0  0  0  2  0  0  0  0  0  0
    0.6480   -1.1430   -6.8990 N   0  0  0  0  0  0  0  0  0  0  0  0
    1.9050   -0.5440   -6.4660 C   0  0  0  0  0  1  0  0  0  0  0  0
    0.0090   -2.1970   -6.2500 C   0  0  0  0  0  0  0  0  0  0  0  0
   -1.1260   -2.5680   -6.5520 O   0  0  0  0  0  0  0  0  0  0  0  0
    0.3290   -5.9720  -11.7530 H   0  0  0  0  0  0  0  0  0  0  0  0
    5.4730   -5.5290   -4.8480 C   0  0  0  0  0  3  0  0  0  0  0  0
    6.0390   -6.8480   -4.3100 C   0  0  0  0  0  2  0  0  0  0  0  0
    7.4110   -6.6380   -3.6670 C   0  0  0  0  0  2  0  0  0  0  0  0
    8.3940   -6.0180   -4.6570 C   0  0  0  0  0  2  0  0  0  0  0  0
    7.8470   -4.7310   -5.2670 C   0  0  0  0  0  2  0  0  0  0  0  0
    6.4580   -4.9270   -5.8720 C   0  0  0  0  0  2  0  0  0  0  0  0
    1.6670   -1.7390    0.5160 C   0  0  0  0  0  1  0  0  0  0  0  0
    2.3140   -3.0050    0.4820 O   0  0  0  0  0  0  0  0  0  0  0  0
  1 43  1  0  0  0  0
  2  1  1  0  0  0  0
  3  2  2  0  0  0  0
  4  5  2  0  0  0  0
  4  3  1  0  0  0  0
  5  6  1  0  0  0  0
  6  1  2  0  0  0  0
  7  5  1  0  0  0  0
  8  7  2  0  0  0  0
  9  8  1  0  0  0  0
 10  9  1  0  0  0  0
 10 11  1  0  0  0  0
 11  4  1  0  0  0  0
 12 36  1  0  0  0  0
 12 11  2  0  0  0  0
 13 12  1  0  0  0  0
 14 13  2  0  0  0  0
 15 14  1  0  0  0  0
 16 15  2  0  0  0  0
 16 17  1  0  0  0  0
 17 18  2  0  0  0  0
 18 13  1  0  0  0  0
 18 10  1  0  0  0  0
 19 16  1  0  0  0  0
 20 19  2  0  0  0  0
 21 19  1  0  0  0  0
 22 21  1  0  0  0  0
 22 25  1  0  0  0  0
 23 22  2  0  0  0  0
 24 22  2  0  0  0  0
 25 27  1  0  0  0  0
 25 26  1  0  0  0  0
 27 28  1  0  0  0  0
 28 29  1  0  0  0  0
 29 30  1  0  0  0  0
 30 31  1  0  0  0  0
 31 32  1  0  0  0  0
 31 33  1  0  0  0  0
 33  8  1  0  0  0  0
 34 33  2  0  0  0  0
 35 21  1  0  0  0  0
 36 37  1  0  0  0  0
 37 38  1  0  0  0  0
 39 38  1  0  0  0  0
 40 39  1  0  0  0  0
 41 40  1  0  0  0  0
 41 36  1  0  0  0  0
 43 42  1  0  0  0  0
M  END
>  <minimizedAffinity>
-4.53214216

$$$$
