
 OpenBabel09082221293D

 43 48  0  0  0  0  0  0  0  0999 V2000
    6.5400   -5.4250    0.3630 C   0  0  0  0  0  0  0  0  0  0  0  0
    5.5110   -4.5220    0.1230 C   0  0  0  0  0  3  0  0  0  0  0  0
    4.9640   -4.4080   -1.1590 C   0  0  0  0  0  3  0  0  0  0  0  0
    5.4160   -5.2000   -2.2280 C   0  0  0  0  0  0  0  0  0  0  0  0
    6.5080   -6.0730   -1.9990 C   0  0  0  0  0  0  0  0  0  0  0  0
    7.0330   -6.1890   -0.6980 C   0  0  0  0  0  3  0  0  0  0  0  0
    7.1660   -6.8900   -3.0410 C   0  0  0  0  0  3  0  0  0  0  0  0
    7.3310   -6.4710   -4.3090 C   0  0  0  0  0  0  0  0  0  0  0  0
    6.9480   -5.0870   -4.7570 C   0  0  0  0  0  2  0  0  0  0  0  0
    5.4990   -4.9400   -4.7170 N   0  0  0  0  0  0  0  0  0  0  0  0
    4.7630   -5.0380   -3.5520 C   0  0  0  0  0  0  0  0  0  0  0  0
    3.4090   -5.0020   -3.9220 C   0  0  0  0  0  0  0  0  0  0  0  0
    3.3710   -4.7040   -5.3380 C   0  0  0  0  0  0  0  0  0  0  0  0
    2.3510   -4.4390   -6.2870 C   0  0  0  0  0  3  0  0  0  0  0  0
    2.6560   -4.2550   -7.6430 C   0  0  0  0  0  3  0  0  0  0  0  0
    3.9670   -4.3840   -8.0780 C   0  0  0  0  0  0  0  0  0  0  0  0
    5.0080   -4.6080   -7.1720 C   0  0  0  0  0  3  0  0  0  0  0  0
    4.6880   -4.7420   -5.8080 C   0  0  0  0  0  0  0  0  0  0  0  0
    4.2820   -4.2520   -9.5120 C   0  0  0  0  0  0  0  0  0  0  0  0
    4.0220   -3.2360  -10.1360 O   0  0  0  0  0  0  0  0  0  0  0  0
    5.0180   -5.3030  -10.0970 N   0  0  0  0  0  0  0  0  0  0  0  0
    4.3420   -6.8190  -10.2990 S   0  0  0  0  0  0  0  0  0  0  0  0
    2.9140   -6.6590  -10.4310 O   0  0  0  0  0  0  0  0  0  0  0  0
    5.1220   -7.4460  -11.3420 O   0  0  0  0  0  0  0  0  0  0  0  0
    4.6790   -7.5830   -8.8650 N   0  0  0  0  0  0  0  0  0  0  0  0
    3.6420   -7.7480   -7.8420 C   0  0  0  0  0  1  0  0  0  0  0  0
    6.0550   -7.9830   -8.5160 C   0  0  0  0  0  2  0  0  0  0  0  0
    6.0750   -9.4550   -8.1020 C   0  0  0  0  0  2  0  0  0  0  0  0
    7.4410  -10.0360   -7.7320 C   0  0  0  0  0  2  0  0  0  0  0  0
    8.3170   -9.2360   -6.7590 C   0  0  0  0  0  2  0  0  0  0  0  0
    7.6310   -8.5650   -5.6480 N   0  0  0  0  0  0  0  0  0  0  0  0
    6.7590   -9.3700   -4.8000 C   0  0  0  0  0  1  0  0  0  0  0  0
    8.0310   -7.2620   -5.3600 C   0  0  0  0  0  0  0  0  0  0  0  0
    8.8920   -6.6750   -6.0180 O   0  0  0  0  0  0  0  0  0  0  0  0
    5.3060   -5.0190  -11.0330 H   0  0  0  0  0  0  0  0  0  0  0  0
    2.2530   -5.3000   -2.9750 C   0  0  0  0  0  3  0  0  0  0  0  0
    1.2240   -4.1810   -2.7750 C   0  0  0  0  0  2  0  0  0  0  0  0
    0.1840   -4.5690   -1.7230 C   0  0  0  0  0  2  0  0  0  0  0  0
   -0.5270   -5.8650   -2.1050 C   0  0  0  0  0  2  0  0  0  0  0  0
    0.4610   -6.9950   -2.3740 C   0  0  0  0  0  2  0  0  0  0  0  0
    1.5280   -6.5960   -3.3930 C   0  0  0  0  0  2  0  0  0  0  0  0
    7.5330   -6.9830    1.8580 C   0  0  0  0  0  1  0  0  0  0  0  0
    7.1590   -5.6440    1.5610 O   0  0  0  0  0  0  0  0  0  0  0  0
  1 43  1  0  0  0  0
  2  1  1  0  0  0  0
  3  2  2  0  0  0  0
  4  5  2  0  0  0  0
  4  3  1  0  0  0  0
  5  6  1  0  0  0  0
  6  1  2  0  0  0  0
  7  5  1  0  0  0  0
  8  7  2  0  0  0  0
  9 10  1  0  0  0  0
  9  8  1  0  0  0  0
 10 11  1  0  0  0  0
 11  4  1  0  0  0  0
 12 11  2  0  0  0  0
 12 36  1  0  0  0  0
 13 12  1  0  0  0  0
 14 13  2  0  0  0  0
 15 14  1  0  0  0  0
 16 15  2  0  0  0  0
 16 17  1  0  0  0  0
 17 18  2  0  0  0  0
 18 13  1  0  0  0  0
 18 10  1  0  0  0  0
 19 16  1  0  0  0  0
 20 19  2  0  0  0  0
 21 19  1  0  0  0  0
 22 21  1  0  0  0  0
 22 25  1  0  0  0  0
 23 22  2  0  0  0  0
 24 22  2  0  0  0  0
 25 27  1  0  0  0  0
 25 26  1  0  0  0  0
 27 28  1  0  0  0  0
 28 29  1  0  0  0  0
 29 30  1  0  0  0  0
 30 31  1  0  0  0  0
 31 33  1  0  0  0  0
 31 32  1  0  0  0  0
 33  8  1  0  0  0  0
 34 33  2  0  0  0  0
 35 21  1  0  0  0  0
 36 37  1  0  0  0  0
 37 38  1  0  0  0  0
 39 38  1  0  0  0  0
 40 39  1  0  0  0  0
 41 36  1  0  0  0  0
 41 40  1  0  0  0  0
 43 42  1  0  0  0  0
M  END
>  <minimizedAffinity>
-5.1359334

$$$$

 OpenBabel09082221293D

 43 48  0  0  0  0  0  0  0  0999 V2000
    6.8950   -5.9520    0.4690 C   0  0  0  0  0  0  0  0  0  0  0  0
    6.0500   -5.0050    1.0330 C   0  0  0  0  0  3  0  0  0  0  0  0
    5.0850   -4.3700    0.2450 C   0  0  0  0  0  3  0  0  0  0  0  0
    4.9270   -4.6750   -1.1180 C   0  0  0  0  0  0  0  0  0  0  0  0
    5.8320   -5.5910   -1.7080 C   0  0  0  0  0  0  0  0  0  0  0  0
    6.7840   -6.2340   -0.8950 C   0  0  0  0  0  3  0  0  0  0  0  0
    5.8660   -5.9340   -3.1460 C   0  0  0  0  0  3  0  0  0  0  0  0
    5.6080   -5.0430   -4.1210 C   0  0  0  0  0  0  0  0  0  0  0  0
    5.3580   -3.5870   -3.8370 C   0  0  0  0  0  2  0  0  0  0  0  0
    4.0940   -3.4350   -3.1270 N   0  0  0  0  0  0  0  0  0  0  0  0
    3.8600   -3.9760   -1.8790 C   0  0  0  0  0  0  0  0  0  0  0  0
    2.5020   -3.7620   -1.5910 C   0  0  0  0  0  0  0  0  0  0  0  0
    1.9800   -2.9170   -2.6440 C   0  0  0  0  0  0  0  0  0  0  0  0
    0.7460   -2.2670   -2.8980 C   0  0  0  0  0  3  0  0  0  0  0  0
    0.5340   -1.5590   -4.0890 C   0  0  0  0  0  3  0  0  0  0  0  0
    1.5250   -1.5330   -5.0610 C   0  0  0  0  0  0  0  0  0  0  0  0
    2.7700   -2.1290   -4.8360 C   0  0  0  0  0  3  0  0  0  0  0  0
    2.9800   -2.7930   -3.6140 C   0  0  0  0  0  0  0  0  0  0  0  0
    1.2820   -0.8420   -6.3390 C   0  0  0  0  0  0  0  0  0  0  0  0
    1.0040    0.3450   -6.3850 O   0  0  0  0  0  0  0  0  0  0  0  0
    1.5180   -1.5850   -7.5150 N   0  0  0  0  0  0  0  0  0  0  0  0
    0.5370   -2.8740   -7.9290 S   0  0  0  0  0  0  0  0  0  0  0  0
   -0.7720   -2.6400   -7.3670 O   0  0  0  0  0  0  0  0  0  0  0  0
    0.7170   -3.0450   -9.3530 O   0  0  0  0  0  0  0  0  0  0  0  0
    1.2450   -4.1590   -7.1550 N   0  0  0  0  0  0  0  0  0  0  0  0
    0.6720   -4.6980   -5.9180 C   0  0  0  0  0  1  0  0  0  0  0  0
    2.5440   -4.6980   -7.6000 C   0  0  0  0  0  2  0  0  0  0  0  0
    2.4360   -6.2130   -7.7870 C   0  0  0  0  0  2  0  0  0  0  0  0
    3.6990   -6.9260   -8.2740 C   0  0  0  0  0  2  0  0  0  0  0  0
    5.0190   -6.6070   -7.5590 C   0  0  0  0  0  2  0  0  0  0  0  0
    4.9580   -6.4260   -6.1040 N   0  0  0  0  0  0  0  0  0  0  0  0
    4.3420   -7.4830   -5.3100 C   0  0  0  0  0  1  0  0  0  0  0  0
    5.6820   -5.3600   -5.5750 C   0  0  0  0  0  0  0  0  0  0  0  0
    6.3190   -4.5780   -6.2830 O   0  0  0  0  0  0  0  0  0  0  0  0
    1.4720   -0.9540   -8.3150 H   0  0  0  0  0  0  0  0  0  0  0  0
    1.7660   -4.3880   -0.4130 C   0  0  0  0  0  3  0  0  0  0  0  0
    1.1890   -3.4220    0.6280 C   0  0  0  0  0  2  0  0  0  0  0  0
    0.5750   -4.1820    1.8060 C   0  0  0  0  0  2  0  0  0  0  0  0
   -0.5120   -5.1440    1.3330 C   0  0  0  0  0  2  0  0  0  0  0  0
    0.0010   -6.0890    0.2500 C   0  0  0  0  0  2  0  0  0  0  0  0
    0.6540   -5.3360   -0.9080 C   0  0  0  0  0  2  0  0  0  0  0  0
    8.4710   -7.7320    0.4150 C   0  0  0  0  0  1  0  0  0  0  0  0
    7.8730   -6.6500    1.1200 O   0  0  0  0  0  0  0  0  0  0  0  0
  1  2  1  0  0  0  0
  1 43  1  0  0  0  0
  3  2  2  0  0  0  0
  4  3  1  0  0  0  0
  5  4  2  0  0  0  0
  5  6  1  0  0  0  0
  6  1  2  0  0  0  0
  7  5  1  0  0  0  0
  8  9  1  0  0  0  0
  8  7  2  0  0  0  0
  9 10  1  0  0  0  0
 10 11  1  0  0  0  0
 11 12  2  0  0  0  0
 11  4  1  0  0  0  0
 12 36  1  0  0  0  0
 13 12  1  0  0  0  0
 14 13  1  0  0  0  0
 15 14  2  0  0  0  0
 16 17  2  0  0  0  0
 16 15  1  0  0  0  0
 17 18  1  0  0  0  0
 18 10  1  0  0  0  0
 18 13  2  0  0  0  0
 19 16  1  0  0  0  0
 20 19  2  0  0  0  0
 21 19  1  0  0  0  0
 22 21  1  0  0  0  0
 22 23  2  0  0  0  0
 22 25  1  0  0  0  0
 24 22  2  0  0  0  0
 25 26  1  0  0  0  0
 27 25  1  0  0  0  0
 28 27  1  0  0  0  0
 29 28  1  0  0  0  0
 29 30  1  0  0  0  0
 30 31  1  0  0  0  0
 31 33  1  0  0  0  0
 31 32  1  0  0  0  0
 33  8  1  0  0  0  0
 34 33  2  0  0  0  0
 35 21  1  0  0  0  0
 36 37  1  0  0  0  0
 37 38  1  0  0  0  0
 39 38  1  0  0  0  0
 40 39  1  0  0  0  0
 41 36  1  0  0  0  0
 41 40  1  0  0  0  0
 42 43  1  0  0  0  0
M  END
>  <minimizedAffinity>
-4.83466434

$$$$

 OpenBabel09082221293D

 43 48  0  0  0  0  0  0  0  0999 V2000
    8.6430   -6.9280   -6.0840 C   0  0  0  0  0  0  0  0  0  0  0  0
    8.6430   -5.7610   -5.3300 C   0  0  0  0  0  3  0  0  0  0  0  0
    7.4500   -5.0610   -5.1240 C   0  0  0  0  0  3  0  0  0  0  0  0
    6.2270   -5.5150   -5.6480 C   0  0  0  0  0  0  0  0  0  0  0  0
    6.2390   -6.6670   -6.4710 C   0  0  0  0  0  0  0  0  0  0  0  0
    7.4450   -7.3700   -6.6510 C   0  0  0  0  0  3  0  0  0  0  0  0
    5.0590   -7.2080   -7.1810 C   0  0  0  0  0  3  0  0  0  0  0  0
    4.0980   -6.4280   -7.7090 C   0  0  0  0  0  0  0  0  0  0  0  0
    4.1890   -4.9260   -7.7120 C   0  0  0  0  0  2  0  0  0  0  0  0
    4.0840   -4.4250   -6.3470 N   0  0  0  0  0  0  0  0  0  0  0  0
    5.0000   -4.7280   -5.3600 C   0  0  0  0  0  0  0  0  0  0  0  0
    4.4920   -4.2070   -4.1590 C   0  0  0  0  0  0  0  0  0  0  0  0
    3.3200   -3.4300   -4.5040 C   0  0  0  0  0  0  0  0  0  0  0  0
    2.4250   -2.5860   -3.7990 C   0  0  0  0  0  3  0  0  0  0  0  0
    1.3100   -2.0230   -4.4360 C   0  0  0  0  0  3  0  0  0  0  0  0
    1.0450   -2.3340   -5.7620 C   0  0  0  0  0  0  0  0  0  0  0  0
    1.9220   -3.1300   -6.5050 C   0  0  0  0  0  3  0  0  0  0  0  0
    3.0610   -3.6460   -5.8610 C   0  0  0  0  0  0  0  0  0  0  0  0
   -0.1600   -1.7920   -6.4160 C   0  0  0  0  0  0  0  0  0  0  0  0
   -0.3580   -0.5920   -6.5060 O   0  0  0  0  0  0  0  0  0  0  0  0
   -1.0070   -2.7240   -7.0520 N   0  0  0  0  0  0  0  0  0  0  0  0
   -1.8860   -3.8340   -6.1620 S   0  0  0  0  0  0  0  0  0  0  0  0
   -2.1390   -3.2660   -4.8600 O   0  0  0  0  0  0  0  0  0  0  0  0
   -2.9740   -4.2350   -7.0250 O   0  0  0  0  0  0  0  0  0  0  0  0
   -0.8420   -5.1150   -6.0090 N   0  0  0  0  0  0  0  0  0  0  0  0
   -0.1230   -5.3500   -4.7530 C   0  0  0  0  0  1  0  0  0  0  0  0
   -0.4950   -5.9620   -7.1650 C   0  0  0  0  0  2  0  0  0  0  0  0
   -0.7020   -7.4340   -6.8080 C   0  0  0  0  0  2  0  0  0  0  0  0
   -0.4090   -8.4480   -7.9150 C   0  0  0  0  0  2  0  0  0  0  0  0
    0.9130   -8.3050   -8.6820 C   0  0  0  0  0  2  0  0  0  0  0  0
    2.0930   -7.9140   -7.9010 N   0  0  0  0  0  0  0  0  0  0  0  0
    2.4220   -8.7040   -6.7210 C   0  0  0  0  0  1  0  0  0  0  0  0
    2.9270   -6.9520   -8.4660 C   0  0  0  0  0  0  0  0  0  0  0  0
    2.6830   -6.4210   -9.5510 O   0  0  0  0  0  0  0  0  0  0  0  0
   -1.7040   -2.2150   -7.5950 H   0  0  0  0  0  0  0  0  0  0  0  0
    5.0730   -4.5020   -2.7820 C   0  0  0  0  0  3  0  0  0  0  0  0
    4.7580   -3.4910   -1.6730 C   0  0  0  0  0  2  0  0  0  0  0  0
    5.4880   -3.8480   -0.3770 C   0  0  0  0  0  2  0  0  0  0  0  0
    5.1280   -5.2560    0.0880 C   0  0  0  0  0  2  0  0  0  0  0  0
    5.3680   -6.2930   -1.0060 C   0  0  0  0  0  2  0  0  0  0  0  0
    4.6760   -5.9180   -2.3150 C   0  0  0  0  0  2  0  0  0  0  0  0
    9.6840   -8.4780   -7.5550 C   0  0  0  0  0  1  0  0  0  0  0  0
    9.7290   -7.7110   -6.3580 O   0  0  0  0  0  0  0  0  0  0  0  0
  1  2  1  0  0  0  0
  2  3  2  0  0  0  0
  4 11  1  0  0  0  0
  4  3  1  0  0  0  0
  5  4  2  0  0  0  0
  6  5  1  0  0  0  0
  6  1  2  0  0  0  0
  7  5  1  0  0  0  0
  8  7  2  0  0  0  0
  9  8  1  0  0  0  0
  9 10  1  0  0  0  0
 10 18  1  0  0  0  0
 10 11  1  0  0  0  0
 11 12  2  0  0  0  0
 12 36  1  0  0  0  0
 13 12  1  0  0  0  0
 13 14  1  0  0  0  0
 15 14  2  0  0  0  0
 16 15  1  0  0  0  0
 17 18  1  0  0  0  0
 17 16  2  0  0  0  0
 18 13  2  0  0  0  0
 19 16  1  0  0  0  0
 20 19  2  0  0  0  0
 21 19  1  0  0  0  0
 21 22  1  0  0  0  0
 22 25  1  0  0  0  0
 22 23  2  0  0  0  0
 24 22  2  0  0  0  0
 25 26  1  0  0  0  0
 27 28  1  0  0  0  0
 27 25  1  0  0  0  0
 29 28  1  0  0  0  0
 30 29  1  0  0  0  0
 30 31  1  0  0  0  0
 31 32  1  0  0  0  0
 33 31  1  0  0  0  0
 33  8  1  0  0  0  0
 34 33  2  0  0  0  0
 35 21  1  0  0  0  0
 36 41  1  0  0  0  0
 36 37  1  0  0  0  0
 37 38  1  0  0  0  0
 38 39  1  0  0  0  0
 40 39  1  0  0  0  0
 41 40  1  0  0  0  0
 42 43  1  0  0  0  0
 43  1  1  0  0  0  0
M  END
>  <minimizedAffinity>
-4.74109364

$$$$

 OpenBabel09082221293D

 43 48  0  0  0  0  0  0  0  0999 V2000
    2.5060   -4.0100  -10.3970 C   0  0  0  0  0  0  0  0  0  0  0  0
    3.8470   -4.2300  -10.1110 C   0  0  0  0  0  3  0  0  0  0  0  0
    4.2690   -4.3500   -8.7830 C   0  0  0  0  0  3  0  0  0  0  0  0
    3.3640   -4.2700   -7.7100 C   0  0  0  0  0  0  0  0  0  0  0  0
    2.0080   -3.9800   -7.9990 C   0  0  0  0  0  0  0  0  0  0  0  0
    1.5990   -3.8820   -9.3420 C   0  0  0  0  0  3  0  0  0  0  0  0
    0.9580   -3.7590   -6.9810 C   0  0  0  0  0  3  0  0  0  0  0  0
    1.1910   -3.1440   -5.8070 C   0  0  0  0  0  0  0  0  0  0  0  0
    2.5230   -2.5340   -5.4660 C   0  0  0  0  0  2  0  0  0  0  0  0
    3.5190   -3.5860   -5.3070 N   0  0  0  0  0  0  0  0  0  0  0  0
    3.8880   -4.4360   -6.3300 C   0  0  0  0  0  0  0  0  0  0  0  0
    4.7380   -5.4030   -5.7700 C   0  0  0  0  0  0  0  0  0  0  0  0
    4.9970   -4.9910   -4.4060 C   0  0  0  0  0  0  0  0  0  0  0  0
    5.8270   -5.4520   -3.3520 C   0  0  0  0  0  3  0  0  0  0  0  0
    5.7870   -4.8520   -2.0870 C   0  0  0  0  0  3  0  0  0  0  0  0
    4.8880   -3.8230   -1.8400 C   0  0  0  0  0  0  0  0  0  0  0  0
    4.0790   -3.3130   -2.8600 C   0  0  0  0  0  3  0  0  0  0  0  0
    4.1680   -3.8970   -4.1360 C   0  0  0  0  0  0  0  0  0  0  0  0
    4.8010   -3.2320   -0.4920 C   0  0  0  0  0  0  0  0  0  0  0  0
    5.7660   -2.7120    0.0440 O   0  0  0  0  0  0  0  0  0  0  0  0
    3.5190   -3.1740    0.0910 N   0  0  0  0  0  0  0  0  0  0  0  0
    2.7230   -4.5680    0.5610 S   0  0  0  0  0  0  0  0  0  0  0  0
    3.7170   -5.5630    0.8850 O   0  0  0  0  0  0  0  0  0  0  0  0
    1.7520   -4.1380    1.5400 O   0  0  0  0  0  0  0  0  0  0  0  0
    1.9130   -5.0280   -0.8120 N   0  0  0  0  0  0  0  0  0  0  0  0
    2.4110   -6.1270   -1.6450 C   0  0  0  0  0  1  0  0  0  0  0  0
    0.7600   -4.2570   -1.3140 C   0  0  0  0  0  2  0  0  0  0  0  0
   -0.4220   -5.1960   -1.5580 C   0  0  0  0  0  2  0  0  0  0  0  0
   -1.7120   -4.5450   -2.0590 C   0  0  0  0  0  2  0  0  0  0  0  0
   -1.6070   -3.5650   -3.2350 C   0  0  0  0  0  2  0  0  0  0  0  0
   -0.6570   -3.9080   -4.3000 N   0  0  0  0  0  0  0  0  0  0  0  0
   -0.7670   -5.2270   -4.9140 C   0  0  0  0  0  1  0  0  0  0  0  0
    0.1370   -2.8730   -4.7900 C   0  0  0  0  0  0  0  0  0  0  0  0
    0.0810   -1.7280   -4.3380 O   0  0  0  0  0  0  0  0  0  0  0  0
    3.5690   -2.6050    0.9360 H   0  0  0  0  0  0  0  0  0  0  0  0
    5.2040   -6.6600   -6.4950 C   0  0  0  0  0  3  0  0  0  0  0  0
    6.7180   -6.8770   -6.5880 C   0  0  0  0  0  2  0  0  0  0  0  0
    7.0480   -8.1110   -7.4300 C   0  0  0  0  0  2  0  0  0  0  0  0
    6.3800   -9.3600   -6.8610 C   0  0  0  0  0  2  0  0  0  0  0  0
    4.8750   -9.1700   -6.6930 C   0  0  0  0  0  2  0  0  0  0  0  0
    4.5400   -7.9140   -5.8890 C   0  0  0  0  0  2  0  0  0  0  0  0
    1.1490   -2.7330  -11.8740 C   0  0  0  0  0  1  0  0  0  0  0  0
    1.9570   -3.8810  -11.6420 O   0  0  0  0  0  0  0  0  0  0  0  0
  1  2  2  0  0  0  0
  1  6  1  0  0  0  0
  2  3  1  0  0  0  0
  3  4  2  0  0  0  0
  4 11  1  0  0  0  0
  5  4  1  0  0  0  0
  5  7  1  0  0  0  0
  6  5  2  0  0  0  0
  7  8  2  0  0  0  0
  8  9  1  0  0  0  0
  8 33  1  0  0  0  0
  9 10  1  0  0  0  0
 10 18  1  0  0  0  0
 11 12  2  0  0  0  0
 11 10  1  0  0  0  0
 12 13  1  0  0  0  0
 13 18  2  0  0  0  0
 13 14  1  0  0  0  0
 14 15  2  0  0  0  0
 15 16  1  0  0  0  0
 16 19  1  0  0  0  0
 17 16  2  0  0  0  0
 18 17  1  0  0  0  0
 19 20  2  0  0  0  0
 19 21  1  0  0  0  0
 21 22  1  0  0  0  0
 21 35  1  0  0  0  0
 22 23  2  0  0  0  0
 22 24  2  0  0  0  0
 25 22  1  0  0  0  0
 26 25  1  0  0  0  0
 27 25  1  0  0  0  0
 28 27  1  0  0  0  0
 29 28  1  0  0  0  0
 30 29  1  0  0  0  0
 31 30  1  0  0  0  0
 32 31  1  0  0  0  0
 33 34  2  0  0  0  0
 33 31  1  0  0  0  0
 36 41  1  0  0  0  0
 36 12  1  0  0  0  0
 37 36  1  0  0  0  0
 38 39  1  0  0  0  0
 38 37  1  0  0  0  0
 39 40  1  0  0  0  0
 40 41  1  0  0  0  0
 42 43  1  0  0  0  0
 43  1  1  0  0  0  0
M  END
>  <minimizedAffinity>
-4.63162804

$$$$

 OpenBabel09082221293D

 43 48  0  0  0  0  0  0  0  0999 V2000
    0.0820   -0.9120   -4.8370 C   0  0  0  0  0  0  0  0  0  0  0  0
    0.4760   -1.2380   -6.1290 C   0  0  0  0  0  3  0  0  0  0  0  0
    1.4760   -2.1940   -6.3350 C   0  0  0  0  0  3  0  0  0  0  0  0
    2.0960   -2.8590   -5.2630 C   0  0  0  0  0  0  0  0  0  0  0  0
    1.7410   -2.4780   -3.9450 C   0  0  0  0  0  0  0  0  0  0  0  0
    0.7190   -1.5290   -3.7570 C   0  0  0  0  0  3  0  0  0  0  0  0
    2.3760   -3.0030   -2.7170 C   0  0  0  0  0  3  0  0  0  0  0  0
    3.6840   -3.3080   -2.6380 C   0  0  0  0  0  0  0  0  0  0  0  0
    4.6430   -3.0460   -3.7670 C   0  0  0  0  0  2  0  0  0  0  0  0
    4.3310   -3.9220   -4.8890 N   0  0  0  0  0  0  0  0  0  0  0  0
    3.1300   -3.8800   -5.5680 C   0  0  0  0  0  0  0  0  0  0  0  0
    3.1320   -4.9600   -6.4660 C   0  0  0  0  0  0  0  0  0  0  0  0
    4.4560   -5.5420   -6.4160 C   0  0  0  0  0  0  0  0  0  0  0  0
    5.1370   -6.5650   -7.1240 C   0  0  0  0  0  3  0  0  0  0  0  0
    6.4380   -6.9470   -6.7680 C   0  0  0  0  0  3  0  0  0  0  0  0
    7.0550   -6.3540   -5.6750 C   0  0  0  0  0  0  0  0  0  0  0  0
    6.4360   -5.3150   -4.9740 C   0  0  0  0  0  3  0  0  0  0  0  0
    5.1490   -4.9130   -5.3760 C   0  0  0  0  0  0  0  0  0  0  0  0
    8.3990   -6.7970   -5.2610 C   0  0  0  0  0  0  0  0  0  0  0  0
    9.3550   -6.7400   -6.0170 O   0  0  0  0  0  0  0  0  0  0  0  0
    8.5550   -7.1640   -3.9090 N   0  0  0  0  0  0  0  0  0  0  0  0
    7.8220   -8.5390   -3.3000 S   0  0  0  0  0  0  0  0  0  0  0  0
    7.6670   -9.4810   -4.3820 O   0  0  0  0  0  0  0  0  0  0  0  0
    8.5800   -8.8800   -2.1180 O   0  0  0  0  0  0  0  0  0  0  0  0
    6.3280   -7.9980   -2.8250 N   0  0  0  0  0  0  0  0  0  0  0  0
    5.1390   -8.2670   -3.6400 C   0  0  0  0  0  1  0  0  0  0  0  0
    6.1710   -7.1110   -1.6570 C   0  0  0  0  0  2  0  0  0  0  0  0
    5.1110   -7.6820   -0.7140 C   0  0  0  0  0  2  0  0  0  0  0  0
    4.8450   -6.8880    0.5670 C   0  0  0  0  0  2  0  0  0  0  0  0
    4.6300   -5.3750    0.4360 C   0  0  0  0  0  2  0  0  0  0  0  0
    3.8590   -4.9130   -0.7240 N   0  0  0  0  0  0  0  0  0  0  0  0
    2.5450   -5.5040   -0.9500 C   0  0  0  0  0  1  0  0  0  0  0  0
    4.3490   -3.7950   -1.3960 C   0  0  0  0  0  0  0  0  0  0  0  0
    5.3940   -3.2320   -1.0670 O   0  0  0  0  0  0  0  0  0  0  0  0
    9.5480   -7.2910   -3.7170 H   0  0  0  0  0  0  0  0  0  0  0  0
    1.9140   -5.4190   -7.2580 C   0  0  0  0  0  3  0  0  0  0  0  0
    2.0130   -5.3260   -8.7850 C   0  0  0  0  0  2  0  0  0  0  0  0
    0.6900   -5.7130   -9.4490 C   0  0  0  0  0  2  0  0  0  0  0  0
    0.2630   -7.1210   -9.0420 C   0  0  0  0  0  2  0  0  0  0  0  0
    0.2080   -7.2810   -7.5260 C   0  0  0  0  0  2  0  0  0  0  0  0
    1.5130   -6.8540   -6.8550 C   0  0  0  0  0  2  0  0  0  0  0  0
   -0.6060    0.8330   -3.3770 C   0  0  0  0  0  1  0  0  0  0  0  0
   -0.8810   -0.0070   -4.4920 O   0  0  0  0  0  0  0  0  0  0  0  0
  1 43  1  0  0  0  0
  1  6  1  0  0  0  0
  2  1  2  0  0  0  0
  3  2  1  0  0  0  0
  3  4  2  0  0  0  0
  4  5  1  0  0  0  0
  5  6  2  0  0  0  0
  5  7  1  0  0  0  0
  7  8  2  0  0  0  0
  8 33  1  0  0  0  0
  9  8  1  0  0  0  0
 10  9  1  0  0  0  0
 11  4  1  0  0  0  0
 11 10  1  0  0  0  0
 12 13  1  0  0  0  0
 12 11  2  0  0  0  0
 13 18  1  0  0  0  0
 14 15  1  0  0  0  0
 14 13  2  0  0  0  0
 15 16  2  0  0  0  0
 16 19  1  0  0  0  0
 16 17  1  0  0  0  0
 18 17  2  0  0  0  0
 18 10  1  0  0  0  0
 19 21  1  0  0  0  0
 20 19  2  0  0  0  0
 21 35  1  0  0  0  0
 21 22  1  0  0  0  0
 22 25  1  0  0  0  0
 22 24  2  0  0  0  0
 23 22  2  0  0  0  0
 25 27  1  0  0  0  0
 26 25  1  0  0  0  0
 27 28  1  0  0  0  0
 28 29  1  0  0  0  0
 30 29  1  0  0  0  0
 31 30  1  0  0  0  0
 32 31  1  0  0  0  0
 33 34  2  0  0  0  0
 33 31  1  0  0  0  0
 36 41  1  0  0  0  0
 36 12  1  0  0  0  0
 37 36  1  0  0  0  0
 38 39  1  0  0  0  0
 38 37  1  0  0  0  0
 39 40  1  0  0  0  0
 40 41  1  0  0  0  0
 43 42  1  0  0  0  0
M  END
>  <minimizedAffinity>
-4.62681532

$$$$

 OpenBabel09082221293D

 43 48  0  0  0  0  0  0  0  0999 V2000
    8.4050   -6.8890   -5.9990 C   0  0  0  0  0  0  0  0  0  0  0  0
    8.2770   -5.7370   -5.2340 C   0  0  0  0  0  3  0  0  0  0  0  0
    7.0640   -5.0390   -5.2160 C   0  0  0  0  0  3  0  0  0  0  0  0
    5.9470   -5.4810   -5.9460 C   0  0  0  0  0  0  0  0  0  0  0  0
    6.0980   -6.6180   -6.7770 C   0  0  0  0  0  0  0  0  0  0  0  0
    7.3190   -7.3180   -6.7660 C   0  0  0  0  0  3  0  0  0  0  0  0
    5.0550   -7.1430   -7.6840 C   0  0  0  0  0  3  0  0  0  0  0  0
    4.1940   -6.3530   -8.3500 C   0  0  0  0  0  0  0  0  0  0  0  0
    4.2810   -4.8510   -8.3090 C   0  0  0  0  0  2  0  0  0  0  0  0
    3.9490   -4.3760   -6.9720 N   0  0  0  0  0  0  0  0  0  0  0  0
    4.6880   -4.6990   -5.8510 C   0  0  0  0  0  0  0  0  0  0  0  0
    3.9850   -4.2010   -4.7430 C   0  0  0  0  0  0  0  0  0  0  0  0
    2.8860   -3.4160   -5.2630 C   0  0  0  0  0  0  0  0  0  0  0  0
    1.8830   -2.5840   -4.7020 C   0  0  0  0  0  3  0  0  0  0  0  0
    0.8890   -2.0080   -5.5050 C   0  0  0  0  0  3  0  0  0  0  0  0
    0.8500   -2.2930   -6.8630 C   0  0  0  0  0  0  0  0  0  0  0  0
    1.8400   -3.0760   -7.4640 C   0  0  0  0  0  3  0  0  0  0  0  0
    2.8570   -3.6060   -6.6490 C   0  0  0  0  0  0  0  0  0  0  0  0
   -0.2300   -1.7380   -7.6990 C   0  0  0  0  0  0  0  0  0  0  0  0
   -0.4120   -0.5350   -7.7970 O   0  0  0  0  0  0  0  0  0  0  0  0
   -0.9570   -2.6560   -8.4840 N   0  0  0  0  0  0  0  0  0  0  0  0
   -1.9700   -3.7820   -7.7750 S   0  0  0  0  0  0  0  0  0  0  0  0
   -2.4380   -3.2380   -6.5230 O   0  0  0  0  0  0  0  0  0  0  0  0
   -2.8970   -4.1650   -8.8150 O   0  0  0  0  0  0  0  0  0  0  0  0
   -0.9640   -5.0670   -7.4740 N   0  0  0  0  0  0  0  0  0  0  0  0
   -0.4630   -5.3260   -6.1210 C   0  0  0  0  0  1  0  0  0  0  0  0
   -0.4270   -5.8910   -8.5720 C   0  0  0  0  0  2  0  0  0  0  0  0
   -0.6880   -7.3700   -8.2820 C   0  0  0  0  0  2  0  0  0  0  0  0
   -0.2110   -8.3630   -9.3440 C   0  0  0  0  0  2  0  0  0  0  0  0
    1.2190   -8.2070   -9.8760 C   0  0  0  0  0  2  0  0  0  0  0  0
    2.2520   -7.8320   -8.9030 N   0  0  0  0  0  0  0  0  0  0  0  0
    2.3810   -8.6450   -7.6990 C   0  0  0  0  0  1  0  0  0  0  0  0
    3.1670   -6.8610   -9.3020 C   0  0  0  0  0  0  0  0  0  0  0  0
    3.1060   -6.3090  -10.4020 O   0  0  0  0  0  0  0  0  0  0  0  0
   -1.5540   -2.1360   -9.1270 H   0  0  0  0  0  0  0  0  0  0  0  0
    4.3290   -4.5220   -3.2930 C   0  0  0  0  0  3  0  0  0  0  0  0
    4.5780   -3.3280   -2.3660 C   0  0  0  0  0  2  0  0  0  0  0  0
    5.0180   -3.7910   -0.9760 C   0  0  0  0  0  2  0  0  0  0  0  0
    3.9820   -4.7230   -0.3530 C   0  0  0  0  0  2  0  0  0  0  0  0
    3.6550   -5.8990   -1.2690 C   0  0  0  0  0  2  0  0  0  0  0  0
    3.2570   -5.4420   -2.6720 C   0  0  0  0  0  2  0  0  0  0  0  0
    9.6710   -8.4260   -7.2970 C   0  0  0  0  0  1  0  0  0  0  0  0
    9.5230   -7.6680   -6.1020 O   0  0  0  0  0  0  0  0  0  0  0  0
  1  2  1  0  0  0  0
  2  3  2  0  0  0  0
  4 11  1  0  0  0  0
  4  3  1  0  0  0  0
  5  6  1  0  0  0  0
  5  4  2  0  0  0  0
  6  1  2  0  0  0  0
  7  5  1  0  0  0  0
  8  9  1  0  0  0  0
  8  7  2  0  0  0  0
  9 10  1  0  0  0  0
 10 18  1  0  0  0  0
 10 11  1  0  0  0  0
 11 12  2  0  0  0  0
 12 36  1  0  0  0  0
 13 12  1  0  0  0  0
 13 14  1  0  0  0  0
 15 14  2  0  0  0  0
 16 15  1  0  0  0  0
 17 16  2  0  0  0  0
 17 18  1  0  0  0  0
 18 13  2  0  0  0  0
 19 16  1  0  0  0  0
 20 19  2  0  0  0  0
 21 22  1  0  0  0  0
 21 19  1  0  0  0  0
 22 25  1  0  0  0  0
 22 23  2  0  0  0  0
 24 22  2  0  0  0  0
 25 26  1  0  0  0  0
 27 28  1  0  0  0  0
 27 25  1  0  0  0  0
 29 28  1  0  0  0  0
 30 29  1  0  0  0  0
 30 31  1  0  0  0  0
 31 32  1  0  0  0  0
 33 31  1  0  0  0  0
 33  8  1  0  0  0  0
 34 33  2  0  0  0  0
 35 21  1  0  0  0  0
 36 41  1  0  0  0  0
 36 37  1  0  0  0  0
 37 38  1  0  0  0  0
 38 39  1  0  0  0  0
 40 39  1  0  0  0  0
 41 40  1  0  0  0  0
 42 43  1  0  0  0  0
 43  1  1  0  0  0  0
M  END
>  <minimizedAffinity>
-4.6086216

$$$$

 OpenBabel09082221293D

 43 48  0  0  0  0  0  0  0  0999 V2000
    2.6480   -2.9550   -8.2870 C   0  0  0  0  0  0  0  0  0  0  0  0
    3.5480   -3.7900   -8.9370 C   0  0  0  0  0  3  0  0  0  0  0  0
    4.3230   -4.6920   -8.2010 C   0  0  0  0  0  3  0  0  0  0  0  0
    4.2080   -4.7960   -6.8040 C   0  0  0  0  0  0  0  0  0  0  0  0
    3.3380   -3.9000   -6.1360 C   0  0  0  0  0  0  0  0  0  0  0  0
    2.5520   -3.0120   -6.8950 C   0  0  0  0  0  3  0  0  0  0  0  0
    3.1860   -3.8100   -4.6670 C   0  0  0  0  0  3  0  0  0  0  0  0
    4.2070   -3.9880   -3.8100 C   0  0  0  0  0  0  0  0  0  0  0  0
    5.6230   -4.1960   -4.2750 C   0  0  0  0  0  2  0  0  0  0  0  0
    5.7360   -5.4860   -4.9450 N   0  0  0  0  0  0  0  0  0  0  0  0
    5.0460   -5.7990   -6.0990 C   0  0  0  0  0  0  0  0  0  0  0  0
    5.2800   -7.1590   -6.3560 C   0  0  0  0  0  0  0  0  0  0  0  0
    6.2780   -7.5990   -5.4040 C   0  0  0  0  0  0  0  0  0  0  0  0
    7.0090   -8.7940   -5.1870 C   0  0  0  0  0  3  0  0  0  0  0  0
    7.8760   -8.9220   -4.0930 C   0  0  0  0  0  3  0  0  0  0  0  0
    7.9860   -7.8860   -3.1760 C   0  0  0  0  0  0  0  0  0  0  0  0
    7.3120   -6.6770   -3.3720 C   0  0  0  0  0  3  0  0  0  0  0  0
    6.4840   -6.5500   -4.5020 C   0  0  0  0  0  0  0  0  0  0  0  0
    8.8500   -8.0420   -1.9920 C   0  0  0  0  0  0  0  0  0  0  0  0
   10.0440   -8.2720   -2.0940 O   0  0  0  0  0  0  0  0  0  0  0  0
    8.2580   -7.7790   -0.7390 N   0  0  0  0  0  0  0  0  0  0  0  0
    7.0790   -8.7880   -0.1150 S   0  0  0  0  0  0  0  0  0  0  0  0
    7.2940  -10.1120   -0.6480 O   0  0  0  0  0  0  0  0  0  0  0  0
    7.0890   -8.5470    1.3090 O   0  0  0  0  0  0  0  0  0  0  0  0
    5.6730   -8.1660   -0.7400 N   0  0  0  0  0  0  0  0  0  0  0  0
    5.0020   -8.8170   -1.8690 C   0  0  0  0  0  1  0  0  0  0  0  0
    5.1410   -6.8690   -0.2830 C   0  0  0  0  0  2  0  0  0  0  0  0
    3.6710   -7.0250    0.1090 C   0  0  0  0  0  2  0  0  0  0  0  0
    2.9720   -5.7680    0.6340 C   0  0  0  0  0  2  0  0  0  0  0  0
    3.1370   -4.4720   -0.1720 C   0  0  0  0  0  2  0  0  0  0  0  0
    3.1280   -4.5960   -1.6350 N   0  0  0  0  0  0  0  0  0  0  0  0
    2.0030   -5.2880   -2.2540 C   0  0  0  0  0  1  0  0  0  0  0  0
    4.0820   -3.8580   -2.3310 C   0  0  0  0  0  0  0  0  0  0  0  0
    4.9220   -3.1580   -1.7610 O   0  0  0  0  0  0  0  0  0  0  0  0
    8.9900   -7.7630   -0.0290 H   0  0  0  0  0  0  0  0  0  0  0  0
    4.5370   -7.9740   -7.4080 C   0  0  0  0  0  3  0  0  0  0  0  0
    5.3790   -8.5430   -8.5560 C   0  0  0  0  0  2  0  0  0  0  0  0
    4.4970   -9.2420   -9.5930 C   0  0  0  0  0  2  0  0  0  0  0  0
    3.6730  -10.3560   -8.9520 C   0  0  0  0  0  2  0  0  0  0  0  0
    2.8620   -9.8490   -7.7640 C   0  0  0  0  0  2  0  0  0  0  0  0
    3.7320   -9.1120   -6.7460 C   0  0  0  0  0  2  0  0  0  0  0  0
    1.9650   -0.6840   -8.4600 C   0  0  0  0  0  1  0  0  0  0  0  0
    1.8280   -2.0360   -8.8800 O   0  0  0  0  0  0  0  0  0  0  0  0
  1  6  1  0  0  0  0
  2  1  2  0  0  0  0
  2  3  1  0  0  0  0
  3  4  2  0  0  0  0
  4  5  1  0  0  0  0
  4 11  1  0  0  0  0
  5  7  1  0  0  0  0
  6  5  2  0  0  0  0
  7  8  2  0  0  0  0
  8 33  1  0  0  0  0
  9  8  1  0  0  0  0
 10 18  1  0  0  0  0
 10  9  1  0  0  0  0
 11 10  1  0  0  0  0
 12 11  2  0  0  0  0
 12 13  1  0  0  0  0
 13 14  2  0  0  0  0
 13 18  1  0  0  0  0
 14 15  1  0  0  0  0
 15 16  2  0  0  0  0
 16 19  1  0  0  0  0
 17 16  1  0  0  0  0
 18 17  2  0  0  0  0
 19 21  1  0  0  0  0
 20 19  2  0  0  0  0
 21 22  1  0  0  0  0
 21 35  1  0  0  0  0
 22 24  2  0  0  0  0
 23 22  2  0  0  0  0
 25 27  1  0  0  0  0
 25 22  1  0  0  0  0
 26 25  1  0  0  0  0
 27 28  1  0  0  0  0
 28 29  1  0  0  0  0
 30 29  1  0  0  0  0
 31 30  1  0  0  0  0
 32 31  1  0  0  0  0
 33 34  2  0  0  0  0
 33 31  1  0  0  0  0
 36 41  1  0  0  0  0
 36 12  1  0  0  0  0
 37 36  1  0  0  0  0
 38 39  1  0  0  0  0
 38 37  1  0  0  0  0
 39 40  1  0  0  0  0
 40 41  1  0  0  0  0
 43 42  1  0  0  0  0
 43  1  1  0  0  0  0
M  END
>  <minimizedAffinity>
-4.5800786

$$$$

 OpenBabel09082221293D

 43 48  0  0  0  0  0  0  0  0999 V2000
    2.4900   -3.5770   -0.7460 C   0  0  0  0  0  0  0  0  0  0  0  0
    3.1280   -4.7840   -1.0050 C   0  0  0  0  0  3  0  0  0  0  0  0
    3.2430   -5.2470   -2.3200 C   0  0  0  0  0  3  0  0  0  0  0  0
    2.7410   -4.5130   -3.4080 C   0  0  0  0  0  0  0  0  0  0  0  0
    2.0330   -3.3160   -3.1380 C   0  0  0  0  0  0  0  0  0  0  0  0
    1.9450   -2.8560   -1.8110 C   0  0  0  0  0  3  0  0  0  0  0  0
    1.3550   -2.4900   -4.1600 C   0  0  0  0  0  3  0  0  0  0  0  0
    0.7350   -3.0110   -5.2350 C   0  0  0  0  0  0  0  0  0  0  0  0
    0.5900   -4.4940   -5.4420 C   0  0  0  0  0  2  0  0  0  0  0  0
    1.8980   -5.0850   -5.6950 N   0  0  0  0  0  0  0  0  0  0  0  0
    2.9280   -5.0610   -4.7760 C   0  0  0  0  0  0  0  0  0  0  0  0
    4.0630   -5.5760   -5.4230 C   0  0  0  0  0  0  0  0  0  0  0  0
    3.6220   -6.0700   -6.7110 C   0  0  0  0  0  0  0  0  0  0  0  0
    4.2240   -6.7770   -7.7810 C   0  0  0  0  0  3  0  0  0  0  0  0
    3.5150   -7.0460   -8.9600 C   0  0  0  0  0  3  0  0  0  0  0  0
    2.2190   -6.5710   -9.1070 C   0  0  0  0  0  0  0  0  0  0  0  0
    1.5740   -5.9020   -8.0630 C   0  0  0  0  0  3  0  0  0  0  0  0
    2.2870   -5.6840   -6.8700 C   0  0  0  0  0  0  0  0  0  0  0  0
    1.4930   -6.7990  -10.3690 C   0  0  0  0  0  0  0  0  0  0  0  0
    1.2840   -7.9230  -10.7960 O   0  0  0  0  0  0  0  0  0  0  0  0
    0.9330   -5.6640  -10.9910 N   0  0  0  0  0  0  0  0  0  0  0  0
    1.9080   -4.4850  -11.6680 S   0  0  0  0  0  0  0  0  0  0  0  0
    3.1440   -5.1070  -12.0780 O   0  0  0  0  0  0  0  0  0  0  0  0
    1.0660   -3.7990  -12.6210 O   0  0  0  0  0  0  0  0  0  0  0  0
    2.2040   -3.4580  -10.3990 N   0  0  0  0  0  0  0  0  0  0  0  0
    3.4900   -3.4860   -9.6960 C   0  0  0  0  0  1  0  0  0  0  0  0
    1.1410   -2.5970   -9.8470 C   0  0  0  0  0  2  0  0  0  0  0  0
    1.6350   -1.1510   -9.7740 C   0  0  0  0  0  2  0  0  0  0  0  0
    0.6360   -0.1200   -9.2440 C   0  0  0  0  0  2  0  0  0  0  0  0
   -0.1150   -0.4550   -7.9480 C   0  0  0  0  0  2  0  0  0  0  0  0
    0.6480   -1.1430   -6.8990 N   0  0  0  0  0  0  0  0  0  0  0  0
    1.9050   -0.5440   -6.4660 C   0  0  0  0  0  1  0  0  0  0  0  0
    0.0090   -2.1970   -6.2500 C   0  0  0  0  0  0  0  0  0  0  0  0
   -1.1260   -2.5680   -6.5520 O   0  0  0  0  0  0  0  0  0  0  0  0
    0.3290   -5.9720  -11.7530 H   0  0  0  0  0  0  0  0  0  0  0  0
    5.4730   -5.5290   -4.8480 C   0  0  0  0  0  3  0  0  0  0  0  0
    6.0390   -6.8480   -4.3100 C   0  0  0  0  0  2  0  0  0  0  0  0
    7.4110   -6.6380   -3.6670 C   0  0  0  0  0  2  0  0  0  0  0  0
    8.3940   -6.0180   -4.6570 C   0  0  0  0  0  2  0  0  0  0  0  0
    7.8470   -4.7310   -5.2670 C   0  0  0  0  0  2  0  0  0  0  0  0
    6.4580   -4.9270   -5.8720 C   0  0  0  0  0  2  0  0  0  0  0  0
    1.6670   -1.7390    0.5160 C   0  0  0  0  0  1  0  0  0  0  0  0
    2.3140   -3.0050    0.4820 O   0  0  0  0  0  0  0  0  0  0  0  0
  1 43  1  0  0  0  0
  2  1  1  0  0  0  0
  3  2  2  0  0  0  0
  4  5  2  0  0  0  0
  4  3  1  0  0  0  0
  5  6  1  0  0  0  0
  6  1  2  0  0  0  0
  7  5  1  0  0  0  0
  8  7  2  0  0  0  0
  9  8  1  0  0  0  0
 10  9  1  0  0  0  0
 10 11  1  0  0  0  0
 11  4  1  0  0  0  0
 12 36  1  0  0  0  0
 12 11  2  0  0  0  0
 13 12  1  0  0  0  0
 14 13  2  0  0  0  0
 15 14  1  0  0  0  0
 16 15  2  0  0  0  0
 16 17  1  0  0  0  0
 17 18  2  0  0  0  0
 18 13  1  0  0  0  0
 18 10  1  0  0  0  0
 19 16  1  0  0  0  0
 20 19  2  0  0  0  0
 21 19  1  0  0  0  0
 22 21  1  0  0  0  0
 22 25  1  0  0  0  0
 23 22  2  0  0  0  0
 24 22  2  0  0  0  0
 25 27  1  0  0  0  0
 25 26  1  0  0  0  0
 27 28  1  0  0  0  0
 28 29  1  0  0  0  0
 29 30  1  0  0  0  0
 30 31  1  0  0  0  0
 31 32  1  0  0  0  0
 31 33  1  0  0  0  0
 33  8  1  0  0  0  0
 34 33  2  0  0  0  0
 35 21  1  0  0  0  0
 36 37  1  0  0  0  0
 37 38  1  0  0  0  0
 39 38  1  0  0  0  0
 40 39  1  0  0  0  0
 41 40  1  0  0  0  0
 41 36  1  0  0  0  0
 43 42  1  0  0  0  0
M  END
>  <minimizedAffinity>
-4.53214216

$$$$

 OpenBabel09082221293D

 43 48  0  0  0  0  0  0  0  0999 V2000
    0.8060   -4.1100  -13.8530 C   0  0  0  0  0  0  0  0  0  0  0  0
    1.6570   -5.2080  -13.8290 C   0  0  0  0  0  3  0  0  0  0  0  0
    2.3390   -5.5390  -12.6530 C   0  0  0  0  0  3  0  0  0  0  0  0
    2.1760   -4.7970  -11.4710 C   0  0  0  0  0  0  0  0  0  0  0  0
    1.3600   -3.6400  -11.5150 C   0  0  0  0  0  0  0  0  0  0  0  0
    0.6670   -3.3330  -12.7010 C   0  0  0  0  0  3  0  0  0  0  0  0
    1.1740   -2.6970  -10.3900 C   0  0  0  0  0  3  0  0  0  0  0  0
    2.1540   -2.3840   -9.5240 C   0  0  0  0  0  0  0  0  0  0  0  0
    3.5620   -2.8910   -9.6800 C   0  0  0  0  0  2  0  0  0  0  0  0
    3.5930   -4.3310   -9.4610 N   0  0  0  0  0  0  0  0  0  0  0  0
    2.9140   -5.2310  -10.2570 C   0  0  0  0  0  0  0  0  0  0  0  0
    3.0490   -6.4910   -9.6540 C   0  0  0  0  0  0  0  0  0  0  0  0
    3.9820   -6.3330   -8.5590 C   0  0  0  0  0  0  0  0  0  0  0  0
    4.6120   -7.2040   -7.6350 C   0  0  0  0  0  3  0  0  0  0  0  0
    5.4360   -6.7050   -6.6160 C   0  0  0  0  0  3  0  0  0  0  0  0
    5.6000   -5.3340   -6.4730 C   0  0  0  0  0  0  0  0  0  0  0  0
    5.0280   -4.4410   -7.3850 C   0  0  0  0  0  3  0  0  0  0  0  0
    4.2440   -4.9650   -8.4290 C   0  0  0  0  0  0  0  0  0  0  0  0
    6.4150   -4.8030   -5.3660 C   0  0  0  0  0  0  0  0  0  0  0  0
    7.5900   -5.1050   -5.2320 O   0  0  0  0  0  0  0  0  0  0  0  0
    5.8110   -3.8270   -4.5470 N   0  0  0  0  0  0  0  0  0  0  0  0
    4.5400   -4.2200   -3.5340 S   0  0  0  0  0  0  0  0  0  0  0  0
    4.6660   -5.6120   -3.1760 O   0  0  0  0  0  0  0  0  0  0  0  0
    4.5280   -3.1880   -2.5230 O   0  0  0  0  0  0  0  0  0  0  0  0
    3.2050   -4.0200   -4.4990 N   0  0  0  0  0  0  0  0  0  0  0  0
    2.5170   -5.1790   -5.0770 C   0  0  0  0  0  1  0  0  0  0  0  0
    2.7620   -2.6790   -4.9240 C   0  0  0  0  0  2  0  0  0  0  0  0
    1.2740   -2.5060   -4.6160 C   0  0  0  0  0  2  0  0  0  0  0  0
    0.6610   -1.1510   -4.9750 C   0  0  0  0  0  2  0  0  0  0  0  0
    0.9480   -0.5860   -6.3730 C   0  0  0  0  0  2  0  0  0  0  0  0
    0.9700   -1.5450   -7.4840 N   0  0  0  0  0  0  0  0  0  0  0  0
   -0.1870   -2.4160   -7.6560 C   0  0  0  0  0  1  0  0  0  0  0  0
    1.9980   -1.4030   -8.4130 C   0  0  0  0  0  0  0  0  0  0  0  0
    2.8730   -0.5420   -8.3040 O   0  0  0  0  0  0  0  0  0  0  0  0
    6.5220   -3.4300   -3.9320 H   0  0  0  0  0  0  0  0  0  0  0  0
    2.2750   -7.7330  -10.0790 C   0  0  0  0  0  3  0  0  0  0  0  0
    3.0170   -9.0710   -9.9840 C   0  0  0  0  0  2  0  0  0  0  0  0
    2.1670  -10.2150  -10.5410 C   0  0  0  0  0  2  0  0  0  0  0  0
    0.8300  -10.3120   -9.8120 C   0  0  0  0  0  2  0  0  0  0  0  0
    0.0790   -8.9840   -9.8270 C   0  0  0  0  0  2  0  0  0  0  0  0
    0.9390   -7.8310   -9.3120 C   0  0  0  0  0  2  0  0  0  0  0  0
    0.1360   -2.2900  -15.2280 C   0  0  0  0  0  1  0  0  0  0  0  0
    0.0770   -3.6790  -14.9260 O   0  0  0  0  0  0  0  0  0  0  0  0
  1  2  2  0  0  0  0
  1  6  1  0  0  0  0
  2  3  1  0  0  0  0
  3  4  2  0  0  0  0
  4 11  1  0  0  0  0
  5  4  1  0  0  0  0
  5  7  1  0  0  0  0
  6  5  2  0  0  0  0
  7  8  2  0  0  0  0
  8 33  1  0  0  0  0
  9  8  1  0  0  0  0
  9 10  1  0  0  0  0
 10 18  1  0  0  0  0
 11 12  2  0  0  0  0
 11 10  1  0  0  0  0
 12 13  1  0  0  0  0
 13 18  2  0  0  0  0
 13 14  1  0  0  0  0
 14 15  2  0  0  0  0
 15 16  1  0  0  0  0
 16 19  1  0  0  0  0
 17 16  2  0  0  0  0
 18 17  1  0  0  0  0
 19 20  2  0  0  0  0
 19 21  1  0  0  0  0
 21 35  1  0  0  0  0
 21 22  1  0  0  0  0
 22 23  2  0  0  0  0
 22 24  2  0  0  0  0
 25 22  1  0  0  0  0
 26 25  1  0  0  0  0
 27 28  1  0  0  0  0
 27 25  1  0  0  0  0
 29 28  1  0  0  0  0
 30 29  1  0  0  0  0
 31 30  1  0  0  0  0
 32 31  1  0  0  0  0
 33 34  2  0  0  0  0
 33 31  1  0  0  0  0
 36 37  1  0  0  0  0
 36 12  1  0  0  0  0
 36 41  1  0  0  0  0
 38 37  1  0  0  0  0
 38 39  1  0  0  0  0
 40 39  1  0  0  0  0
 40 41  1  0  0  0  0
 42 43  1  0  0  0  0
 43  1  1  0  0  0  0
M  END
>  <minimizedAffinity>
-4.39899683

$$$$

 OpenBabel09082221293D

 43 48  0  0  0  0  0  0  0  0999 V2000
    3.6510   -6.1320  -11.7440 C   0  0  0  0  0  0  0  0  0  0  0  0
    4.2770   -6.2320  -10.5080 C   0  0  0  0  0  3  0  0  0  0  0  0
    3.8970   -5.3870   -9.4600 C   0  0  0  0  0  3  0  0  0  0  0  0
    2.8750   -4.4340   -9.6130 C   0  0  0  0  0  0  0  0  0  0  0  0
    2.2840   -4.2870  -10.8920 C   0  0  0  0  0  0  0  0  0  0  0  0
    2.6650   -5.1590  -11.9290 C   0  0  0  0  0  3  0  0  0  0  0  0
    1.2760   -3.2620  -11.2420 C   0  0  0  0  0  3  0  0  0  0  0  0
    1.2860   -2.0170  -10.7310 C   0  0  0  0  0  0  0  0  0  0  0  0
    2.3860   -1.5230   -9.8320 C   0  0  0  0  0  2  0  0  0  0  0  0
    2.3340   -2.2290   -8.5580 N   0  0  0  0  0  0  0  0  0  0  0  0
    2.5120   -3.5930   -8.4440 C   0  0  0  0  0  0  0  0  0  0  0  0
    2.2380   -3.9290   -7.1080 C   0  0  0  0  0  0  0  0  0  0  0  0
    2.0590   -2.6840   -6.3920 C   0  0  0  0  0  0  0  0  0  0  0  0
    1.8610   -2.3170   -5.0370 C   0  0  0  0  0  3  0  0  0  0  0  0
    1.6430   -0.9810   -4.6740 C   0  0  0  0  0  3  0  0  0  0  0  0
    1.5660   -0.0050   -5.6570 C   0  0  0  0  0  0  0  0  0  0  0  0
    1.7910   -0.3160   -7.0010 C   0  0  0  0  0  3  0  0  0  0  0  0
    2.0570   -1.6550   -7.3400 C   0  0  0  0  0  0  0  0  0  0  0  0
    1.2740    1.3920   -5.2840 C   0  0  0  0  0  0  0  0  0  0  0  0
    1.9900    2.0140   -4.5170 O   0  0  0  0  0  0  0  0  0  0  0  0
    0.2050    2.0170   -5.9590 N   0  0  0  0  0  0  0  0  0  0  0  0
   -1.3750    1.5310   -5.7050 S   0  0  0  0  0  0  0  0  0  0  0  0
   -1.4670    0.9840   -4.3730 O   0  0  0  0  0  0  0  0  0  0  0  0
   -2.1870    2.6560   -6.1070 O   0  0  0  0  0  0  0  0  0  0  0  0
   -1.5840    0.3140   -6.8130 N   0  0  0  0  0  0  0  0  0  0  0  0
   -1.5560   -1.0920   -6.3980 C   0  0  0  0  0  1  0  0  0  0  0  0
   -1.6550    0.5990   -8.2580 C   0  0  0  0  0  2  0  0  0  0  0  0
   -2.8990   -0.0610   -8.8540 C   0  0  0  0  0  2  0  0  0  0  0  0
   -3.1340    0.1630  -10.3500 C   0  0  0  0  0  2  0  0  0  0  0  0
   -1.9500   -0.0630  -11.2990 C   0  0  0  0  0  2  0  0  0  0  0  0
   -1.0620   -1.1910  -10.9950 N   0  0  0  0  0  0  0  0  0  0  0  0
   -1.6660   -2.5070  -10.8230 C   0  0  0  0  0  1  0  0  0  0  0  0
    0.3070   -0.9590  -11.1060 C   0  0  0  0  0  0  0  0  0  0  0  0
    0.7670    0.1430  -11.4090 O   0  0  0  0  0  0  0  0  0  0  0  0
    0.2120    3.0110   -5.7320 H   0  0  0  0  0  0  0  0  0  0  0  0
    2.1010   -5.3570   -6.5930 C   0  0  0  0  0  3  0  0  0  0  0  0
    3.0980   -5.7970   -5.5160 C   0  0  0  0  0  2  0  0  0  0  0  0
    2.9190   -7.2760   -5.1690 C   0  0  0  0  0  2  0  0  0  0  0  0
    1.4940   -7.5640   -4.7050 C   0  0  0  0  0  2  0  0  0  0  0  0
    0.4600   -7.0880   -5.7200 C   0  0  0  0  0  2  0  0  0  0  0  0
    0.6620   -5.6220   -6.1020 C   0  0  0  0  0  2  0  0  0  0  0  0
    4.3060   -6.2040  -14.0280 C   0  0  0  0  0  1  0  0  0  0  0  0
    3.9160   -6.8940  -12.8470 O   0  0  0  0  0  0  0  0  0  0  0  0
  1  2  1  0  0  0  0
  2  3  2  0  0  0  0
  4  3  1  0  0  0  0
  4 11  1  0  0  0  0
  5  4  2  0  0  0  0
  6  1  2  0  0  0  0
  6  5  1  0  0  0  0
  7  5  1  0  0  0  0
  7  8  2  0  0  0  0
  8  9  1  0  0  0  0
  9 10  1  0  0  0  0
 10 11  1  0  0  0  0
 10 18  1  0  0  0  0
 11 12  2  0  0  0  0
 12 36  1  0  0  0  0
 12 13  1  0  0  0  0
 13 14  1  0  0  0  0
 14 15  2  0  0  0  0
 16 19  1  0  0  0  0
 16 15  1  0  0  0  0
 17 16  2  0  0  0  0
 18 17  1  0  0  0  0
 18 13  2  0  0  0  0
 19 20  2  0  0  0  0
 21 35  1  0  0  0  0
 21 22  1  0  0  0  0
 21 19  1  0  0  0  0
 22 23  2  0  0  0  0
 24 22  2  0  0  0  0
 25 26  1  0  0  0  0
 25 22  1  0  0  0  0
 27 25  1  0  0  0  0
 28 27  1  0  0  0  0
 29 28  1  0  0  0  0
 30 31  1  0  0  0  0
 30 29  1  0  0  0  0
 31 32  1  0  0  0  0
 33 31  1  0  0  0  0
 33  8  1  0  0  0  0
 34 33  2  0  0  0  0
 36 41  1  0  0  0  0
 36 37  1  0  0  0  0
 37 38  1  0  0  0  0
 38 39  1  0  0  0  0
 40 39  1  0  0  0  0
 41 40  1  0  0  0  0
 42 43  1  0  0  0  0
 43  1  1  0  0  0  0
M  END
>  <minimizedAffinity>
-4.38156748

$$$$
