
 OpenBabel09092210413D

 43 48  0  0  0  0  0  0  0  0999 V2000
    0.8060   -4.1100  -13.8530 C   0  0  0  0  0  0  0  0  0  0  0  0
    1.6570   -5.2080  -13.8290 C   0  0  0  0  0  3  0  0  0  0  0  0
    2.3390   -5.5390  -12.6530 C   0  0  0  0  0  3  0  0  0  0  0  0
    2.1760   -4.7970  -11.4710 C   0  0  0  0  0  0  0  0  0  0  0  0
    1.3600   -3.6400  -11.5150 C   0  0  0  0  0  0  0  0  0  0  0  0
    0.6670   -3.3330  -12.7010 C   0  0  0  0  0  3  0  0  0  0  0  0
    1.1740   -2.6970  -10.3900 C   0  0  0  0  0  3  0  0  0  0  0  0
    2.1540   -2.3840   -9.5240 C   0  0  0  0  0  0  0  0  0  0  0  0
    3.5620   -2.8910   -9.6800 C   0  0  0  0  0  2  0  0  0  0  0  0
    3.5930   -4.3310   -9.4610 N   0  0  0  0  0  0  0  0  0  0  0  0
    2.9140   -5.2310  -10.2570 C   0  0  0  0  0  0  0  0  0  0  0  0
    3.0490   -6.4910   -9.6540 C   0  0  0  0  0  0  0  0  0  0  0  0
    3.9820   -6.3330   -8.5590 C   0  0  0  0  0  0  0  0  0  0  0  0
    4.6120   -7.2040   -7.6350 C   0  0  0  0  0  3  0  0  0  0  0  0
    5.4360   -6.7050   -6.6160 C   0  0  0  0  0  3  0  0  0  0  0  0
    5.6000   -5.3340   -6.4730 C   0  0  0  0  0  0  0  0  0  0  0  0
    5.0280   -4.4410   -7.3850 C   0  0  0  0  0  3  0  0  0  0  0  0
    4.2440   -4.9650   -8.4290 C   0  0  0  0  0  0  0  0  0  0  0  0
    6.4150   -4.8030   -5.3660 C   0  0  0  0  0  0  0  0  0  0  0  0
    7.5900   -5.1050   -5.2320 O   0  0  0  0  0  0  0  0  0  0  0  0
    5.8110   -3.8270   -4.5470 N   0  0  0  0  0  0  0  0  0  0  0  0
    4.5400   -4.2200   -3.5340 S   0  0  0  0  0  0  0  0  0  0  0  0
    4.6660   -5.6120   -3.1760 O   0  0  0  0  0  0  0  0  0  0  0  0
    4.5280   -3.1880   -2.5230 O   0  0  0  0  0  0  0  0  0  0  0  0
    3.2050   -4.0200   -4.4990 N   0  0  0  0  0  0  0  0  0  0  0  0
    2.5170   -5.1790   -5.0770 C   0  0  0  0  0  1  0  0  0  0  0  0
    2.7620   -2.6790   -4.9240 C   0  0  0  0  0  2  0  0  0  0  0  0
    1.2740   -2.5060   -4.6160 C   0  0  0  0  0  2  0  0  0  0  0  0
    0.6610   -1.1510   -4.9750 C   0  0  0  0  0  2  0  0  0  0  0  0
    0.9480   -0.5860   -6.3730 C   0  0  0  0  0  2  0  0  0  0  0  0
    0.9700   -1.5450   -7.4840 N   0  0  0  0  0  0  0  0  0  0  0  0
   -0.1870   -2.4160   -7.6560 C   0  0  0  0  0  1  0  0  0  0  0  0
    1.9980   -1.4030   -8.4130 C   0  0  0  0  0  0  0  0  0  0  0  0
    2.8730   -0.5420   -8.3040 O   0  0  0  0  0  0  0  0  0  0  0  0
    6.5220   -3.4300   -3.9320 H   0  0  0  0  0  0  0  0  0  0  0  0
    2.2750   -7.7330  -10.0790 C   0  0  0  0  0  3  0  0  0  0  0  0
    3.0170   -9.0710   -9.9840 C   0  0  0  0  0  2  0  0  0  0  0  0
    2.1670  -10.2150  -10.5410 C   0  0  0  0  0  2  0  0  0  0  0  0
    0.8300  -10.3120   -9.8120 C   0  0  0  0  0  2  0  0  0  0  0  0
    0.0790   -8.9840   -9.8270 C   0  0  0  0  0  2  0  0  0  0  0  0
    0.9390   -7.8310   -9.3120 C   0  0  0  0  0  2  0  0  0  0  0  0
    0.1360   -2.2900  -15.2280 C   0  0  0  0  0  1  0  0  0  0  0  0
    0.0770   -3.6790  -14.9260 O   0  0  0  0  0  0  0  0  0  0  0  0
  1  2  2  0  0  0  0
  1  6  1  0  0  0  0
  2  3  1  0  0  0  0
  3  4  2  0  0  0  0
  4 11  1  0  0  0  0
  5  4  1  0  0  0  0
  5  7  1  0  0  0  0
  6  5  2  0  0  0  0
  7  8  2  0  0  0  0
  8 33  1  0  0  0  0
  9  8  1  0  0  0  0
  9 10  1  0  0  0  0
 10 18  1  0  0  0  0
 11 12  2  0  0  0  0
 11 10  1  0  0  0  0
 12 13  1  0  0  0  0
 13 18  2  0  0  0  0
 13 14  1  0  0  0  0
 14 15  2  0  0  0  0
 15 16  1  0  0  0  0
 16 19  1  0  0  0  0
 17 16  2  0  0  0  0
 18 17  1  0  0  0  0
 19 20  2  0  0  0  0
 19 21  1  0  0  0  0
 21 35  1  0  0  0  0
 21 22  1  0  0  0  0
 22 23  2  0  0  0  0
 22 24  2  0  0  0  0
 25 22  1  0  0  0  0
 26 25  1  0  0  0  0
 27 28  1  0  0  0  0
 27 25  1  0  0  0  0
 29 28  1  0  0  0  0
 30 29  1  0  0  0  0
 31 30  1  0  0  0  0
 32 31  1  0  0  0  0
 33 34  2  0  0  0  0
 33 31  1  0  0  0  0
 36 37  1  0  0  0  0
 36 12  1  0  0  0  0
 36 41  1  0  0  0  0
 38 37  1  0  0  0  0
 38 39  1  0  0  0  0
 40 39  1  0  0  0  0
 40 41  1  0  0  0  0
 42 43  1  0  0  0  0
 43  1  1  0  0  0  0
M  END
>  <minimizedAffinity>
-4.39899683

$$$$
