
 OpenBabel09092210413D

 43 48  0  0  0  0  0  0  0  0999 V2000
    6.8950   -5.9520    0.4690 C   0  0  0  0  0  0  0  0  0  0  0  0
    6.0500   -5.0050    1.0330 C   0  0  0  0  0  3  0  0  0  0  0  0
    5.0850   -4.3700    0.2450 C   0  0  0  0  0  3  0  0  0  0  0  0
    4.9270   -4.6750   -1.1180 C   0  0  0  0  0  0  0  0  0  0  0  0
    5.8320   -5.5910   -1.7080 C   0  0  0  0  0  0  0  0  0  0  0  0
    6.7840   -6.2340   -0.8950 C   0  0  0  0  0  3  0  0  0  0  0  0
    5.8660   -5.9340   -3.1460 C   0  0  0  0  0  3  0  0  0  0  0  0
    5.6080   -5.0430   -4.1210 C   0  0  0  0  0  0  0  0  0  0  0  0
    5.3580   -3.5870   -3.8370 C   0  0  0  0  0  2  0  0  0  0  0  0
    4.0940   -3.4350   -3.1270 N   0  0  0  0  0  0  0  0  0  0  0  0
    3.8600   -3.9760   -1.8790 C   0  0  0  0  0  0  0  0  0  0  0  0
    2.5020   -3.7620   -1.5910 C   0  0  0  0  0  0  0  0  0  0  0  0
    1.9800   -2.9170   -2.6440 C   0  0  0  0  0  0  0  0  0  0  0  0
    0.7460   -2.2670   -2.8980 C   0  0  0  0  0  3  0  0  0  0  0  0
    0.5340   -1.5590   -4.0890 C   0  0  0  0  0  3  0  0  0  0  0  0
    1.5250   -1.5330   -5.0610 C   0  0  0  0  0  0  0  0  0  0  0  0
    2.7700   -2.1290   -4.8360 C   0  0  0  0  0  3  0  0  0  0  0  0
    2.9800   -2.7930   -3.6140 C   0  0  0  0  0  0  0  0  0  0  0  0
    1.2820   -0.8420   -6.3390 C   0  0  0  0  0  0  0  0  0  0  0  0
    1.0040    0.3450   -6.3850 O   0  0  0  0  0  0  0  0  0  0  0  0
    1.5180   -1.5850   -7.5150 N   0  0  0  0  0  0  0  0  0  0  0  0
    0.5370   -2.8740   -7.9290 S   0  0  0  0  0  0  0  0  0  0  0  0
   -0.7720   -2.6400   -7.3670 O   0  0  0  0  0  0  0  0  0  0  0  0
    0.7170   -3.0450   -9.3530 O   0  0  0  0  0  0  0  0  0  0  0  0
    1.2450   -4.1590   -7.1550 N   0  0  0  0  0  0  0  0  0  0  0  0
    0.6720   -4.6980   -5.9180 C   0  0  0  0  0  1  0  0  0  0  0  0
    2.5440   -4.6980   -7.6000 C   0  0  0  0  0  2  0  0  0  0  0  0
    2.4360   -6.2130   -7.7870 C   0  0  0  0  0  2  0  0  0  0  0  0
    3.6990   -6.9260   -8.2740 C   0  0  0  0  0  2  0  0  0  0  0  0
    5.0190   -6.6070   -7.5590 C   0  0  0  0  0  2  0  0  0  0  0  0
    4.9580   -6.4260   -6.1040 N   0  0  0  0  0  0  0  0  0  0  0  0
    4.3420   -7.4830   -5.3100 C   0  0  0  0  0  1  0  0  0  0  0  0
    5.6820   -5.3600   -5.5750 C   0  0  0  0  0  0  0  0  0  0  0  0
    6.3190   -4.5780   -6.2830 O   0  0  0  0  0  0  0  0  0  0  0  0
    1.4720   -0.9540   -8.3150 H   0  0  0  0  0  0  0  0  0  0  0  0
    1.7660   -4.3880   -0.4130 C   0  0  0  0  0  3  0  0  0  0  0  0
    1.1890   -3.4220    0.6280 C   0  0  0  0  0  2  0  0  0  0  0  0
    0.5750   -4.1820    1.8060 C   0  0  0  0  0  2  0  0  0  0  0  0
   -0.5120   -5.1440    1.3330 C   0  0  0  0  0  2  0  0  0  0  0  0
    0.0010   -6.0890    0.2500 C   0  0  0  0  0  2  0  0  0  0  0  0
    0.6540   -5.3360   -0.9080 C   0  0  0  0  0  2  0  0  0  0  0  0
    8.4710   -7.7320    0.4150 C   0  0  0  0  0  1  0  0  0  0  0  0
    7.8730   -6.6500    1.1200 O   0  0  0  0  0  0  0  0  0  0  0  0
  1  2  1  0  0  0  0
  1 43  1  0  0  0  0
  3  2  2  0  0  0  0
  4  3  1  0  0  0  0
  5  4  2  0  0  0  0
  5  6  1  0  0  0  0
  6  1  2  0  0  0  0
  7  5  1  0  0  0  0
  8  9  1  0  0  0  0
  8  7  2  0  0  0  0
  9 10  1  0  0  0  0
 10 11  1  0  0  0  0
 11 12  2  0  0  0  0
 11  4  1  0  0  0  0
 12 36  1  0  0  0  0
 13 12  1  0  0  0  0
 14 13  1  0  0  0  0
 15 14  2  0  0  0  0
 16 17  2  0  0  0  0
 16 15  1  0  0  0  0
 17 18  1  0  0  0  0
 18 10  1  0  0  0  0
 18 13  2  0  0  0  0
 19 16  1  0  0  0  0
 20 19  2  0  0  0  0
 21 19  1  0  0  0  0
 22 21  1  0  0  0  0
 22 23  2  0  0  0  0
 22 25  1  0  0  0  0
 24 22  2  0  0  0  0
 25 26  1  0  0  0  0
 27 25  1  0  0  0  0
 28 27  1  0  0  0  0
 29 28  1  0  0  0  0
 29 30  1  0  0  0  0
 30 31  1  0  0  0  0
 31 33  1  0  0  0  0
 31 32  1  0  0  0  0
 33  8  1  0  0  0  0
 34 33  2  0  0  0  0
 35 21  1  0  0  0  0
 36 37  1  0  0  0  0
 37 38  1  0  0  0  0
 39 38  1  0  0  0  0
 40 39  1  0  0  0  0
 41 36  1  0  0  0  0
 41 40  1  0  0  0  0
 42 43  1  0  0  0  0
M  END
>  <minimizedAffinity>
-4.83466434

$$$$
