REMARK  Name = 
REMARK  14 active torsions:
REMARK  status: ('A' for Active; 'I' for Inactive)
REMARK    1  A    between atoms: C_1  and  C_2
REMARK    2  A    between atoms: C_2  and  C_3
REMARK    3  A    between atoms: C_2  and  C_4
REMARK    4  A    between atoms: C_4  and  C_5
REMARK    5  A    between atoms: C_5  and  N_6
REMARK    6  A    between atoms: C_9  and  C_10
REMARK    7  A    between atoms: C_17  and  N_18
REMARK    8  A    between atoms: N_18  and  S_19
REMARK    9  A    between atoms: S_19  and  N_22
REMARK   10  A    between atoms: N_22  and  C_23
REMARK   11  A    between atoms: C_27  and  C_28
REMARK   12  A    between atoms: N_30  and  C_31
REMARK   13  A    between atoms: C_31  and  C_32
REMARK   14  A    between atoms: C_40  and  O_41
REMARK                            x       y       z     vdW  Elec       q    Type
REMARK                         _______ _______ _______ _____ _____    ______ ____
ROOT
ATOM      1  C   UNL     1      -2.853  -3.993   3.171  0.00  0.00    +0.308 C 
ATOM      2  N   UNL     1      -3.936  -3.355   3.558  0.00  0.00    -0.131 N 
ATOM      3  S   UNL     1      -5.284  -3.320   2.689  0.00  0.00    +0.141 S 
ATOM      4  O   UNL     1      -6.034  -4.553   2.788  0.00  0.00    -0.129 OA
ATOM      5  O   UNL     1      -5.945  -2.047   2.908  0.00  0.00    -0.129 OA
ATOM      6  C   UNL     1      -4.609  -3.257   1.055  0.00  0.00    +0.176 A 
ATOM      7  C   UNL     1      -4.970  -2.237   0.179  0.00  0.00    +0.059 A 
ATOM      8  C   UNL     1      -4.189  -2.042  -0.954  0.00  0.00    +0.051 A 
ATOM      9  C   UNL     1      -3.183  -2.957  -1.285  0.00  0.00    +0.028 A 
ATOM     10  C   UNL     1      -2.841  -3.986  -0.400  0.00  0.00    +0.053 A 
ATOM     11  C   UNL     1      -3.500  -4.081   0.825  0.00  0.00    +0.148 A 
ATOM     12  N   UNL     1      -2.876  -4.696   1.930  0.00  0.00    -0.200 N 
ATOM     13  H   UNL     1      -3.875  -2.724   4.351  0.00  0.00    +0.339 HD
ATOM     14  H   UNL     1      -2.063  -5.285   1.748  0.00  0.00    +0.298 HD
ENDROOT
BRANCH   1  18
ATOM     15  N   UNL     1      -0.230  -1.724   4.329  0.00  0.00    -0.292 N 
ATOM     16  C   UNL     1      -1.446  -2.353   4.444  0.00  0.00    +0.271 A 
ATOM     17  O   UNL     1      -2.487  -1.796   4.802  0.00  0.00    -0.267 OA
ATOM     18  C   UNL     1      -1.540  -3.725   3.844  0.00  0.00    +0.170 A 
ATOM     19  C   UNL     1      -0.400  -4.403   3.623  0.00  0.00    +0.148 A 
ATOM     20  C   UNL     1       0.895  -3.845   4.047  0.00  0.00    +0.060 A 
ATOM     21  C   UNL     1       2.083  -4.579   4.134  0.00  0.00    +0.016 A 
ATOM     22  C   UNL     1       3.288  -3.919   4.369  0.00  0.00    +0.021 A 
ATOM     23  C   UNL     1       3.269  -2.544   4.501  0.00  0.00    +0.113 A 
ATOM     24  N   UNL     1       2.137  -1.813   4.462  0.00  0.00    -0.237 NA
ATOM     25  C   UNL     1       0.972  -2.465   4.269  0.00  0.00    +0.147 A 
BRANCH  19  26
ATOM     26  O   UNL     1      -0.404  -5.569   2.874  0.00  0.00    -0.505 OA
ATOM     27  H   UNL     1       0.512  -5.840   2.680  0.00  0.00    +0.292 HD
ENDBRANCH  19  26
BRANCH  15  28
ATOM     28  C   UNL     1      -0.171  -0.262   4.136  0.00  0.00    +0.127 C 
BRANCH  28  29
ATOM     29  C   UNL     1      -0.204   0.077   2.390  0.00  0.00    +0.025 C 
BRANCH  29  31
ATOM     30  C   UNL     1       0.474   2.045  -0.529  0.00  0.00    +0.007 C 
ATOM     31  C   UNL     1       0.126   1.878   1.171  0.00  0.00    -0.016 C 
ATOM     32  C   UNL     1      -0.773   3.398   1.151  0.00  0.00    +0.007 C 
ENDBRANCH  29  31
ENDBRANCH  28  29
ENDBRANCH  15  28
ENDBRANCH   1  18
BRANCH   8  33
ATOM     33  N   UNL     1      -4.274  -0.784  -1.619  0.00  0.00    -0.204 N 
ATOM     34  H   UNL     1      -5.163  -0.288  -1.561  0.00  0.00    +0.175 HD
BRANCH  33  35
ATOM     35  S   UNL     1      -2.979   0.288  -1.401  0.00  0.00    +0.124 S 
ATOM     36  O   UNL     1      -1.806  -0.303  -2.004  0.00  0.00    -0.135 OA
ATOM     37  O   UNL     1      -3.468   1.588  -1.789  0.00  0.00    -0.135 OA
BRANCH  35  38
ATOM     38  N   UNL     1      -2.861   0.312   0.295  0.00  0.00    -0.204 N 
ATOM     39  H   UNL     1      -3.594   0.936   0.638  0.00  0.00    +0.175 HD
BRANCH  38  40
ATOM     40  C   UNL     1      -1.589   0.666   0.878  0.00  0.00    +0.050 A 
ATOM     41  C   UNL     1      -1.582   1.601   2.417  0.00  0.00    +0.024 A 
ATOM     42  C   UNL     1      -0.011   1.948   3.258  0.00  0.00    +0.003 A 
ATOM     43  C   UNL     1       1.524   1.199   2.654  0.00  0.00    +0.013 A 
ATOM     44  C   UNL     1       1.509   0.220   1.145  0.00  0.00    +0.038 A 
ATOM     45  C   UNL     1      -0.068  -0.095   0.319  0.00  0.00    +0.037 A 
BRANCH  44  46
ATOM     46  C   UNL     1       2.805  -0.382   0.756  0.00  0.00    +0.245 C 
ATOM     47  O   UNL     1       3.752  -0.218   1.527  0.00  0.00    -0.270 OA
ATOM     48  N   UNL     1       3.039  -1.092  -0.387  0.00  0.00    -0.303 N 
ATOM     49  H   UNL     1       4.030  -1.287  -0.479  0.00  0.00    +0.150 HD
BRANCH  48  50
ATOM     50  C   UNL     1       2.242  -1.507  -1.531  0.00  0.00    +0.200 C 
BRANCH  50  51
ATOM     51  C   UNL     1       2.190  -0.448  -2.632  0.00  0.00    +0.228 C 
ATOM     52  N   UNL     1       0.963  -0.169  -3.159  0.00  0.00    -0.328 N 
ATOM     53  O   UNL     1       3.192   0.123  -3.056  0.00  0.00    -0.274 OA
ATOM     54  H   UNL     1       0.922   0.535  -3.886  0.00  0.00    +0.145 HD
ATOM     55  H   UNL     1       0.073  -0.500  -2.797  0.00  0.00    +0.145 HD
ENDBRANCH  50  51
ENDBRANCH  48  50
ENDBRANCH  44  46
ENDBRANCH  38  40
ENDBRANCH  35  38
ENDBRANCH  33  35
ENDBRANCH   8  33
TORSDOF 12
