
 OpenBabel09122222393D

 55 58  0  0  1  0  0  0  0  0999 V2000
    3.0080   -8.8220    3.5000 C   0  0  1  0  0  3  0  0  0  0  0  0
    2.3180   -8.3180    2.5000 N   0  0  0  0  0  0  0  0  0  0  0  0
    2.7310   -8.5280    0.9640 S   0  0  0  0  0  0  0  0  0  0  0  0
    2.3840   -9.8450    0.4760 O   0  0  0  0  0  0  0  0  0  0  0  0
    2.3410   -7.3490    0.2130 O   0  0  0  0  0  0  0  0  0  0  0  0
    4.4940   -8.4750    1.0970 C   0  0  0  0  0  0  0  0  0  0  0  0
    5.2340   -7.5730    0.3370 C   0  0  0  0  0  3  0  0  0  0  0  0
    6.5560   -7.3430    0.7000 C   0  0  0  0  0  0  0  0  0  0  0  0
    7.1640   -8.1270    1.6870 C   0  0  0  0  0  3  0  0  0  0  0  0
    6.4090   -9.0400    2.4330 C   0  0  0  0  0  3  0  0  0  0  0  0
    5.0400   -9.1480    2.1970 C   0  0  0  0  0  0  0  0  0  0  0  0
    4.1700   -9.5980    3.2110 N   0  0  0  0  0  0  0  0  0  0  0  0
    1.5940   -7.6360    2.7000 H   0  0  0  0  0  0  0  0  0  0  0  0
    4.5830  -10.0780    4.0120 H   0  0  0  0  0  0  0  0  0  0  0  0
    0.8160   -7.6510    6.1820 N   0  0  0  0  0  0  0  0  0  0  0  0
    1.4010   -8.6290    5.4150 C   0  0  0  0  0  0  0  0  0  0  0  0
    0.8030   -9.6090    4.9620 O   0  0  0  0  0  0  0  0  0  0  0  0
    2.7770   -8.3300    4.8980 C   0  0  0  0  0  0  0  0  0  0  0  0
    3.4970   -7.3790    5.5170 C   0  0  0  0  0  0  0  0  0  0  0  0
    2.9790   -6.7180    6.7260 C   0  0  0  0  0  0  0  0  0  0  0  0
    3.7530   -5.9470    7.6000 C   0  0  0  0  0  3  0  0  0  0  0  0
    3.1320   -5.2170    8.6130 C   0  0  0  0  0  3  0  0  0  0  0  0
    1.7550   -5.2730    8.7140 C   0  0  0  0  0  3  0  0  0  0  0  0
    0.9860   -6.0380    7.9130 N   0  0  0  0  0  0  0  0  0  0  0  0
    1.6000   -6.7680    6.9590 C   0  0  0  0  0  0  0  0  0  0  0  0
    4.6730   -6.9040    4.9570 O   0  0  0  0  0  0  0  0  0  0  0  0
    4.9790   -6.1190    5.4460 H   0  0  0  0  0  0  0  0  0  0  0  0
   -0.6400   -7.4230    6.1040 C   0  0  0  0  0  2  0  0  0  0  0  0
   -1.4220   -8.3260    7.4220 C   0  0  0  0  0  1  0  0  0  0  0  0
   -4.8140   -7.8370    8.4760 C   0  0  0  0  0  1  0  0  0  0  0  0
   -3.5060   -8.8380    7.9040 C   0  0  0  0  0  2  0  0  0  0  0  0
   -4.6480   -9.8450    7.0090 C   0  0  0  0  0  1  0  0  0  0  0  0
    7.1840   -6.1540    0.2280 N   0  0  0  0  0  0  0  0  0  0  0  0
    6.8210   -5.7490   -0.6340 H   0  0  0  0  0  0  0  0  0  0  0  0
    7.4920   -4.9420    1.3720 S   0  0  0  0  0  0  0  0  0  0  0  0
    8.0470   -5.5720    2.5490 O   0  0  0  0  0  0  0  0  0  0  0  0
    8.1840   -3.8930    0.6650 O   0  0  0  0  0  0  0  0  0  0  0  0
    5.9190   -4.3630    1.6600 N   0  0  0  0  0  0  0  0  0  0  0  0
    5.7840   -3.5490    1.0570 H   0  0  0  0  0  0  0  0  0  0  0  0
    5.5570   -4.0430    3.0200 C   0  0  0  0  0  0  0  0  0  0  0  0
    6.8670   -3.6170    4.1790 C   0  0  0  0  0  3  0  0  0  0  0  0
    6.4480   -3.0740    5.8600 C   0  0  0  0  0  3  0  0  0  0  0  0
    4.7180   -2.7820    6.3120 C   0  0  0  0  0  3  0  0  0  0  0  0
    3.4100   -3.1570    5.1350 C   0  0  0  0  0  0  0  0  0  0  0  0
    3.8570   -3.7130    3.4740 C   0  0  0  0  0  3  0  0  0  0  0  0
    2.0330   -2.8470    5.5840 C   0  0  0  0  0  0  0  0  0  0  0  0
    1.1640   -3.6870    5.3450 O   0  0  0  0  0  0  0  0  0  0  0  0
    1.6460   -1.7070    6.2290 N   0  0  0  0  0  0  0  0  0  0  0  0
    0.6360   -1.6810    6.3150 H   0  0  0  0  0  0  0  0  0  0  0  0
    2.3140   -0.5000    6.6900 C   0  0  0  0  0  2  0  0  0  0  0  0
    3.1330   -0.7250    7.9620 C   0  0  0  0  0  0  0  0  0  0  0  0
    4.3580   -0.1280    8.0170 N   0  0  0  0  0  0  0  0  0  0  0  0
    2.7400   -1.4230    8.8930 O   0  0  0  0  0  0  0  0  0  0  0  0
    4.9030   -0.2700    8.8590 H   0  0  0  0  0  0  0  0  0  0  0  0
    4.7150    0.5550    7.3550 H   0  0  0  0  0  0  0  0  0  0  0  0
  1 18  1  1  0  0  0
  2 13  1  0  0  0  0
  2  1  1  0  0  0  0
  3  6  1  0  0  0  0
  3  2  1  0  0  0  0
  4  3  2  0  0  0  0
  5  3  2  0  0  0  0
  6 11  1  0  0  0  0
  7  8  1  0  0  0  0
  7  6  2  0  0  0  0
  8  9  2  0  0  0  0
  9 10  1  0  0  0  0
 11 10  2  0  0  0  0
 11 12  1  0  0  0  0
 12  1  1  0  0  0  0
 12 14  1  0  0  0  0
 15 25  1  0  0  0  0
 16 15  1  0  0  0  0
 17 16  2  0  0  0  0
 18 16  1  0  0  0  0
 18 19  2  0  0  0  0
 19 20  1  0  0  0  0
 20 25  2  0  0  0  0
 20 21  1  0  0  0  0
 21 22  2  0  0  0  0
 22 23  1  0  0  0  0
 24 23  2  0  0  0  0
 25 24  1  0  0  0  0
 26 27  1  0  0  0  0
 26 19  1  0  0  0  0
 28 15  1  0  0  0  0
 28 29  1  0  0  0  0
 31 30  1  0  0  0  0
 32 31  1  0  0  0  0
 33  8  1  0  0  0  0
 33 35  1  0  0  0  0
 34 33  1  0  0  0  0
 35 38  1  0  0  0  0
 35 36  2  0  0  0  0
 37 35  2  0  0  0  0
 38 40  1  0  0  0  0
 39 38  1  0  0  0  0
 40 45  2  0  0  0  0
 40 41  1  0  0  0  0
 41 42  2  0  0  0  0
 42 43  1  0  0  0  0
 44 46  1  0  0  0  0
 44 43  2  0  0  0  0
 45 44  1  0  0  0  0
 46 48  1  0  0  0  0
 47 46  2  0  0  0  0
 48 49  1  0  0  0  0
 48 50  1  0  0  0  0
 50 51  1  0  0  0  0
 51 52  1  0  0  0  0
 51 53  2  0  0  0  0
 52 54  1  0  0  0  0
 55 52  1  0  0  0  0
M  END
>  <minimizedAffinity>
-3.68619514

$$$$
