
 OpenBabel09122222393D

 55 58  0  0  1  0  0  0  0  0999 V2000
    3.9050   -9.6040    2.6850 C   0  0  1  0  0  3  0  0  0  0  0  0
    3.1760   -9.1570    1.6850 N   0  0  0  0  0  0  0  0  0  0  0  0
    3.8050   -8.7100    0.2790 S   0  0  0  0  0  0  0  0  0  0  0  0
    4.1610   -9.8410   -0.5490 O   0  0  0  0  0  0  0  0  0  0  0  0
    3.0020   -7.6320   -0.2670 O   0  0  0  0  0  0  0  0  0  0  0  0
    5.3190   -7.9760    0.8260 C   0  0  0  0  0  0  0  0  0  0  0  0
    5.6390   -6.6680    0.4730 C   0  0  0  0  0  3  0  0  0  0  0  0
    6.6570   -6.0320    1.1750 C   0  0  0  0  0  0  0  0  0  0  0  0
    7.4450   -6.7500    2.0820 C   0  0  0  0  0  3  0  0  0  0  0  0
    7.1190   -8.0700    2.4160 C   0  0  0  0  0  3  0  0  0  0  0  0
    5.9880   -8.6580    1.8500 C   0  0  0  0  0  0  0  0  0  0  0  0
    5.3180   -9.7070    2.5120 N   0  0  0  0  0  0  0  0  0  0  0  0
    2.2010   -8.9290    1.8550 H   0  0  0  0  0  0  0  0  0  0  0  0
    5.8140  -10.1880    3.2630 H   0  0  0  0  0  0  0  0  0  0  0  0
    1.4500   -8.6280    5.2120 N   0  0  0  0  0  0  0  0  0  0  0  0
    1.8620   -9.3470    4.1160 C   0  0  0  0  0  0  0  0  0  0  0  0
    1.1780   -9.5290    3.1050 O   0  0  0  0  0  0  0  0  0  0  0  0
    3.3210   -9.6930    4.0630 C   0  0  0  0  0  0  0  0  0  0  0  0
    4.0240   -9.6670    5.2090 C   0  0  0  0  0  0  0  0  0  0  0  0
    3.3520   -9.3960    6.4910 C   0  0  0  0  0  0  0  0  0  0  0  0
    3.9190   -9.6340    7.7480 C   0  0  0  0  0  3  0  0  0  0  0  0
    3.2750   -9.1750    8.8950 C   0  0  0  0  0  3  0  0  0  0  0  0
    2.0870   -8.4840    8.7500 C   0  0  0  0  0  3  0  0  0  0  0  0
    1.4960   -8.2740    7.5570 N   0  0  0  0  0  0  0  0  0  0  0  0
    2.1100   -8.7520    6.4560 C   0  0  0  0  0  0  0  0  0  0  0  0
    5.4060   -9.7570    5.1930 O   0  0  0  0  0  0  0  0  0  0  0  0
    5.7600   -9.5650    6.0810 H   0  0  0  0  0  0  0  0  0  0  0  0
    0.3860   -7.6150    5.0730 C   0  0  0  0  0  2  0  0  0  0  0  0
   -1.1840   -8.4050    5.3500 C   0  0  0  0  0  1  0  0  0  0  0  0
   -3.3360   -8.3330    8.2160 C   0  0  0  0  0  1  0  0  0  0  0  0
   -2.9510   -7.9200    6.5660 C   0  0  0  0  0  2  0  0  0  0  0  0
   -3.8100   -6.3860    6.7340 C   0  0  0  0  0  1  0  0  0  0  0  0
    6.7150   -4.6090    1.1300 N   0  0  0  0  0  0  0  0  0  0  0  0
    5.8790   -4.1200    0.8110 H   0  0  0  0  0  0  0  0  0  0  0  0
    7.3840   -3.8260    2.4770 S   0  0  0  0  0  0  0  0  0  0  0  0
    8.1750   -4.7920    3.2060 O   0  0  0  0  0  0  0  0  0  0  0  0
    7.9440   -2.5920    1.9840 O   0  0  0  0  0  0  0  0  0  0  0  0
    5.9780   -3.4000    3.3340 N   0  0  0  0  0  0  0  0  0  0  0  0
    5.7360   -2.4460    3.0580 H   0  0  0  0  0  0  0  0  0  0  0  0
    6.0050   -3.5120    4.7730 C   0  0  0  0  0  0  0  0  0  0  0  0
    7.4450   -2.8880    5.6550 C   0  0  0  0  0  3  0  0  0  0  0  0
    7.4620   -2.8830    7.4710 C   0  0  0  0  0  3  0  0  0  0  0  0
    5.9670   -3.3270    8.3910 C   0  0  0  0  0  3  0  0  0  0  0  0
    4.5090   -3.9010    7.5070 C   0  0  0  0  0  0  0  0  0  0  0  0
    4.5260   -3.9120    5.7000 C   0  0  0  0  0  3  0  0  0  0  0  0
    3.3250   -4.2020    8.3460 C   0  0  0  0  0  0  0  0  0  0  0  0
    3.0780   -5.3900    8.5590 O   0  0  0  0  0  0  0  0  0  0  0  0
    2.4830   -3.2760    8.8910 N   0  0  0  0  0  0  0  0  0  0  0  0
    1.6850   -3.7370    9.3130 H   0  0  0  0  0  0  0  0  0  0  0  0
    2.4000   -1.8240    8.8930 C   0  0  0  0  0  2  0  0  0  0  0  0
    2.8060   -1.2050    7.5550 C   0  0  0  0  0  0  0  0  0  0  0  0
    3.9460   -0.4560    7.5450 N   0  0  0  0  0  0  0  0  0  0  0  0
    2.1440   -1.3420    6.5290 O   0  0  0  0  0  0  0  0  0  0  0  0
    4.2230   -0.0480    6.6600 H   0  0  0  0  0  0  0  0  0  0  0  0
    4.6150   -0.3840    8.3070 H   0  0  0  0  0  0  0  0  0  0  0  0
  1 18  1  1  0  0  0
  2 13  1  0  0  0  0
  2  1  1  0  0  0  0
  3  6  1  0  0  0  0
  3  2  1  0  0  0  0
  4  3  2  0  0  0  0
  5  3  2  0  0  0  0
  6 11  1  0  0  0  0
  7  6  2  0  0  0  0
  7  8  1  0  0  0  0
  8  9  2  0  0  0  0
  9 10  1  0  0  0  0
 11 10  2  0  0  0  0
 11 12  1  0  0  0  0
 12  1  1  0  0  0  0
 12 14  1  0  0  0  0
 15 25  1  0  0  0  0
 16 15  1  0  0  0  0
 17 16  2  0  0  0  0
 18 16  1  0  0  0  0
 18 19  2  0  0  0  0
 19 20  1  0  0  0  0
 20 21  1  0  0  0  0
 21 22  2  0  0  0  0
 23 22  1  0  0  0  0
 24 23  2  0  0  0  0
 25 20  2  0  0  0  0
 25 24  1  0  0  0  0
 26 19  1  0  0  0  0
 26 27  1  0  0  0  0
 28 15  1  0  0  0  0
 28 29  1  0  0  0  0
 31 32  1  0  0  0  0
 31 30  1  0  0  0  0
 33  8  1  0  0  0  0
 33 35  1  0  0  0  0
 34 33  1  0  0  0  0
 35 36  2  0  0  0  0
 35 38  1  0  0  0  0
 37 35  2  0  0  0  0
 38 40  1  0  0  0  0
 39 38  1  0  0  0  0
 40 41  2  0  0  0  0
 40 45  1  0  0  0  0
 41 42  1  0  0  0  0
 42 43  2  0  0  0  0
 44 46  1  0  0  0  0
 44 43  1  0  0  0  0
 45 44  2  0  0  0  0
 46 47  2  0  0  0  0
 46 48  1  0  0  0  0
 48 50  1  0  0  0  0
 48 49  1  0  0  0  0
 51 50  1  0  0  0  0
 52 51  1  0  0  0  0
 52 55  1  0  0  0  0
 53 51  2  0  0  0  0
 54 52  1  0  0  0  0
M  END
>  <minimizedAffinity>
-5.03528023

$$$$
