REMARK  Name = 
REMARK  4 active torsions:
REMARK  status: ('A' for Active; 'I' for Inactive)
REMARK    1  A    between atoms: C_2  and  C_3
REMARK    2  A    between atoms: N_7  and  S_8
REMARK    3  A    between atoms: S_8  and  C_11
REMARK    4  A    between atoms: C_18  and  O_19
REMARK                            x       y       z     vdW  Elec       q    Type
REMARK                         _______ _______ _______ _____ _____    ______ ____
ROOT
ATOM      1  S   UNL     1      -0.736   2.015   1.385  0.00  0.00    +0.066 S 
ATOM      2  O   UNL     1      -1.415   1.101   2.271  0.00  0.00    -0.153 OA
ATOM      3  O   UNL     1       0.068   3.102   1.909  0.00  0.00    -0.153 OA
ENDROOT
BRANCH   1   4
ATOM      4  C   UNL     1      -1.917   2.756   0.300  0.00  0.00    +0.150 A 
ATOM      5  C   UNL     1      -3.187   2.177   0.186  0.00  0.00    +0.052 A 
ATOM      6  C   UNL     1      -4.124   2.745  -0.673  0.00  0.00    +0.044 A 
ATOM      7 CL   UNL     1      -5.677   2.026  -0.835  0.00  0.00    -0.083 Cl
ATOM      8  C   UNL     1      -3.812   3.885  -1.408  0.00  0.00    +0.043 A 
ATOM      9  C   UNL     1      -2.554   4.474  -1.269  0.00  0.00    +0.086 A 
ATOM     10 CL   UNL     1      -2.218   5.898  -2.189  0.00  0.00    -0.080 Cl
ATOM     11  C   UNL     1      -1.601   3.925  -0.401  0.00  0.00    +0.162 A 
BRANCH  11  12
ATOM     12  O   UNL     1      -0.391   4.558  -0.286  0.00  0.00    -0.503 OA
ATOM     13  H   UNL     1       0.036   4.340   0.571  0.00  0.00    +0.292 HD
ENDBRANCH  11  12
ENDBRANCH   1   4
BRANCH   1  18
ATOM     14  C   UNL     1      -0.307   0.099  -0.568  0.00  0.00    +0.182 C 
ATOM     15  C   UNL     1       0.941  -0.694  -0.972  0.00  0.00    +0.037 C 
ATOM     16  C   UNL     1       1.738  -0.753   0.319  0.00  0.00    +0.020 C 
ATOM     17  C   UNL     1       1.520   0.621   0.939  0.00  0.00    +0.111 C 
ATOM     18  N   UNL     1       0.252   1.132   0.352  0.00  0.00    -0.160 NA
BRANCH  14  20
ATOM     19  N   UNL     1      -2.161  -1.525   0.375  0.00  0.00    -0.195 NA
ATOM     20  C   UNL     1      -1.337  -0.806  -0.013  0.00  0.00    +0.083 C 
ENDBRANCH  14  20
ENDBRANCH   1  18
TORSDOF 4
