
 OpenBabel09132204463D

 20 21  0  0  1  0  0  0  0  0999 V2000
    2.0090   -4.6870    5.0920 S   0  0  0  0  0  0  0  0  0  0  0  0
    0.6870   -4.6640    4.5140 O   0  0  0  0  0  0  0  0  0  0  0  0
    2.3020   -5.5100    6.2490 O   0  0  0  0  0  0  0  0  0  0  0  0
    2.4790   -3.0410    5.5280 C   0  0  0  0  0  0  0  0  0  0  0  0
    3.8330   -2.7620    5.7570 C   0  0  0  0  0  3  0  0  0  0  0  0
    4.2160   -1.4720    6.1110 C   0  0  0  0  0  0  0  0  0  0  0  0
    5.8730   -1.1290    6.4150 Cl  0  0  0  0  0  0  0  0  0  0  0  0
    3.2700   -0.4580    6.2290 C   0  0  0  0  0  3  0  0  0  0  0  0
    1.9260   -0.7350    5.9720 C   0  0  0  0  0  0  0  0  0  0  0  0
    0.7880    0.5590    6.1140 Cl  0  0  0  0  0  0  0  0  0  0  0  0
    1.5200   -2.0250    5.6030 C   0  0  0  0  0  0  0  0  0  0  0  0
    0.1920   -2.2340    5.3400 O   0  0  0  0  0  0  0  0  0  0  0  0
    0.0710   -3.0140    4.7560 H   0  0  0  0  0  0  0  0  0  0  0  0
    4.4500   -5.6770    4.2390 C   0  0  2  0  0  3  0  0  0  0  0  0
    5.2230   -5.5130    2.9260 C   0  0  0  0  0  2  0  0  0  0  0  0
    4.7480   -4.1620    2.4200 C   0  0  0  0  0  2  0  0  0  0  0  0
    3.2680   -4.1450    2.7780 C   0  0  0  0  0  2  0  0  0  0  0  0
    3.1120   -5.1110    3.8990 N   0  0  0  0  0  0  0  0  0  0  0  0
    5.7970   -4.5720    6.2220 N   0  0  0  0  0  0  0  0  0  0  0  0
    5.1840   -5.0390    5.3540 C   0  0  0  0  0  0  0  0  0  0  0  0
  1  4  1  0  0  0  0
  1  3  2  0  0  0  0
  2  1  2  0  0  0  0
  4 11  2  0  0  0  0
  4  5  1  0  0  0  0
  5  6  2  0  0  0  0
  6  8  1  0  0  0  0
  6  7  1  0  0  0  0
  9 10  1  0  0  0  0
  9  8  2  0  0  0  0
 11  9  1  0  0  0  0
 12 11  1  0  0  0  0
 13 12  1  0  0  0  0
 14 20  1  1  0  0  0
 15 14  1  0  0  0  0
 16 17  1  0  0  0  0
 16 15  1  0  0  0  0
 17 18  1  0  0  0  0
 18 14  1  0  0  0  0
 18  1  1  0  0  0  0
 20 19  3  0  0  0  0
M  END
>  <minimizedAffinity>
5.46366978

$$$$
