REMARK  Name = 
REMARK  4 active torsions:
REMARK  status: ('A' for Active; 'I' for Inactive)
REMARK    1  A    between atoms: C_1  and  C_2
REMARK    2  A    between atoms: C_3  and  C_4
REMARK    3  A    between atoms: N_9  and  C_10
REMARK    4  A    between atoms: C_17  and  C_18
REMARK                            x       y       z     vdW  Elec       q    Type
REMARK                         _______ _______ _______ _____ _____    ______ ____
ROOT
ATOM      1  C   UNL     1       1.328  -0.157   0.009  0.00  0.00    +0.046 C 
ATOM      2  C   UNL     1       0.820   0.933   0.891  0.00  0.00    -0.017 A 
ATOM      3  C   UNL     1       0.013   0.823   2.023  0.00  0.00    +0.056 A 
ATOM      4  N   UNL     1      -0.180   2.101   2.524  0.00  0.00    -0.336 N 
ATOM      5  C   UNL     1       0.342   3.032   1.630  0.00  0.00    +0.051 A 
ATOM      6  C   UNL     1       0.305   4.442   1.634  0.00  0.00    +0.036 A 
ATOM      7  C   UNL     1       0.975   5.163   0.629  0.00  0.00    -0.001 A 
ATOM      8  C   UNL     1       1.663   4.453  -0.360  0.00  0.00    +0.010 A 
ATOM      9  C   UNL     1       1.689   3.053  -0.369  0.00  0.00    +0.011 A 
ATOM     10  C   UNL     1       1.015   2.327   0.638  0.00  0.00    +0.003 A 
ENDROOT
BRANCH   3  11
ATOM     11  C   UNL     1      -0.529  -0.472   2.543  0.00  0.00    +0.036 A 
ATOM     12  C   UNL     1       0.079  -1.755   2.497  0.00  0.00    +0.051 A 
ATOM     13  C   UNL     1      -0.808  -2.631   3.078  0.00  0.00    +0.195 A 
ATOM     14  O   UNL     1      -1.934  -1.979   3.460  0.00  0.00    -0.470 OA
ATOM     15  C   UNL     1      -1.762  -0.673   3.121  0.00  0.00    +0.204 A 
ENDBRANCH   3  11
BRANCH   4  16
ATOM     16  C   UNL     1      -0.677   2.519   3.825  0.00  0.00    +0.088 C 
ATOM     17  C   UNL     1      -2.196   2.715   3.916  0.00  0.00    +0.025 C 
ATOM     18  C   UNL     1      -2.591   2.254   5.320  0.00  0.00    +0.002 C 
ATOM     19  C   UNL     1      -1.289   2.167   6.104  0.00  0.00    +0.002 C 
ATOM     20  C   UNL     1      -0.271   1.713   5.065  0.00  0.00    +0.025 C 
ENDBRANCH   4  16
BRANCH   7  21
ATOM     21  C   UNL     1       0.951   6.681   0.626  0.00  0.00    +0.072 C 
ATOM     22  O   UNL     1       0.315   7.253   1.568  0.00  0.00    -0.545 OA
ATOM     23  O   UNL     1       1.571   7.271  -0.316  0.00  0.00    -0.545 OA
ENDBRANCH   7  21
TORSDOF 3
