
 OpenBabel09122222393D

 23 26  0  0  0  0  0  0  0  0999 V2000
    5.2800   -6.1260    7.3380 C   0  0  0  0  0  1  0  0  0  0  0  0
    4.5060   -4.8830    7.0560 C   0  0  0  0  0  0  0  0  0  0  0  0
    3.8400   -4.5270    5.8840 C   0  0  0  0  0  0  0  0  0  0  0  0
    3.2460   -3.2930    6.0990 N   0  0  0  0  0  0  0  0  0  0  0  0
    3.6720   -2.7820    7.3220 C   0  0  0  0  0  0  0  0  0  0  0  0
    3.4380   -1.5340    7.9370 C   0  0  0  0  0  3  0  0  0  0  0  0
    3.9400   -1.2840    9.2270 C   0  0  0  0  0  0  0  0  0  0  0  0
    4.6700   -2.2890    9.8690 C   0  0  0  0  0  3  0  0  0  0  0  0
    4.9120   -3.5220    9.2520 C   0  0  0  0  0  3  0  0  0  0  0  0
    4.4100   -3.7750    7.9560 C   0  0  0  0  0  0  0  0  0  0  0  0
    3.8200   -5.3660    4.6440 C   0  0  0  0  0  0  0  0  0  0  0  0
    4.8840   -5.6020    3.7330 C   0  0  0  0  0  3  0  0  0  0  0  0
    4.3800   -6.4140    2.7430 C   0  0  0  0  0  3  0  0  0  0  0  0
    3.0700   -6.6780    2.9700 O   0  0  0  0  0  0  0  0  0  0  0  0
    2.7350   -6.0280    4.1180 C   0  0  0  0  0  3  0  0  0  0  0  0
    2.2090   -2.6200    5.3340 C   0  0  0  0  0  3  0  0  0  0  0  0
    1.4260   -1.5420    6.0950 C   0  0  0  0  0  2  0  0  0  0  0  0
    1.1290   -0.4440    5.0730 C   0  0  0  0  0  2  0  0  0  0  0  0
    1.4050   -1.0670    3.7110 C   0  0  0  0  0  2  0  0  0  0  0  0
    2.5730   -2.0090    3.9750 C   0  0  0  0  0  2  0  0  0  0  0  0
    3.6870    0.0510    9.9040 C   0  0  0  0  0  0  0  0  0  0  0  0
    4.7050    0.7650   10.1780 O   0  0  0  0  0  1  0  0  0  0  0  0
    2.4770    0.3620   10.1450 O   0  0  0  0  0  0  0  0  0  0  0  0
  2  1  1  0  0  0  0
  2 10  1  0  0  0  0
  3  4  1  0  0  0  0
  3  2  2  0  0  0  0
  4  5  1  0  0  0  0
  5  6  2  0  0  0  0
  5 10  1  0  0  0  0
  6  7  1  0  0  0  0
  7  8  2  0  0  0  0
  7 21  1  0  0  0  0
  9  8  1  0  0  0  0
 10  9  2  0  0  0  0
 11  3  1  0  0  0  0
 12 11  1  0  0  0  0
 13 14  1  0  0  0  0
 13 12  2  0  0  0  0
 14 15  1  0  0  0  0
 15 11  2  0  0  0  0
 16 17  1  0  0  0  0
 16  4  1  0  0  0  0
 18 17  1  0  0  0  0
 19 20  1  0  0  0  0
 19 18  1  0  0  0  0
 20 16  1  0  0  0  0
 21 23  2  0  0  0  0
 21 22  1  0  0  0  0
M  END
>  <minimizedAffinity>
0.689399362

$$$$
