
 OpenBabel09122222393D

 23 26  0  0  0  0  0  0  0  0999 V2000
    3.0850   -1.9670    9.9060 C   0  0  0  0  0  1  0  0  0  0  0  0
    2.8860   -2.6100    8.5750 C   0  0  0  0  0  0  0  0  0  0  0  0
    3.3100   -3.8690    8.1520 C   0  0  0  0  0  0  0  0  0  0  0  0
    2.8760   -4.0390    6.8470 N   0  0  0  0  0  0  0  0  0  0  0  0
    2.3400   -2.8420    6.3780 C   0  0  0  0  0  0  0  0  0  0  0  0
    1.8660   -2.4770    5.1010 C   0  0  0  0  0  3  0  0  0  0  0  0
    1.3070   -1.2020    4.9000 C   0  0  0  0  0  0  0  0  0  0  0  0
    1.2410   -0.3200    5.9840 C   0  0  0  0  0  3  0  0  0  0  0  0
    1.7230   -0.6810    7.2480 C   0  0  0  0  0  3  0  0  0  0  0  0
    2.2870   -1.9600    7.4510 C   0  0  0  0  0  0  0  0  0  0  0  0
    4.1040   -4.8140    8.9990 C   0  0  0  0  0  0  0  0  0  0  0  0
    5.4410   -4.6660    9.4570 C   0  0  0  0  0  3  0  0  0  0  0  0
    5.7360   -5.7980   10.1790 C   0  0  0  0  0  3  0  0  0  0  0  0
    4.6790   -6.6480   10.1800 O   0  0  0  0  0  0  0  0  0  0  0  0
    3.6980   -6.0490    9.4520 C   0  0  0  0  0  3  0  0  0  0  0  0
    2.7870   -5.2540    6.0530 C   0  0  0  0  0  3  0  0  0  0  0  0
    1.4930   -6.0600    6.2290 C   0  0  0  0  0  2  0  0  0  0  0  0
    1.1750   -6.6420    4.8510 C   0  0  0  0  0  2  0  0  0  0  0  0
    2.4490   -6.4790    4.0330 C   0  0  0  0  0  2  0  0  0  0  0  0
    3.0400   -5.1700    4.5420 C   0  0  0  0  0  2  0  0  0  0  0  0
    0.7840   -0.7990    3.5330 C   0  0  0  0  0  0  0  0  0  0  0  0
    1.5440   -1.0110    2.5350 O   0  0  0  0  0  0  0  0  0  0  0  0
   -0.3780   -0.2810    3.4840 O   0  0  0  0  0  1  0  0  0  0  0  0
  2  1  1  0  0  0  0
  3  2  2  0  0  0  0
  3 11  1  0  0  0  0
  4  3  1  0  0  0  0
  5  4  1  0  0  0  0
  5 10  1  0  0  0  0
  6  5  2  0  0  0  0
  7  6  1  0  0  0  0
  7  8  2  0  0  0  0
  8  9  1  0  0  0  0
  9 10  2  0  0  0  0
 10  2  1  0  0  0  0
 11 15  2  0  0  0  0
 11 12  1  0  0  0  0
 12 13  2  0  0  0  0
 13 14  1  0  0  0  0
 15 14  1  0  0  0  0
 16 17  1  0  0  0  0
 16  4  1  0  0  0  0
 18 17  1  0  0  0  0
 19 20  1  0  0  0  0
 19 18  1  0  0  0  0
 20 16  1  0  0  0  0
 21  7  1  0  0  0  0
 22 21  2  0  0  0  0
 23 21  1  0  0  0  0
M  END
>  <minimizedAffinity>
-0.606981814

$$$$
