MODEL 1
REMARK VINA RESULT:      -8.3      0.000      0.000
REMARK  Name = 
REMARK  5 active torsions:
REMARK  status: ('A' for Active; 'I' for Inactive)
REMARK    1  A    between atoms: C_6  and  C_10
REMARK    2  A    between atoms: C_14  and  O_18
REMARK    3  A    between atoms: N_17  and  N_20
REMARK    4  A    between atoms: N_20  and  C_23
REMARK    5  A    between atoms: C_23  and  C_26
REMARK                            x       y       z     vdW  Elec       q    Type
REMARK                         _______ _______ _______ _____ _____    ______ ____
ROOT
ATOM      1  C   UNL     1     -11.359  53.935  51.547  0.00  0.00    +0.000 A 
ATOM      2  C   UNL     1     -10.398  54.099  52.678  0.00  0.00    +0.000 A 
ATOM      3  C   UNL     1     -11.501  52.743  50.944  0.00  0.00    +0.000 A 
ATOM      4  O   UNL     1     -10.287  55.228  53.168  0.00  0.00    +0.000 OA
ATOM      5  N   UNL     1      -9.712  52.969  53.133  0.00  0.00    +0.000 N 
ATOM      6  C   UNL     1     -10.746  51.571  51.414  0.00  0.00    +0.000 A 
ATOM      7  C   UNL     1      -9.861  51.698  52.501  0.00  0.00    +0.000 A 
ATOM      8  C   UNL     1     -10.916  50.317  50.800  0.00  0.00    +0.000 A 
ATOM      9  C   UNL     1      -9.153  50.567  52.938  0.00  0.00    +0.000 A 
ATOM     10  C   UNL     1     -10.220  49.199  51.254  0.00  0.00    +0.000 A 
ATOM     11  C   UNL     1      -9.336  49.326  52.320  0.00  0.00    +0.000 A 
ENDROOT
BRANCH   1  17
ATOM     12  S   UNL     1     -12.919  56.807  49.373  0.00  0.00    +0.000 S 
ATOM     13  O   UNL     1     -13.958  56.329  48.481  0.00  0.00    +0.000 OA
ATOM     14  O   UNL     1     -11.958  57.789  48.911  0.00  0.00    +0.000 OA
ATOM     15  N   UNL     1     -12.100  55.520  49.910  0.00  0.00    +0.000 N 
ATOM     16  C   UNL     1     -13.749  57.545  50.731  0.00  0.00    +0.000 A 
ATOM     17  C   UNL     1     -12.210  55.123  51.143  0.00  0.00    +0.000 C 
ATOM     18  C   UNL     1     -13.693  56.898  51.954  0.00  0.00    +0.000 A 
ATOM     19  C   UNL     1     -14.428  58.755  50.566  0.00  0.00    +0.000 A 
ATOM     20  N   UNL     1     -13.025  55.687  52.102  0.00  0.00    +0.000 N 
ATOM     21  C   UNL     1     -14.407  57.448  53.023  0.00  0.00    +0.000 A 
ATOM     22  C   UNL     1     -15.102  59.310  51.652  0.00  0.00    +0.000 A 
ATOM     23  C   UNL     1     -15.099  58.649  52.878  0.00  0.00    +0.000 A 
ATOM     24  H   UNL     1     -11.507  55.031  49.294  0.00  0.00    +0.000 HD
ATOM     25  H   UNL     1     -13.141  55.200  52.949  0.00  0.00    +0.000 HD
ENDBRANCH   1  17
BRANCH   3  26
ATOM     26  O   UNL     1     -12.362  52.501  49.889  0.00  0.00    +0.000 OA
ATOM     27  H   UNL     1     -13.185  52.947  49.844  0.00  0.00    +0.000 HD
ENDBRANCH   3  26
BRANCH   5  28
ATOM     28  N   UNL     1      -8.762  53.086  54.213  0.00  0.00    +0.000 N 
ATOM     29  H   UNL     1      -9.002  52.941  55.157  0.00  0.00    +0.000 HD
BRANCH  28  30
ATOM     30  C   UNL     1      -7.407  53.440  53.777  0.00  0.00    +0.000 C 
BRANCH  30  31
ATOM     31  C   UNL     1      -6.974  54.725  54.412  0.00  0.00    +0.000 C 
ATOM     32  C   UNL     1      -6.814  56.002  53.632  0.00  0.00    +0.000 C 
ATOM     33  C   UNL     1      -5.595  55.260  54.103  0.00  0.00    +0.000 C 
ENDBRANCH  30  31
ENDBRANCH  28  30
ENDBRANCH   5  28
TORSDOF 5
ENDMDL
MODEL 2
REMARK VINA RESULT:      -8.2      2.210      2.813
REMARK  Name = 
REMARK  5 active torsions:
REMARK  status: ('A' for Active; 'I' for Inactive)
REMARK    1  A    between atoms: C_6  and  C_10
REMARK    2  A    between atoms: C_14  and  O_18
REMARK    3  A    between atoms: N_17  and  N_20
REMARK    4  A    between atoms: N_20  and  C_23
REMARK    5  A    between atoms: C_23  and  C_26
REMARK                            x       y       z     vdW  Elec       q    Type
REMARK                         _______ _______ _______ _____ _____    ______ ____
ROOT
ATOM      1  C   UNL     1     -10.109  54.543  52.175  0.00  0.00    +0.000 A 
ATOM      2  C   UNL     1      -8.744  55.105  51.951  0.00  0.00    +0.000 A 
ATOM      3  C   UNL     1     -10.276  53.450  52.939  0.00  0.00    +0.000 A 
ATOM      4  O   UNL     1      -8.651  56.090  51.210  0.00  0.00    +0.000 OA
ATOM      5  N   UNL     1      -7.666  54.509  52.612  0.00  0.00    +0.000 N 
ATOM      6  C   UNL     1      -9.127  52.816  53.601  0.00  0.00    +0.000 A 
ATOM      7  C   UNL     1      -7.836  53.351  53.429  0.00  0.00    +0.000 A 
ATOM      8  C   UNL     1      -9.306  51.688  54.422  0.00  0.00    +0.000 A 
ATOM      9  C   UNL     1      -6.751  52.734  54.073  0.00  0.00    +0.000 A 
ATOM     10  C   UNL     1      -8.223  51.096  55.069  0.00  0.00    +0.000 A 
ATOM     11  C   UNL     1      -6.947  51.617  54.890  0.00  0.00    +0.000 A 
ENDROOT
BRANCH   1  17
ATOM     12  S   UNL     1     -12.584  56.040  49.522  0.00  0.00    +0.000 S 
ATOM     13  O   UNL     1     -13.488  55.044  48.980  0.00  0.00    +0.000 OA
ATOM     14  O   UNL     1     -11.989  57.033  48.651  0.00  0.00    +0.000 OA
ATOM     15  N   UNL     1     -11.388  55.259  50.280  0.00  0.00    +0.000 N 
ATOM     16  C   UNL     1     -13.509  56.935  50.715  0.00  0.00    +0.000 A 
ATOM     17  C   UNL     1     -11.298  55.269  51.576  0.00  0.00    +0.000 C 
ATOM     18  C   UNL     1     -13.186  56.759  52.050  0.00  0.00    +0.000 A 
ATOM     19  C   UNL     1     -14.524  57.804  50.309  0.00  0.00    +0.000 A 
ATOM     20  N   UNL     1     -12.181  55.880  52.442  0.00  0.00    +0.000 N 
ATOM     21  C   UNL     1     -13.962  57.419  53.007  0.00  0.00    +0.000 A 
ATOM     22  C   UNL     1     -15.263  58.484  51.275  0.00  0.00    +0.000 A 
ATOM     23  C   UNL     1     -14.986  58.283  52.625  0.00  0.00    +0.000 A 
ATOM     24  H   UNL     1     -10.717  54.768  49.751  0.00  0.00    +0.000 HD
ATOM     25  H   UNL     1     -12.094  55.683  53.401  0.00  0.00    +0.000 HD
ENDBRANCH   1  17
BRANCH   3  26
ATOM     26  O   UNL     1     -11.500  52.860  53.197  0.00  0.00    +0.000 OA
ATOM     27  H   UNL     1     -12.170  52.863  52.542  0.00  0.00    +0.000 HD
ENDBRANCH   3  26
BRANCH   5  28
ATOM     28  N   UNL     1      -6.327  55.011  52.412  0.00  0.00    +0.000 N 
ATOM     29  H   UNL     1      -5.962  55.778  52.908  0.00  0.00    +0.000 HD
BRANCH  28  30
ATOM     30  C   UNL     1      -5.562  54.273  51.400  0.00  0.00    +0.000 C 
BRANCH  30  31
ATOM     31  C   UNL     1      -5.544  55.027  50.107  0.00  0.00    +0.000 C 
ATOM     32  C   UNL     1      -6.290  54.561  48.886  0.00  0.00    +0.000 C 
ATOM     33  C   UNL     1      -4.793  54.442  48.935  0.00  0.00    +0.000 C 
ENDBRANCH  30  31
ENDBRANCH  28  30
ENDBRANCH   5  28
TORSDOF 5
ENDMDL
MODEL 3
REMARK VINA RESULT:      -8.1      3.970      4.846
REMARK  Name = 
REMARK  5 active torsions:
REMARK  status: ('A' for Active; 'I' for Inactive)
REMARK    1  A    between atoms: C_6  and  C_10
REMARK    2  A    between atoms: C_14  and  O_18
REMARK    3  A    between atoms: N_17  and  N_20
REMARK    4  A    between atoms: N_20  and  C_23
REMARK    5  A    between atoms: C_23  and  C_26
REMARK                            x       y       z     vdW  Elec       q    Type
REMARK                         _______ _______ _______ _____ _____    ______ ____
ROOT
ATOM      1  C   UNL     1     -10.672  55.646  48.155  0.00  0.00    +0.000 A 
ATOM      2  C   UNL     1      -9.209  55.765  48.423  0.00  0.00    +0.000 A 
ATOM      3  C   UNL     1     -11.112  54.980  47.075  0.00  0.00    +0.000 A 
ATOM      4  O   UNL     1      -8.866  56.421  49.413  0.00  0.00    +0.000 OA
ATOM      5  N   UNL     1      -8.322  55.108  47.565  0.00  0.00    +0.000 N 
ATOM      6  C   UNL     1     -10.165  54.321  46.163  0.00  0.00    +0.000 A 
ATOM      7  C   UNL     1      -8.782  54.394  46.418  0.00  0.00    +0.000 A 
ATOM      8  C   UNL     1     -10.627  53.600  45.048  0.00  0.00    +0.000 A 
ATOM      9  C   UNL     1      -7.893  53.755  45.538  0.00  0.00    +0.000 A 
ATOM     10  C   UNL     1      -9.735  52.957  44.193  0.00  0.00    +0.000 A 
ATOM     11  C   UNL     1      -8.369  53.038  44.437  0.00  0.00    +0.000 A 
ENDROOT
BRANCH   1  17
ATOM     12  S   UNL     1     -13.073  55.959  51.244  0.00  0.00    +0.000 S 
ATOM     13  O   UNL     1     -12.357  56.165  52.488  0.00  0.00    +0.000 OA
ATOM     14  O   UNL     1     -14.214  55.064  51.201  0.00  0.00    +0.000 OA
ATOM     15  N   UNL     1     -12.005  55.460  50.137  0.00  0.00    +0.000 N 
ATOM     16  C   UNL     1     -13.677  57.535  50.766  0.00  0.00    +0.000 A 
ATOM     17  C   UNL     1     -11.643  56.236  49.160  0.00  0.00    +0.000 C 
ATOM     18  C   UNL     1     -13.104  58.139  49.659  0.00  0.00    +0.000 A 
ATOM     19  C   UNL     1     -14.714  58.137  51.483  0.00  0.00    +0.000 A 
ATOM     20  N   UNL     1     -12.063  57.535  48.962  0.00  0.00    +0.000 N 
ATOM     21  C   UNL     1     -13.536  59.423  49.314  0.00  0.00    +0.000 A 
ATOM     22  C   UNL     1     -15.160  59.401  51.101  0.00  0.00    +0.000 A 
ATOM     23  C   UNL     1     -14.562  60.047  50.020  0.00  0.00    +0.000 A 
ATOM     24  H   UNL     1     -11.625  54.554  50.204  0.00  0.00    +0.000 HD
ATOM     25  H   UNL     1     -11.597  58.070  48.281  0.00  0.00    +0.000 HD
ENDBRANCH   1  17
BRANCH   3  26
ATOM     26  O   UNL     1     -12.447  54.822  46.746  0.00  0.00    +0.000 OA
ATOM     27  H   UNL     1     -13.068  54.586  47.408  0.00  0.00    +0.000 HD
ENDBRANCH   3  26
BRANCH   5  28
ATOM     28  N   UNL     1      -6.899  55.210  47.779  0.00  0.00    +0.000 N 
ATOM     29  H   UNL     1      -6.334  55.874  47.323  0.00  0.00    +0.000 HD
BRANCH  28  30
ATOM     30  C   UNL     1      -6.371  54.232  48.738  0.00  0.00    +0.000 C 
BRANCH  30  31
ATOM     31  C   UNL     1      -5.662  54.930  49.857  0.00  0.00    +0.000 C 
ATOM     32  C   UNL     1      -4.774  54.204  50.832  0.00  0.00    +0.000 C 
ATOM     33  C   UNL     1      -6.127  54.689  51.273  0.00  0.00    +0.000 C 
ENDBRANCH  30  31
ENDBRANCH  28  30
ENDBRANCH   5  28
TORSDOF 5
ENDMDL
MODEL 4
REMARK VINA RESULT:      -8.1      2.917      7.345
REMARK  Name = 
REMARK  5 active torsions:
REMARK  status: ('A' for Active; 'I' for Inactive)
REMARK    1  A    between atoms: C_6  and  C_10
REMARK    2  A    between atoms: C_14  and  O_18
REMARK    3  A    between atoms: N_17  and  N_20
REMARK    4  A    between atoms: N_20  and  C_23
REMARK    5  A    between atoms: C_23  and  C_26
REMARK                            x       y       z     vdW  Elec       q    Type
REMARK                         _______ _______ _______ _____ _____    ______ ____
ROOT
ATOM      1  C   UNL     1     -10.465  54.903  50.512  0.00  0.00    +0.000 A 
ATOM      2  C   UNL     1     -11.600  55.083  51.465  0.00  0.00    +0.000 A 
ATOM      3  C   UNL     1     -10.603  55.241  49.220  0.00  0.00    +0.000 A 
ATOM      4  O   UNL     1     -11.423  54.719  52.633  0.00  0.00    +0.000 OA
ATOM      5  N   UNL     1     -12.774  55.675  50.991  0.00  0.00    +0.000 N 
ATOM      6  C   UNL     1     -11.857  55.833  48.730  0.00  0.00    +0.000 A 
ATOM      7  C   UNL     1     -12.927  56.042  49.620  0.00  0.00    +0.000 A 
ATOM      8  C   UNL     1     -11.991  56.213  47.382  0.00  0.00    +0.000 A 
ATOM      9  C   UNL     1     -14.115  56.612  49.134  0.00  0.00    +0.000 A 
ATOM     10  C   UNL     1     -13.169  56.794  46.918  0.00  0.00    +0.000 A 
ATOM     11  C   UNL     1     -14.231  56.989  47.794  0.00  0.00    +0.000 A 
ENDROOT
BRANCH   1  17
ATOM     12  S   UNL     1      -7.235  52.714  50.942  0.00  0.00    +0.000 S 
ATOM     13  O   UNL     1      -6.202  53.050  49.980  0.00  0.00    +0.000 OA
ATOM     14  O   UNL     1      -7.498  51.327  51.272  0.00  0.00    +0.000 OA
ATOM     15  N   UNL     1      -8.619  53.378  50.432  0.00  0.00    +0.000 N 
ATOM     16  C   UNL     1      -6.767  53.488  52.446  0.00  0.00    +0.000 A 
ATOM     17  C   UNL     1      -9.142  54.393  51.051  0.00  0.00    +0.000 C 
ATOM     18  C   UNL     1      -7.523  54.562  52.883  0.00  0.00    +0.000 A 
ATOM     19  C   UNL     1      -5.672  53.010  53.170  0.00  0.00    +0.000 A 
ATOM     20  N   UNL     1      -8.602  55.036  52.145  0.00  0.00    +0.000 N 
ATOM     21  C   UNL     1      -7.115  55.223  54.046  0.00  0.00    +0.000 A 
ATOM     22  C   UNL     1      -5.303  53.657  54.348  0.00  0.00    +0.000 A 
ATOM     23  C   UNL     1      -6.020  54.770  54.779  0.00  0.00    +0.000 A 
ATOM     24  H   UNL     1      -9.071  53.006  49.640  0.00  0.00    +0.000 HD
ATOM     25  H   UNL     1      -9.009  55.887  52.424  0.00  0.00    +0.000 HD
ENDBRANCH   1  17
BRANCH   3  26
ATOM     26  O   UNL     1      -9.608  55.106  48.268  0.00  0.00    +0.000 OA
ATOM     27  H   UNL     1      -8.804  54.677  48.487  0.00  0.00    +0.000 HD
ENDBRANCH   3  26
BRANCH   5  28
ATOM     28  N   UNL     1     -13.902  55.853  51.874  0.00  0.00    +0.000 N 
ATOM     29  H   UNL     1     -14.625  55.192  51.961  0.00  0.00    +0.000 HD
BRANCH  28  30
ATOM     30  C   UNL     1     -13.871  57.111  52.630  0.00  0.00    +0.000 C 
BRANCH  30  31
ATOM     31  C   UNL     1     -15.097  57.921  52.345  0.00  0.00    +0.000 C 
ATOM     32  C   UNL     1     -15.054  59.216  51.579  0.00  0.00    +0.000 C 
ATOM     33  C   UNL     1     -15.283  59.235  53.065  0.00  0.00    +0.000 C 
ENDBRANCH  30  31
ENDBRANCH  28  30
ENDBRANCH   5  28
TORSDOF 5
ENDMDL
MODEL 5
REMARK VINA RESULT:      -8.0      3.429      7.626
REMARK  Name = 
REMARK  5 active torsions:
REMARK  status: ('A' for Active; 'I' for Inactive)
REMARK    1  A    between atoms: C_6  and  C_10
REMARK    2  A    between atoms: C_14  and  O_18
REMARK    3  A    between atoms: N_17  and  N_20
REMARK    4  A    between atoms: N_20  and  C_23
REMARK    5  A    between atoms: C_23  and  C_26
REMARK                            x       y       z     vdW  Elec       q    Type
REMARK                         _______ _______ _______ _____ _____    ______ ____
ROOT
ATOM      1  C   UNL     1     -10.208  55.257  50.707  0.00  0.00    +0.000 A 
ATOM      2  C   UNL     1      -9.772  55.184  49.281  0.00  0.00    +0.000 A 
ATOM      3  C   UNL     1     -11.423  55.734  51.021  0.00  0.00    +0.000 A 
ATOM      4  O   UNL     1      -8.629  54.770  49.058  0.00  0.00    +0.000 OA
ATOM      5  N   UNL     1     -10.685  55.554  48.289  0.00  0.00    +0.000 N 
ATOM      6  C   UNL     1     -12.361  56.151  49.968  0.00  0.00    +0.000 A 
ATOM      7  C   UNL     1     -11.980  56.057  48.615  0.00  0.00    +0.000 A 
ATOM      8  C   UNL     1     -13.644  56.623  50.296  0.00  0.00    +0.000 A 
ATOM      9  C   UNL     1     -12.891  56.456  47.623  0.00  0.00    +0.000 A 
ATOM     10  C   UNL     1     -14.543  57.000  49.301  0.00  0.00    +0.000 A 
ATOM     11  C   UNL     1     -14.164  56.919  47.965  0.00  0.00    +0.000 A 
ENDROOT
BRANCH   1  17
ATOM     12  S   UNL     1      -7.040  54.834  52.986  0.00  0.00    +0.000 S 
ATOM     13  O   UNL     1      -6.995  55.804  54.062  0.00  0.00    +0.000 OA
ATOM     14  O   UNL     1      -5.831  54.492  52.263  0.00  0.00    +0.000 OA
ATOM     15  N   UNL     1      -8.139  55.339  51.912  0.00  0.00    +0.000 N 
ATOM     16  C   UNL     1      -7.611  53.339  53.705  0.00  0.00    +0.000 A 
ATOM     17  C   UNL     1      -9.275  54.724  51.777  0.00  0.00    +0.000 C 
ATOM     18  C   UNL     1      -8.882  52.903  53.370  0.00  0.00    +0.000 A 
ATOM     19  C   UNL     1      -6.788  52.618  54.574  0.00  0.00    +0.000 A 
ATOM     20  N   UNL     1      -9.697  53.637  52.514  0.00  0.00    +0.000 N 
ATOM     21  C   UNL     1      -9.366  51.748  53.991  0.00  0.00    +0.000 A 
ATOM     22  C   UNL     1      -7.272  51.448  55.154  0.00  0.00    +0.000 A 
ATOM     23  C   UNL     1      -8.566  51.019  54.869  0.00  0.00    +0.000 A 
ATOM     24  H   UNL     1      -7.943  56.126  51.352  0.00  0.00    +0.000 HD
ATOM     25  H   UNL     1     -10.637  53.362  52.429  0.00  0.00    +0.000 HD
ENDBRANCH   1  17
BRANCH   3  26
ATOM     26  O   UNL     1     -11.909  55.841  52.313  0.00  0.00    +0.000 OA
ATOM     27  H   UNL     1     -12.830  55.927  52.461  0.00  0.00    +0.000 HD
ENDBRANCH   3  26
BRANCH   5  28
ATOM     28  N   UNL     1     -10.300  55.514  46.899  0.00  0.00    +0.000 N 
ATOM     29  H   UNL     1     -10.130  56.323  46.365  0.00  0.00    +0.000 HD
BRANCH  28  30
ATOM     30  C   UNL     1     -10.183  54.156  46.355  0.00  0.00    +0.000 C 
BRANCH  30  31
ATOM     31  C   UNL     1     -11.191  53.942  45.268  0.00  0.00    +0.000 C 
ATOM     32  C   UNL     1     -12.011  52.684  45.158  0.00  0.00    +0.000 C 
ATOM     33  C   UNL     1     -10.890  52.930  44.187  0.00  0.00    +0.000 C 
ENDBRANCH  30  31
ENDBRANCH  28  30
ENDBRANCH   5  28
TORSDOF 5
ENDMDL
MODEL 6
REMARK VINA RESULT:      -7.8      2.994      7.322
REMARK  Name = 
REMARK  5 active torsions:
REMARK  status: ('A' for Active; 'I' for Inactive)
REMARK    1  A    between atoms: C_6  and  C_10
REMARK    2  A    between atoms: C_14  and  O_18
REMARK    3  A    between atoms: N_17  and  N_20
REMARK    4  A    between atoms: N_20  and  C_23
REMARK    5  A    between atoms: C_23  and  C_26
REMARK                            x       y       z     vdW  Elec       q    Type
REMARK                         _______ _______ _______ _____ _____    ______ ____
ROOT
ATOM      1  C   UNL     1      -9.984  54.620  50.861  0.00  0.00    +0.000 A 
ATOM      2  C   UNL     1     -11.339  55.096  51.271  0.00  0.00    +0.000 A 
ATOM      3  C   UNL     1      -9.640  54.588  49.563  0.00  0.00    +0.000 A 
ATOM      4  O   UNL     1     -11.608  55.068  52.477  0.00  0.00    +0.000 OA
ATOM      5  N   UNL     1     -12.202  55.569  50.279  0.00  0.00    +0.000 N 
ATOM      6  C   UNL     1     -10.572  55.060  48.528  0.00  0.00    +0.000 A 
ATOM      7  C   UNL     1     -11.842  55.543  48.898  0.00  0.00    +0.000 A 
ATOM      8  C   UNL     1     -10.201  55.052  47.172  0.00  0.00    +0.000 A 
ATOM      9  C   UNL     1     -12.717  55.993  47.896  0.00  0.00    +0.000 A 
ATOM     10  C   UNL     1     -11.073  55.517  46.190  0.00  0.00    +0.000 A 
ATOM     11  C   UNL     1     -12.331  55.983  46.553  0.00  0.00    +0.000 A 
ENDROOT
BRANCH   1  17
ATOM     12  S   UNL     1      -6.738  54.587  53.067  0.00  0.00    +0.000 S 
ATOM     13  O   UNL     1      -6.722  55.651  54.052  0.00  0.00    +0.000 OA
ATOM     14  O   UNL     1      -5.530  54.253  52.338  0.00  0.00    +0.000 OA
ATOM     15  N   UNL     1      -7.893  54.930  51.988  0.00  0.00    +0.000 N 
ATOM     16  C   UNL     1      -7.198  53.132  53.932  0.00  0.00    +0.000 A 
ATOM     17  C   UNL     1      -8.993  54.240  51.944  0.00  0.00    +0.000 C 
ATOM     18  C   UNL     1      -8.449  52.595  53.678  0.00  0.00    +0.000 A 
ATOM     19  C   UNL     1      -6.310  52.541  54.835  0.00  0.00    +0.000 A 
ATOM     20  N   UNL     1      -9.328  53.201  52.787  0.00  0.00    +0.000 N 
ATOM     21  C   UNL     1      -8.845  51.474  54.413  0.00  0.00    +0.000 A 
ATOM     22  C   UNL     1      -6.706  51.401  55.530  0.00  0.00    +0.000 A 
ATOM     23  C   UNL     1      -7.980  50.874  55.325  0.00  0.00    +0.000 A 
ATOM     24  H   UNL     1      -7.760  55.673  51.355  0.00  0.00    +0.000 HD
ATOM     25  H   UNL     1     -10.252  52.865  52.756  0.00  0.00    +0.000 HD
ENDBRANCH   1  17
BRANCH   3  26
ATOM     26  O   UNL     1      -8.410  54.162  49.093  0.00  0.00    +0.000 OA
ATOM     27  H   UNL     1      -7.852  54.757  48.632  0.00  0.00    +0.000 HD
ENDBRANCH   3  26
BRANCH   5  28
ATOM     28  N   UNL     1     -13.527  56.023  50.629  0.00  0.00    +0.000 N 
ATOM     29  H   UNL     1     -14.322  55.445  50.582  0.00  0.00    +0.000 HD
BRANCH  28  30
ATOM     30  C   UNL     1     -13.579  57.425  51.061  0.00  0.00    +0.000 C 
BRANCH  30  31
ATOM     31  C   UNL     1     -14.110  57.521  52.457  0.00  0.00    +0.000 C 
ATOM     32  C   UNL     1     -15.538  57.199  52.806  0.00  0.00    +0.000 C 
ATOM     33  C   UNL     1     -15.079  58.630  52.792  0.00  0.00    +0.000 C 
ENDBRANCH  30  31
ENDBRANCH  28  30
ENDBRANCH   5  28
TORSDOF 5
ENDMDL
MODEL 7
REMARK VINA RESULT:      -7.8      3.303      7.739
REMARK  Name = 
REMARK  5 active torsions:
REMARK  status: ('A' for Active; 'I' for Inactive)
REMARK    1  A    between atoms: C_6  and  C_10
REMARK    2  A    between atoms: C_14  and  O_18
REMARK    3  A    between atoms: N_17  and  N_20
REMARK    4  A    between atoms: N_20  and  C_23
REMARK    5  A    between atoms: C_23  and  C_26
REMARK                            x       y       z     vdW  Elec       q    Type
REMARK                         _______ _______ _______ _____ _____    ______ ____
ROOT
ATOM      1  C   UNL     1      -9.431  54.854  50.859  0.00  0.00    +0.000 A 
ATOM      2  C   UNL     1     -10.690  54.984  51.650  0.00  0.00    +0.000 A 
ATOM      3  C   UNL     1      -9.445  55.030  49.527  0.00  0.00    +0.000 A 
ATOM      4  O   UNL     1     -10.620  54.775  52.866  0.00  0.00    +0.000 OA
ATOM      5  N   UNL     1     -11.857  55.362  50.980  0.00  0.00    +0.000 N 
ATOM      6  C   UNL     1     -10.688  55.396  48.832  0.00  0.00    +0.000 A 
ATOM      7  C   UNL     1     -11.879  55.556  49.566  0.00  0.00    +0.000 A 
ATOM      8  C   UNL     1     -10.696  55.608  47.442  0.00  0.00    +0.000 A 
ATOM      9  C   UNL     1     -13.055  55.910  48.885  0.00  0.00    +0.000 A 
ATOM     10  C   UNL     1     -11.867  55.975  46.782  0.00  0.00    +0.000 A 
ATOM     11  C   UNL     1     -13.046  56.122  47.504  0.00  0.00    +0.000 A 
ENDROOT
BRANCH   1  17
ATOM     12  S   UNL     1      -6.616  55.036  53.588  0.00  0.00    +0.000 S 
ATOM     13  O   UNL     1      -6.931  54.252  54.767  0.00  0.00    +0.000 OA
ATOM     14  O   UNL     1      -6.008  56.345  53.727  0.00  0.00    +0.000 OA
ATOM     15  N   UNL     1      -7.976  55.204  52.730  0.00  0.00    +0.000 N 
ATOM     16  C   UNL     1      -5.484  54.074  52.655  0.00  0.00    +0.000 A 
ATOM     17  C   UNL     1      -8.136  54.584  51.600  0.00  0.00    +0.000 C 
ATOM     18  C   UNL     1      -5.927  53.530  51.461  0.00  0.00    +0.000 A 
ATOM     19  C   UNL     1      -4.177  53.887  53.112  0.00  0.00    +0.000 A 
ATOM     20  N   UNL     1      -7.235  53.712  51.024  0.00  0.00    +0.000 N 
ATOM     21  C   UNL     1      -5.050  52.709  50.747  0.00  0.00    +0.000 A 
ATOM     22  C   UNL     1      -3.303  53.098  52.367  0.00  0.00    +0.000 A 
ATOM     23  C   UNL     1      -3.744  52.501  51.188  0.00  0.00    +0.000 A 
ATOM     24  H   UNL     1      -8.695  55.787  53.069  0.00  0.00    +0.000 HD
ATOM     25  H   UNL     1      -7.537  53.185  50.250  0.00  0.00    +0.000 HD
ENDBRANCH   1  17
BRANCH   3  26
ATOM     26  O   UNL     1      -8.329  54.926  48.716  0.00  0.00    +0.000 OA
ATOM     27  H   UNL     1      -8.046  55.664  48.212  0.00  0.00    +0.000 HD
ENDBRANCH   3  26
BRANCH   5  28
ATOM     28  N   UNL     1     -13.100  55.485  51.704  0.00  0.00    +0.000 N 
ATOM     29  H   UNL     1     -13.767  54.763  51.749  0.00  0.00    +0.000 HD
BRANCH  28  30
ATOM     30  C   UNL     1     -13.277  56.783  52.364  0.00  0.00    +0.000 C 
BRANCH  30  31
ATOM     31  C   UNL     1     -14.664  57.299  52.137  0.00  0.00    +0.000 C 
ATOM     32  C   UNL     1     -14.941  58.707  51.684  0.00  0.00    +0.000 C 
ATOM     33  C   UNL     1     -15.230  58.311  53.105  0.00  0.00    +0.000 C 
ENDBRANCH  30  31
ENDBRANCH  28  30
ENDBRANCH   5  28
TORSDOF 5
ENDMDL
MODEL 8
REMARK VINA RESULT:      -7.8      3.599      4.308
REMARK  Name = 
REMARK  5 active torsions:
REMARK  status: ('A' for Active; 'I' for Inactive)
REMARK    1  A    between atoms: C_6  and  C_10
REMARK    2  A    between atoms: C_14  and  O_18
REMARK    3  A    between atoms: N_17  and  N_20
REMARK    4  A    between atoms: N_20  and  C_23
REMARK    5  A    between atoms: C_23  and  C_26
REMARK                            x       y       z     vdW  Elec       q    Type
REMARK                         _______ _______ _______ _____ _____    ______ ____
ROOT
ATOM      1  C   UNL     1     -11.684  56.099  48.614  0.00  0.00    +0.000 A 
ATOM      2  C   UNL     1     -10.506  55.562  49.356  0.00  0.00    +0.000 A 
ATOM      3  C   UNL     1     -11.944  55.688  47.362  0.00  0.00    +0.000 A 
ATOM      4  O   UNL     1     -10.300  56.006  50.491  0.00  0.00    +0.000 OA
ATOM      5  N   UNL     1      -9.731  54.574  48.741  0.00  0.00    +0.000 N 
ATOM      6  C   UNL     1     -11.098  54.671  46.717  0.00  0.00    +0.000 A 
ATOM      7  C   UNL     1     -10.002  54.128  47.413  0.00  0.00    +0.000 A 
ATOM      8  C   UNL     1     -11.386  54.220  45.416  0.00  0.00    +0.000 A 
ATOM      9  C   UNL     1      -9.209  53.155  46.782  0.00  0.00    +0.000 A 
ATOM     10  C   UNL     1     -10.602  53.243  44.808  0.00  0.00    +0.000 A 
ATOM     11  C   UNL     1      -9.512  52.714  45.491  0.00  0.00    +0.000 A 
ENDROOT
BRANCH   1  17
ATOM     12  S   UNL     1     -13.632  59.386  49.513  0.00  0.00    +0.000 S 
ATOM     13  O   UNL     1     -14.797  59.591  48.673  0.00  0.00    +0.000 OA
ATOM     14  O   UNL     1     -12.778  60.506  49.857  0.00  0.00    +0.000 OA
ATOM     15  N   UNL     1     -12.713  58.253  48.814  0.00  0.00    +0.000 N 
ATOM     16  C   UNL     1     -14.236  58.753  51.034  0.00  0.00    +0.000 A 
ATOM     17  C   UNL     1     -12.610  57.064  49.328  0.00  0.00    +0.000 C 
ATOM     18  C   UNL     1     -13.966  57.430  51.337  0.00  0.00    +0.000 A 
ATOM     19  C   UNL     1     -14.953  59.580  51.903  0.00  0.00    +0.000 A 
ATOM     20  N   UNL     1     -13.263  56.614  50.456  0.00  0.00    +0.000 N 
ATOM     21  C   UNL     1     -14.502  56.903  52.516  0.00  0.00    +0.000 A 
ATOM     22  C   UNL     1     -15.446  59.049  53.093  0.00  0.00    +0.000 A 
ATOM     23  C   UNL     1     -15.227  57.706  53.394  0.00  0.00    +0.000 A 
ATOM     24  H   UNL     1     -12.224  58.468  47.986  0.00  0.00    +0.000 HD
ATOM     25  H   UNL     1     -13.229  55.651  50.653  0.00  0.00    +0.000 HD
ENDBRANCH   1  17
BRANCH   3  26
ATOM     26  O   UNL     1     -13.009  56.133  46.599  0.00  0.00    +0.000 OA
ATOM     27  H   UNL     1     -13.863  55.771  46.732  0.00  0.00    +0.000 HD
ENDBRANCH   3  26
BRANCH   5  28
ATOM     28  N   UNL     1      -8.573  54.038  49.417  0.00  0.00    +0.000 N 
ATOM     29  H   UNL     1      -8.589  53.193  49.920  0.00  0.00    +0.000 HD
BRANCH  28  30
ATOM     30  C   UNL     1      -7.371  54.870  49.285  0.00  0.00    +0.000 C 
BRANCH  30  31
ATOM     31  C   UNL     1      -6.142  54.052  49.532  0.00  0.00    +0.000 C 
ATOM     32  C   UNL     1      -5.170  54.362  50.640  0.00  0.00    +0.000 C 
ATOM     33  C   UNL     1      -4.793  54.654  49.214  0.00  0.00    +0.000 C 
ENDBRANCH  30  31
ENDBRANCH  28  30
ENDBRANCH   5  28
TORSDOF 5
ENDMDL
MODEL 9
REMARK VINA RESULT:      -7.7      3.057      4.815
REMARK  Name = 
REMARK  5 active torsions:
REMARK  status: ('A' for Active; 'I' for Inactive)
REMARK    1  A    between atoms: C_6  and  C_10
REMARK    2  A    between atoms: C_14  and  O_18
REMARK    3  A    between atoms: N_17  and  N_20
REMARK    4  A    between atoms: N_20  and  C_23
REMARK    5  A    between atoms: C_23  and  C_26
REMARK                            x       y       z     vdW  Elec       q    Type
REMARK                         _______ _______ _______ _____ _____    ______ ____
ROOT
ATOM      1  C   UNL     1     -12.188  54.200  50.199  0.00  0.00    +0.000 A 
ATOM      2  C   UNL     1     -11.897  53.828  48.783  0.00  0.00    +0.000 A 
ATOM      3  C   UNL     1     -11.656  53.494  51.210  0.00  0.00    +0.000 A 
ATOM      4  O   UNL     1     -12.444  54.494  47.898  0.00  0.00    +0.000 OA
ATOM      5  N   UNL     1     -11.006  52.777  48.544  0.00  0.00    +0.000 N 
ATOM      6  C   UNL     1     -10.746  52.370  50.942  0.00  0.00    +0.000 A 
ATOM      7  C   UNL     1     -10.433  52.024  49.613  0.00  0.00    +0.000 A 
ATOM      8  C   UNL     1     -10.167  51.648  52.000  0.00  0.00    +0.000 A 
ATOM      9  C   UNL     1      -9.559  50.951  49.377  0.00  0.00    +0.000 A 
ATOM     10  C   UNL     1      -9.288  50.596  51.752  0.00  0.00    +0.000 A 
ATOM     11  C   UNL     1      -8.988  50.246  50.440  0.00  0.00    +0.000 A 
ENDROOT
BRANCH   1  17
ATOM     12  S   UNL     1     -15.198  56.444  51.344  0.00  0.00    +0.000 S 
ATOM     13  O   UNL     1     -15.202  56.684  52.774  0.00  0.00    +0.000 OA
ATOM     14  O   UNL     1     -16.440  56.169  50.649  0.00  0.00    +0.000 OA
ATOM     15  N   UNL     1     -14.180  55.222  51.052  0.00  0.00    +0.000 N 
ATOM     16  C   UNL     1     -14.546  57.899  50.611  0.00  0.00    +0.000 A 
ATOM     17  C   UNL     1     -13.039  55.427  50.465  0.00  0.00    +0.000 C 
ATOM     18  C   UNL     1     -13.288  57.828  50.039  0.00  0.00    +0.000 A 
ATOM     19  C   UNL     1     -15.296  59.077  50.603  0.00  0.00    +0.000 A 
ATOM     20  N   UNL     1     -12.546  56.651  50.065  0.00  0.00    +0.000 N 
ATOM     21  C   UNL     1     -12.737  59.000  49.512  0.00  0.00    +0.000 A 
ATOM     22  C   UNL     1     -14.748  60.227  50.038  0.00  0.00    +0.000 A 
ATOM     23  C   UNL     1     -13.463  60.189  49.501  0.00  0.00    +0.000 A 
ATOM     24  H   UNL     1     -14.429  54.308  51.323  0.00  0.00    +0.000 HD
ATOM     25  H   UNL     1     -11.606  56.696  49.779  0.00  0.00    +0.000 HD
ENDBRANCH   1  17
BRANCH   3  26
ATOM     26  O   UNL     1     -11.872  53.764  52.550  0.00  0.00    +0.000 OA
ATOM     27  H   UNL     1     -11.403  54.459  52.969  0.00  0.00    +0.000 HD
ENDBRANCH   3  26
BRANCH   5  28
ATOM     28  N   UNL     1     -10.709  52.374  47.191  0.00  0.00    +0.000 N 
ATOM     29  H   UNL     1     -11.197  51.657  46.725  0.00  0.00    +0.000 HD
BRANCH  28  30
ATOM     30  C   UNL     1      -9.613  53.129  46.574  0.00  0.00    +0.000 C 
BRANCH  30  31
ATOM     31  C   UNL     1     -10.040  53.678  45.247  0.00  0.00    +0.000 C 
ATOM     32  C   UNL     1     -11.279  53.206  44.535  0.00  0.00    +0.000 C 
ATOM     33  C   UNL     1      -9.925  52.797  44.026  0.00  0.00    +0.000 C 
ENDBRANCH  30  31
ENDBRANCH  28  30
ENDBRANCH   5  28
TORSDOF 5
ENDMDL
