MODEL 1
REMARK VINA RESULT:      -8.8      0.000      0.000
REMARK  Name = 
REMARK  5 active torsions:
REMARK  status: ('A' for Active; 'I' for Inactive)
REMARK    1  A    between atoms: C_6  and  C_10
REMARK    2  A    between atoms: C_14  and  O_18
REMARK    3  A    between atoms: N_17  and  N_20
REMARK    4  A    between atoms: N_20  and  C_23
REMARK    5  A    between atoms: C_23  and  C_26
REMARK                            x       y       z     vdW  Elec       q    Type
REMARK                         _______ _______ _______ _____ _____    ______ ____
ROOT
ATOM      1  C   UNL     1     -11.457  56.064  48.807  0.00  0.00    +0.000 A 
ATOM      2  C   UNL     1     -10.360  55.506  49.654  0.00  0.00    +0.000 A 
ATOM      3  C   UNL     1     -11.589  55.678  47.527  0.00  0.00    +0.000 A 
ATOM      4  O   UNL     1     -10.282  55.910  50.818  0.00  0.00    +0.000 OA
ATOM      5  N   UNL     1      -9.510  54.550  49.090  0.00  0.00    +0.000 N 
ATOM      6  C   UNL     1     -10.684  54.674  46.949  0.00  0.00    +0.000 A 
ATOM      7  C   UNL     1      -9.655  54.126  47.734  0.00  0.00    +0.000 A 
ATOM      8  C   UNL     1     -10.846  54.243  45.621  0.00  0.00    +0.000 A 
ATOM      9  C   UNL     1      -8.803  53.163  47.167  0.00  0.00    +0.000 A 
ATOM     10  C   UNL     1     -10.007  53.273  45.077  0.00  0.00    +0.000 A 
ATOM     11  C   UNL     1      -8.984  52.735  45.848  0.00  0.00    +0.000 A 
ENDROOT
BRANCH   1  17
ATOM     12  S   UNL     1     -13.559  59.314  49.473  0.00  0.00    +0.000 S 
ATOM     13  O   UNL     1     -14.682  59.431  48.569  0.00  0.00    +0.000 OA
ATOM     14  O   UNL     1     -12.760  60.479  49.807  0.00  0.00    +0.000 OA
ATOM     15  N   UNL     1     -12.564  58.185  48.872  0.00  0.00    +0.000 N 
ATOM     16  C   UNL     1     -14.214  58.721  50.991  0.00  0.00    +0.000 A 
ATOM     17  C   UNL     1     -12.447  57.021  49.438  0.00  0.00    +0.000 C 
ATOM     18  C   UNL     1     -13.911  57.421  51.363  0.00  0.00    +0.000 A 
ATOM     19  C   UNL     1     -15.003  59.556  51.784  0.00  0.00    +0.000 A 
ATOM     20  N   UNL     1     -13.137  56.595  50.553  0.00  0.00    +0.000 N 
ATOM     21  C   UNL     1     -14.477  56.923  52.541  0.00  0.00    +0.000 A 
ATOM     22  C   UNL     1     -15.531  59.059  52.972  0.00  0.00    +0.000 A 
ATOM     23  C   UNL     1     -15.276  57.740  53.348  0.00  0.00    +0.000 A 
ATOM     24  H   UNL     1     -12.039  58.385  48.064  0.00  0.00    +0.000 HD
ATOM     25  H   UNL     1     -13.078  55.641  50.793  0.00  0.00    +0.000 HD
ENDBRANCH   1  17
BRANCH   3  26
ATOM     26  O   UNL     1     -12.571  56.141  46.670  0.00  0.00    +0.000 OA
ATOM     27  H   UNL     1     -12.671  55.760  45.821  0.00  0.00    +0.000 HD
ENDBRANCH   3  26
BRANCH   5  28
ATOM     28  N   UNL     1      -8.384  54.047  49.827  0.00  0.00    +0.000 N 
ATOM     29  H   UNL     1      -8.380  53.151  50.235  0.00  0.00    +0.000 HD
BRANCH  28  30
ATOM     30  C   UNL     1      -7.238  54.963  49.930  0.00  0.00    +0.000 C 
BRANCH  30  31
ATOM     31  C   UNL     1      -6.726  55.050  51.342  0.00  0.00    +0.000 A 
ATOM     32  C   UNL     1      -5.626  54.295  51.751  0.00  0.00    +0.000 A 
ATOM     33  C   UNL     1      -7.314  55.888  52.288  0.00  0.00    +0.000 A 
ATOM     34  N   UNL     1      -5.113  54.314  53.001  0.00  0.00    +0.000 NA
ATOM     35  C   UNL     1      -6.810  55.928  53.584  0.00  0.00    +0.000 A 
ATOM     36  C   UNL     1      -5.721  55.127  53.890  0.00  0.00    +0.000 A 
ENDBRANCH  30  31
ENDBRANCH  28  30
ENDBRANCH   5  28
TORSDOF 5
ENDMDL
MODEL 2
REMARK VINA RESULT:      -8.7      2.624      7.351
REMARK  Name = 
REMARK  5 active torsions:
REMARK  status: ('A' for Active; 'I' for Inactive)
REMARK    1  A    between atoms: C_6  and  C_10
REMARK    2  A    between atoms: C_14  and  O_18
REMARK    3  A    between atoms: N_17  and  N_20
REMARK    4  A    between atoms: N_20  and  C_23
REMARK    5  A    between atoms: C_23  and  C_26
REMARK                            x       y       z     vdW  Elec       q    Type
REMARK                         _______ _______ _______ _____ _____    ______ ____
ROOT
ATOM      1  C   UNL     1      -9.112  54.351  49.907  0.00  0.00    +0.000 A 
ATOM      2  C   UNL     1     -10.163  55.409  49.992  0.00  0.00    +0.000 A 
ATOM      3  C   UNL     1      -8.999  53.595  48.802  0.00  0.00    +0.000 A 
ATOM      4  O   UNL     1     -10.226  56.062  51.038  0.00  0.00    +0.000 OA
ATOM      5  N   UNL     1     -10.989  55.612  48.883  0.00  0.00    +0.000 N 
ATOM      6  C   UNL     1      -9.878  53.819  47.646  0.00  0.00    +0.000 A 
ATOM      7  C   UNL     1     -10.864  54.820  47.701  0.00  0.00    +0.000 A 
ATOM      8  C   UNL     1      -9.734  53.052  46.477  0.00  0.00    +0.000 A 
ATOM      9  C   UNL     1     -11.692  55.024  46.584  0.00  0.00    +0.000 A 
ATOM     10  C   UNL     1     -10.548  53.278  45.369  0.00  0.00    +0.000 A 
ATOM     11  C   UNL     1     -11.528  54.262  45.423  0.00  0.00    +0.000 A 
ENDROOT
BRANCH   1  17
ATOM     12  S   UNL     1      -7.732  54.086  53.575  0.00  0.00    +0.000 S 
ATOM     13  O   UNL     1      -7.951  52.775  54.145  0.00  0.00    +0.000 OA
ATOM     14  O   UNL     1      -7.940  55.280  54.374  0.00  0.00    +0.000 OA
ATOM     15  N   UNL     1      -8.663  54.206  52.254  0.00  0.00    +0.000 N 
ATOM     16  C   UNL     1      -6.051  54.125  53.070  0.00  0.00    +0.000 A 
ATOM     17  C   UNL     1      -8.144  54.194  51.062  0.00  0.00    +0.000 C 
ATOM     18  C   UNL     1      -5.782  54.119  51.710  0.00  0.00    +0.000 A 
ATOM     19  C   UNL     1      -5.036  54.169  54.028  0.00  0.00    +0.000 A 
ATOM     20  N   UNL     1      -6.804  54.058  50.768  0.00  0.00    +0.000 N 
ATOM     21  C   UNL     1      -4.444  54.091  51.303  0.00  0.00    +0.000 A 
ATOM     22  C   UNL     1      -3.709  54.175  53.607  0.00  0.00    +0.000 A 
ATOM     23  C   UNL     1      -3.412  54.128  52.245  0.00  0.00    +0.000 A 
ATOM     24  H   UNL     1      -9.638  54.288  52.356  0.00  0.00    +0.000 HD
ATOM     25  H   UNL     1      -6.553  53.907  49.828  0.00  0.00    +0.000 HD
ENDBRANCH   1  17
BRANCH   3  26
ATOM     26  O   UNL     1      -8.058  52.594  48.636  0.00  0.00    +0.000 OA
ATOM     27  H   UNL     1      -8.331  51.700  48.567  0.00  0.00    +0.000 HD
ENDBRANCH   3  26
BRANCH   5  28
ATOM     28  N   UNL     1     -12.075  56.552  48.941  0.00  0.00    +0.000 N 
ATOM     29  H   UNL     1     -12.013  57.452  48.547  0.00  0.00    +0.000 HD
BRANCH  28  30
ATOM     30  C   UNL     1     -13.284  56.076  49.630  0.00  0.00    +0.000 C 
BRANCH  30  31
ATOM     31  C   UNL     1     -13.743  57.055  50.676  0.00  0.00    +0.000 A 
ATOM     32  C   UNL     1     -14.297  58.282  50.312  0.00  0.00    +0.000 A 
ATOM     33  C   UNL     1     -13.648  56.774  52.039  0.00  0.00    +0.000 A 
ATOM     34  N   UNL     1     -14.725  59.214  51.192  0.00  0.00    +0.000 NA
ATOM     35  C   UNL     1     -14.079  57.714  52.969  0.00  0.00    +0.000 A 
ATOM     36  C   UNL     1     -14.601  58.910  52.501  0.00  0.00    +0.000 A 
ENDBRANCH  30  31
ENDBRANCH  28  30
ENDBRANCH   5  28
TORSDOF 5
ENDMDL
MODEL 3
REMARK VINA RESULT:      -8.7      3.143      4.915
REMARK  Name = 
REMARK  5 active torsions:
REMARK  status: ('A' for Active; 'I' for Inactive)
REMARK    1  A    between atoms: C_6  and  C_10
REMARK    2  A    between atoms: C_14  and  O_18
REMARK    3  A    between atoms: N_17  and  N_20
REMARK    4  A    between atoms: N_20  and  C_23
REMARK    5  A    between atoms: C_23  and  C_26
REMARK                            x       y       z     vdW  Elec       q    Type
REMARK                         _______ _______ _______ _____ _____    ______ ____
ROOT
ATOM      1  C   UNL     1     -10.089  54.560  52.213  0.00  0.00    +0.000 A 
ATOM      2  C   UNL     1      -8.725  55.136  52.018  0.00  0.00    +0.000 A 
ATOM      3  C   UNL     1     -10.260  53.454  52.955  0.00  0.00    +0.000 A 
ATOM      4  O   UNL     1      -8.631  56.146  51.314  0.00  0.00    +0.000 OA
ATOM      5  N   UNL     1      -7.648  54.517  52.659  0.00  0.00    +0.000 N 
ATOM      6  C   UNL     1      -9.116  52.813  53.620  0.00  0.00    +0.000 A 
ATOM      7  C   UNL     1      -7.826  53.348  53.461  0.00  0.00    +0.000 A 
ATOM      8  C   UNL     1      -9.300  51.677  54.427  0.00  0.00    +0.000 A 
ATOM      9  C   UNL     1      -6.744  52.726  54.109  0.00  0.00    +0.000 A 
ATOM     10  C   UNL     1      -8.222  51.082  55.080  0.00  0.00    +0.000 A 
ATOM     11  C   UNL     1      -6.945  51.605  54.919  0.00  0.00    +0.000 A 
ENDROOT
BRANCH   1  17
ATOM     12  S   UNL     1     -12.551  56.053  49.540  0.00  0.00    +0.000 S 
ATOM     13  O   UNL     1     -13.436  55.048  48.994  0.00  0.00    +0.000 OA
ATOM     14  O   UNL     1     -11.951  57.053  48.675  0.00  0.00    +0.000 OA
ATOM     15  N   UNL     1     -11.352  55.281  50.311  0.00  0.00    +0.000 N 
ATOM     16  C   UNL     1     -13.491  56.938  50.730  0.00  0.00    +0.000 A 
ATOM     17  C   UNL     1     -11.276  55.284  51.609  0.00  0.00    +0.000 C 
ATOM     18  C   UNL     1     -13.178  56.759  52.068  0.00  0.00    +0.000 A 
ATOM     19  C   UNL     1     -14.511  57.797  50.313  0.00  0.00    +0.000 A 
ATOM     20  N   UNL     1     -12.171  55.886  52.467  0.00  0.00    +0.000 N 
ATOM     21  C   UNL     1     -13.962  57.416  53.022  0.00  0.00    +0.000 A 
ATOM     22  C   UNL     1     -15.260  58.471  51.274  0.00  0.00    +0.000 A 
ATOM     23  C   UNL     1     -14.992  58.276  52.628  0.00  0.00    +0.000 A 
ATOM     24  H   UNL     1     -10.670  54.802  49.787  0.00  0.00    +0.000 HD
ATOM     25  H   UNL     1     -12.091  55.686  53.428  0.00  0.00    +0.000 HD
ENDBRANCH   1  17
BRANCH   3  26
ATOM     26  O   UNL     1     -11.483  52.852  53.188  0.00  0.00    +0.000 OA
ATOM     27  H   UNL     1     -12.263  53.370  53.217  0.00  0.00    +0.000 HD
ENDBRANCH   3  26
BRANCH   5  28
ATOM     28  N   UNL     1      -6.303  54.971  52.435  0.00  0.00    +0.000 N 
ATOM     29  H   UNL     1      -5.779  55.427  53.133  0.00  0.00    +0.000 HD
BRANCH  28  30
ATOM     30  C   UNL     1      -5.765  54.708  51.092  0.00  0.00    +0.000 C 
BRANCH  30  31
ATOM     31  C   UNL     1      -5.087  53.366  51.023  0.00  0.00    +0.000 A 
ATOM     32  C   UNL     1      -5.640  52.324  50.278  0.00  0.00    +0.000 A 
ATOM     33  C   UNL     1      -3.885  53.114  51.683  0.00  0.00    +0.000 A 
ATOM     34  N   UNL     1      -5.095  51.093  50.173  0.00  0.00    +0.000 NA
ATOM     35  C   UNL     1      -3.300  51.855  51.595  0.00  0.00    +0.000 A 
ATOM     36  C   UNL     1      -3.939  50.885  50.839  0.00  0.00    +0.000 A 
ENDBRANCH  30  31
ENDBRANCH  28  30
ENDBRANCH   5  28
TORSDOF 5
ENDMDL
MODEL 4
REMARK VINA RESULT:      -8.6      2.412      3.217
REMARK  Name = 
REMARK  5 active torsions:
REMARK  status: ('A' for Active; 'I' for Inactive)
REMARK    1  A    between atoms: C_6  and  C_10
REMARK    2  A    between atoms: C_14  and  O_18
REMARK    3  A    between atoms: N_17  and  N_20
REMARK    4  A    between atoms: N_20  and  C_23
REMARK    5  A    between atoms: C_23  and  C_26
REMARK                            x       y       z     vdW  Elec       q    Type
REMARK                         _______ _______ _______ _____ _____    ______ ____
ROOT
ATOM      1  C   UNL     1     -11.200  54.563  50.729  0.00  0.00    +0.000 A 
ATOM      2  C   UNL     1      -9.816  54.927  50.302  0.00  0.00    +0.000 A 
ATOM      3  C   UNL     1     -11.463  53.334  51.203  0.00  0.00    +0.000 A 
ATOM      4  O   UNL     1      -9.640  56.067  49.862  0.00  0.00    +0.000 OA
ATOM      5  N   UNL     1      -8.807  53.971  50.446  0.00  0.00    +0.000 N 
ATOM      6  C   UNL     1     -10.390  52.339  51.344  0.00  0.00    +0.000 A 
ATOM      7  C   UNL     1      -9.078  52.667  50.962  0.00  0.00    +0.000 A 
ATOM      8  C   UNL     1     -10.659  51.066  51.875  0.00  0.00    +0.000 A 
ATOM      9  C   UNL     1      -8.063  51.706  51.111  0.00  0.00    +0.000 A 
ATOM     10  C   UNL     1      -9.640  50.129  52.036  0.00  0.00    +0.000 A 
ATOM     11  C   UNL     1      -8.344  50.448  51.652  0.00  0.00    +0.000 A 
ENDROOT
BRANCH   1  17
ATOM     12  S   UNL     1     -13.655  57.282  49.312  0.00  0.00    +0.000 S 
ATOM     13  O   UNL     1     -14.808  56.692  48.668  0.00  0.00    +0.000 OA
ATOM     14  O   UNL     1     -12.992  58.430  48.722  0.00  0.00    +0.000 OA
ATOM     15  N   UNL     1     -12.549  56.113  49.501  0.00  0.00    +0.000 N 
ATOM     16  C   UNL     1     -14.193  57.794  50.903  0.00  0.00    +0.000 A 
ATOM     17  C   UNL     1     -12.280  55.625  50.675  0.00  0.00    +0.000 C 
ATOM     18  C   UNL     1     -13.728  57.090  52.002  0.00  0.00    +0.000 A 
ATOM     19  C   UNL     1     -15.054  58.886  51.030  0.00  0.00    +0.000 A 
ATOM     20  N   UNL     1     -12.884  55.993  51.858  0.00  0.00    +0.000 N 
ATOM     21  C   UNL     1     -14.199  57.456  53.268  0.00  0.00    +0.000 A 
ATOM     22  C   UNL     1     -15.487  59.261  52.299  0.00  0.00    +0.000 A 
ATOM     23  C   UNL     1     -15.067  58.542  53.417  0.00  0.00    +0.000 A 
ATOM     24  H   UNL     1     -12.074  55.766  48.712  0.00  0.00    +0.000 HD
ATOM     25  H   UNL     1     -12.706  55.443  52.655  0.00  0.00    +0.000 HD
ENDBRANCH   1  17
BRANCH   3  26
ATOM     26  O   UNL     1     -12.712  52.910  51.619  0.00  0.00    +0.000 OA
ATOM     27  H   UNL     1     -13.173  53.387  52.280  0.00  0.00    +0.000 HD
ENDBRANCH   3  26
BRANCH   5  28
ATOM     28  N   UNL     1      -7.477  54.233  49.968  0.00  0.00    +0.000 N 
ATOM     29  H   UNL     1      -7.083  53.739  49.213  0.00  0.00    +0.000 HD
BRANCH  28  30
ATOM     30  C   UNL     1      -6.747  55.290  50.684  0.00  0.00    +0.000 C 
BRANCH  30  31
ATOM     31  C   UNL     1      -6.543  54.935  52.132  0.00  0.00    +0.000 A 
ATOM     32  C   UNL     1      -7.309  55.539  53.130  0.00  0.00    +0.000 A 
ATOM     33  C   UNL     1      -5.602  53.987  52.532  0.00  0.00    +0.000 A 
ATOM     34  N   UNL     1      -7.180  55.277  54.450  0.00  0.00    +0.000 NA
ATOM     35  C   UNL     1      -5.446  53.698  53.884  0.00  0.00    +0.000 A 
ATOM     36  C   UNL     1      -6.247  54.366  54.796  0.00  0.00    +0.000 A 
ENDBRANCH  30  31
ENDBRANCH  28  30
ENDBRANCH   5  28
TORSDOF 5
ENDMDL
MODEL 5
REMARK VINA RESULT:      -8.4      3.184      3.997
REMARK  Name = 
REMARK  5 active torsions:
REMARK  status: ('A' for Active; 'I' for Inactive)
REMARK    1  A    between atoms: C_6  and  C_10
REMARK    2  A    between atoms: C_14  and  O_18
REMARK    3  A    between atoms: N_17  and  N_20
REMARK    4  A    between atoms: N_20  and  C_23
REMARK    5  A    between atoms: C_23  and  C_26
REMARK                            x       y       z     vdW  Elec       q    Type
REMARK                         _______ _______ _______ _____ _____    ______ ____
ROOT
ATOM      1  C   UNL     1     -11.299  53.937  51.627  0.00  0.00    +0.000 A 
ATOM      2  C   UNL     1     -10.303  54.138  52.721  0.00  0.00    +0.000 A 
ATOM      3  C   UNL     1     -11.461  52.726  51.070  0.00  0.00    +0.000 A 
ATOM      4  O   UNL     1     -10.190  55.277  53.184  0.00  0.00    +0.000 OA
ATOM      5  N   UNL     1      -9.580  53.028  53.169  0.00  0.00    +0.000 N 
ATOM      6  C   UNL     1     -10.690  51.570  51.550  0.00  0.00    +0.000 A 
ATOM      7  C   UNL     1      -9.758  51.736  52.590  0.00  0.00    +0.000 A 
ATOM      8  C   UNL     1     -10.886  50.295  50.992  0.00  0.00    +0.000 A 
ATOM      9  C   UNL     1      -9.034  50.618  53.041  0.00  0.00    +0.000 A 
ATOM     10  C   UNL     1     -10.177  49.193  51.463  0.00  0.00    +0.000 A 
ATOM     11  C   UNL     1      -9.249  49.354  52.485  0.00  0.00    +0.000 A 
ENDROOT
BRANCH   1  17
ATOM     12  S   UNL     1     -12.897  56.751  49.400  0.00  0.00    +0.000 S 
ATOM     13  O   UNL     1     -13.931  56.235  48.530  0.00  0.00    +0.000 OA
ATOM     14  O   UNL     1     -11.945  57.731  48.910  0.00  0.00    +0.000 OA
ATOM     15  N   UNL     1     -12.058  55.485  49.966  0.00  0.00    +0.000 N 
ATOM     16  C   UNL     1     -13.727  57.510  50.749  0.00  0.00    +0.000 A 
ATOM     17  C   UNL     1     -12.162  55.110  51.206  0.00  0.00    +0.000 C 
ATOM     18  C   UNL     1     -13.657  56.889  51.985  0.00  0.00    +0.000 A 
ATOM     19  C   UNL     1     -14.420  58.707  50.556  0.00  0.00    +0.000 A 
ATOM     20  N   UNL     1     -12.977  55.687  52.157  0.00  0.00    +0.000 N 
ATOM     21  C   UNL     1     -14.364  57.457  53.049  0.00  0.00    +0.000 A 
ATOM     22  C   UNL     1     -15.091  59.280  51.633  0.00  0.00    +0.000 A 
ATOM     23  C   UNL     1     -15.071  58.652  52.878  0.00  0.00    +0.000 A 
ATOM     24  H   UNL     1     -11.460  54.992  49.360  0.00  0.00    +0.000 HD
ATOM     25  H   UNL     1     -13.084  55.217  53.016  0.00  0.00    +0.000 HD
ENDBRANCH   1  17
BRANCH   3  26
ATOM     26  O   UNL     1     -12.357  52.449  50.053  0.00  0.00    +0.000 OA
ATOM     27  H   UNL     1     -12.854  51.655  50.069  0.00  0.00    +0.000 HD
ENDBRANCH   3  26
BRANCH   5  28
ATOM     28  N   UNL     1      -8.545  53.179  54.155  0.00  0.00    +0.000 N 
ATOM     29  H   UNL     1      -8.534  52.658  54.990  0.00  0.00    +0.000 HD
BRANCH  28  30
ATOM     30  C   UNL     1      -7.503  54.164  53.828  0.00  0.00    +0.000 C 
BRANCH  30  31
ATOM     31  C   UNL     1      -6.149  53.516  53.713  0.00  0.00    +0.000 A 
ATOM     32  C   UNL     1      -4.989  54.290  53.658  0.00  0.00    +0.000 A 
ATOM     33  C   UNL     1      -5.998  52.131  53.670  0.00  0.00    +0.000 A 
ATOM     34  N   UNL     1      -3.742  53.783  53.548  0.00  0.00    +0.000 NA
ATOM     35  C   UNL     1      -4.726  51.579  53.555  0.00  0.00    +0.000 A 
ATOM     36  C   UNL     1      -3.640  52.438  53.494  0.00  0.00    +0.000 A 
ENDBRANCH  30  31
ENDBRANCH  28  30
ENDBRANCH   5  28
TORSDOF 5
ENDMDL
MODEL 6
REMARK VINA RESULT:      -8.4      1.731      2.127
REMARK  Name = 
REMARK  5 active torsions:
REMARK  status: ('A' for Active; 'I' for Inactive)
REMARK    1  A    between atoms: C_6  and  C_10
REMARK    2  A    between atoms: C_14  and  O_18
REMARK    3  A    between atoms: N_17  and  N_20
REMARK    4  A    between atoms: N_20  and  C_23
REMARK    5  A    between atoms: C_23  and  C_26
REMARK                            x       y       z     vdW  Elec       q    Type
REMARK                         _______ _______ _______ _____ _____    ______ ____
ROOT
ATOM      1  C   UNL     1     -11.687  56.094  48.577  0.00  0.00    +0.000 A 
ATOM      2  C   UNL     1     -10.490  55.567  49.300  0.00  0.00    +0.000 A 
ATOM      3  C   UNL     1     -11.964  55.678  47.331  0.00  0.00    +0.000 A 
ATOM      4  O   UNL     1     -10.280  55.998  50.438  0.00  0.00    +0.000 OA
ATOM      5  N   UNL     1      -9.700  54.608  48.660  0.00  0.00    +0.000 N 
ATOM      6  C   UNL     1     -11.121  54.671  46.671  0.00  0.00    +0.000 A 
ATOM      7  C   UNL     1      -9.999  54.152  47.340  0.00  0.00    +0.000 A 
ATOM      8  C   UNL     1     -11.433  54.208  45.381  0.00  0.00    +0.000 A 
ATOM      9  C   UNL     1      -9.207  53.185  46.696  0.00  0.00    +0.000 A 
ATOM     10  C   UNL     1     -10.652  53.235  44.762  0.00  0.00    +0.000 A 
ATOM     11  C   UNL     1      -9.538  52.725  45.418  0.00  0.00    +0.000 A 
ENDROOT
BRANCH   1  17
ATOM     12  S   UNL     1     -13.634  59.379  49.494  0.00  0.00    +0.000 S 
ATOM     13  O   UNL     1     -14.798  59.573  48.657  0.00  0.00    +0.000 OA
ATOM     14  O   UNL     1     -12.778  60.501  49.833  0.00  0.00    +0.000 OA
ATOM     15  N   UNL     1     -12.713  58.246  48.792  0.00  0.00    +0.000 N 
ATOM     16  C   UNL     1     -14.229  58.741  51.018  0.00  0.00    +0.000 A 
ATOM     17  C   UNL     1     -12.608  57.055  49.302  0.00  0.00    +0.000 C 
ATOM     18  C   UNL     1     -13.954  57.417  51.317  0.00  0.00    +0.000 A 
ATOM     19  C   UNL     1     -14.945  59.567  51.887  0.00  0.00    +0.000 A 
ATOM     20  N   UNL     1     -13.253  56.602  50.433  0.00  0.00    +0.000 N 
ATOM     21  C   UNL     1     -14.474  56.887  52.503  0.00  0.00    +0.000 A 
ATOM     22  C   UNL     1     -15.428  59.035  53.080  0.00  0.00    +0.000 A 
ATOM     23  C   UNL     1     -15.200  57.693  53.385  0.00  0.00    +0.000 A 
ATOM     24  H   UNL     1     -12.224  58.464  47.967  0.00  0.00    +0.000 HD
ATOM     25  H   UNL     1     -13.216  55.638  50.628  0.00  0.00    +0.000 HD
ENDBRANCH   1  17
BRANCH   3  26
ATOM     26  O   UNL     1     -13.047  56.111  46.587  0.00  0.00    +0.000 OA
ATOM     27  H   UNL     1     -13.007  56.104  45.651  0.00  0.00    +0.000 HD
ENDBRANCH   3  26
BRANCH   5  28
ATOM     28  N   UNL     1      -8.488  54.134  49.269  0.00  0.00    +0.000 N 
ATOM     29  H   UNL     1      -7.668  54.677  49.300  0.00  0.00    +0.000 HD
BRANCH  28  30
ATOM     30  C   UNL     1      -8.558  52.782  49.842  0.00  0.00    +0.000 C 
BRANCH  30  31
ATOM     31  C   UNL     1      -9.268  52.782  51.169  0.00  0.00    +0.000 A 
ATOM     32  C   UNL     1     -10.517  52.177  51.311  0.00  0.00    +0.000 A 
ATOM     33  C   UNL     1      -8.708  53.369  52.303  0.00  0.00    +0.000 A 
ATOM     34  N   UNL     1     -11.218  52.142  52.466  0.00  0.00    +0.000 NA
ATOM     35  C   UNL     1      -9.406  53.351  53.506  0.00  0.00    +0.000 A 
ATOM     36  C   UNL     1     -10.648  52.735  53.536  0.00  0.00    +0.000 A 
ENDBRANCH  30  31
ENDBRANCH  28  30
ENDBRANCH   5  28
TORSDOF 5
ENDMDL
MODEL 7
REMARK VINA RESULT:      -8.4      3.097      6.908
REMARK  Name = 
REMARK  5 active torsions:
REMARK  status: ('A' for Active; 'I' for Inactive)
REMARK    1  A    between atoms: C_6  and  C_10
REMARK    2  A    between atoms: C_14  and  O_18
REMARK    3  A    between atoms: N_17  and  N_20
REMARK    4  A    between atoms: N_20  and  C_23
REMARK    5  A    between atoms: C_23  and  C_26
REMARK                            x       y       z     vdW  Elec       q    Type
REMARK                         _______ _______ _______ _____ _____    ______ ____
ROOT
ATOM      1  C   UNL     1     -11.236  54.691  48.380  0.00  0.00    +0.000 A 
ATOM      2  C   UNL     1     -11.003  54.228  49.780  0.00  0.00    +0.000 A 
ATOM      3  C   UNL     1     -12.129  55.663  48.126  0.00  0.00    +0.000 A 
ATOM      4  O   UNL     1     -10.180  53.323  49.948  0.00  0.00    +0.000 OA
ATOM      5  N   UNL     1     -11.706  54.858  50.811  0.00  0.00    +0.000 N 
ATOM      6  C   UNL     1     -12.863  56.312  49.221  0.00  0.00    +0.000 A 
ATOM      7  C   UNL     1     -12.646  55.900  50.548  0.00  0.00    +0.000 A 
ATOM      8  C   UNL     1     -13.769  57.354  48.959  0.00  0.00    +0.000 A 
ATOM      9  C   UNL     1     -13.352  56.537  51.584  0.00  0.00    +0.000 A 
ATOM     10  C   UNL     1     -14.447  57.990  49.997  0.00  0.00    +0.000 A 
ATOM     11  C   UNL     1     -14.240  57.580  51.308  0.00  0.00    +0.000 A 
ENDROOT
BRANCH   1  17
ATOM     12  S   UNL     1      -8.180  53.938  46.031  0.00  0.00    +0.000 S 
ATOM     13  O   UNL     1      -7.233  53.033  46.643  0.00  0.00    +0.000 OA
ATOM     14  O   UNL     1      -7.715  55.087  45.275  0.00  0.00    +0.000 OA
ATOM     15  N   UNL     1      -9.165  54.478  47.198  0.00  0.00    +0.000 N 
ATOM     16  C   UNL     1      -9.128  52.970  44.913  0.00  0.00    +0.000 A 
ATOM     17  C   UNL     1     -10.404  54.088  47.266  0.00  0.00    +0.000 C 
ATOM     18  C   UNL     1     -10.451  52.718  45.235  0.00  0.00    +0.000 A 
ATOM     19  C   UNL     1      -8.544  52.491  43.738  0.00  0.00    +0.000 A 
ATOM     20  N   UNL     1     -11.013  53.188  46.418  0.00  0.00    +0.000 N 
ATOM     21  C   UNL     1     -11.194  51.900  44.378  0.00  0.00    +0.000 A 
ATOM     22  C   UNL     1      -9.306  51.706  42.877  0.00  0.00    +0.000 A 
ATOM     23  C   UNL     1     -10.628  51.403  43.200  0.00  0.00    +0.000 A 
ATOM     24  H   UNL     1      -8.820  55.111  47.868  0.00  0.00    +0.000 HD
ATOM     25  H   UNL     1     -11.907  52.857  46.666  0.00  0.00    +0.000 HD
ENDBRANCH   1  17
BRANCH   3  26
ATOM     26  O   UNL     1     -12.410  56.153  46.863  0.00  0.00    +0.000 OA
ATOM     27  H   UNL     1     -13.299  56.247  46.584  0.00  0.00    +0.000 HD
ENDBRANCH   3  26
BRANCH   5  28
ATOM     28  N   UNL     1     -11.590  54.393  52.166  0.00  0.00    +0.000 N 
ATOM     29  H   UNL     1     -12.240  53.770  52.566  0.00  0.00    +0.000 HD
BRANCH  28  30
ATOM     30  C   UNL     1     -10.435  54.912  52.913  0.00  0.00    +0.000 C 
BRANCH  30  31
ATOM     31  C   UNL     1      -9.555  53.797  53.411  0.00  0.00    +0.000 A 
ATOM     32  C   UNL     1     -10.094  52.549  53.725  0.00  0.00    +0.000 A 
ATOM     33  C   UNL     1      -8.179  53.959  53.565  0.00  0.00    +0.000 A 
ATOM     34  N   UNL     1      -9.370  51.503  54.183  0.00  0.00    +0.000 NA
ATOM     35  C   UNL     1      -7.408  52.900  54.036  0.00  0.00    +0.000 A 
ATOM     36  C   UNL     1      -8.044  51.705  54.332  0.00  0.00    +0.000 A 
ENDBRANCH  30  31
ENDBRANCH  28  30
ENDBRANCH   5  28
TORSDOF 5
ENDMDL
MODEL 8
REMARK VINA RESULT:      -8.4      1.724      2.375
REMARK  Name = 
REMARK  5 active torsions:
REMARK  status: ('A' for Active; 'I' for Inactive)
REMARK    1  A    between atoms: C_6  and  C_10
REMARK    2  A    between atoms: C_14  and  O_18
REMARK    3  A    between atoms: N_17  and  N_20
REMARK    4  A    between atoms: N_20  and  C_23
REMARK    5  A    between atoms: C_23  and  C_26
REMARK                            x       y       z     vdW  Elec       q    Type
REMARK                         _______ _______ _______ _____ _____    ______ ____
ROOT
ATOM      1  C   UNL     1     -10.946  55.472  48.789  0.00  0.00    +0.000 A 
ATOM      2  C   UNL     1      -9.745  54.946  49.506  0.00  0.00    +0.000 A 
ATOM      3  C   UNL     1     -11.137  55.194  47.489  0.00  0.00    +0.000 A 
ATOM      4  O   UNL     1      -9.618  55.247  50.696  0.00  0.00    +0.000 OA
ATOM      5  N   UNL     1      -8.858  54.131  48.797  0.00  0.00    +0.000 N 
ATOM      6  C   UNL     1     -10.191  54.339  46.758  0.00  0.00    +0.000 A 
ATOM      7  C   UNL     1      -9.063  53.821  47.418  0.00  0.00    +0.000 A 
ATOM      8  C   UNL     1     -10.411  54.017  45.408  0.00  0.00    +0.000 A 
ATOM      9  C   UNL     1      -8.172  53.000  46.706  0.00  0.00    +0.000 A 
ATOM     10  C   UNL     1      -9.531  53.185  44.719  0.00  0.00    +0.000 A 
ATOM     11  C   UNL     1      -8.411  52.679  45.366  0.00  0.00    +0.000 A 
ENDROOT
BRANCH   1  17
ATOM     12  S   UNL     1     -13.651  56.393  51.484  0.00  0.00    +0.000 S 
ATOM     13  O   UNL     1     -13.058  56.714  52.764  0.00  0.00    +0.000 OA
ATOM     14  O   UNL     1     -14.856  55.586  51.414  0.00  0.00    +0.000 OA
ATOM     15  N   UNL     1     -12.515  55.665  50.588  0.00  0.00    +0.000 N 
ATOM     16  C   UNL     1     -14.048  57.929  50.731  0.00  0.00    +0.000 A 
ATOM     17  C   UNL     1     -11.969  56.269  49.574  0.00  0.00    +0.000 C 
ATOM     18  C   UNL     1     -13.298  58.327  49.636  0.00  0.00    +0.000 A 
ATOM     19  C   UNL     1     -15.098  58.700  51.233  0.00  0.00    +0.000 A 
ATOM     20  N   UNL     1     -12.243  57.554  49.159  0.00  0.00    +0.000 N 
ATOM     21  C   UNL     1     -13.571  59.575  49.068  0.00  0.00    +0.000 A 
ATOM     22  C   UNL     1     -15.382  59.926  50.635  0.00  0.00    +0.000 A 
ATOM     23  C   UNL     1     -14.614  60.368  49.559  0.00  0.00    +0.000 A 
ATOM     24  H   UNL     1     -12.233  54.750  50.815  0.00  0.00    +0.000 HD
ATOM     25  H   UNL     1     -11.654  57.952  48.477  0.00  0.00    +0.000 HD
ENDBRANCH   1  17
BRANCH   3  26
ATOM     26  O   UNL     1     -12.216  55.639  46.747  0.00  0.00    +0.000 OA
ATOM     27  H   UNL     1     -13.056  55.731  47.150  0.00  0.00    +0.000 HD
ENDBRANCH   3  26
BRANCH   5  28
ATOM     28  N   UNL     1      -7.640  53.672  49.408  0.00  0.00    +0.000 N 
ATOM     29  H   UNL     1      -7.524  52.744  49.717  0.00  0.00    +0.000 HD
BRANCH  28  30
ATOM     30  C   UNL     1      -6.581  54.683  49.539  0.00  0.00    +0.000 C 
BRANCH  30  31
ATOM     31  C   UNL     1      -5.828  54.528  50.833  0.00  0.00    +0.000 A 
ATOM     32  C   UNL     1      -6.420  54.870  52.049  0.00  0.00    +0.000 A 
ATOM     33  C   UNL     1      -4.527  54.028  50.872  0.00  0.00    +0.000 A 
ATOM     34  N   UNL     1      -5.807  54.765  53.249  0.00  0.00    +0.000 NA
ATOM     35  C   UNL     1      -3.869  53.909  52.092  0.00  0.00    +0.000 A 
ATOM     36  C   UNL     1      -4.543  54.291  53.242  0.00  0.00    +0.000 A 
ENDBRANCH  30  31
ENDBRANCH  28  30
ENDBRANCH   5  28
TORSDOF 5
ENDMDL
MODEL 9
REMARK VINA RESULT:      -8.2      2.892      7.052
REMARK  Name = 
REMARK  5 active torsions:
REMARK  status: ('A' for Active; 'I' for Inactive)
REMARK    1  A    between atoms: C_6  and  C_10
REMARK    2  A    between atoms: C_14  and  O_18
REMARK    3  A    between atoms: N_17  and  N_20
REMARK    4  A    between atoms: N_20  and  C_23
REMARK    5  A    between atoms: C_23  and  C_26
REMARK                            x       y       z     vdW  Elec       q    Type
REMARK                         _______ _______ _______ _____ _____    ______ ____
ROOT
ATOM      1  C   UNL     1      -9.519  54.076  49.666  0.00  0.00    +0.000 A 
ATOM      2  C   UNL     1     -10.450  55.236  49.527  0.00  0.00    +0.000 A 
ATOM      3  C   UNL     1      -9.377  53.196  48.661  0.00  0.00    +0.000 A 
ATOM      4  O   UNL     1     -10.549  56.002  50.490  0.00  0.00    +0.000 OA
ATOM      5  N   UNL     1     -11.130  55.397  48.316  0.00  0.00    +0.000 N 
ATOM      6  C   UNL     1     -10.102  53.378  47.396  0.00  0.00    +0.000 A 
ATOM      7  C   UNL     1     -10.972  54.472  47.240  0.00  0.00    +0.000 A 
ATOM      8  C   UNL     1      -9.924  52.478  46.331  0.00  0.00    +0.000 A 
ATOM      9  C   UNL     1     -11.653  54.634  46.021  0.00  0.00    +0.000 A 
ATOM     10  C   UNL     1     -10.589  52.662  45.121  0.00  0.00    +0.000 A 
ATOM     11  C   UNL     1     -11.455  53.737  44.966  0.00  0.00    +0.000 A 
ENDROOT
BRANCH   1  17
ATOM     12  S   UNL     1      -6.736  54.735  52.358  0.00  0.00    +0.000 S 
ATOM     13  O   UNL     1      -7.035  55.886  53.180  0.00  0.00    +0.000 OA
ATOM     14  O   UNL     1      -5.384  54.503  51.882  0.00  0.00    +0.000 OA
ATOM     15  N   UNL     1      -7.714  54.789  51.067  0.00  0.00    +0.000 N 
ATOM     16  C   UNL     1      -7.163  53.326  53.315  0.00  0.00    +0.000 A 
ATOM     17  C   UNL     1      -8.699  53.951  50.934  0.00  0.00    +0.000 C 
ATOM     18  C   UNL     1      -8.275  52.593  52.929  0.00  0.00    +0.000 A 
ATOM     19  C   UNL     1      -6.386  52.971  54.419  0.00  0.00    +0.000 A 
ATOM     20  N   UNL     1      -9.049  52.970  51.836  0.00  0.00    +0.000 N 
ATOM     21  C   UNL     1      -8.654  51.505  53.721  0.00  0.00    +0.000 A 
ATOM     22  C   UNL     1      -6.756  51.865  55.178  0.00  0.00    +0.000 A 
ATOM     23  C   UNL     1      -7.894  51.135  54.835  0.00  0.00    +0.000 A 
ATOM     24  H   UNL     1      -7.559  55.468  50.372  0.00  0.00    +0.000 HD
ATOM     25  H   UNL     1      -9.906  52.504  51.698  0.00  0.00    +0.000 HD
ENDBRANCH   1  17
BRANCH   3  26
ATOM     26  O   UNL     1      -8.540  52.095  48.702  0.00  0.00    +0.000 OA
ATOM     27  H   UNL     1      -7.835  52.019  48.091  0.00  0.00    +0.000 HD
ENDBRANCH   3  26
BRANCH   5  28
ATOM     28  N   UNL     1     -12.106  56.440  48.158  0.00  0.00    +0.000 N 
ATOM     29  H   UNL     1     -11.912  57.272  47.669  0.00  0.00    +0.000 HD
BRANCH  28  30
ATOM     30  C   UNL     1     -13.414  56.178  48.777  0.00  0.00    +0.000 C 
BRANCH  30  31
ATOM     31  C   UNL     1     -13.888  57.358  49.583  0.00  0.00    +0.000 A 
ATOM     32  C   UNL     1     -14.687  57.177  50.712  0.00  0.00    +0.000 A 
ATOM     33  C   UNL     1     -13.541  58.666  49.246  0.00  0.00    +0.000 A 
ATOM     34  N   UNL     1     -15.155  58.184  51.481  0.00  0.00    +0.000 NA
ATOM     35  C   UNL     1     -14.010  59.724  50.018  0.00  0.00    +0.000 A 
ATOM     36  C   UNL     1     -14.810  59.436  51.113  0.00  0.00    +0.000 A 
ENDBRANCH  30  31
ENDBRANCH  28  30
ENDBRANCH   5  28
TORSDOF 5
ENDMDL
