MODEL 1
REMARK VINA RESULT:      -9.1      0.000      0.000
REMARK  Name = 
REMARK  5 active torsions:
REMARK  status: ('A' for Active; 'I' for Inactive)
REMARK    1  A    between atoms: C_6  and  C_10
REMARK    2  A    between atoms: C_14  and  O_18
REMARK    3  A    between atoms: N_17  and  N_20
REMARK    4  A    between atoms: N_20  and  C_23
REMARK    5  A    between atoms: C_23  and  C_26
REMARK                            x       y       z     vdW  Elec       q    Type
REMARK                         _______ _______ _______ _____ _____    ______ ____
ROOT
ATOM      1  C   UNL     1      -9.541  54.022  50.610  0.00  0.00    +0.000 A 
ATOM      2  C   UNL     1     -10.746  54.420  51.376  0.00  0.00    +0.000 A 
ATOM      3  C   UNL     1      -9.490  54.152  49.279  0.00  0.00    +0.000 A 
ATOM      4  O   UNL     1     -10.675  54.294  52.609  0.00  0.00    +0.000 OA
ATOM      5  N   UNL     1     -11.859  54.882  50.671  0.00  0.00    +0.000 N 
ATOM      6  C   UNL     1     -10.612  54.761  48.561  0.00  0.00    +0.000 A 
ATOM      7  C   UNL     1     -11.781  55.125  49.256  0.00  0.00    +0.000 A 
ATOM      8  C   UNL     1     -10.515  54.994  47.178  0.00  0.00    +0.000 A 
ATOM      9  C   UNL     1     -12.808  55.761  48.540  0.00  0.00    +0.000 A 
ATOM     10  C   UNL     1     -11.531  55.653  46.495  0.00  0.00    +0.000 A 
ATOM     11  C   UNL     1     -12.667  56.053  47.182  0.00  0.00    +0.000 A 
ENDROOT
BRANCH   1  17
ATOM     12  S   UNL     1      -7.529  51.625  52.930  0.00  0.00    +0.000 S 
ATOM     13  O   UNL     1      -7.271  50.352  52.285  0.00  0.00    +0.000 OA
ATOM     14  O   UNL     1      -7.919  51.674  54.332  0.00  0.00    +0.000 OA
ATOM     15  N   UNL     1      -8.666  52.406  52.104  0.00  0.00    +0.000 N 
ATOM     16  C   UNL     1      -6.045  52.552  52.808  0.00  0.00    +0.000 A 
ATOM     17  C   UNL     1      -8.381  53.420  51.354  0.00  0.00    +0.000 C 
ATOM     18  C   UNL     1      -6.014  53.627  51.932  0.00  0.00    +0.000 A 
ATOM     19  C   UNL     1      -4.946  52.193  53.588  0.00  0.00    +0.000 A 
ATOM     20  N   UNL     1      -7.137  53.995  51.210  0.00  0.00    +0.000 N 
ATOM     21  C   UNL     1      -4.824  54.344  51.797  0.00  0.00    +0.000 A 
ATOM     22  C   UNL     1      -3.773  52.927  53.457  0.00  0.00    +0.000 A 
ATOM     23  C   UNL     1      -3.705  53.996  52.562  0.00  0.00    +0.000 A 
ATOM     24  H   UNL     1      -9.601  52.105  52.171  0.00  0.00    +0.000 HD
ATOM     25  H   UNL     1      -7.041  54.717  50.548  0.00  0.00    +0.000 HD
ENDBRANCH   1  17
BRANCH   3  26
ATOM     26  O   UNL     1      -8.429  53.755  48.486  0.00  0.00    +0.000 OA
ATOM     27  H   UNL     1      -8.519  53.742  47.554  0.00  0.00    +0.000 HD
ENDBRANCH   3  26
BRANCH   5  28
ATOM     28  N   UNL     1     -13.158  55.006  51.324  0.00  0.00    +0.000 N 
ATOM     29  H   UNL     1     -13.834  54.291  51.285  0.00  0.00    +0.000 HD
BRANCH  28  30
ATOM     30  C   UNL     1     -13.393  56.264  52.046  0.00  0.00    +0.000 C 
BRANCH  30  31
ATOM     31  C   UNL     1     -14.882  56.667  52.112  0.00  0.00    +0.000 C 
ATOM     32  C   UNL     1     -15.507  57.020  50.756  0.00  0.00    +0.000 C 
ATOM     33  C   UNL     1     -15.063  57.859  53.076  0.00  0.00    +0.000 C 
ATOM     34  C   UNL     1     -14.903  58.290  50.164  0.00  0.00    +0.000 C 
ATOM     35  C   UNL     1     -14.527  59.176  52.508  0.00  0.00    +0.000 C 
ATOM     36  C   UNL     1     -15.080  59.471  51.115  0.00  0.00    +0.000 C 
ENDBRANCH  30  31
ENDBRANCH  28  30
ENDBRANCH   5  28
TORSDOF 5
ENDMDL
MODEL 2
REMARK VINA RESULT:      -8.8      1.856      2.681
REMARK  Name = 
REMARK  5 active torsions:
REMARK  status: ('A' for Active; 'I' for Inactive)
REMARK    1  A    between atoms: C_6  and  C_10
REMARK    2  A    between atoms: C_14  and  O_18
REMARK    3  A    between atoms: N_17  and  N_20
REMARK    4  A    between atoms: N_20  and  C_23
REMARK    5  A    between atoms: C_23  and  C_26
REMARK                            x       y       z     vdW  Elec       q    Type
REMARK                         _______ _______ _______ _____ _____    ______ ____
ROOT
ATOM      1  C   UNL     1      -9.736  54.274  50.518  0.00  0.00    +0.000 A 
ATOM      2  C   UNL     1     -10.951  55.083  50.774  0.00  0.00    +0.000 A 
ATOM      3  C   UNL     1      -9.434  53.846  49.287  0.00  0.00    +0.000 A 
ATOM      4  O   UNL     1     -11.119  55.461  51.944  0.00  0.00    +0.000 OA
ATOM      5  N   UNL     1     -11.814  55.343  49.706  0.00  0.00    +0.000 N 
ATOM      6  C   UNL     1     -10.272  54.235  48.152  0.00  0.00    +0.000 A 
ATOM      7  C   UNL     1     -11.448  54.980  48.364  0.00  0.00    +0.000 A 
ATOM      8  C   UNL     1      -9.896  53.874  46.846  0.00  0.00    +0.000 A 
ATOM      9  C   UNL     1     -12.190  55.383  47.243  0.00  0.00    +0.000 A 
ATOM     10  C   UNL     1     -10.630  54.309  45.748  0.00  0.00    +0.000 A 
ATOM     11  C   UNL     1     -11.764  55.081  45.948  0.00  0.00    +0.000 A 
ENDROOT
BRANCH   1  17
ATOM     12  S   UNL     1      -6.698  54.252  52.957  0.00  0.00    +0.000 S 
ATOM     13  O   UNL     1      -6.722  55.397  53.846  0.00  0.00    +0.000 OA
ATOM     14  O   UNL     1      -5.447  53.809  52.359  0.00  0.00    +0.000 OA
ATOM     15  N   UNL     1      -7.726  54.511  51.748  0.00  0.00    +0.000 N 
ATOM     16  C   UNL     1      -7.297  52.890  53.887  0.00  0.00    +0.000 A 
ATOM     17  C   UNL     1      -8.863  53.898  51.683  0.00  0.00    +0.000 C 
ATOM     18  C   UNL     1      -8.560  52.400  53.592  0.00  0.00    +0.000 A 
ATOM     19  C   UNL     1      -6.497  52.337  54.887  0.00  0.00    +0.000 A 
ATOM     20  N   UNL     1      -9.311  52.932  52.557  0.00  0.00    +0.000 N 
ATOM     21  C   UNL     1      -9.061  51.344  54.355  0.00  0.00    +0.000 A 
ATOM     22  C   UNL     1      -7.001  51.274  55.627  0.00  0.00    +0.000 A 
ATOM     23  C   UNL     1      -8.281  50.779  55.370  0.00  0.00    +0.000 A 
ATOM     24  H   UNL     1      -7.484  55.151  51.041  0.00  0.00    +0.000 HD
ATOM     25  H   UNL     1     -10.230  52.598  52.438  0.00  0.00    +0.000 HD
ENDBRANCH   1  17
BRANCH   3  26
ATOM     26  O   UNL     1      -8.352  53.043  48.973  0.00  0.00    +0.000 OA
ATOM     27  H   UNL     1      -7.794  52.721  49.653  0.00  0.00    +0.000 HD
ENDBRANCH   3  26
BRANCH   5  28
ATOM     28  N   UNL     1     -13.154  55.868  49.941  0.00  0.00    +0.000 N 
ATOM     29  H   UNL     1     -13.944  55.282  49.998  0.00  0.00    +0.000 HD
BRANCH  28  30
ATOM     30  C   UNL     1     -13.252  57.327  50.090  0.00  0.00    +0.000 C 
BRANCH  30  31
ATOM     31  C   UNL     1     -14.705  57.838  50.207  0.00  0.00    +0.000 C 
ATOM     32  C   UNL     1     -14.843  59.224  50.846  0.00  0.00    +0.000 C 
ATOM     33  C   UNL     1     -15.556  56.827  51.005  0.00  0.00    +0.000 C 
ATOM     34  C   UNL     1     -14.435  59.217  52.316  0.00  0.00    +0.000 C 
ATOM     35  C   UNL     1     -15.229  56.818  52.501  0.00  0.00    +0.000 C 
ATOM     36  C   UNL     1     -15.274  58.219  53.109  0.00  0.00    +0.000 C 
ENDBRANCH  30  31
ENDBRANCH  28  30
ENDBRANCH   5  28
TORSDOF 5
ENDMDL
MODEL 3
REMARK VINA RESULT:      -8.7      2.901      8.186
REMARK  Name = 
REMARK  5 active torsions:
REMARK  status: ('A' for Active; 'I' for Inactive)
REMARK    1  A    between atoms: C_6  and  C_10
REMARK    2  A    between atoms: C_14  and  O_18
REMARK    3  A    between atoms: N_17  and  N_20
REMARK    4  A    between atoms: N_20  and  C_23
REMARK    5  A    between atoms: C_23  and  C_26
REMARK                            x       y       z     vdW  Elec       q    Type
REMARK                         _______ _______ _______ _____ _____    ______ ____
ROOT
ATOM      1  C   UNL     1     -11.305  53.864  51.698  0.00  0.00    +0.000 A 
ATOM      2  C   UNL     1     -10.323  54.032  52.796  0.00  0.00    +0.000 A 
ATOM      3  C   UNL     1     -11.451  52.691  51.072  0.00  0.00    +0.000 A 
ATOM      4  O   UNL     1     -10.294  55.150  53.336  0.00  0.00    +0.000 OA
ATOM      5  N   UNL     1      -9.505  52.951  53.128  0.00  0.00    +0.000 N 
ATOM      6  C   UNL     1     -10.683  51.526  51.514  0.00  0.00    +0.000 A 
ATOM      7  C   UNL     1      -9.724  51.659  52.536  0.00  0.00    +0.000 A 
ATOM      8  C   UNL     1     -10.913  50.270  50.926  0.00  0.00    +0.000 A 
ATOM      9  C   UNL     1      -9.053  50.504  52.971  0.00  0.00    +0.000 A 
ATOM     10  C   UNL     1     -10.260  49.135  51.393  0.00  0.00    +0.000 A 
ATOM     11  C   UNL     1      -9.346  49.252  52.429  0.00  0.00    +0.000 A 
ENDROOT
BRANCH   1  17
ATOM     12  S   UNL     1     -12.745  56.671  49.412  0.00  0.00    +0.000 S 
ATOM     13  O   UNL     1     -13.746  56.153  48.500  0.00  0.00    +0.000 OA
ATOM     14  O   UNL     1     -11.760  57.639  48.952  0.00  0.00    +0.000 OA
ATOM     15  N   UNL     1     -11.927  55.438  50.041  0.00  0.00    +0.000 N 
ATOM     16  C   UNL     1     -13.618  57.455  50.716  0.00  0.00    +0.000 A 
ATOM     17  C   UNL     1     -12.110  55.058  51.263  0.00  0.00    +0.000 C 
ATOM     18  C   UNL     1     -13.637  56.837  51.957  0.00  0.00    +0.000 A 
ATOM     19  C   UNL     1     -14.265  58.668  50.476  0.00  0.00    +0.000 A 
ATOM     20  N   UNL     1     -12.941  55.661  52.182  0.00  0.00    +0.000 N 
ATOM     21  C   UNL     1     -14.365  57.433  52.988  0.00  0.00    +0.000 A 
ATOM     22  C   UNL     1     -14.972  59.259  51.517  0.00  0.00    +0.000 A 
ATOM     23  C   UNL     1     -15.030  58.644  52.769  0.00  0.00    +0.000 A 
ATOM     24  H   UNL     1     -11.270  54.962  49.483  0.00  0.00    +0.000 HD
ATOM     25  H   UNL     1     -13.047  55.225  53.059  0.00  0.00    +0.000 HD
ENDBRANCH   1  17
BRANCH   3  26
ATOM     26  O   UNL     1     -12.302  52.466  50.005  0.00  0.00    +0.000 OA
ATOM     27  H   UNL     1     -13.108  52.939  49.940  0.00  0.00    +0.000 HD
ENDBRANCH   3  26
BRANCH   5  28
ATOM     28  N   UNL     1      -8.334  53.134  53.979  0.00  0.00    +0.000 N 
ATOM     29  H   UNL     1      -8.410  53.288  54.948  0.00  0.00    +0.000 HD
BRANCH  28  30
ATOM     30  C   UNL     1      -7.033  53.074  53.297  0.00  0.00    +0.000 C 
BRANCH  30  31
ATOM     31  C   UNL     1      -6.573  54.434  52.728  0.00  0.00    +0.000 C 
ATOM     32  C   UNL     1      -5.429  54.343  51.710  0.00  0.00    +0.000 C 
ATOM     33  C   UNL     1      -6.150  55.371  53.880  0.00  0.00    +0.000 C 
ATOM     34  C   UNL     1      -4.132  53.860  52.351  0.00  0.00    +0.000 C 
ATOM     35  C   UNL     1      -4.822  54.966  54.524  0.00  0.00    +0.000 C 
ATOM     36  C   UNL     1      -3.712  54.784  53.491  0.00  0.00    +0.000 C 
ENDBRANCH  30  31
ENDBRANCH  28  30
ENDBRANCH   5  28
TORSDOF 5
ENDMDL
MODEL 4
REMARK VINA RESULT:      -8.6      2.753      8.437
REMARK  Name = 
REMARK  5 active torsions:
REMARK  status: ('A' for Active; 'I' for Inactive)
REMARK    1  A    between atoms: C_6  and  C_10
REMARK    2  A    between atoms: C_14  and  O_18
REMARK    3  A    between atoms: N_17  and  N_20
REMARK    4  A    between atoms: N_20  and  C_23
REMARK    5  A    between atoms: C_23  and  C_26
REMARK                            x       y       z     vdW  Elec       q    Type
REMARK                         _______ _______ _______ _____ _____    ______ ____
ROOT
ATOM      1  C   UNL     1      -9.967  54.534  52.308  0.00  0.00    +0.000 A 
ATOM      2  C   UNL     1      -8.621  55.135  52.148  0.00  0.00    +0.000 A 
ATOM      3  C   UNL     1     -10.142  53.395  52.988  0.00  0.00    +0.000 A 
ATOM      4  O   UNL     1      -8.574  56.212  51.532  0.00  0.00    +0.000 OA
ATOM      5  N   UNL     1      -7.522  54.452  52.673  0.00  0.00    +0.000 N 
ATOM      6  C   UNL     1      -9.003  52.756  53.648  0.00  0.00    +0.000 A 
ATOM      7  C   UNL     1      -7.708  53.286  53.494  0.00  0.00    +0.000 A 
ATOM      8  C   UNL     1      -9.205  51.618  54.450  0.00  0.00    +0.000 A 
ATOM      9  C   UNL     1      -6.653  52.678  54.193  0.00  0.00    +0.000 A 
ATOM     10  C   UNL     1      -8.152  51.050  55.158  0.00  0.00    +0.000 A 
ATOM     11  C   UNL     1      -6.881  51.594  55.044  0.00  0.00    +0.000 A 
ENDROOT
BRANCH   1  17
ATOM     12  S   UNL     1     -12.357  55.804  49.506  0.00  0.00    +0.000 S 
ATOM     13  O   UNL     1     -13.177  54.730  48.979  0.00  0.00    +0.000 OA
ATOM     14  O   UNL     1     -11.767  56.787  48.609  0.00  0.00    +0.000 OA
ATOM     15  N   UNL     1     -11.151  55.167  50.357  0.00  0.00    +0.000 N 
ATOM     16  C   UNL     1     -13.374  56.709  50.612  0.00  0.00    +0.000 A 
ATOM     17  C   UNL     1     -11.139  55.208  51.649  0.00  0.00    +0.000 C 
ATOM     18  C   UNL     1     -13.128  56.593  51.972  0.00  0.00    +0.000 A 
ATOM     19  C   UNL     1     -14.393  57.515  50.104  0.00  0.00    +0.000 A 
ATOM     20  N   UNL     1     -12.075  55.829  52.447  0.00  0.00    +0.000 N 
ATOM     21  C   UNL     1     -13.959  57.276  52.861  0.00  0.00    +0.000 A 
ATOM     22  C   UNL     1     -15.202  58.203  51.000  0.00  0.00    +0.000 A 
ATOM     23  C   UNL     1     -14.994  58.083  52.375  0.00  0.00    +0.000 A 
ATOM     24  H   UNL     1     -10.403  54.737  49.883  0.00  0.00    +0.000 HD
ATOM     25  H   UNL     1     -11.990  55.720  53.422  0.00  0.00    +0.000 HD
ENDBRANCH   1  17
BRANCH   3  26
ATOM     26  O   UNL     1     -11.353  52.743  53.137  0.00  0.00    +0.000 OA
ATOM     27  H   UNL     1     -11.420  52.007  53.713  0.00  0.00    +0.000 HD
ENDBRANCH   3  26
BRANCH   5  28
ATOM     28  N   UNL     1      -6.163  54.827  52.299  0.00  0.00    +0.000 N 
ATOM     29  H   UNL     1      -5.510  55.159  52.957  0.00  0.00    +0.000 HD
BRANCH  28  30
ATOM     30  C   UNL     1      -5.828  54.676  50.876  0.00  0.00    +0.000 C 
BRANCH  30  31
ATOM     31  C   UNL     1      -5.706  53.203  50.424  0.00  0.00    +0.000 C 
ATOM     32  C   UNL     1      -4.454  52.893  49.595  0.00  0.00    +0.000 C 
ATOM     33  C   UNL     1      -6.958  52.794  49.619  0.00  0.00    +0.000 C 
ATOM     34  C   UNL     1      -4.478  53.595  48.241  0.00  0.00    +0.000 C 
ATOM     35  C   UNL     1      -7.006  53.425  48.225  0.00  0.00    +0.000 C 
ATOM     36  C   UNL     1      -5.715  53.193  47.442  0.00  0.00    +0.000 C 
ENDBRANCH  30  31
ENDBRANCH  28  30
ENDBRANCH   5  28
TORSDOF 5
ENDMDL
MODEL 5
REMARK VINA RESULT:      -8.5      1.658      2.145
REMARK  Name = 
REMARK  5 active torsions:
REMARK  status: ('A' for Active; 'I' for Inactive)
REMARK    1  A    between atoms: C_6  and  C_10
REMARK    2  A    between atoms: C_14  and  O_18
REMARK    3  A    between atoms: N_17  and  N_20
REMARK    4  A    between atoms: N_20  and  C_23
REMARK    5  A    between atoms: C_23  and  C_26
REMARK                            x       y       z     vdW  Elec       q    Type
REMARK                         _______ _______ _______ _____ _____    ______ ____
ROOT
ATOM      1  C   UNL     1      -8.916  54.397  49.793  0.00  0.00    +0.000 A 
ATOM      2  C   UNL     1      -9.776  55.604  49.771  0.00  0.00    +0.000 A 
ATOM      3  C   UNL     1      -8.988  53.475  48.826  0.00  0.00    +0.000 A 
ATOM      4  O   UNL     1      -9.602  56.415  50.695  0.00  0.00    +0.000 OA
ATOM      5  N   UNL     1     -10.714  55.733  48.745  0.00  0.00    +0.000 N 
ATOM      6  C   UNL     1      -9.880  53.683  47.685  0.00  0.00    +0.000 A 
ATOM      7  C   UNL     1     -10.730  54.805  47.647  0.00  0.00    +0.000 A 
ATOM      8  C   UNL     1      -9.880  52.767  46.618  0.00  0.00    +0.000 A 
ATOM      9  C   UNL     1     -11.525  54.998  46.506  0.00  0.00    +0.000 A 
ATOM     10  C   UNL     1     -10.652  52.993  45.485  0.00  0.00    +0.000 A 
ATOM     11  C   UNL     1     -11.458  54.120  45.422  0.00  0.00    +0.000 A 
ENDROOT
BRANCH   1  17
ATOM     12  S   UNL     1      -7.673  54.019  53.467  0.00  0.00    +0.000 S 
ATOM     13  O   UNL     1      -7.992  52.711  54.004  0.00  0.00    +0.000 OA
ATOM     14  O   UNL     1      -7.838  55.212  54.285  0.00  0.00    +0.000 OA
ATOM     15  N   UNL     1      -8.529  54.253  52.126  0.00  0.00    +0.000 N 
ATOM     16  C   UNL     1      -5.978  53.972  53.019  0.00  0.00    +0.000 A 
ATOM     17  C   UNL     1      -7.981  54.199  50.956  0.00  0.00    +0.000 C 
ATOM     18  C   UNL     1      -5.657  53.946  51.670  0.00  0.00    +0.000 A 
ATOM     19  C   UNL     1      -5.004  53.963  54.018  0.00  0.00    +0.000 A 
ATOM     20  N   UNL     1      -6.641  54.010  50.698  0.00  0.00    +0.000 N 
ATOM     21  C   UNL     1      -4.312  53.865  51.305  0.00  0.00    +0.000 A 
ATOM     22  C   UNL     1      -3.668  53.900  53.640  0.00  0.00    +0.000 A 
ATOM     23  C   UNL     1      -3.318  53.845  52.290  0.00  0.00    +0.000 A 
ATOM     24  H   UNL     1      -9.492  54.443  52.197  0.00  0.00    +0.000 HD
ATOM     25  H   UNL     1      -6.365  53.913  49.758  0.00  0.00    +0.000 HD
ENDBRANCH   1  17
BRANCH   3  26
ATOM     26  O   UNL     1      -8.262  52.298  48.801  0.00  0.00    +0.000 OA
ATOM     27  H   UNL     1      -7.459  52.232  49.278  0.00  0.00    +0.000 HD
ENDBRANCH   3  26
BRANCH   5  28
ATOM     28  N   UNL     1     -11.778  56.727  48.828  0.00  0.00    +0.000 N 
ATOM     29  H   UNL     1     -11.742  57.575  48.328  0.00  0.00    +0.000 HD
BRANCH  28  30
ATOM     30  C   UNL     1     -12.908  56.384  49.703  0.00  0.00    +0.000 C 
BRANCH  30  31
ATOM     31  C   UNL     1     -14.250  56.996  49.245  0.00  0.00    +0.000 C 
ATOM     32  C   UNL     1     -14.171  58.473  48.843  0.00  0.00    +0.000 C 
ATOM     33  C   UNL     1     -15.310  56.831  50.355  0.00  0.00    +0.000 C 
ATOM     34  C   UNL     1     -13.851  59.372  50.033  0.00  0.00    +0.000 C 
ATOM     35  C   UNL     1     -15.071  57.753  51.553  0.00  0.00    +0.000 C 
ATOM     36  C   UNL     1     -14.897  59.211  51.133  0.00  0.00    +0.000 C 
ENDBRANCH  30  31
ENDBRANCH  28  30
ENDBRANCH   5  28
TORSDOF 5
ENDMDL
MODEL 6
REMARK VINA RESULT:      -8.4      3.701      8.300
REMARK  Name = 
REMARK  5 active torsions:
REMARK  status: ('A' for Active; 'I' for Inactive)
REMARK    1  A    between atoms: C_6  and  C_10
REMARK    2  A    between atoms: C_14  and  O_18
REMARK    3  A    between atoms: N_17  and  N_20
REMARK    4  A    between atoms: N_20  and  C_23
REMARK    5  A    between atoms: C_23  and  C_26
REMARK                            x       y       z     vdW  Elec       q    Type
REMARK                         _______ _______ _______ _____ _____    ______ ____
ROOT
ATOM      1  C   UNL     1     -12.177  54.310  50.303  0.00  0.00    +0.000 A 
ATOM      2  C   UNL     1     -11.986  53.794  48.926  0.00  0.00    +0.000 A 
ATOM      3  C   UNL     1     -11.630  53.694  51.357  0.00  0.00    +0.000 A 
ATOM      4  O   UNL     1     -12.504  54.461  48.016  0.00  0.00    +0.000 OA
ATOM      5  N   UNL     1     -11.267  52.609  48.755  0.00  0.00    +0.000 N 
ATOM      6  C   UNL     1     -10.768  52.528  51.156  0.00  0.00    +0.000 A 
ATOM      7  C   UNL     1     -10.588  51.997  49.864  0.00  0.00    +0.000 A 
ATOM      8  C   UNL     1     -10.108  51.946  52.252  0.00  0.00    +0.000 A 
ATOM      9  C   UNL     1      -9.706  50.916  49.708  0.00  0.00    +0.000 A 
ATOM     10  C   UNL     1      -9.216  50.896  52.070  0.00  0.00    +0.000 A 
ATOM     11  C   UNL     1      -9.001  50.397  50.795  0.00  0.00    +0.000 A 
ENDROOT
BRANCH   1  17
ATOM     12  S   UNL     1     -15.218  56.501  51.368  0.00  0.00    +0.000 S 
ATOM     13  O   UNL     1     -15.225  56.741  52.798  0.00  0.00    +0.000 OA
ATOM     14  O   UNL     1     -16.456  56.196  50.667  0.00  0.00    +0.000 OA
ATOM     15  N   UNL     1     -14.194  55.303  51.048  0.00  0.00    +0.000 N 
ATOM     16  C   UNL     1     -14.587  57.958  50.623  0.00  0.00    +0.000 A 
ATOM     17  C   UNL     1     -13.043  55.524  50.503  0.00  0.00    +0.000 C 
ATOM     18  C   UNL     1     -13.311  57.917  50.081  0.00  0.00    +0.000 A 
ATOM     19  C   UNL     1     -15.374  59.109  50.591  0.00  0.00    +0.000 A 
ATOM     20  N   UNL     1     -12.571  56.746  50.077  0.00  0.00    +0.000 N 
ATOM     21  C   UNL     1     -12.785  59.083  49.523  0.00  0.00    +0.000 A 
ATOM     22  C   UNL     1     -14.845  60.258  50.017  0.00  0.00    +0.000 A 
ATOM     23  C   UNL     1     -13.553  60.253  49.489  0.00  0.00    +0.000 A 
ATOM     24  H   UNL     1     -14.451  54.379  51.271  0.00  0.00    +0.000 HD
ATOM     25  H   UNL     1     -11.644  56.789  49.747  0.00  0.00    +0.000 HD
ENDBRANCH   1  17
BRANCH   3  26
ATOM     26  O   UNL     1     -11.803  54.079  52.674  0.00  0.00    +0.000 OA
ATOM     27  H   UNL     1     -12.659  54.294  52.991  0.00  0.00    +0.000 HD
ENDBRANCH   3  26
BRANCH   5  28
ATOM     28  N   UNL     1     -11.296  51.897  47.482  0.00  0.00    +0.000 N 
ATOM     29  H   UNL     1     -12.027  51.282  47.242  0.00  0.00    +0.000 HD
BRANCH  28  30
ATOM     30  C   UNL     1     -10.166  52.157  46.579  0.00  0.00    +0.000 C 
BRANCH  30  31
ATOM     31  C   UNL     1     -10.359  53.407  45.693  0.00  0.00    +0.000 C 
ATOM     32  C   UNL     1     -11.138  53.155  44.397  0.00  0.00    +0.000 C 
ATOM     33  C   UNL     1      -8.987  54.024  45.346  0.00  0.00    +0.000 C 
ATOM     34  C   UNL     1     -10.369  52.254  43.436  0.00  0.00    +0.000 C 
ATOM     35  C   UNL     1      -8.194  53.189  44.338  0.00  0.00    +0.000 C 
ATOM     36  C   UNL     1      -9.012  52.860  43.090  0.00  0.00    +0.000 C 
ENDBRANCH  30  31
ENDBRANCH  28  30
ENDBRANCH   5  28
TORSDOF 5
ENDMDL
MODEL 7
REMARK VINA RESULT:      -8.3      2.631      5.705
REMARK  Name = 
REMARK  5 active torsions:
REMARK  status: ('A' for Active; 'I' for Inactive)
REMARK    1  A    between atoms: C_6  and  C_10
REMARK    2  A    between atoms: C_14  and  O_18
REMARK    3  A    between atoms: N_17  and  N_20
REMARK    4  A    between atoms: N_20  and  C_23
REMARK    5  A    between atoms: C_23  and  C_26
REMARK                            x       y       z     vdW  Elec       q    Type
REMARK                         _______ _______ _______ _____ _____    ______ ____
ROOT
ATOM      1  C   UNL     1     -10.306  54.973  50.769  0.00  0.00    +0.000 A 
ATOM      2  C   UNL     1      -9.946  54.794  49.342  0.00  0.00    +0.000 A 
ATOM      3  C   UNL     1     -11.422  55.619  51.128  0.00  0.00    +0.000 A 
ATOM      4  O   UNL     1      -8.911  54.147  49.118  0.00  0.00    +0.000 OA
ATOM      5  N   UNL     1     -10.770  55.368  48.372  0.00  0.00    +0.000 N 
ATOM      6  C   UNL     1     -12.348  56.102  50.102  0.00  0.00    +0.000 A 
ATOM      7  C   UNL     1     -12.022  55.971  48.738  0.00  0.00    +0.000 A 
ATOM      8  C   UNL     1     -13.570  56.686  50.479  0.00  0.00    +0.000 A 
ATOM      9  C   UNL     1     -12.965  56.393  47.787  0.00  0.00    +0.000 A 
ATOM     10  C   UNL     1     -14.502  57.069  49.521  0.00  0.00    +0.000 A 
ATOM     11  C   UNL     1     -14.206  56.902  48.177  0.00  0.00    +0.000 A 
ENDROOT
BRANCH   1  17
ATOM     12  S   UNL     1      -7.128  54.652  53.000  0.00  0.00    +0.000 S 
ATOM     13  O   UNL     1      -7.099  55.669  54.034  0.00  0.00    +0.000 OA
ATOM     14  O   UNL     1      -5.915  54.305  52.275  0.00  0.00    +0.000 OA
ATOM     15  N   UNL     1      -8.227  55.062  51.900  0.00  0.00    +0.000 N 
ATOM     16  C   UNL     1      -7.669  53.174  53.773  0.00  0.00    +0.000 A 
ATOM     17  C   UNL     1      -9.364  54.453  51.821  0.00  0.00    +0.000 C 
ATOM     18  C   UNL     1      -8.947  52.717  53.491  0.00  0.00    +0.000 A 
ATOM     19  C   UNL     1      -6.810  52.499  54.641  0.00  0.00    +0.000 A 
ATOM     20  N   UNL     1      -9.760  53.375  52.582  0.00  0.00    +0.000 N 
ATOM     21  C   UNL     1      -9.402  51.564  54.134  0.00  0.00    +0.000 A 
ATOM     22  C   UNL     1      -7.269  51.343  55.261  0.00  0.00    +0.000 A 
ATOM     23  C   UNL     1      -8.561  50.876  55.017  0.00  0.00    +0.000 A 
ATOM     24  H   UNL     1      -8.028  55.793  51.271  0.00  0.00    +0.000 HD
ATOM     25  H   UNL     1     -10.683  53.052  52.474  0.00  0.00    +0.000 HD
ENDBRANCH   1  17
BRANCH   3  26
ATOM     26  O   UNL     1     -11.801  55.876  52.433  0.00  0.00    +0.000 OA
ATOM     27  H   UNL     1     -12.710  55.932  52.655  0.00  0.00    +0.000 HD
ENDBRANCH   3  26
BRANCH   5  28
ATOM     28  N   UNL     1     -10.323  55.484  46.988  0.00  0.00    +0.000 N 
ATOM     29  H   UNL     1      -9.701  56.189  46.697  0.00  0.00    +0.000 HD
BRANCH  28  30
ATOM     30  C   UNL     1     -10.860  54.482  46.057  0.00  0.00    +0.000 C 
BRANCH  30  31
ATOM     31  C   UNL     1     -10.046  53.169  46.029  0.00  0.00    +0.000 C 
ATOM     32  C   UNL     1      -8.546  53.356  45.774  0.00  0.00    +0.000 C 
ATOM     33  C   UNL     1     -10.624  52.214  44.963  0.00  0.00    +0.000 C 
ATOM     34  C   UNL     1      -8.267  53.882  44.369  0.00  0.00    +0.000 C 
ATOM     35  C   UNL     1     -10.324  52.663  43.530  0.00  0.00    +0.000 C 
ATOM     36  C   UNL     1      -8.838  52.941  43.312  0.00  0.00    +0.000 C 
ENDBRANCH  30  31
ENDBRANCH  28  30
ENDBRANCH   5  28
TORSDOF 5
ENDMDL
MODEL 8
REMARK VINA RESULT:      -8.3      3.241      8.088
REMARK  Name = 
REMARK  5 active torsions:
REMARK  status: ('A' for Active; 'I' for Inactive)
REMARK    1  A    between atoms: C_6  and  C_10
REMARK    2  A    between atoms: C_14  and  O_18
REMARK    3  A    between atoms: N_17  and  N_20
REMARK    4  A    between atoms: N_20  and  C_23
REMARK    5  A    between atoms: C_23  and  C_26
REMARK                            x       y       z     vdW  Elec       q    Type
REMARK                         _______ _______ _______ _____ _____    ______ ____
ROOT
ATOM      1  C   UNL     1     -11.136  54.711  50.874  0.00  0.00    +0.000 A 
ATOM      2  C   UNL     1      -9.751  55.083  50.496  0.00  0.00    +0.000 A 
ATOM      3  C   UNL     1     -11.446  53.458  51.224  0.00  0.00    +0.000 A 
ATOM      4  O   UNL     1      -9.563  56.281  50.226  0.00  0.00    +0.000 OA
ATOM      5  N   UNL     1      -8.781  54.080  50.454  0.00  0.00    +0.000 N 
ATOM      6  C   UNL     1     -10.397  52.441  51.305  0.00  0.00    +0.000 A 
ATOM      7  C   UNL     1      -9.077  52.755  50.927  0.00  0.00    +0.000 A 
ATOM      8  C   UNL     1     -10.704  51.151  51.773  0.00  0.00    +0.000 A 
ATOM      9  C   UNL     1      -8.090  51.768  51.078  0.00  0.00    +0.000 A 
ATOM     10  C   UNL     1      -9.706  50.199  51.944  0.00  0.00    +0.000 A 
ATOM     11  C   UNL     1      -8.397  50.516  51.615  0.00  0.00    +0.000 A 
ENDROOT
BRANCH   1  17
ATOM     12  S   UNL     1     -13.552  57.394  49.409  0.00  0.00    +0.000 S 
ATOM     13  O   UNL     1     -14.660  56.783  48.702  0.00  0.00    +0.000 OA
ATOM     14  O   UNL     1     -12.888  58.569  48.864  0.00  0.00    +0.000 OA
ATOM     15  N   UNL     1     -12.412  56.286  49.648  0.00  0.00    +0.000 N 
ATOM     16  C   UNL     1     -14.169  57.874  50.979  0.00  0.00    +0.000 A 
ATOM     17  C   UNL     1     -12.207  55.766  50.814  0.00  0.00    +0.000 C 
ATOM     18  C   UNL     1     -13.764  57.151  52.091  0.00  0.00    +0.000 A 
ATOM     19  C   UNL     1     -15.041  58.959  51.072  0.00  0.00    +0.000 A 
ATOM     20  N   UNL     1     -12.854  56.113  51.979  0.00  0.00    +0.000 N 
ATOM     21  C   UNL     1     -14.283  57.500  53.340  0.00  0.00    +0.000 A 
ATOM     22  C   UNL     1     -15.537  59.306  52.323  0.00  0.00    +0.000 A 
ATOM     23  C   UNL     1     -15.167  58.579  53.455  0.00  0.00    +0.000 A 
ATOM     24  H   UNL     1     -11.856  55.996  48.888  0.00  0.00    +0.000 HD
ATOM     25  H   UNL     1     -12.657  55.585  52.787  0.00  0.00    +0.000 HD
ENDBRANCH   1  17
BRANCH   3  26
ATOM     26  O   UNL     1     -12.720  53.017  51.536  0.00  0.00    +0.000 OA
ATOM     27  H   UNL     1     -12.905  52.689  52.394  0.00  0.00    +0.000 HD
ENDBRANCH   3  26
BRANCH   5  28
ATOM     28  N   UNL     1      -7.492  54.315  49.812  0.00  0.00    +0.000 N 
ATOM     29  H   UNL     1      -6.715  54.660  50.309  0.00  0.00    +0.000 HD
BRANCH  28  30
ATOM     30  C   UNL     1      -7.427  54.004  48.377  0.00  0.00    +0.000 C 
BRANCH  30  31
ATOM     31  C   UNL     1      -8.797  54.074  47.669  0.00  0.00    +0.000 C 
ATOM     32  C   UNL     1      -9.247  52.757  47.023  0.00  0.00    +0.000 C 
ATOM     33  C   UNL     1      -8.779  55.182  46.594  0.00  0.00    +0.000 C 
ATOM     34  C   UNL     1      -8.352  52.361  45.853  0.00  0.00    +0.000 C 
ATOM     35  C   UNL     1      -7.941  54.814  45.368  0.00  0.00    +0.000 C 
ATOM     36  C   UNL     1      -8.332  53.455  44.789  0.00  0.00    +0.000 C 
ENDBRANCH  30  31
ENDBRANCH  28  30
ENDBRANCH   5  28
TORSDOF 5
ENDMDL
MODEL 9
REMARK VINA RESULT:      -8.2      3.653      7.985
REMARK  Name = 
REMARK  5 active torsions:
REMARK  status: ('A' for Active; 'I' for Inactive)
REMARK    1  A    between atoms: C_6  and  C_10
REMARK    2  A    between atoms: C_14  and  O_18
REMARK    3  A    between atoms: N_17  and  N_20
REMARK    4  A    between atoms: N_20  and  C_23
REMARK    5  A    between atoms: C_23  and  C_26
REMARK                            x       y       z     vdW  Elec       q    Type
REMARK                         _______ _______ _______ _____ _____    ______ ____
ROOT
ATOM      1  C   UNL     1     -10.826  55.790  48.523  0.00  0.00    +0.000 A 
ATOM      2  C   UNL     1     -11.190  55.326  47.163  0.00  0.00    +0.000 A 
ATOM      3  C   UNL     1      -9.600  55.592  49.019  0.00  0.00    +0.000 A 
ATOM      4  O   UNL     1     -12.341  55.594  46.784  0.00  0.00    +0.000 OA
ATOM      5  N   UNL     1     -10.238  54.618  46.426  0.00  0.00    +0.000 N 
ATOM      6  C   UNL     1      -8.568  54.967  48.190  0.00  0.00    +0.000 A 
ATOM      7  C   UNL     1      -8.888  54.491  46.904  0.00  0.00    +0.000 A 
ATOM      8  C   UNL     1      -7.253  54.854  48.673  0.00  0.00    +0.000 A 
ATOM      9  C   UNL     1      -7.855  53.953  46.119  0.00  0.00    +0.000 A 
ATOM     10  C   UNL     1      -6.239  54.347  47.868  0.00  0.00    +0.000 A 
ATOM     11  C   UNL     1      -6.540  53.916  46.585  0.00  0.00    +0.000 A 
ENDROOT
BRANCH   1  17
ATOM     12  S   UNL     1     -13.482  56.310  51.325  0.00  0.00    +0.000 S 
ATOM     13  O   UNL     1     -12.858  56.558  52.611  0.00  0.00    +0.000 OA
ATOM     14  O   UNL     1     -14.643  55.437  51.226  0.00  0.00    +0.000 OA
ATOM     15  N   UNL     1     -12.376  55.730  50.313  0.00  0.00    +0.000 N 
ATOM     16  C   UNL     1     -14.000  57.872  50.716  0.00  0.00    +0.000 A 
ATOM     17  C   UNL     1     -11.882  56.455  49.363  0.00  0.00    +0.000 C 
ATOM     18  C   UNL     1     -13.302  58.424  49.653  0.00  0.00    +0.000 A 
ATOM     19  C   UNL     1     -15.090  58.512  51.307  0.00  0.00    +0.000 A 
ATOM     20  N   UNL     1     -12.258  57.743  49.049  0.00  0.00    +0.000 N 
ATOM     21  C   UNL     1     -13.680  59.686  49.190  0.00  0.00    +0.000 A 
ATOM     22  C   UNL     1     -15.467  59.759  50.824  0.00  0.00    +0.000 A 
ATOM     23  C   UNL     1     -14.764  60.351  49.773  0.00  0.00    +0.000 A 
ATOM     24  H   UNL     1     -12.068  54.801  50.419  0.00  0.00    +0.000 HD
ATOM     25  H   UNL     1     -11.749  58.211  48.349  0.00  0.00    +0.000 HD
ENDBRANCH   1  17
BRANCH   3  26
ATOM     26  O   UNL     1      -9.197  55.945  50.295  0.00  0.00    +0.000 OA
ATOM     27  H   UNL     1      -8.658  56.700  50.424  0.00  0.00    +0.000 HD
ENDBRANCH   3  26
BRANCH   5  28
ATOM     28  N   UNL     1     -10.619  53.885  45.224  0.00  0.00    +0.000 N 
ATOM     29  H   UNL     1     -10.377  54.196  44.322  0.00  0.00    +0.000 HD
BRANCH  28  30
ATOM     30  C   UNL     1     -11.388  52.652  45.445  0.00  0.00    +0.000 C 
BRANCH  30  31
ATOM     31  C   UNL     1     -10.570  51.528  46.116  0.00  0.00    +0.000 C 
ATOM     32  C   UNL     1     -10.643  50.173  45.402  0.00  0.00    +0.000 C 
ATOM     33  C   UNL     1     -11.022  51.351  47.582  0.00  0.00    +0.000 C 
ATOM     34  C   UNL     1     -12.044  49.570  45.466  0.00  0.00    +0.000 C 
ATOM     35  C   UNL     1     -12.400  50.695  47.708  0.00  0.00    +0.000 C 
ATOM     36  C   UNL     1     -12.494  49.394  46.913  0.00  0.00    +0.000 C 
ENDBRANCH  30  31
ENDBRANCH  28  30
ENDBRANCH   5  28
TORSDOF 5
ENDMDL
