MODEL 1
REMARK VINA RESULT:      -8.5      0.000      0.000
REMARK  Name = 
REMARK  5 active torsions:
REMARK  status: ('A' for Active; 'I' for Inactive)
REMARK    1  A    between atoms: C_6  and  C_10
REMARK    2  A    between atoms: C_14  and  O_18
REMARK    3  A    between atoms: N_17  and  N_20
REMARK    4  A    between atoms: N_20  and  C_23
REMARK    5  A    between atoms: C_23  and  C_26
REMARK                            x       y       z     vdW  Elec       q    Type
REMARK                         _______ _______ _______ _____ _____    ______ ____
ROOT
ATOM      1  C   UNL     1     -10.135  54.561  52.156  0.00  0.00    +0.000 A 
ATOM      2  C   UNL     1      -8.771  55.118  51.936  0.00  0.00    +0.000 A 
ATOM      3  C   UNL     1     -10.309  53.462  52.908  0.00  0.00    +0.000 A 
ATOM      4  O   UNL     1      -8.666  56.098  51.191  0.00  0.00    +0.000 OA
ATOM      5  N   UNL     1      -7.704  54.531  52.616  0.00  0.00    +0.000 N 
ATOM      6  C   UNL     1      -9.162  52.819  53.567  0.00  0.00    +0.000 A 
ATOM      7  C   UNL     1      -7.874  53.364  53.417  0.00  0.00    +0.000 A 
ATOM      8  C   UNL     1      -9.342  51.684  54.374  0.00  0.00    +0.000 A 
ATOM      9  C   UNL     1      -6.791  52.751  54.068  0.00  0.00    +0.000 A 
ATOM     10  C   UNL     1      -8.264  51.100  55.036  0.00  0.00    +0.000 A 
ATOM     11  C   UNL     1      -6.989  51.631  54.880  0.00  0.00    +0.000 A 
ENDROOT
BRANCH   1  17
ATOM     12  S   UNL     1     -12.587  56.122  49.523  0.00  0.00    +0.000 S 
ATOM     13  O   UNL     1     -13.495  55.141  48.961  0.00  0.00    +0.000 OA
ATOM     14  O   UNL     1     -11.978  57.128  48.677  0.00  0.00    +0.000 OA
ATOM     15  N   UNL     1     -11.398  55.316  50.274  0.00  0.00    +0.000 N 
ATOM     16  C   UNL     1     -13.508  57.002  50.731  0.00  0.00    +0.000 A 
ATOM     17  C   UNL     1     -11.316  55.302  51.569  0.00  0.00    +0.000 C 
ATOM     18  C   UNL     1     -13.194  56.796  52.064  0.00  0.00    +0.000 A 
ATOM     19  C   UNL     1     -14.514  57.886  50.335  0.00  0.00    +0.000 A 
ATOM     20  N   UNL     1     -12.200  55.899  52.444  0.00  0.00    +0.000 N 
ATOM     21  C   UNL     1     -13.960  57.452  53.034  0.00  0.00    +0.000 A 
ATOM     22  C   UNL     1     -15.249  58.557  51.310  0.00  0.00    +0.000 A 
ATOM     23  C   UNL     1     -14.977  58.334  52.660  0.00  0.00    +0.000 A 
ATOM     24  H   UNL     1     -10.730  54.830  49.740  0.00  0.00    +0.000 HD
ATOM     25  H   UNL     1     -12.122  55.675  53.400  0.00  0.00    +0.000 HD
ENDBRANCH   1  17
BRANCH   3  26
ATOM     26  O   UNL     1     -11.537  52.878  53.162  0.00  0.00    +0.000 OA
ATOM     27  H   UNL     1     -11.947  52.345  52.509  0.00  0.00    +0.000 HD
ENDBRANCH   3  26
BRANCH   5  28
ATOM     28  N   UNL     1      -6.377  55.054  52.450  0.00  0.00    +0.000 N 
ATOM     29  H   UNL     1      -5.894  55.532  53.163  0.00  0.00    +0.000 HD
BRANCH  28  30
ATOM     30  C   UNL     1      -5.805  54.810  51.115  0.00  0.00    +0.000 C 
BRANCH  30  31
ATOM     31  C   UNL     1      -5.132  53.467  51.034  0.00  0.00    +0.000 C 
ATOM     32  C   UNL     1      -5.812  52.387  50.365  0.00  0.00    +0.000 C 
ATOM     33  C   UNL     1      -3.940  53.203  51.595  0.00  0.00    +0.000 C 
ATOM     34  C   UNL     1      -5.254  51.173  50.307  0.00  0.00    +0.000 C 
ATOM     35  C   UNL     1      -3.301  51.846  51.529  0.00  0.00    +0.000 C 
ATOM     36  O   UNL     1      -4.044  50.826  50.842  0.00  0.00    +0.000 OA
ENDBRANCH  30  31
ENDBRANCH  28  30
ENDBRANCH   5  28
TORSDOF 5
ENDMDL
MODEL 2
REMARK VINA RESULT:      -8.5      2.253      2.694
REMARK  Name = 
REMARK  5 active torsions:
REMARK  status: ('A' for Active; 'I' for Inactive)
REMARK    1  A    between atoms: C_6  and  C_10
REMARK    2  A    between atoms: C_14  and  O_18
REMARK    3  A    between atoms: N_17  and  N_20
REMARK    4  A    between atoms: N_20  and  C_23
REMARK    5  A    between atoms: C_23  and  C_26
REMARK                            x       y       z     vdW  Elec       q    Type
REMARK                         _______ _______ _______ _____ _____    ______ ____
ROOT
ATOM      1  C   UNL     1     -11.220  54.523  50.660  0.00  0.00    +0.000 A 
ATOM      2  C   UNL     1      -9.862  54.877  50.159  0.00  0.00    +0.000 A 
ATOM      3  C   UNL     1     -11.456  53.314  51.194  0.00  0.00    +0.000 A 
ATOM      4  O   UNL     1      -9.717  55.983  49.629  0.00  0.00    +0.000 OA
ATOM      5  N   UNL     1      -8.829  53.960  50.359  0.00  0.00    +0.000 N 
ATOM      6  C   UNL     1     -10.367  52.336  51.339  0.00  0.00    +0.000 A 
ATOM      7  C   UNL     1      -9.065  52.673  50.923  0.00  0.00    +0.000 A 
ATOM      8  C   UNL     1     -10.603  51.079  51.918  0.00  0.00    +0.000 A 
ATOM      9  C   UNL     1      -8.032  51.736  51.086  0.00  0.00    +0.000 A 
ATOM     10  C   UNL     1      -9.564  50.168  52.097  0.00  0.00    +0.000 A 
ATOM     11  C   UNL     1      -8.279  50.495  51.678  0.00  0.00    +0.000 A 
ENDROOT
BRANCH   1  17
ATOM     12  S   UNL     1     -13.690  57.230  49.262  0.00  0.00    +0.000 S 
ATOM     13  O   UNL     1     -14.863  56.643  48.642  0.00  0.00    +0.000 OA
ATOM     14  O   UNL     1     -13.031  58.368  48.656  0.00  0.00    +0.000 OA
ATOM     15  N   UNL     1     -12.589  56.054  49.439  0.00  0.00    +0.000 N 
ATOM     16  C   UNL     1     -14.196  57.759  50.858  0.00  0.00    +0.000 A 
ATOM     17  C   UNL     1     -12.300  55.582  50.613  0.00  0.00    +0.000 C 
ATOM     18  C   UNL     1     -13.716  57.063  51.954  0.00  0.00    +0.000 A 
ATOM     19  C   UNL     1     -15.046  58.859  50.992  0.00  0.00    +0.000 A 
ATOM     20  N   UNL     1     -12.883  55.958  51.805  0.00  0.00    +0.000 N 
ATOM     21  C   UNL     1     -14.159  57.445  53.227  0.00  0.00    +0.000 A 
ATOM     22  C   UNL     1     -15.453  59.249  52.266  0.00  0.00    +0.000 A 
ATOM     23  C   UNL     1     -15.016  58.537  53.383  0.00  0.00    +0.000 A 
ATOM     24  H   UNL     1     -12.134  55.692  48.645  0.00  0.00    +0.000 HD
ATOM     25  H   UNL     1     -12.699  55.409  52.601  0.00  0.00    +0.000 HD
ENDBRANCH   1  17
BRANCH   3  26
ATOM     26  O   UNL     1     -12.684  52.902  51.680  0.00  0.00    +0.000 OA
ATOM     27  H   UNL     1     -12.777  52.670  52.583  0.00  0.00    +0.000 HD
ENDBRANCH   3  26
BRANCH   5  28
ATOM     28  N   UNL     1      -7.501  54.274  49.912  0.00  0.00    +0.000 N 
ATOM     29  H   UNL     1      -7.054  53.796  49.176  0.00  0.00    +0.000 HD
BRANCH  28  30
ATOM     30  C   UNL     1      -6.869  55.376  50.657  0.00  0.00    +0.000 C 
BRANCH  30  31
ATOM     31  C   UNL     1      -6.626  55.011  52.095  0.00  0.00    +0.000 C 
ATOM     32  C   UNL     1      -7.486  55.567  53.109  0.00  0.00    +0.000 C 
ATOM     33  C   UNL     1      -5.614  54.224  52.497  0.00  0.00    +0.000 C 
ATOM     34  C   UNL     1      -7.274  55.288  54.399  0.00  0.00    +0.000 C 
ATOM     35  C   UNL     1      -5.372  53.898  53.942  0.00  0.00    +0.000 C 
ATOM     36  O   UNL     1      -6.276  54.491  54.889  0.00  0.00    +0.000 OA
ENDBRANCH  30  31
ENDBRANCH  28  30
ENDBRANCH   5  28
TORSDOF 5
ENDMDL
MODEL 3
REMARK VINA RESULT:      -8.4      3.810      7.397
REMARK  Name = 
REMARK  5 active torsions:
REMARK  status: ('A' for Active; 'I' for Inactive)
REMARK    1  A    between atoms: C_6  and  C_10
REMARK    2  A    between atoms: C_14  and  O_18
REMARK    3  A    between atoms: N_17  and  N_20
REMARK    4  A    between atoms: N_20  and  C_23
REMARK    5  A    between atoms: C_23  and  C_26
REMARK                            x       y       z     vdW  Elec       q    Type
REMARK                         _______ _______ _______ _____ _____    ______ ____
ROOT
ATOM      1  C   UNL     1     -10.400  55.268  50.904  0.00  0.00    +0.000 A 
ATOM      2  C   UNL     1     -10.054  55.192  49.456  0.00  0.00    +0.000 A 
ATOM      3  C   UNL     1     -11.583  55.767  51.296  0.00  0.00    +0.000 A 
ATOM      4  O   UNL     1      -8.930  54.775  49.157  0.00  0.00    +0.000 OA
ATOM      5  N   UNL     1     -11.031  55.553  48.528  0.00  0.00    +0.000 N 
ATOM      6  C   UNL     1     -12.577  56.202  50.303  0.00  0.00    +0.000 A 
ATOM      7  C   UNL     1     -12.291  56.085  48.931  0.00  0.00    +0.000 A 
ATOM      8  C   UNL     1     -13.825  56.702  50.708  0.00  0.00    +0.000 A 
ATOM      9  C   UNL     1     -13.258  56.485  47.994  0.00  0.00    +0.000 A 
ATOM     10  C   UNL     1     -14.786  57.071  49.769  0.00  0.00    +0.000 A 
ATOM     11  C   UNL     1     -14.501  56.966  48.412  0.00  0.00    +0.000 A 
ENDROOT
BRANCH   1  17
ATOM     12  S   UNL     1      -7.093  54.742  52.946  0.00  0.00    +0.000 S 
ATOM     13  O   UNL     1      -6.937  55.716  54.009  0.00  0.00    +0.000 OA
ATOM     14  O   UNL     1      -5.958  54.352  52.134  0.00  0.00    +0.000 OA
ATOM     15  N   UNL     1      -8.252  55.284  51.951  0.00  0.00    +0.000 N 
ATOM     16  C   UNL     1      -7.665  53.271  53.713  0.00  0.00    +0.000 A 
ATOM     17  C   UNL     1      -9.415  54.709  51.907  0.00  0.00    +0.000 C 
ATOM     18  C   UNL     1      -8.973  52.882  53.478  0.00  0.00    +0.000 A 
ATOM     19  C   UNL     1      -6.805  52.525  54.522  0.00  0.00    +0.000 A 
ATOM     20  N   UNL     1      -9.824  53.644  52.683  0.00  0.00    +0.000 N 
ATOM     21  C   UNL     1      -9.452  51.740  54.131  0.00  0.00    +0.000 A 
ATOM     22  C   UNL     1      -7.285  51.373  55.141  0.00  0.00    +0.000 A 
ATOM     23  C   UNL     1      -8.611  50.985  54.951  0.00  0.00    +0.000 A 
ATOM     24  H   UNL     1      -8.072  56.060  51.374  0.00  0.00    +0.000 HD
ATOM     25  H   UNL     1     -10.780  53.409  52.674  0.00  0.00    +0.000 HD
ENDBRANCH   1  17
BRANCH   3  26
ATOM     26  O   UNL     1     -11.984  55.877  52.616  0.00  0.00    +0.000 OA
ATOM     27  H   UNL     1     -12.407  55.156  53.039  0.00  0.00    +0.000 HD
ENDBRANCH   3  26
BRANCH   5  28
ATOM     28  N   UNL     1     -10.745  55.470  47.123  0.00  0.00    +0.000 N 
ATOM     29  H   UNL     1     -10.202  56.138  46.645  0.00  0.00    +0.000 HD
BRANCH  28  30
ATOM     30  C   UNL     1     -11.339  54.295  46.464  0.00  0.00    +0.000 C 
BRANCH  30  31
ATOM     31  C   UNL     1     -10.452  53.759  45.374  0.00  0.00    +0.000 C 
ATOM     32  C   UNL     1      -9.044  54.061  45.410  0.00  0.00    +0.000 C 
ATOM     33  C   UNL     1     -10.912  53.046  44.332  0.00  0.00    +0.000 C 
ATOM     34  C   UNL     1      -8.237  53.627  44.436  0.00  0.00    +0.000 C 
ATOM     35  C   UNL     1     -10.013  52.548  43.237  0.00  0.00    +0.000 C 
ATOM     36  O   UNL     1      -8.622  52.890  43.351  0.00  0.00    +0.000 OA
ENDBRANCH  30  31
ENDBRANCH  28  30
ENDBRANCH   5  28
TORSDOF 5
ENDMDL
MODEL 4
REMARK VINA RESULT:      -8.4      3.009      4.648
REMARK  Name = 
REMARK  5 active torsions:
REMARK  status: ('A' for Active; 'I' for Inactive)
REMARK    1  A    between atoms: C_6  and  C_10
REMARK    2  A    between atoms: C_14  and  O_18
REMARK    3  A    between atoms: N_17  and  N_20
REMARK    4  A    between atoms: N_20  and  C_23
REMARK    5  A    between atoms: C_23  and  C_26
REMARK                            x       y       z     vdW  Elec       q    Type
REMARK                         _______ _______ _______ _____ _____    ______ ____
ROOT
ATOM      1  C   UNL     1     -11.195  55.968  48.983  0.00  0.00    +0.000 A 
ATOM      2  C   UNL     1     -10.184  55.413  49.926  0.00  0.00    +0.000 A 
ATOM      3  C   UNL     1     -11.202  55.594  47.693  0.00  0.00    +0.000 A 
ATOM      4  O   UNL     1     -10.191  55.834  51.087  0.00  0.00    +0.000 OA
ATOM      5  N   UNL     1      -9.322  54.421  49.455  0.00  0.00    +0.000 N 
ATOM      6  C   UNL     1     -10.244  54.593  47.201  0.00  0.00    +0.000 A 
ATOM      7  C   UNL     1      -9.319  54.015  48.089  0.00  0.00    +0.000 A 
ATOM      8  C   UNL     1     -10.263  54.181  45.858  0.00  0.00    +0.000 A 
ATOM      9  C   UNL     1      -8.423  53.046  47.608  0.00  0.00    +0.000 A 
ATOM     10  C   UNL     1      -9.387  53.200  45.400  0.00  0.00    +0.000 A 
ATOM     11  C   UNL     1      -8.465  52.635  46.274  0.00  0.00    +0.000 A 
ENDROOT
BRANCH   1  17
ATOM     12  S   UNL     1     -13.466  59.137  49.414  0.00  0.00    +0.000 S 
ATOM     13  O   UNL     1     -14.578  59.153  48.484  0.00  0.00    +0.000 OA
ATOM     14  O   UNL     1     -12.730  60.352  49.699  0.00  0.00    +0.000 OA
ATOM     15  N   UNL     1     -12.408  58.025  48.894  0.00  0.00    +0.000 N 
ATOM     16  C   UNL     1     -14.123  58.599  50.951  0.00  0.00    +0.000 A 
ATOM     17  C   UNL     1     -12.247  56.907  49.532  0.00  0.00    +0.000 C 
ATOM     18  C   UNL     1     -13.769  57.340  51.403  0.00  0.00    +0.000 A 
ATOM     19  C   UNL     1     -14.964  59.440  51.683  0.00  0.00    +0.000 A 
ATOM     20  N   UNL     1     -12.943  56.506  50.654  0.00  0.00    +0.000 N 
ATOM     21  C   UNL     1     -14.333  56.883  52.600  0.00  0.00    +0.000 A 
ATOM     22  C   UNL     1     -15.493  58.986  52.889  0.00  0.00    +0.000 A 
ATOM     23  C   UNL     1     -15.184  57.704  53.343  0.00  0.00    +0.000 A 
ATOM     24  H   UNL     1     -11.880  58.201  48.082  0.00  0.00    +0.000 HD
ATOM     25  H   UNL     1     -12.849  55.569  50.943  0.00  0.00    +0.000 HD
ENDBRANCH   1  17
BRANCH   3  26
ATOM     26  O   UNL     1     -12.102  56.061  46.752  0.00  0.00    +0.000 OA
ATOM     27  H   UNL     1     -11.863  56.084  45.846  0.00  0.00    +0.000 HD
ENDBRANCH   3  26
BRANCH   5  28
ATOM     28  N   UNL     1      -8.350  53.842  50.339  0.00  0.00    +0.000 N 
ATOM     29  H   UNL     1      -8.450  52.947  50.737  0.00  0.00    +0.000 HD
BRANCH  28  30
ATOM     30  C   UNL     1      -7.189  54.711  50.596  0.00  0.00    +0.000 C 
BRANCH  30  31
ATOM     31  C   UNL     1      -6.736  54.630  52.027  0.00  0.00    +0.000 C 
ATOM     32  C   UNL     1      -7.505  55.307  53.040  0.00  0.00    +0.000 C 
ATOM     33  C   UNL     1      -5.617  53.993  52.413  0.00  0.00    +0.000 C 
ATOM     34  C   UNL     1      -7.109  55.281  54.317  0.00  0.00    +0.000 C 
ATOM     35  C   UNL     1      -5.167  53.952  53.845  0.00  0.00    +0.000 C 
ATOM     36  O   UNL     1      -5.993  54.650  54.792  0.00  0.00    +0.000 OA
ENDBRANCH  30  31
ENDBRANCH  28  30
ENDBRANCH   5  28
TORSDOF 5
ENDMDL
MODEL 5
REMARK VINA RESULT:      -8.4      3.750      4.555
REMARK  Name = 
REMARK  5 active torsions:
REMARK  status: ('A' for Active; 'I' for Inactive)
REMARK    1  A    between atoms: C_6  and  C_10
REMARK    2  A    between atoms: C_14  and  O_18
REMARK    3  A    between atoms: N_17  and  N_20
REMARK    4  A    between atoms: N_20  and  C_23
REMARK    5  A    between atoms: C_23  and  C_26
REMARK                            x       y       z     vdW  Elec       q    Type
REMARK                         _______ _______ _______ _____ _____    ______ ____
ROOT
ATOM      1  C   UNL     1     -12.487  54.316  49.563  0.00  0.00    +0.000 A 
ATOM      2  C   UNL     1     -11.978  54.304  48.163  0.00  0.00    +0.000 A 
ATOM      3  C   UNL     1     -12.187  53.315  50.406  0.00  0.00    +0.000 A 
ATOM      4  O   UNL     1     -12.331  55.223  47.417  0.00  0.00    +0.000 OA
ATOM      5  N   UNL     1     -11.101  53.284  47.791  0.00  0.00    +0.000 N 
ATOM      6  C   UNL     1     -11.311  52.214  49.976  0.00  0.00    +0.000 A 
ATOM      7  C   UNL     1     -10.775  52.215  48.676  0.00  0.00    +0.000 A 
ATOM      8  C   UNL     1     -10.975  51.177  50.862  0.00  0.00    +0.000 A 
ATOM      9  C   UNL     1      -9.924  51.167  48.286  0.00  0.00    +0.000 A 
ATOM     10  C   UNL     1     -10.109  50.157  50.471  0.00  0.00    +0.000 A 
ATOM     11  C   UNL     1      -9.587  50.151  49.183  0.00  0.00    +0.000 A 
ENDROOT
BRANCH   1  17
ATOM     12  S   UNL     1     -15.355  56.453  51.173  0.00  0.00    +0.000 S 
ATOM     13  O   UNL     1     -15.240  56.537  52.616  0.00  0.00    +0.000 OA
ATOM     14  O   UNL     1     -16.649  56.263  50.549  0.00  0.00    +0.000 OA
ATOM     15  N   UNL     1     -14.382  55.257  50.673  0.00  0.00    +0.000 N 
ATOM     16  C   UNL     1     -14.734  57.970  50.545  0.00  0.00    +0.000 A 
ATOM     17  C   UNL     1     -13.288  55.514  50.024  0.00  0.00    +0.000 C 
ATOM     18  C   UNL     1     -13.525  57.948  49.872  0.00  0.00    +0.000 A 
ATOM     19  C   UNL     1     -15.464  59.148  50.719  0.00  0.00    +0.000 A 
ATOM     20  N   UNL     1     -12.801  56.769  49.720  0.00  0.00    +0.000 N 
ATOM     21  C   UNL     1     -12.997  59.162  49.417  0.00  0.00    +0.000 A 
ATOM     22  C   UNL     1     -14.943  60.345  50.233  0.00  0.00    +0.000 A 
ATOM     23  C   UNL     1     -13.706  60.353  49.589  0.00  0.00    +0.000 A 
ATOM     24  H   UNL     1     -14.624  54.322  50.865  0.00  0.00    +0.000 HD
ATOM     25  H   UNL     1     -11.881  56.833  49.375  0.00  0.00    +0.000 HD
ENDBRANCH   1  17
BRANCH   3  26
ATOM     26  O   UNL     1     -12.618  53.246  51.719  0.00  0.00    +0.000 OA
ATOM     27  H   UNL     1     -13.533  53.285  51.914  0.00  0.00    +0.000 HD
ENDBRANCH   3  26
BRANCH   5  28
ATOM     28  N   UNL     1     -10.569  53.250  46.458  0.00  0.00    +0.000 N 
ATOM     29  H   UNL     1     -10.772  52.531  45.816  0.00  0.00    +0.000 HD
BRANCH  28  30
ATOM     30  C   UNL     1      -9.695  54.391  46.138  0.00  0.00    +0.000 C 
BRANCH  30  31
ATOM     31  C   UNL     1      -8.376  54.302  46.855  0.00  0.00    +0.000 C 
ATOM     32  C   UNL     1      -7.420  53.311  46.433  0.00  0.00    +0.000 C 
ATOM     33  C   UNL     1      -8.055  55.072  47.908  0.00  0.00    +0.000 C 
ATOM     34  C   UNL     1      -6.253  53.186  47.073  0.00  0.00    +0.000 C 
ATOM     35  C   UNL     1      -6.745  54.945  48.629  0.00  0.00    +0.000 C 
ATOM     36  O   UNL     1      -5.846  53.934  48.143  0.00  0.00    +0.000 OA
ENDBRANCH  30  31
ENDBRANCH  28  30
ENDBRANCH   5  28
TORSDOF 5
ENDMDL
MODEL 6
REMARK VINA RESULT:      -8.4      3.277      8.537
REMARK  Name = 
REMARK  5 active torsions:
REMARK  status: ('A' for Active; 'I' for Inactive)
REMARK    1  A    between atoms: C_6  and  C_10
REMARK    2  A    between atoms: C_14  and  O_18
REMARK    3  A    between atoms: N_17  and  N_20
REMARK    4  A    between atoms: N_20  and  C_23
REMARK    5  A    between atoms: C_23  and  C_26
REMARK                            x       y       z     vdW  Elec       q    Type
REMARK                         _______ _______ _______ _____ _____    ______ ____
ROOT
ATOM      1  C   UNL     1      -9.074  54.283  49.957  0.00  0.00    +0.000 A 
ATOM      2  C   UNL     1     -10.138  55.321  50.062  0.00  0.00    +0.000 A 
ATOM      3  C   UNL     1      -8.954  53.541  48.844  0.00  0.00    +0.000 A 
ATOM      4  O   UNL     1     -10.235  55.935  51.130  0.00  0.00    +0.000 OA
ATOM      5  N   UNL     1     -10.928  55.569  48.939  0.00  0.00    +0.000 N 
ATOM      6  C   UNL     1      -9.839  53.774  47.692  0.00  0.00    +0.000 A 
ATOM      7  C   UNL     1     -10.812  54.789  47.752  0.00  0.00    +0.000 A 
ATOM      8  C   UNL     1      -9.702  53.017  46.517  0.00  0.00    +0.000 A 
ATOM      9  C   UNL     1     -11.635  55.013  46.636  0.00  0.00    +0.000 A 
ATOM     10  C   UNL     1     -10.508  53.267  45.408  0.00  0.00    +0.000 A 
ATOM     11  C   UNL     1     -11.477  54.262  45.469  0.00  0.00    +0.000 A 
ENDROOT
BRANCH   1  17
ATOM     12  S   UNL     1      -7.661  54.074  53.609  0.00  0.00    +0.000 S 
ATOM     13  O   UNL     1      -7.874  52.773  54.213  0.00  0.00    +0.000 OA
ATOM     14  O   UNL     1      -7.854  55.283  54.383  0.00  0.00    +0.000 OA
ATOM     15  N   UNL     1      -8.608  54.167  52.297  0.00  0.00    +0.000 N 
ATOM     16  C   UNL     1      -5.985  54.100  53.085  0.00  0.00    +0.000 A 
ATOM     17  C   UNL     1      -8.099  54.137  51.104  0.00  0.00    +0.000 C 
ATOM     18  C   UNL     1      -5.730  54.067  51.725  0.00  0.00    +0.000 A 
ATOM     19  C   UNL     1      -4.959  54.164  54.031  0.00  0.00    +0.000 A 
ATOM     20  N   UNL     1      -6.762  53.986  50.795  0.00  0.00    +0.000 N 
ATOM     21  C   UNL     1      -4.396  54.031  51.302  0.00  0.00    +0.000 A 
ATOM     22  C   UNL     1      -3.636  54.160  53.595  0.00  0.00    +0.000 A 
ATOM     23  C   UNL     1      -3.354  54.086  52.231  0.00  0.00    +0.000 A 
ATOM     24  H   UNL     1      -9.582  54.247  52.407  0.00  0.00    +0.000 HD
ATOM     25  H   UNL     1      -6.524  53.809  49.856  0.00  0.00    +0.000 HD
ENDBRANCH   1  17
BRANCH   3  26
ATOM     26  O   UNL     1      -8.000  52.556  48.663  0.00  0.00    +0.000 OA
ATOM     27  H   UNL     1      -7.889  52.160  47.821  0.00  0.00    +0.000 HD
ENDBRANCH   3  26
BRANCH   5  28
ATOM     28  N   UNL     1     -11.947  56.579  48.992  0.00  0.00    +0.000 N 
ATOM     29  H   UNL     1     -11.830  57.482  48.617  0.00  0.00    +0.000 HD
BRANCH  28  30
ATOM     30  C   UNL     1     -13.185  56.139  49.658  0.00  0.00    +0.000 C 
BRANCH  30  31
ATOM     31  C   UNL     1     -13.674  57.154  50.654  0.00  0.00    +0.000 C 
ATOM     32  C   UNL     1     -13.658  56.819  52.055  0.00  0.00    +0.000 C 
ATOM     33  C   UNL     1     -14.173  58.352  50.304  0.00  0.00    +0.000 C 
ATOM     34  C   UNL     1     -14.117  57.688  52.961  0.00  0.00    +0.000 C 
ATOM     35  C   UNL     1     -14.685  59.337  51.313  0.00  0.00    +0.000 C 
ATOM     36  O   UNL     1     -14.631  58.926  52.689  0.00  0.00    +0.000 OA
ENDBRANCH  30  31
ENDBRANCH  28  30
ENDBRANCH   5  28
TORSDOF 5
ENDMDL
MODEL 7
REMARK VINA RESULT:      -8.3      4.531      5.589
REMARK  Name = 
REMARK  5 active torsions:
REMARK  status: ('A' for Active; 'I' for Inactive)
REMARK    1  A    between atoms: C_6  and  C_10
REMARK    2  A    between atoms: C_14  and  O_18
REMARK    3  A    between atoms: N_17  and  N_20
REMARK    4  A    between atoms: N_20  and  C_23
REMARK    5  A    between atoms: C_23  and  C_26
REMARK                            x       y       z     vdW  Elec       q    Type
REMARK                         _______ _______ _______ _____ _____    ______ ____
ROOT
ATOM      1  C   UNL     1     -12.440  54.359  49.588  0.00  0.00    +0.000 A 
ATOM      2  C   UNL     1     -11.836  54.398  48.227  0.00  0.00    +0.000 A 
ATOM      3  C   UNL     1     -12.202  53.324  50.410  0.00  0.00    +0.000 A 
ATOM      4  O   UNL     1     -12.133  55.347  47.494  0.00  0.00    +0.000 OA
ATOM      5  N   UNL     1     -10.939  53.387  47.877  0.00  0.00    +0.000 N 
ATOM      6  C   UNL     1     -11.303  52.236  50.000  0.00  0.00    +0.000 A 
ATOM      7  C   UNL     1     -10.679  52.283  48.740  0.00  0.00    +0.000 A 
ATOM      8  C   UNL     1     -11.033  51.163  50.865  0.00  0.00    +0.000 A 
ATOM      9  C   UNL     1      -9.807  51.246  48.369  0.00  0.00    +0.000 A 
ATOM     10  C   UNL     1     -10.145  50.154  50.496  0.00  0.00    +0.000 A 
ATOM     11  C   UNL     1      -9.536  50.193  49.247  0.00  0.00    +0.000 A 
ENDROOT
BRANCH   1  17
ATOM     12  S   UNL     1     -15.369  56.448  51.151  0.00  0.00    +0.000 S 
ATOM     13  O   UNL     1     -15.285  56.526  52.596  0.00  0.00    +0.000 OA
ATOM     14  O   UNL     1     -16.647  56.244  50.500  0.00  0.00    +0.000 OA
ATOM     15  N   UNL     1     -14.370  55.268  50.665  0.00  0.00    +0.000 N 
ATOM     16  C   UNL     1     -14.757  57.977  50.543  0.00  0.00    +0.000 A 
ATOM     17  C   UNL     1     -13.267  55.543  50.039  0.00  0.00    +0.000 C 
ATOM     18  C   UNL     1     -13.534  57.975  49.895  0.00  0.00    +0.000 A 
ATOM     19  C   UNL     1     -15.506  59.144  50.709  0.00  0.00    +0.000 A 
ATOM     20  N   UNL     1     -12.791  56.806  49.752  0.00  0.00    +0.000 N 
ATOM     21  C   UNL     1     -13.013  59.198  49.458  0.00  0.00    +0.000 A 
ATOM     22  C   UNL     1     -14.992  60.351  50.240  0.00  0.00    +0.000 A 
ATOM     23  C   UNL     1     -13.742  60.379  49.621  0.00  0.00    +0.000 A 
ATOM     24  H   UNL     1     -14.603  54.329  50.847  0.00  0.00    +0.000 HD
ATOM     25  H   UNL     1     -11.865  56.885  49.426  0.00  0.00    +0.000 HD
ENDBRANCH   1  17
BRANCH   3  26
ATOM     26  O   UNL     1     -12.723  53.208  51.687  0.00  0.00    +0.000 OA
ATOM     27  H   UNL     1     -12.261  52.719  52.339  0.00  0.00    +0.000 HD
ENDBRANCH   3  26
BRANCH   5  28
ATOM     28  N   UNL     1     -10.317  53.402  46.583  0.00  0.00    +0.000 N 
ATOM     29  H   UNL     1      -9.434  53.804  46.416  0.00  0.00    +0.000 HD
BRANCH  28  30
ATOM     30  C   UNL     1     -11.121  52.758  45.530  0.00  0.00    +0.000 C 
BRANCH  30  31
ATOM     31  C   UNL     1     -10.260  52.014  44.547  0.00  0.00    +0.000 C 
ATOM     32  C   UNL     1     -10.275  50.574  44.557  0.00  0.00    +0.000 C 
ATOM     33  C   UNL     1      -9.433  52.624  43.681  0.00  0.00    +0.000 C 
ATOM     34  C   UNL     1      -9.495  49.886  43.718  0.00  0.00    +0.000 C 
ATOM     35  C   UNL     1      -8.558  51.861  42.729  0.00  0.00    +0.000 C 
ATOM     36  O   UNL     1      -8.636  50.428  42.803  0.00  0.00    +0.000 OA
ENDBRANCH  30  31
ENDBRANCH  28  30
ENDBRANCH   5  28
TORSDOF 5
ENDMDL
MODEL 8
REMARK VINA RESULT:      -8.2      4.219      7.191
REMARK  Name = 
REMARK  5 active torsions:
REMARK  status: ('A' for Active; 'I' for Inactive)
REMARK    1  A    between atoms: C_6  and  C_10
REMARK    2  A    between atoms: C_14  and  O_18
REMARK    3  A    between atoms: N_17  and  N_20
REMARK    4  A    between atoms: N_20  and  C_23
REMARK    5  A    between atoms: C_23  and  C_26
REMARK                            x       y       z     vdW  Elec       q    Type
REMARK                         _______ _______ _______ _____ _____    ______ ____
ROOT
ATOM      1  C   UNL     1     -11.327  54.668  48.425  0.00  0.00    +0.000 A 
ATOM      2  C   UNL     1     -11.140  54.157  49.812  0.00  0.00    +0.000 A 
ATOM      3  C   UNL     1     -12.186  55.671  48.178  0.00  0.00    +0.000 A 
ATOM      4  O   UNL     1     -10.378  53.198  49.971  0.00  0.00    +0.000 OA
ATOM      5  N   UNL     1     -11.798  54.818  50.850  0.00  0.00    +0.000 N 
ATOM      6  C   UNL     1     -12.920  56.314  49.279  0.00  0.00    +0.000 A 
ATOM      7  C   UNL     1     -12.713  55.883  50.602  0.00  0.00    +0.000 A 
ATOM      8  C   UNL     1     -13.801  57.378  49.028  0.00  0.00    +0.000 A 
ATOM      9  C   UNL     1     -13.406  56.520  51.645  0.00  0.00    +0.000 A 
ATOM     10  C   UNL     1     -14.462  58.019  50.075  0.00  0.00    +0.000 A 
ATOM     11  C   UNL     1     -14.268  57.587  51.382  0.00  0.00    +0.000 A 
ENDROOT
BRANCH   1  17
ATOM     12  S   UNL     1      -8.251  53.959  46.098  0.00  0.00    +0.000 S 
ATOM     13  O   UNL     1      -7.289  53.061  46.708  0.00  0.00    +0.000 OA
ATOM     14  O   UNL     1      -7.803  55.115  45.348  0.00  0.00    +0.000 OA
ATOM     15  N   UNL     1      -9.246  54.479  47.266  0.00  0.00    +0.000 N 
ATOM     16  C   UNL     1      -9.181  52.984  44.972  0.00  0.00    +0.000 A 
ATOM     17  C   UNL     1     -10.478  54.076  47.322  0.00  0.00    +0.000 C 
ATOM     18  C   UNL     1     -10.501  52.712  45.287  0.00  0.00    +0.000 A 
ATOM     19  C   UNL     1      -8.588  52.520  43.796  0.00  0.00    +0.000 A 
ATOM     20  N   UNL     1     -11.074  53.167  46.471  0.00  0.00    +0.000 N 
ATOM     21  C   UNL     1     -11.232  51.889  44.421  0.00  0.00    +0.000 A 
ATOM     22  C   UNL     1      -9.337  51.729  42.927  0.00  0.00    +0.000 A 
ATOM     23  C   UNL     1     -10.656  51.407  43.243  0.00  0.00    +0.000 A 
ATOM     24  H   UNL     1      -8.911  55.109  47.944  0.00  0.00    +0.000 HD
ATOM     25  H   UNL     1     -11.960  52.817  46.719  0.00  0.00    +0.000 HD
ENDBRANCH   1  17
BRANCH   3  26
ATOM     26  O   UNL     1     -12.422  56.204  46.923  0.00  0.00    +0.000 OA
ATOM     27  H   UNL     1     -13.019  55.779  46.339  0.00  0.00    +0.000 HD
ENDBRANCH   3  26
BRANCH   5  28
ATOM     28  N   UNL     1     -11.624  54.372  52.204  0.00  0.00    +0.000 N 
ATOM     29  H   UNL     1     -12.246  53.751  52.648  0.00  0.00    +0.000 HD
BRANCH  28  30
ATOM     30  C   UNL     1     -10.431  54.927  52.864  0.00  0.00    +0.000 C 
BRANCH  30  31
ATOM     31  C   UNL     1      -9.526  53.844  53.384  0.00  0.00    +0.000 C 
ATOM     32  C   UNL     1     -10.105  52.592  53.799  0.00  0.00    +0.000 C 
ATOM     33  C   UNL     1      -8.199  53.997  53.527  0.00  0.00    +0.000 C 
ATOM     34  C   UNL     1      -9.329  51.624  54.297  0.00  0.00    +0.000 C 
ATOM     35  C   UNL     1      -7.318  52.914  54.078  0.00  0.00    +0.000 C 
ATOM     36  O   UNL     1      -7.975  51.696  54.466  0.00  0.00    +0.000 OA
ENDBRANCH  30  31
ENDBRANCH  28  30
ENDBRANCH   5  28
TORSDOF 5
ENDMDL
MODEL 9
REMARK VINA RESULT:      -8.2      3.148      8.401
REMARK  Name = 
REMARK  5 active torsions:
REMARK  status: ('A' for Active; 'I' for Inactive)
REMARK    1  A    between atoms: C_6  and  C_10
REMARK    2  A    between atoms: C_14  and  O_18
REMARK    3  A    between atoms: N_17  and  N_20
REMARK    4  A    between atoms: N_20  and  C_23
REMARK    5  A    between atoms: C_23  and  C_26
REMARK                            x       y       z     vdW  Elec       q    Type
REMARK                         _______ _______ _______ _____ _____    ______ ____
ROOT
ATOM      1  C   UNL     1      -9.740  54.288  50.229  0.00  0.00    +0.000 A 
ATOM      2  C   UNL     1     -10.786  55.347  50.283  0.00  0.00    +0.000 A 
ATOM      3  C   UNL     1      -9.526  53.598  49.096  0.00  0.00    +0.000 A 
ATOM      4  O   UNL     1     -10.976  55.911  51.365  0.00  0.00    +0.000 OA
ATOM      5  N   UNL     1     -11.456  55.670  49.102  0.00  0.00    +0.000 N 
ATOM      6  C   UNL     1     -10.286  53.910  47.877  0.00  0.00    +0.000 A 
ATOM      7  C   UNL     1     -11.239  54.945  47.893  0.00  0.00    +0.000 A 
ATOM      8  C   UNL     1     -10.050  53.208  46.684  0.00  0.00    +0.000 A 
ATOM      9  C   UNL     1     -11.943  55.245  46.716  0.00  0.00    +0.000 A 
ATOM     10  C   UNL     1     -10.737  53.532  45.516  0.00  0.00    +0.000 A 
ATOM     11  C   UNL     1     -11.686  54.548  45.533  0.00  0.00    +0.000 A 
ENDROOT
BRANCH   1  17
ATOM     12  S   UNL     1      -6.895  54.729  52.892  0.00  0.00    +0.000 S 
ATOM     13  O   UNL     1      -7.179  55.792  53.836  0.00  0.00    +0.000 OA
ATOM     14  O   UNL     1      -5.559  54.560  52.357  0.00  0.00    +0.000 OA
ATOM     15  N   UNL     1      -7.913  54.898  51.642  0.00  0.00    +0.000 N 
ATOM     16  C   UNL     1      -7.277  53.228  53.718  0.00  0.00    +0.000 A 
ATOM     17  C   UNL     1      -8.886  54.060  51.457  0.00  0.00    +0.000 C 
ATOM     18  C   UNL     1      -8.390  52.521  53.297  0.00  0.00    +0.000 A 
ATOM     19  C   UNL     1      -6.461  52.776  54.758  0.00  0.00    +0.000 A 
ATOM     20  N   UNL     1      -9.204  52.992  52.271  0.00  0.00    +0.000 N 
ATOM     21  C   UNL     1      -8.733  51.352  53.988  0.00  0.00    +0.000 A 
ATOM     22  C   UNL     1      -6.795  51.594  55.415  0.00  0.00    +0.000 A 
ATOM     23  C   UNL     1      -7.935  50.886  55.036  0.00  0.00    +0.000 A 
ATOM     24  H   UNL     1      -7.791  55.647  51.016  0.00  0.00    +0.000 HD
ATOM     25  H   UNL     1     -10.063  52.536  52.117  0.00  0.00    +0.000 HD
ENDBRANCH   1  17
BRANCH   3  26
ATOM     26  O   UNL     1      -8.579  52.599  48.960  0.00  0.00    +0.000 OA
ATOM     27  H   UNL     1      -7.763  52.660  49.416  0.00  0.00    +0.000 HD
ENDBRANCH   3  26
BRANCH   5  28
ATOM     28  N   UNL     1     -12.454  56.702  49.106  0.00  0.00    +0.000 N 
ATOM     29  H   UNL     1     -12.284  57.616  48.782  0.00  0.00    +0.000 HD
BRANCH  28  30
ATOM     30  C   UNL     1     -13.755  56.267  49.640  0.00  0.00    +0.000 C 
BRANCH  30  31
ATOM     31  C   UNL     1     -14.264  57.203  50.702  0.00  0.00    +0.000 C 
ATOM     32  C   UNL     1     -14.541  58.572  50.349  0.00  0.00    +0.000 C 
ATOM     33  C   UNL     1     -14.433  56.842  51.986  0.00  0.00    +0.000 C 
ATOM     34  C   UNL     1     -14.962  59.435  51.279  0.00  0.00    +0.000 C 
ATOM     35  C   UNL     1     -14.911  57.801  53.036  0.00  0.00    +0.000 C 
ATOM     36  O   UNL     1     -15.168  59.147  52.600  0.00  0.00    +0.000 OA
ENDBRANCH  30  31
ENDBRANCH  28  30
ENDBRANCH   5  28
TORSDOF 5
ENDMDL
