MODEL 1
REMARK VINA RESULT:      -8.3      0.000      0.000
REMARK  Name = 
REMARK  5 active torsions:
REMARK  status: ('A' for Active; 'I' for Inactive)
REMARK    1  A    between atoms: C_6  and  C_10
REMARK    2  A    between atoms: C_14  and  O_18
REMARK    3  A    between atoms: N_17  and  N_20
REMARK    4  A    between atoms: N_20  and  C_23
REMARK    5  A    between atoms: C_23  and  C_26
REMARK                            x       y       z     vdW  Elec       q    Type
REMARK                         _______ _______ _______ _____ _____    ______ ____
ROOT
ATOM      1  C   UNL     1     -11.336  53.913  51.561  0.00  0.00    +0.000 A 
ATOM      2  C   UNL     1     -10.383  54.078  52.694  0.00  0.00    +0.000 A 
ATOM      3  C   UNL     1     -11.492  52.720  50.964  0.00  0.00    +0.000 A 
ATOM      4  O   UNL     1     -10.282  55.205  53.189  0.00  0.00    +0.000 OA
ATOM      5  N   UNL     1      -9.688  52.950  53.142  0.00  0.00    +0.000 N 
ATOM      6  C   UNL     1     -10.742  51.549  51.436  0.00  0.00    +0.000 A 
ATOM      7  C   UNL     1      -9.846  51.677  52.513  0.00  0.00    +0.000 A 
ATOM      8  C   UNL     1     -10.925  50.293  50.831  0.00  0.00    +0.000 A 
ATOM      9  C   UNL     1      -9.140  50.544  52.949  0.00  0.00    +0.000 A 
ATOM     10  C   UNL     1     -10.236  49.173  51.288  0.00  0.00    +0.000 A 
ATOM     11  C   UNL     1      -9.340  49.300  52.343  0.00  0.00    +0.000 A 
ENDROOT
BRANCH   1  17
ATOM     12  S   UNL     1     -12.874  56.798  49.383  0.00  0.00    +0.000 S 
ATOM     13  O   UNL     1     -13.894  56.318  48.470  0.00  0.00    +0.000 OA
ATOM     14  O   UNL     1     -11.912  57.789  48.941  0.00  0.00    +0.000 OA
ATOM     15  N   UNL     1     -12.052  55.512  49.925  0.00  0.00    +0.000 N 
ATOM     16  C   UNL     1     -13.728  57.521  50.731  0.00  0.00    +0.000 A 
ATOM     17  C   UNL     1     -12.183  55.099  51.149  0.00  0.00    +0.000 C 
ATOM     18  C   UNL     1     -13.693  56.861  51.950  0.00  0.00    +0.000 A 
ATOM     19  C   UNL     1     -14.409  58.728  50.564  0.00  0.00    +0.000 A 
ATOM     20  N   UNL     1     -13.024  55.649  52.096  0.00  0.00    +0.000 N 
ATOM     21  C   UNL     1     -14.420  57.402  53.016  0.00  0.00    +0.000 A 
ATOM     22  C   UNL     1     -15.098  59.273  51.643  0.00  0.00    +0.000 A 
ATOM     23  C   UNL     1     -15.112  58.606  52.867  0.00  0.00    +0.000 A 
ATOM     24  H   UNL     1     -11.444  55.034  49.316  0.00  0.00    +0.000 HD
ATOM     25  H   UNL     1     -13.160  55.149  52.933  0.00  0.00    +0.000 HD
ENDBRANCH   1  17
BRANCH   3  26
ATOM     26  O   UNL     1     -12.361  52.479  49.914  0.00  0.00    +0.000 OA
ATOM     27  H   UNL     1     -12.908  53.167  49.590  0.00  0.00    +0.000 HD
ENDBRANCH   3  26
BRANCH   5  28
ATOM     28  N   UNL     1      -8.735  53.062  54.220  0.00  0.00    +0.000 N 
ATOM     29  H   UNL     1      -8.970  52.896  55.162  0.00  0.00    +0.000 HD
BRANCH  28  30
ATOM     30  C   UNL     1      -7.385  53.445  53.791  0.00  0.00    +0.000 C 
BRANCH  30  31
ATOM     31  C   UNL     1      -6.986  54.746  54.415  0.00  0.00    +0.000 C 
ATOM     32  C   UNL     1      -6.771  56.001  53.613  0.00  0.00    +0.000 C 
ATOM     33  C   UNL     1      -5.589  55.269  54.184  0.00  0.00    +0.000 C 
ENDBRANCH  30  31
ENDBRANCH  28  30
ENDBRANCH   5  28
TORSDOF 5
ENDMDL
MODEL 2
REMARK VINA RESULT:      -8.2      2.214      2.813
REMARK  Name = 
REMARK  5 active torsions:
REMARK  status: ('A' for Active; 'I' for Inactive)
REMARK    1  A    between atoms: C_6  and  C_10
REMARK    2  A    between atoms: C_14  and  O_18
REMARK    3  A    between atoms: N_17  and  N_20
REMARK    4  A    between atoms: N_20  and  C_23
REMARK    5  A    between atoms: C_23  and  C_26
REMARK                            x       y       z     vdW  Elec       q    Type
REMARK                         _______ _______ _______ _____ _____    ______ ____
ROOT
ATOM      1  C   UNL     1     -10.088  54.534  52.165  0.00  0.00    +0.000 A 
ATOM      2  C   UNL     1      -8.728  55.103  51.953  0.00  0.00    +0.000 A 
ATOM      3  C   UNL     1     -10.265  53.444  52.929  0.00  0.00    +0.000 A 
ATOM      4  O   UNL     1      -8.637  56.100  51.229  0.00  0.00    +0.000 OA
ATOM      5  N   UNL     1      -7.649  54.496  52.603  0.00  0.00    +0.000 N 
ATOM      6  C   UNL     1      -9.118  52.808  53.592  0.00  0.00    +0.000 A 
ATOM      7  C   UNL     1      -7.826  53.335  53.418  0.00  0.00    +0.000 A 
ATOM      8  C   UNL     1      -9.305  51.684  54.416  0.00  0.00    +0.000 A 
ATOM      9  C   UNL     1      -6.745  52.712  54.062  0.00  0.00    +0.000 A 
ATOM     10  C   UNL     1      -8.228  51.089  55.067  0.00  0.00    +0.000 A 
ATOM     11  C   UNL     1      -6.948  51.600  54.886  0.00  0.00    +0.000 A 
ENDROOT
BRANCH   1  17
ATOM     12  S   UNL     1     -12.574  56.023  49.512  0.00  0.00    +0.000 S 
ATOM     13  O   UNL     1     -13.476  55.022  48.977  0.00  0.00    +0.000 OA
ATOM     14  O   UNL     1     -11.984  57.014  48.632  0.00  0.00    +0.000 OA
ATOM     15  N   UNL     1     -11.370  55.248  50.269  0.00  0.00    +0.000 N 
ATOM     16  C   UNL     1     -13.494  56.921  50.703  0.00  0.00    +0.000 A 
ATOM     17  C   UNL     1     -11.276  55.257  51.563  0.00  0.00    +0.000 C 
ATOM     18  C   UNL     1     -13.169  56.744  52.039  0.00  0.00    +0.000 A 
ATOM     19  C   UNL     1     -14.510  57.786  50.298  0.00  0.00    +0.000 A 
ATOM     20  N   UNL     1     -12.164  55.864  52.429  0.00  0.00    +0.000 N 
ATOM     21  C   UNL     1     -13.937  57.413  52.999  0.00  0.00    +0.000 A 
ATOM     22  C   UNL     1     -15.242  58.472  51.261  0.00  0.00    +0.000 A 
ATOM     23  C   UNL     1     -14.963  58.279  52.614  0.00  0.00    +0.000 A 
ATOM     24  H   UNL     1     -10.698  54.762  49.738  0.00  0.00    +0.000 HD
ATOM     25  H   UNL     1     -12.080  55.660  53.389  0.00  0.00    +0.000 HD
ENDBRANCH   1  17
BRANCH   3  26
ATOM     26  O   UNL     1     -11.492  52.859  53.185  0.00  0.00    +0.000 OA
ATOM     27  H   UNL     1     -11.935  52.383  52.510  0.00  0.00    +0.000 HD
ENDBRANCH   3  26
BRANCH   5  28
ATOM     28  N   UNL     1      -6.308  54.993  52.412  0.00  0.00    +0.000 N 
ATOM     29  H   UNL     1      -5.943  55.757  52.914  0.00  0.00    +0.000 HD
BRANCH  28  30
ATOM     30  C   UNL     1      -5.534  54.261  51.402  0.00  0.00    +0.000 C 
BRANCH  30  31
ATOM     31  C   UNL     1      -5.519  55.013  50.107  0.00  0.00    +0.000 C 
ATOM     32  C   UNL     1      -6.285  54.558  48.894  0.00  0.00    +0.000 C 
ATOM     33  C   UNL     1      -4.788  54.419  48.927  0.00  0.00    +0.000 C 
ENDBRANCH  30  31
ENDBRANCH  28  30
ENDBRANCH   5  28
TORSDOF 5
ENDMDL
MODEL 3
REMARK VINA RESULT:      -8.1      3.978      4.870
REMARK  Name = 
REMARK  5 active torsions:
REMARK  status: ('A' for Active; 'I' for Inactive)
REMARK    1  A    between atoms: C_6  and  C_10
REMARK    2  A    between atoms: C_14  and  O_18
REMARK    3  A    between atoms: N_17  and  N_20
REMARK    4  A    between atoms: N_20  and  C_23
REMARK    5  A    between atoms: C_23  and  C_26
REMARK                            x       y       z     vdW  Elec       q    Type
REMARK                         _______ _______ _______ _____ _____    ______ ____
ROOT
ATOM      1  C   UNL     1     -10.669  55.648  48.160  0.00  0.00    +0.000 A 
ATOM      2  C   UNL     1      -9.208  55.758  48.429  0.00  0.00    +0.000 A 
ATOM      3  C   UNL     1     -11.120  54.984  47.083  0.00  0.00    +0.000 A 
ATOM      4  O   UNL     1      -8.863  56.392  49.431  0.00  0.00    +0.000 OA
ATOM      5  N   UNL     1      -8.325  55.118  47.554  0.00  0.00    +0.000 N 
ATOM      6  C   UNL     1     -10.178  54.331  46.164  0.00  0.00    +0.000 A 
ATOM      7  C   UNL     1      -8.794  54.409  46.404  0.00  0.00    +0.000 A 
ATOM      8  C   UNL     1     -10.650  53.611  45.053  0.00  0.00    +0.000 A 
ATOM      9  C   UNL     1      -7.913  53.777  45.514  0.00  0.00    +0.000 A 
ATOM     10  C   UNL     1      -9.766  52.969  44.190  0.00  0.00    +0.000 A 
ATOM     11  C   UNL     1      -8.397  53.056  44.418  0.00  0.00    +0.000 A 
ENDROOT
BRANCH   1  17
ATOM     12  S   UNL     1     -13.067  55.961  51.256  0.00  0.00    +0.000 S 
ATOM     13  O   UNL     1     -12.344  56.163  52.497  0.00  0.00    +0.000 OA
ATOM     14  O   UNL     1     -14.210  55.069  51.217  0.00  0.00    +0.000 OA
ATOM     15  N   UNL     1     -12.004  55.459  50.142  0.00  0.00    +0.000 N 
ATOM     16  C   UNL     1     -13.669  57.537  50.780  0.00  0.00    +0.000 A 
ATOM     17  C   UNL     1     -11.636  56.233  49.168  0.00  0.00    +0.000 C 
ATOM     18  C   UNL     1     -13.091  58.144  49.675  0.00  0.00    +0.000 A 
ATOM     19  C   UNL     1     -14.701  58.140  51.499  0.00  0.00    +0.000 A 
ATOM     20  N   UNL     1     -12.050  57.537  48.979  0.00  0.00    +0.000 N 
ATOM     21  C   UNL     1     -13.526  59.426  49.324  0.00  0.00    +0.000 A 
ATOM     22  C   UNL     1     -15.148  59.400  51.116  0.00  0.00    +0.000 A 
ATOM     23  C   UNL     1     -14.554  60.049  50.035  0.00  0.00    +0.000 A 
ATOM     24  H   UNL     1     -11.630  54.550  50.205  0.00  0.00    +0.000 HD
ATOM     25  H   UNL     1     -11.575  58.075  48.305  0.00  0.00    +0.000 HD
ENDBRANCH   1  17
BRANCH   3  26
ATOM     26  O   UNL     1     -12.458  54.826  46.766  0.00  0.00    +0.000 OA
ATOM     27  H   UNL     1     -12.915  55.504  46.308  0.00  0.00    +0.000 HD
ENDBRANCH   3  26
BRANCH   5  28
ATOM     28  N   UNL     1      -6.899  55.214  47.756  0.00  0.00    +0.000 N 
ATOM     29  H   UNL     1      -6.338  55.883  47.300  0.00  0.00    +0.000 HD
BRANCH  28  30
ATOM     30  C   UNL     1      -6.358  54.229  48.699  0.00  0.00    +0.000 C 
BRANCH  30  31
ATOM     31  C   UNL     1      -5.642  54.917  49.821  0.00  0.00    +0.000 C 
ATOM     32  C   UNL     1      -4.765  54.182  50.798  0.00  0.00    +0.000 C 
ATOM     33  C   UNL     1      -6.112  54.684  51.237  0.00  0.00    +0.000 C 
ENDBRANCH  30  31
ENDBRANCH  28  30
ENDBRANCH   5  28
TORSDOF 5
ENDMDL
MODEL 4
REMARK VINA RESULT:      -8.1      2.917      7.343
REMARK  Name = 
REMARK  5 active torsions:
REMARK  status: ('A' for Active; 'I' for Inactive)
REMARK    1  A    between atoms: C_6  and  C_10
REMARK    2  A    between atoms: C_14  and  O_18
REMARK    3  A    between atoms: N_17  and  N_20
REMARK    4  A    between atoms: N_20  and  C_23
REMARK    5  A    between atoms: C_23  and  C_26
REMARK                            x       y       z     vdW  Elec       q    Type
REMARK                         _______ _______ _______ _____ _____    ______ ____
ROOT
ATOM      1  C   UNL     1     -10.478  54.899  50.520  0.00  0.00    +0.000 A 
ATOM      2  C   UNL     1     -11.608  55.091  51.472  0.00  0.00    +0.000 A 
ATOM      3  C   UNL     1     -10.606  55.239  49.227  0.00  0.00    +0.000 A 
ATOM      4  O   UNL     1     -11.425  54.746  52.644  0.00  0.00    +0.000 OA
ATOM      5  N   UNL     1     -12.786  55.671  50.991  0.00  0.00    +0.000 N 
ATOM      6  C   UNL     1     -11.856  55.831  48.734  0.00  0.00    +0.000 A 
ATOM      7  C   UNL     1     -12.932  56.036  49.617  0.00  0.00    +0.000 A 
ATOM      8  C   UNL     1     -11.981  56.215  47.387  0.00  0.00    +0.000 A 
ATOM      9  C   UNL     1     -14.117  56.605  49.125  0.00  0.00    +0.000 A 
ATOM     10  C   UNL     1     -13.154  56.799  46.917  0.00  0.00    +0.000 A 
ATOM     11  C   UNL     1     -14.224  56.990  47.785  0.00  0.00    +0.000 A 
ENDROOT
BRANCH   1  17
ATOM     12  S   UNL     1      -7.256  52.696  50.965  0.00  0.00    +0.000 S 
ATOM     13  O   UNL     1      -6.229  53.018  49.994  0.00  0.00    +0.000 OA
ATOM     14  O   UNL     1      -7.523  51.312  51.309  0.00  0.00    +0.000 OA
ATOM     15  N   UNL     1      -8.643  53.359  50.453  0.00  0.00    +0.000 N 
ATOM     16  C   UNL     1      -6.781  53.482  52.457  0.00  0.00    +0.000 A 
ATOM     17  C   UNL     1      -9.158  54.385  51.057  0.00  0.00    +0.000 C 
ATOM     18  C   UNL     1      -7.528  54.570  52.882  0.00  0.00    +0.000 A 
ATOM     19  C   UNL     1      -5.687  53.008  53.182  0.00  0.00    +0.000 A 
ATOM     20  N   UNL     1      -8.605  55.042  52.139  0.00  0.00    +0.000 N 
ATOM     21  C   UNL     1      -7.120  55.239  54.041  0.00  0.00    +0.000 A 
ATOM     22  C   UNL     1      -5.314  53.661  54.352  0.00  0.00    +0.000 A 
ATOM     23  C   UNL     1      -6.024  54.783  54.778  0.00  0.00    +0.000 A 
ATOM     24  H   UNL     1      -9.102  52.976  49.671  0.00  0.00    +0.000 HD
ATOM     25  H   UNL     1      -9.001  55.905  52.402  0.00  0.00    +0.000 HD
ENDBRANCH   1  17
BRANCH   3  26
ATOM     26  O   UNL     1      -9.605  55.103  48.281  0.00  0.00    +0.000 OA
ATOM     27  H   UNL     1      -8.712  55.023  48.551  0.00  0.00    +0.000 HD
ENDBRANCH   3  26
BRANCH   5  28
ATOM     28  N   UNL     1     -13.918  55.856  51.867  0.00  0.00    +0.000 N 
ATOM     29  H   UNL     1     -14.649  55.201  51.943  0.00  0.00    +0.000 HD
BRANCH  28  30
ATOM     30  C   UNL     1     -13.885  57.106  52.636  0.00  0.00    +0.000 C 
BRANCH  30  31
ATOM     31  C   UNL     1     -15.097  57.934  52.342  0.00  0.00    +0.000 C 
ATOM     32  C   UNL     1     -15.030  59.234  51.587  0.00  0.00    +0.000 C 
ATOM     33  C   UNL     1     -15.279  59.244  53.069  0.00  0.00    +0.000 C 
ENDBRANCH  30  31
ENDBRANCH  28  30
ENDBRANCH   5  28
TORSDOF 5
ENDMDL
MODEL 5
REMARK VINA RESULT:      -8.0      3.425      7.624
REMARK  Name = 
REMARK  5 active torsions:
REMARK  status: ('A' for Active; 'I' for Inactive)
REMARK    1  A    between atoms: C_6  and  C_10
REMARK    2  A    between atoms: C_14  and  O_18
REMARK    3  A    between atoms: N_17  and  N_20
REMARK    4  A    between atoms: N_20  and  C_23
REMARK    5  A    between atoms: C_23  and  C_26
REMARK                            x       y       z     vdW  Elec       q    Type
REMARK                         _______ _______ _______ _____ _____    ______ ____
ROOT
ATOM      1  C   UNL     1     -10.193  55.259  50.702  0.00  0.00    +0.000 A 
ATOM      2  C   UNL     1      -9.759  55.177  49.279  0.00  0.00    +0.000 A 
ATOM      3  C   UNL     1     -11.411  55.725  51.022  0.00  0.00    +0.000 A 
ATOM      4  O   UNL     1      -8.621  54.749  49.058  0.00  0.00    +0.000 OA
ATOM      5  N   UNL     1     -10.668  55.560  48.288  0.00  0.00    +0.000 N 
ATOM      6  C   UNL     1     -12.349  56.139  49.969  0.00  0.00    +0.000 A 
ATOM      7  C   UNL     1     -11.967  56.058  48.618  0.00  0.00    +0.000 A 
ATOM      8  C   UNL     1     -13.635  56.600  50.301  0.00  0.00    +0.000 A 
ATOM      9  C   UNL     1     -12.879  56.458  47.629  0.00  0.00    +0.000 A 
ATOM     10  C   UNL     1     -14.538  56.972  49.309  0.00  0.00    +0.000 A 
ATOM     11  C   UNL     1     -14.158  56.905  47.973  0.00  0.00    +0.000 A 
ENDROOT
BRANCH   1  17
ATOM     12  S   UNL     1      -7.033  54.851  53.001  0.00  0.00    +0.000 S 
ATOM     13  O   UNL     1      -7.004  55.823  54.077  0.00  0.00    +0.000 OA
ATOM     14  O   UNL     1      -5.815  54.521  52.287  0.00  0.00    +0.000 OA
ATOM     15  N   UNL     1      -8.128  55.350  51.916  0.00  0.00    +0.000 N 
ATOM     16  C   UNL     1      -7.598  53.352  53.713  0.00  0.00    +0.000 A 
ATOM     17  C   UNL     1      -9.261  54.733  51.774  0.00  0.00    +0.000 C 
ATOM     18  C   UNL     1      -8.868  52.912  53.373  0.00  0.00    +0.000 A 
ATOM     19  C   UNL     1      -6.778  52.637  54.585  0.00  0.00    +0.000 A 
ATOM     20  N   UNL     1      -9.682  53.646  52.515  0.00  0.00    +0.000 N 
ATOM     21  C   UNL     1      -9.349  51.747  53.981  0.00  0.00    +0.000 A 
ATOM     22  C   UNL     1      -7.254  51.461  55.155  0.00  0.00    +0.000 A 
ATOM     23  C   UNL     1      -8.544  51.020  54.861  0.00  0.00    +0.000 A 
ATOM     24  H   UNL     1      -7.931  56.134  51.355  0.00  0.00    +0.000 HD
ATOM     25  H   UNL     1     -10.624  53.372  52.431  0.00  0.00    +0.000 HD
ENDBRANCH   1  17
BRANCH   3  26
ATOM     26  O   UNL     1     -11.895  55.824  52.314  0.00  0.00    +0.000 OA
ATOM     27  H   UNL     1     -12.477  56.521  52.545  0.00  0.00    +0.000 HD
ENDBRANCH   3  26
BRANCH   5  28
ATOM     28  N   UNL     1     -10.288  55.523  46.896  0.00  0.00    +0.000 N 
ATOM     29  H   UNL     1     -10.118  56.335  46.366  0.00  0.00    +0.000 HD
BRANCH  28  30
ATOM     30  C   UNL     1     -10.177  54.170  46.339  0.00  0.00    +0.000 C 
BRANCH  30  31
ATOM     31  C   UNL     1     -11.253  53.932  45.324  0.00  0.00    +0.000 C 
ATOM     32  C   UNL     1     -12.008  52.634  45.229  0.00  0.00    +0.000 C 
ATOM     33  C   UNL     1     -10.982  52.979  44.186  0.00  0.00    +0.000 C 
ENDBRANCH  30  31
ENDBRANCH  28  30
ENDBRANCH   5  28
TORSDOF 5
ENDMDL
MODEL 6
REMARK VINA RESULT:      -7.8      3.354      7.681
REMARK  Name = 
REMARK  5 active torsions:
REMARK  status: ('A' for Active; 'I' for Inactive)
REMARK    1  A    between atoms: C_6  and  C_10
REMARK    2  A    between atoms: C_14  and  O_18
REMARK    3  A    between atoms: N_17  and  N_20
REMARK    4  A    between atoms: N_20  and  C_23
REMARK    5  A    between atoms: C_23  and  C_26
REMARK                            x       y       z     vdW  Elec       q    Type
REMARK                         _______ _______ _______ _____ _____    ______ ____
ROOT
ATOM      1  C   UNL     1      -9.574  55.098  50.899  0.00  0.00    +0.000 A 
ATOM      2  C   UNL     1     -10.814  55.250  51.711  0.00  0.00    +0.000 A 
ATOM      3  C   UNL     1      -9.608  55.228  49.563  0.00  0.00    +0.000 A 
ATOM      4  O   UNL     1     -10.712  55.106  52.933  0.00  0.00    +0.000 OA
ATOM      5  N   UNL     1     -12.002  55.573  51.047  0.00  0.00    +0.000 N 
ATOM      6  C   UNL     1     -10.868  55.551  48.879  0.00  0.00    +0.000 A 
ATOM      7  C   UNL     1     -12.049  55.714  49.625  0.00  0.00    +0.000 A 
ATOM      8  C   UNL     1     -10.899  55.718  47.484  0.00  0.00    +0.000 A 
ATOM      9  C   UNL     1     -13.241  56.023  48.952  0.00  0.00    +0.000 A 
ATOM     10  C   UNL     1     -12.084  56.047  46.830  0.00  0.00    +0.000 A 
ATOM     11  C   UNL     1     -13.255  56.195  47.564  0.00  0.00    +0.000 A 
ENDROOT
BRANCH   1  17
ATOM     12  S   UNL     1      -6.707  55.380  53.570  0.00  0.00    +0.000 S 
ATOM     13  O   UNL     1      -6.988  54.609  54.766  0.00  0.00    +0.000 OA
ATOM     14  O   UNL     1      -6.122  56.703  53.679  0.00  0.00    +0.000 OA
ATOM     15  N   UNL     1      -8.088  55.513  52.733  0.00  0.00    +0.000 N 
ATOM     16  C   UNL     1      -5.576  54.427  52.631  0.00  0.00    +0.000 A 
ATOM     17  C   UNL     1      -8.262  54.869  51.620  0.00  0.00    +0.000 C 
ATOM     18  C   UNL     1      -6.035  53.850  51.456  0.00  0.00    +0.000 A 
ATOM     19  C   UNL     1      -4.259  54.273  53.064  0.00  0.00    +0.000 A 
ATOM     20  N   UNL     1      -7.356  53.999  51.046  0.00  0.00    +0.000 N 
ATOM     21  C   UNL     1      -5.154  53.041  50.730  0.00  0.00    +0.000 A 
ATOM     22  C   UNL     1      -3.384  53.494  52.314  0.00  0.00    +0.000 A 
ATOM     23  C   UNL     1      -3.833  52.869  51.151  0.00  0.00    +0.000 A 
ATOM     24  H   UNL     1      -8.807  56.092  53.075  0.00  0.00    +0.000 HD
ATOM     25  H   UNL     1      -7.668  53.444  50.294  0.00  0.00    +0.000 HD
ENDBRANCH   1  17
BRANCH   3  26
ATOM     26  O   UNL     1      -8.503  55.112  48.738  0.00  0.00    +0.000 OA
ATOM     27  H   UNL     1      -7.931  54.375  48.821  0.00  0.00    +0.000 HD
ENDBRANCH   3  26
BRANCH   5  28
ATOM     28  N   UNL     1     -13.236  55.708  51.784  0.00  0.00    +0.000 N 
ATOM     29  H   UNL     1     -13.928  55.007  51.801  0.00  0.00    +0.000 HD
BRANCH  28  30
ATOM     30  C   UNL     1     -13.369  56.979  52.505  0.00  0.00    +0.000 C 
BRANCH  30  31
ATOM     31  C   UNL     1     -14.672  57.637  52.168  0.00  0.00    +0.000 C 
ATOM     32  C   UNL     1     -14.778  59.093  51.805  0.00  0.00    +0.000 C 
ATOM     33  C   UNL     1     -15.266  58.622  53.146  0.00  0.00    +0.000 C 
ENDBRANCH  30  31
ENDBRANCH  28  30
ENDBRANCH   5  28
TORSDOF 5
ENDMDL
MODEL 7
REMARK VINA RESULT:      -7.8      3.459      4.226
REMARK  Name = 
REMARK  5 active torsions:
REMARK  status: ('A' for Active; 'I' for Inactive)
REMARK    1  A    between atoms: C_6  and  C_10
REMARK    2  A    between atoms: C_14  and  O_18
REMARK    3  A    between atoms: N_17  and  N_20
REMARK    4  A    between atoms: N_20  and  C_23
REMARK    5  A    between atoms: C_23  and  C_26
REMARK                            x       y       z     vdW  Elec       q    Type
REMARK                         _______ _______ _______ _____ _____    ______ ____
ROOT
ATOM      1  C   UNL     1     -11.561  56.003  48.767  0.00  0.00    +0.000 A 
ATOM      2  C   UNL     1     -10.506  55.378  49.612  0.00  0.00    +0.000 A 
ATOM      3  C   UNL     1     -11.706  55.652  47.479  0.00  0.00    +0.000 A 
ATOM      4  O   UNL     1     -10.422  55.757  50.785  0.00  0.00    +0.000 OA
ATOM      5  N   UNL     1      -9.701  54.389  49.039  0.00  0.00    +0.000 N 
ATOM      6  C   UNL     1     -10.840  54.623  46.887  0.00  0.00    +0.000 A 
ATOM      7  C   UNL     1      -9.846  54.007  47.669  0.00  0.00    +0.000 A 
ATOM      8  C   UNL     1     -11.010  54.232  45.547  0.00  0.00    +0.000 A 
ATOM      9  C   UNL     1      -9.031  53.026  47.084  0.00  0.00    +0.000 A 
ATOM     10  C   UNL     1     -10.210  53.241  44.985  0.00  0.00    +0.000 A 
ATOM     11  C   UNL     1      -9.218  52.641  45.753  0.00  0.00    +0.000 A 
ENDROOT
BRANCH   1  17
ATOM     12  S   UNL     1     -13.576  59.301  49.476  0.00  0.00    +0.000 S 
ATOM     13  O   UNL     1     -14.718  59.450  48.594  0.00  0.00    +0.000 OA
ATOM     14  O   UNL     1     -12.749  60.448  49.795  0.00  0.00    +0.000 OA
ATOM     15  N   UNL     1     -12.618  58.153  48.851  0.00  0.00    +0.000 N 
ATOM     16  C   UNL     1     -14.213  58.723  51.003  0.00  0.00    +0.000 A 
ATOM     17  C   UNL     1     -12.516  56.987  49.411  0.00  0.00    +0.000 C 
ATOM     18  C   UNL     1     -13.938  57.414  51.366  0.00  0.00    +0.000 A 
ATOM     19  C   UNL     1     -14.964  59.573  51.816  0.00  0.00    +0.000 A 
ATOM     20  N   UNL     1     -13.203  56.573  50.536  0.00  0.00    +0.000 N 
ATOM     21  C   UNL     1     -14.491  56.928  52.556  0.00  0.00    +0.000 A 
ATOM     22  C   UNL     1     -15.477  59.088  53.014  0.00  0.00    +0.000 A 
ATOM     23  C   UNL     1     -15.250  57.762  53.381  0.00  0.00    +0.000 A 
ATOM     24  H   UNL     1     -12.105  58.344  48.033  0.00  0.00    +0.000 HD
ATOM     25  H   UNL     1     -13.169  55.616  50.766  0.00  0.00    +0.000 HD
ENDBRANCH   1  17
BRANCH   3  26
ATOM     26  O   UNL     1     -12.664  56.175  46.629  0.00  0.00    +0.000 OA
ATOM     27  H   UNL     1     -12.432  56.422  45.755  0.00  0.00    +0.000 HD
ENDBRANCH   3  26
BRANCH   5  28
ATOM     28  N   UNL     1      -8.648  53.769  49.808  0.00  0.00    +0.000 N 
ATOM     29  H   UNL     1      -8.635  52.808  50.020  0.00  0.00    +0.000 HD
BRANCH  28  30
ATOM     30  C   UNL     1      -7.599  54.697  50.247  0.00  0.00    +0.000 C 
BRANCH  30  31
ATOM     31  C   UNL     1      -6.706  55.058  49.100  0.00  0.00    +0.000 C 
ATOM     32  C   UNL     1      -5.770  54.072  48.456  0.00  0.00    +0.000 C 
ATOM     33  C   UNL     1      -5.219  55.159  49.337  0.00  0.00    +0.000 C 
ENDBRANCH  30  31
ENDBRANCH  28  30
ENDBRANCH   5  28
TORSDOF 5
ENDMDL
MODEL 8
REMARK VINA RESULT:      -7.7      3.085      7.348
REMARK  Name = 
REMARK  5 active torsions:
REMARK  status: ('A' for Active; 'I' for Inactive)
REMARK    1  A    between atoms: C_6  and  C_10
REMARK    2  A    between atoms: C_14  and  O_18
REMARK    3  A    between atoms: N_17  and  N_20
REMARK    4  A    between atoms: N_20  and  C_23
REMARK    5  A    between atoms: C_23  and  C_26
REMARK                            x       y       z     vdW  Elec       q    Type
REMARK                         _______ _______ _______ _____ _____    ______ ____
ROOT
ATOM      1  C   UNL     1      -9.847  54.322  50.943  0.00  0.00    +0.000 A 
ATOM      2  C   UNL     1     -10.969  55.235  51.301  0.00  0.00    +0.000 A 
ATOM      3  C   UNL     1      -9.605  54.003  49.662  0.00  0.00    +0.000 A 
ATOM      4  O   UNL     1     -11.141  55.477  52.500  0.00  0.00    +0.000 OA
ATOM      5  N   UNL     1     -11.733  55.780  50.265  0.00  0.00    +0.000 N 
ATOM      6  C   UNL     1     -10.428  54.571  48.585  0.00  0.00    +0.000 A 
ATOM      7  C   UNL     1     -11.484  55.447  48.897  0.00  0.00    +0.000 A 
ATOM      8  C   UNL     1     -10.157  54.262  47.241  0.00  0.00    +0.000 A 
ATOM      9  C   UNL     1     -12.257  55.979  47.854  0.00  0.00    +0.000 A 
ATOM     10  C   UNL     1     -10.917  54.815  46.214  0.00  0.00    +0.000 A 
ATOM     11  C   UNL     1     -11.970  55.669  46.521  0.00  0.00    +0.000 A 
ENDROOT
BRANCH   1  17
ATOM     12  S   UNL     1      -6.648  53.781  53.158  0.00  0.00    +0.000 S 
ATOM     13  O   UNL     1      -6.413  54.885  54.069  0.00  0.00    +0.000 OA
ATOM     14  O   UNL     1      -5.536  53.166  52.459  0.00  0.00    +0.000 OA
ATOM     15  N   UNL     1      -7.722  54.275  52.051  0.00  0.00    +0.000 N 
ATOM     16  C   UNL     1      -7.381  52.508  54.115  0.00  0.00    +0.000 A 
ATOM     17  C   UNL     1      -8.939  53.824  52.048  0.00  0.00    +0.000 C 
ATOM     18  C   UNL     1      -8.720  52.222  53.895  0.00  0.00    +0.000 A 
ATOM     19  C   UNL     1      -6.622  51.813  55.056  0.00  0.00    +0.000 A 
ATOM     20  N   UNL     1      -9.468  52.937  52.965  0.00  0.00    +0.000 N 
ATOM     21  C   UNL     1      -9.327  51.248  54.694  0.00  0.00    +0.000 A 
ATOM     22  C   UNL     1      -7.229  50.821  55.819  0.00  0.00    +0.000 A 
ATOM     23  C   UNL     1      -8.585  50.544  55.646  0.00  0.00    +0.000 A 
ATOM     24  H   UNL     1      -7.446  54.929  51.368  0.00  0.00    +0.000 HD
ATOM     25  H   UNL     1     -10.444  52.801  52.959  0.00  0.00    +0.000 HD
ENDBRANCH   1  17
BRANCH   3  26
ATOM     26  O   UNL     1      -8.580  53.173  49.243  0.00  0.00    +0.000 OA
ATOM     27  H   UNL     1      -8.764  52.290  48.991  0.00  0.00    +0.000 HD
ENDBRANCH   3  26
BRANCH   5  28
ATOM     28  N   UNL     1     -12.847  56.650  50.560  0.00  0.00    +0.000 N 
ATOM     29  H   UNL     1     -12.795  57.630  50.480  0.00  0.00    +0.000 HD
BRANCH  28  30
ATOM     30  C   UNL     1     -14.061  55.947  50.988  0.00  0.00    +0.000 C 
BRANCH  30  31
ATOM     31  C   UNL     1     -15.144  56.928  51.319  0.00  0.00    +0.000 C 
ATOM     32  C   UNL     1     -14.891  58.186  52.104  0.00  0.00    +0.000 C 
ATOM     33  C   UNL     1     -15.616  57.038  52.749  0.00  0.00    +0.000 C 
ENDBRANCH  30  31
ENDBRANCH  28  30
ENDBRANCH   5  28
TORSDOF 5
ENDMDL
MODEL 9
REMARK VINA RESULT:      -7.6      4.577      8.074
REMARK  Name = 
REMARK  5 active torsions:
REMARK  status: ('A' for Active; 'I' for Inactive)
REMARK    1  A    between atoms: C_6  and  C_10
REMARK    2  A    between atoms: C_14  and  O_18
REMARK    3  A    between atoms: N_17  and  N_20
REMARK    4  A    between atoms: N_20  and  C_23
REMARK    5  A    between atoms: C_23  and  C_26
REMARK                            x       y       z     vdW  Elec       q    Type
REMARK                         _______ _______ _______ _____ _____    ______ ____
ROOT
ATOM      1  C   UNL     1     -10.926  54.972  48.032  0.00  0.00    +0.000 A 
ATOM      2  C   UNL     1     -12.170  55.686  47.630  0.00  0.00    +0.000 A 
ATOM      3  C   UNL     1     -10.576  54.876  49.325  0.00  0.00    +0.000 A 
ATOM      4  O   UNL     1     -12.423  55.746  46.423  0.00  0.00    +0.000 OA
ATOM      5  N   UNL     1     -12.981  56.216  48.638  0.00  0.00    +0.000 N 
ATOM      6  C   UNL     1     -11.432  55.453  50.371  0.00  0.00    +0.000 A 
ATOM      7  C   UNL     1     -12.619  56.121  50.018  0.00  0.00    +0.000 A 
ATOM      8  C   UNL     1     -11.084  55.328  51.727  0.00  0.00    +0.000 A 
ATOM      9  C   UNL     1     -13.422  56.664  51.033  0.00  0.00    +0.000 A 
ATOM     10  C   UNL     1     -11.900  55.852  52.726  0.00  0.00    +0.000 A 
ATOM     11  C   UNL     1     -13.067  56.523  52.378  0.00  0.00    +0.000 A 
ENDROOT
BRANCH   1  17
ATOM     12  S   UNL     1      -7.909  54.047  45.691  0.00  0.00    +0.000 S 
ATOM     13  O   UNL     1      -6.939  53.196  46.351  0.00  0.00    +0.000 OA
ATOM     14  O   UNL     1      -7.463  55.132  44.837  0.00  0.00    +0.000 OA
ATOM     15  N   UNL     1      -8.871  54.675  46.833  0.00  0.00    +0.000 N 
ATOM     16  C   UNL     1      -8.869  52.993  44.672  0.00  0.00    +0.000 A 
ATOM     17  C   UNL     1     -10.104  54.289  46.958  0.00  0.00    +0.000 C 
ATOM     18  C   UNL     1     -10.185  52.757  45.042  0.00  0.00    +0.000 A 
ATOM     19  C   UNL     1      -8.311  52.427  43.526  0.00  0.00    +0.000 A 
ATOM     20  N   UNL     1     -10.721  53.315  46.199  0.00  0.00    +0.000 N 
ATOM     21  C   UNL     1     -10.940  51.871  44.266  0.00  0.00    +0.000 A 
ATOM     22  C   UNL     1      -9.085  51.577  42.743  0.00  0.00    +0.000 A 
ATOM     23  C   UNL     1     -10.397  51.289  43.118  0.00  0.00    +0.000 A 
ATOM     24  H   UNL     1      -8.515  55.361  47.443  0.00  0.00    +0.000 HD
ATOM     25  H   UNL     1     -11.603  52.992  46.496  0.00  0.00    +0.000 HD
ENDBRANCH   1  17
BRANCH   3  26
ATOM     26  O   UNL     1      -9.446  54.223  49.784  0.00  0.00    +0.000 OA
ATOM     27  H   UNL     1      -8.644  54.694  49.894  0.00  0.00    +0.000 HD
ENDBRANCH   3  26
BRANCH   5  28
ATOM     28  N   UNL     1     -14.184  56.939  48.301  0.00  0.00    +0.000 N 
ATOM     29  H   UNL     1     -15.071  56.513  48.261  0.00  0.00    +0.000 HD
BRANCH  28  30
ATOM     30  C   UNL     1     -13.971  58.364  48.023  0.00  0.00    +0.000 C 
BRANCH  30  31
ATOM     31  C   UNL     1     -14.430  59.198  49.180  0.00  0.00    +0.000 C 
ATOM     32  C   UNL     1     -14.642  60.684  49.078  0.00  0.00    +0.000 C 
ATOM     33  C   UNL     1     -13.453  60.149  49.826  0.00  0.00    +0.000 C 
ENDBRANCH  30  31
ENDBRANCH  28  30
ENDBRANCH   5  28
TORSDOF 5
ENDMDL
