MODEL 1
REMARK VINA RESULT:      -8.3      0.000      0.000
REMARK  Name = 
REMARK  5 active torsions:
REMARK  status: ('A' for Active; 'I' for Inactive)
REMARK    1  A    between atoms: C_6  and  C_10
REMARK    2  A    between atoms: C_14  and  O_18
REMARK    3  A    between atoms: N_17  and  N_20
REMARK    4  A    between atoms: N_20  and  C_23
REMARK    5  A    between atoms: C_23  and  C_26
REMARK                            x       y       z     vdW  Elec       q    Type
REMARK                         _______ _______ _______ _____ _____    ______ ____
ROOT
ATOM      1  C   UNL     1     -11.401  55.950  48.940  0.00  0.00    +0.000 A 
ATOM      2  C   UNL     1     -10.394  55.322  49.848  0.00  0.00    +0.000 A 
ATOM      3  C   UNL     1     -11.458  55.597  47.645  0.00  0.00    +0.000 A 
ATOM      4  O   UNL     1     -10.381  55.690  51.027  0.00  0.00    +0.000 OA
ATOM      5  N   UNL     1      -9.558  54.331  49.325  0.00  0.00    +0.000 N 
ATOM      6  C   UNL     1     -10.555  54.568  47.105  0.00  0.00    +0.000 A 
ATOM      7  C   UNL     1      -9.610  53.956  47.949  0.00  0.00    +0.000 A 
ATOM      8  C   UNL     1     -10.636  54.182  45.758  0.00  0.00    +0.000 A 
ATOM      9  C   UNL     1      -8.751  52.981  47.416  0.00  0.00    +0.000 A 
ATOM     10  C   UNL     1      -9.791  53.197  45.245  0.00  0.00    +0.000 A 
ATOM     11  C   UNL     1      -8.845  52.602  46.074  0.00  0.00    +0.000 A 
ENDROOT
BRANCH   1  17
ATOM     12  S   UNL     1     -13.543  59.203  49.461  0.00  0.00    +0.000 S 
ATOM     13  O   UNL     1     -14.668  59.269  48.548  0.00  0.00    +0.000 OA
ATOM     14  O   UNL     1     -12.759  60.391  49.747  0.00  0.00    +0.000 OA
ATOM     15  N   UNL     1     -12.532  58.062  48.910  0.00  0.00    +0.000 N 
ATOM     16  C   UNL     1     -14.194  58.670  51.000  0.00  0.00    +0.000 A 
ATOM     17  C   UNL     1     -12.403  56.926  49.528  0.00  0.00    +0.000 C 
ATOM     18  C   UNL     1     -13.879  57.392  51.429  0.00  0.00    +0.000 A 
ATOM     19  C   UNL     1     -14.991  59.531  51.758  0.00  0.00    +0.000 A 
ATOM     20  N   UNL     1     -13.091  56.541  50.659  0.00  0.00    +0.000 N 
ATOM     21  C   UNL     1     -14.448  56.938  52.625  0.00  0.00    +0.000 A 
ATOM     22  C   UNL     1     -15.519  59.080  52.965  0.00  0.00    +0.000 A 
ATOM     23  C   UNL     1     -15.257  57.780  53.393  0.00  0.00    +0.000 A 
ATOM     24  H   UNL     1     -12.008  58.233  48.093  0.00  0.00    +0.000 HD
ATOM     25  H   UNL     1     -13.018  55.600  50.941  0.00  0.00    +0.000 HD
ENDBRANCH   1  17
BRANCH   3  26
ATOM     26  O   UNL     1     -12.359  56.119  46.734  0.00  0.00    +0.000 OA
ATOM     27  H   UNL     1     -12.522  57.042  46.711  0.00  0.00    +0.000 HD
ENDBRANCH   3  26
BRANCH   5  28
ATOM     28  N   UNL     1      -8.575  53.692  50.161  0.00  0.00    +0.000 N 
ATOM     29  H   UNL     1      -8.725  52.817  50.585  0.00  0.00    +0.000 HD
BRANCH  28  30
ATOM     30  C   UNL     1      -7.326  54.459  50.326  0.00  0.00    +0.000 C 
BRANCH  30  31
ATOM     31  C   UNL     1      -7.068  54.822  51.764  0.00  0.00    +0.000 A 
ATOM     32  S   UNL     1      -6.559  53.614  52.882  0.00  0.00    +0.000 S 
ATOM     33  N   UNL     1      -7.298  56.013  52.286  0.00  0.00    +0.000 NA
ATOM     34  C   UNL     1      -6.674  54.756  54.152  0.00  0.00    +0.000 A 
ATOM     35  C   UNL     1      -7.075  55.973  53.648  0.00  0.00    +0.000 A 
ENDBRANCH  30  31
ENDBRANCH  28  30
ENDBRANCH   5  28
TORSDOF 5
ENDMDL
MODEL 2
REMARK VINA RESULT:      -8.3      3.217      4.821
REMARK  Name = 
REMARK  5 active torsions:
REMARK  status: ('A' for Active; 'I' for Inactive)
REMARK    1  A    between atoms: C_6  and  C_10
REMARK    2  A    between atoms: C_14  and  O_18
REMARK    3  A    between atoms: N_17  and  N_20
REMARK    4  A    between atoms: N_20  and  C_23
REMARK    5  A    between atoms: C_23  and  C_26
REMARK                            x       y       z     vdW  Elec       q    Type
REMARK                         _______ _______ _______ _____ _____    ______ ____
ROOT
ATOM      1  C   UNL     1     -10.112  54.543  52.177  0.00  0.00    +0.000 A 
ATOM      2  C   UNL     1      -8.744  55.107  51.971  0.00  0.00    +0.000 A 
ATOM      3  C   UNL     1     -10.286  53.450  52.938  0.00  0.00    +0.000 A 
ATOM      4  O   UNL     1      -8.641  56.109  51.255  0.00  0.00    +0.000 OA
ATOM      5  N   UNL     1      -7.671  54.499  52.629  0.00  0.00    +0.000 N 
ATOM      6  C   UNL     1      -9.143  52.808  53.606  0.00  0.00    +0.000 A 
ATOM      7  C   UNL     1      -7.849  53.334  53.434  0.00  0.00    +0.000 A 
ATOM      8  C   UNL     1      -9.331  51.683  54.423  0.00  0.00    +0.000 A 
ATOM      9  C   UNL     1      -6.767  52.706  54.073  0.00  0.00    +0.000 A 
ATOM     10  C   UNL     1      -8.252  51.079  55.069  0.00  0.00    +0.000 A 
ATOM     11  C   UNL     1      -6.970  51.588  54.888  0.00  0.00    +0.000 A 
ENDROOT
BRANCH   1  17
ATOM     12  S   UNL     1     -12.592  56.042  49.522  0.00  0.00    +0.000 S 
ATOM     13  O   UNL     1     -13.491  55.040  48.987  0.00  0.00    +0.000 OA
ATOM     14  O   UNL     1     -11.995  57.035  48.647  0.00  0.00    +0.000 OA
ATOM     15  N   UNL     1     -11.389  55.265  50.282  0.00  0.00    +0.000 N 
ATOM     16  C   UNL     1     -13.513  56.939  50.715  0.00  0.00    +0.000 A 
ATOM     17  C   UNL     1     -11.299  55.275  51.579  0.00  0.00    +0.000 C 
ATOM     18  C   UNL     1     -13.189  56.764  52.050  0.00  0.00    +0.000 A 
ATOM     19  C   UNL     1     -14.528  57.807  50.306  0.00  0.00    +0.000 A 
ATOM     20  N   UNL     1     -12.180  55.888  52.443  0.00  0.00    +0.000 N 
ATOM     21  C   UNL     1     -13.964  57.427  53.010  0.00  0.00    +0.000 A 
ATOM     22  C   UNL     1     -15.265  58.490  51.270  0.00  0.00    +0.000 A 
ATOM     23  C   UNL     1     -14.990  58.291  52.622  0.00  0.00    +0.000 A 
ATOM     24  H   UNL     1     -10.716  54.778  49.752  0.00  0.00    +0.000 HD
ATOM     25  H   UNL     1     -12.090  55.694  53.405  0.00  0.00    +0.000 HD
ENDBRANCH   1  17
BRANCH   3  26
ATOM     26  O   UNL     1     -11.513  52.863  53.189  0.00  0.00    +0.000 OA
ATOM     27  H   UNL     1     -11.941  53.002  54.011  0.00  0.00    +0.000 HD
ENDBRANCH   3  26
BRANCH   5  28
ATOM     28  N   UNL     1      -6.334  55.008  52.467  0.00  0.00    +0.000 N 
ATOM     29  H   UNL     1      -5.856  55.488  53.181  0.00  0.00    +0.000 HD
BRANCH  28  30
ATOM     30  C   UNL     1      -5.742  54.750  51.141  0.00  0.00    +0.000 C 
BRANCH  30  31
ATOM     31  C   UNL     1      -4.913  53.493  51.123  0.00  0.00    +0.000 A 
ATOM     32  S   UNL     1      -5.550  52.049  50.436  0.00  0.00    +0.000 S 
ATOM     33  N   UNL     1      -3.730  53.372  51.697  0.00  0.00    +0.000 NA
ATOM     34  C   UNL     1      -4.158  51.199  50.959  0.00  0.00    +0.000 A 
ATOM     35  C   UNL     1      -3.302  52.062  51.604  0.00  0.00    +0.000 A 
ENDBRANCH  30  31
ENDBRANCH  28  30
ENDBRANCH   5  28
TORSDOF 5
ENDMDL
MODEL 3
REMARK VINA RESULT:      -8.2      2.437      3.172
REMARK  Name = 
REMARK  5 active torsions:
REMARK  status: ('A' for Active; 'I' for Inactive)
REMARK    1  A    between atoms: C_6  and  C_10
REMARK    2  A    between atoms: C_14  and  O_18
REMARK    3  A    between atoms: N_17  and  N_20
REMARK    4  A    between atoms: N_20  and  C_23
REMARK    5  A    between atoms: C_23  and  C_26
REMARK                            x       y       z     vdW  Elec       q    Type
REMARK                         _______ _______ _______ _____ _____    ______ ____
ROOT
ATOM      1  C   UNL     1     -11.157  54.595  50.805  0.00  0.00    +0.000 A 
ATOM      2  C   UNL     1      -9.761  54.977  50.438  0.00  0.00    +0.000 A 
ATOM      3  C   UNL     1     -11.423  53.360  51.264  0.00  0.00    +0.000 A 
ATOM      4  O   UNL     1      -9.575  56.122  50.013  0.00  0.00    +0.000 OA
ATOM      5  N   UNL     1      -8.744  54.037  50.633  0.00  0.00    +0.000 N 
ATOM      6  C   UNL     1     -10.345  52.376  51.443  0.00  0.00    +0.000 A 
ATOM      7  C   UNL     1      -9.021  52.723  51.115  0.00  0.00    +0.000 A 
ATOM      8  C   UNL     1     -10.621  51.096  51.949  0.00  0.00    +0.000 A 
ATOM      9  C   UNL     1      -8.004  51.769  51.284  0.00  0.00    +0.000 A 
ATOM     10  C   UNL     1      -9.599  50.164  52.132  0.00  0.00    +0.000 A 
ATOM     11  C   UNL     1      -8.292  50.500  51.794  0.00  0.00    +0.000 A 
ENDROOT
BRANCH   1  17
ATOM     12  S   UNL     1     -13.625  57.275  49.333  0.00  0.00    +0.000 S 
ATOM     13  O   UNL     1     -14.769  56.667  48.683  0.00  0.00    +0.000 OA
ATOM     14  O   UNL     1     -12.968  58.424  48.736  0.00  0.00    +0.000 OA
ATOM     15  N   UNL     1     -12.509  56.119  49.543  0.00  0.00    +0.000 N 
ATOM     16  C   UNL     1     -14.182  57.801  50.911  0.00  0.00    +0.000 A 
ATOM     17  C   UNL     1     -12.246  55.649  50.726  0.00  0.00    +0.000 C 
ATOM     18  C   UNL     1     -13.723  57.115  52.022  0.00  0.00    +0.000 A 
ATOM     19  C   UNL     1     -15.051  58.890  51.018  0.00  0.00    +0.000 A 
ATOM     20  N   UNL     1     -12.864  56.026  51.899  0.00  0.00    +0.000 N 
ATOM     21  C   UNL     1     -14.215  57.489  53.279  0.00  0.00    +0.000 A 
ATOM     22  C   UNL     1     -15.503  59.276  52.278  0.00  0.00    +0.000 A 
ATOM     23  C   UNL     1     -15.093  58.568  53.407  0.00  0.00    +0.000 A 
ATOM     24  H   UNL     1     -12.023  55.767  48.762  0.00  0.00    +0.000 HD
ATOM     25  H   UNL     1     -12.685  55.489  52.705  0.00  0.00    +0.000 HD
ENDBRANCH   1  17
BRANCH   3  26
ATOM     26  O   UNL     1     -12.682  52.921  51.634  0.00  0.00    +0.000 OA
ATOM     27  H   UNL     1     -13.306  53.525  51.985  0.00  0.00    +0.000 HD
ENDBRANCH   3  26
BRANCH   5  28
ATOM     28  N   UNL     1      -7.381  54.360  50.299  0.00  0.00    +0.000 N 
ATOM     29  H   UNL     1      -6.895  53.925  49.563  0.00  0.00    +0.000 HD
BRANCH  28  30
ATOM     30  C   UNL     1      -6.775  55.398  51.155  0.00  0.00    +0.000 C 
BRANCH  30  31
ATOM     31  C   UNL     1      -6.412  54.871  52.518  0.00  0.00    +0.000 A 
ATOM     32  S   UNL     1      -7.332  55.338  53.897  0.00  0.00    +0.000 S 
ATOM     33  N   UNL     1      -5.350  54.129  52.771  0.00  0.00    +0.000 NA
ATOM     34  C   UNL     1      -6.223  54.507  54.904  0.00  0.00    +0.000 A 
ATOM     35  C   UNL     1      -5.242  53.924  54.133  0.00  0.00    +0.000 A 
ENDBRANCH  30  31
ENDBRANCH  28  30
ENDBRANCH   5  28
TORSDOF 5
ENDMDL
MODEL 4
REMARK VINA RESULT:      -8.2      2.143      2.631
REMARK  Name = 
REMARK  5 active torsions:
REMARK  status: ('A' for Active; 'I' for Inactive)
REMARK    1  A    between atoms: C_6  and  C_10
REMARK    2  A    between atoms: C_14  and  O_18
REMARK    3  A    between atoms: N_17  and  N_20
REMARK    4  A    between atoms: N_20  and  C_23
REMARK    5  A    between atoms: C_23  and  C_26
REMARK                            x       y       z     vdW  Elec       q    Type
REMARK                         _______ _______ _______ _____ _____    ______ ____
ROOT
ATOM      1  C   UNL     1     -10.671  55.645  48.140  0.00  0.00    +0.000 A 
ATOM      2  C   UNL     1      -9.206  55.716  48.425  0.00  0.00    +0.000 A 
ATOM      3  C   UNL     1     -11.117  55.008  47.044  0.00  0.00    +0.000 A 
ATOM      4  O   UNL     1      -8.851  56.322  49.442  0.00  0.00    +0.000 OA
ATOM      5  N   UNL     1      -8.329  55.063  47.553  0.00  0.00    +0.000 N 
ATOM      6  C   UNL     1     -10.179  54.344  46.125  0.00  0.00    +0.000 A 
ATOM      7  C   UNL     1      -8.797  54.389  46.386  0.00  0.00    +0.000 A 
ATOM      8  C   UNL     1     -10.650  53.655  44.997  0.00  0.00    +0.000 A 
ATOM      9  C   UNL     1      -7.914  53.757  45.495  0.00  0.00    +0.000 A 
ATOM     10  C   UNL     1      -9.765  53.014  44.130  0.00  0.00    +0.000 A 
ATOM     11  C   UNL     1      -8.397  53.071  44.376  0.00  0.00    +0.000 A 
ENDROOT
BRANCH   1  17
ATOM     12  S   UNL     1     -13.029  55.963  51.267  0.00  0.00    +0.000 S 
ATOM     13  O   UNL     1     -12.287  56.198  52.490  0.00  0.00    +0.000 OA
ATOM     14  O   UNL     1     -14.156  55.048  51.256  0.00  0.00    +0.000 OA
ATOM     15  N   UNL     1     -11.974  55.463  50.142  0.00  0.00    +0.000 N 
ATOM     16  C   UNL     1     -13.666  57.522  50.775  0.00  0.00    +0.000 A 
ATOM     17  C   UNL     1     -11.639  56.232  49.149  0.00  0.00    +0.000 C 
ATOM     18  C   UNL     1     -13.121  58.119  49.652  0.00  0.00    +0.000 A 
ATOM     19  C   UNL     1     -14.700  58.115  51.504  0.00  0.00    +0.000 A 
ATOM     20  N   UNL     1     -12.085  57.520  48.941  0.00  0.00    +0.000 N 
ATOM     21  C   UNL     1     -13.580  59.393  49.293  0.00  0.00    +0.000 A 
ATOM     22  C   UNL     1     -15.174  59.365  51.113  0.00  0.00    +0.000 A 
ATOM     23  C   UNL     1     -14.607  60.008  50.014  0.00  0.00    +0.000 A 
ATOM     24  H   UNL     1     -11.582  54.563  50.213  0.00  0.00    +0.000 HD
ATOM     25  H   UNL     1     -11.640  58.052  48.241  0.00  0.00    +0.000 HD
ENDBRANCH   1  17
BRANCH   3  26
ATOM     26  O   UNL     1     -12.452  54.886  46.703  0.00  0.00    +0.000 OA
ATOM     27  H   UNL     1     -12.694  54.643  45.832  0.00  0.00    +0.000 HD
ENDBRANCH   3  26
BRANCH   5  28
ATOM     28  N   UNL     1      -6.909  55.098  47.788  0.00  0.00    +0.000 N 
ATOM     29  H   UNL     1      -6.349  55.872  47.555  0.00  0.00    +0.000 HD
BRANCH  28  30
ATOM     30  C   UNL     1      -6.366  53.875  48.410  0.00  0.00    +0.000 C 
BRANCH  30  31
ATOM     31  C   UNL     1      -6.442  53.919  49.913  0.00  0.00    +0.000 A 
ATOM     32  S   UNL     1      -7.630  52.990  50.745  0.00  0.00    +0.000 S 
ATOM     33  N   UNL     1      -5.710  54.712  50.673  0.00  0.00    +0.000 NA
ATOM     34  C   UNL     1      -7.146  53.713  52.220  0.00  0.00    +0.000 A 
ATOM     35  C   UNL     1      -6.115  54.595  51.989  0.00  0.00    +0.000 A 
ENDBRANCH  30  31
ENDBRANCH  28  30
ENDBRANCH   5  28
TORSDOF 5
ENDMDL
MODEL 5
REMARK VINA RESULT:      -8.2      2.611      3.437
REMARK  Name = 
REMARK  5 active torsions:
REMARK  status: ('A' for Active; 'I' for Inactive)
REMARK    1  A    between atoms: C_6  and  C_10
REMARK    2  A    between atoms: C_14  and  O_18
REMARK    3  A    between atoms: N_17  and  N_20
REMARK    4  A    between atoms: N_20  and  C_23
REMARK    5  A    between atoms: C_23  and  C_26
REMARK                            x       y       z     vdW  Elec       q    Type
REMARK                         _______ _______ _______ _____ _____    ______ ____
ROOT
ATOM      1  C   UNL     1     -10.330  54.902  47.687  0.00  0.00    +0.000 A 
ATOM      2  C   UNL     1      -8.841  55.021  47.667  0.00  0.00    +0.000 A 
ATOM      3  C   UNL     1     -10.978  54.344  46.651  0.00  0.00    +0.000 A 
ATOM      4  O   UNL     1      -8.297  55.550  48.642  0.00  0.00    +0.000 OA
ATOM      5  N   UNL     1      -8.149  54.494  46.573  0.00  0.00    +0.000 N 
ATOM      6  C   UNL     1     -10.236  53.814  45.496  0.00  0.00    +0.000 A 
ATOM      7  C   UNL     1      -8.832  53.905  45.467  0.00  0.00    +0.000 A 
ATOM      8  C   UNL     1     -10.914  53.206  44.429  0.00  0.00    +0.000 A 
ATOM      9  C   UNL     1      -8.140  53.400  44.354  0.00  0.00    +0.000 A 
ATOM     10  C   UNL     1     -10.214  52.690  43.338  0.00  0.00    +0.000 A 
ATOM     11  C   UNL     1      -8.827  52.793  43.299  0.00  0.00    +0.000 A 
ENDROOT
BRANCH   1  17
ATOM     12  S   UNL     1     -11.716  54.954  51.364  0.00  0.00    +0.000 S 
ATOM     13  O   UNL     1     -10.731  55.436  52.312  0.00  0.00    +0.000 OA
ATOM     14  O   UNL     1     -12.562  53.823  51.696  0.00  0.00    +0.000 OA
ATOM     15  N   UNL     1     -10.937  54.604  49.986  0.00  0.00    +0.000 N 
ATOM     16  C   UNL     1     -12.801  56.299  51.061  0.00  0.00    +0.000 A 
ATOM     17  C   UNL     1     -11.079  55.347  48.929  0.00  0.00    +0.000 C 
ATOM     18  C   UNL     1     -12.746  56.909  49.820  0.00  0.00    +0.000 A 
ATOM     19  C   UNL     1     -13.693  56.714  52.053  0.00  0.00    +0.000 A 
ATOM     20  N   UNL     1     -11.845  56.491  48.844  0.00  0.00    +0.000 N 
ATOM     21  C   UNL     1     -13.563  58.024  49.595  0.00  0.00    +0.000 A 
ATOM     22  C   UNL     1     -14.527  57.800  51.803  0.00  0.00    +0.000 A 
ATOM     23  C   UNL     1     -14.454  58.462  50.578  0.00  0.00    +0.000 A 
ATOM     24  H   UNL     1     -10.348  53.816  49.949  0.00  0.00    +0.000 HD
ATOM     25  H   UNL     1     -11.748  57.049  48.038  0.00  0.00    +0.000 HD
ENDBRANCH   1  17
BRANCH   3  26
ATOM     26  O   UNL     1     -12.351  54.186  46.585  0.00  0.00    +0.000 OA
ATOM     27  H   UNL     1     -12.825  53.886  47.335  0.00  0.00    +0.000 HD
ENDBRANCH   3  26
BRANCH   5  28
ATOM     28  N   UNL     1      -6.713  54.579  46.510  0.00  0.00    +0.000 N 
ATOM     29  H   UNL     1      -6.240  55.362  46.147  0.00  0.00    +0.000 HD
BRANCH  28  30
ATOM     30  C   UNL     1      -6.010  53.393  47.035  0.00  0.00    +0.000 C 
BRANCH  30  31
ATOM     31  C   UNL     1      -5.676  53.531  48.497  0.00  0.00    +0.000 A 
ATOM     32  S   UNL     1      -6.433  52.506  49.656  0.00  0.00    +0.000 S 
ATOM     33  N   UNL     1      -4.895  54.470  48.997  0.00  0.00    +0.000 NA
ATOM     34  C   UNL     1      -5.679  53.391  50.914  0.00  0.00    +0.000 A 
ATOM     35  C   UNL     1      -4.899  54.390  50.376  0.00  0.00    +0.000 A 
ENDBRANCH  30  31
ENDBRANCH  28  30
ENDBRANCH   5  28
TORSDOF 5
ENDMDL
MODEL 6
REMARK VINA RESULT:      -8.1      3.027      7.262
REMARK  Name = 
REMARK  5 active torsions:
REMARK  status: ('A' for Active; 'I' for Inactive)
REMARK    1  A    between atoms: C_6  and  C_10
REMARK    2  A    between atoms: C_14  and  O_18
REMARK    3  A    between atoms: N_17  and  N_20
REMARK    4  A    between atoms: N_20  and  C_23
REMARK    5  A    between atoms: C_23  and  C_26
REMARK                            x       y       z     vdW  Elec       q    Type
REMARK                         _______ _______ _______ _____ _____    ______ ____
ROOT
ATOM      1  C   UNL     1     -10.291  55.226  50.730  0.00  0.00    +0.000 A 
ATOM      2  C   UNL     1      -9.927  55.098  49.287  0.00  0.00    +0.000 A 
ATOM      3  C   UNL     1     -11.475  55.754  51.085  0.00  0.00    +0.000 A 
ATOM      4  O   UNL     1      -8.823  54.613  49.017  0.00  0.00    +0.000 OA
ATOM      5  N   UNL     1     -10.865  55.494  48.329  0.00  0.00    +0.000 N 
ATOM      6  C   UNL     1     -12.443  56.185  50.065  0.00  0.00    +0.000 A 
ATOM      7  C   UNL     1     -12.122  56.060  48.700  0.00  0.00    +0.000 A 
ATOM      8  C   UNL     1     -13.690  56.710  50.438  0.00  0.00    +0.000 A 
ATOM      9  C   UNL     1     -13.054  56.483  47.739  0.00  0.00    +0.000 A 
ATOM     10  C   UNL     1     -14.615  57.108  49.474  0.00  0.00    +0.000 A 
ATOM     11  C   UNL     1     -14.294  57.000  48.125  0.00  0.00    +0.000 A 
ENDROOT
BRANCH   1  17
ATOM     12  S   UNL     1      -7.062  54.744  52.918  0.00  0.00    +0.000 S 
ATOM     13  O   UNL     1      -6.969  55.728  53.978  0.00  0.00    +0.000 OA
ATOM     14  O   UNL     1      -5.883  54.367  52.160  0.00  0.00    +0.000 OA
ATOM     15  N   UNL     1      -8.182  55.263  51.866  0.00  0.00    +0.000 N 
ATOM     16  C   UNL     1      -7.648  53.270  53.668  0.00  0.00    +0.000 A 
ATOM     17  C   UNL     1      -9.338  54.675  51.773  0.00  0.00    +0.000 C 
ATOM     18  C   UNL     1      -8.938  52.864  53.377  0.00  0.00    +0.000 A 
ATOM     19  C   UNL     1      -6.814  52.541  54.518  0.00  0.00    +0.000 A 
ATOM     20  N   UNL     1      -9.762  53.606  52.534  0.00  0.00    +0.000 N 
ATOM     21  C   UNL     1      -9.433  51.724  54.023  0.00  0.00    +0.000 A 
ATOM     22  C   UNL     1      -7.306  51.388  55.125  0.00  0.00    +0.000 A 
ATOM     23  C   UNL     1      -8.619  50.986  54.885  0.00  0.00    +0.000 A 
ATOM     24  H   UNL     1      -7.983  56.036  51.288  0.00  0.00    +0.000 HD
ATOM     25  H   UNL     1     -10.711  53.351  52.477  0.00  0.00    +0.000 HD
ENDBRANCH   1  17
BRANCH   3  26
ATOM     26  O   UNL     1     -11.899  55.905  52.393  0.00  0.00    +0.000 OA
ATOM     27  H   UNL     1     -11.907  55.168  52.972  0.00  0.00    +0.000 HD
ENDBRANCH   3  26
BRANCH   5  28
ATOM     28  N   UNL     1     -10.564  55.385  46.925  0.00  0.00    +0.000 N 
ATOM     29  H   UNL     1      -9.950  55.999  46.463  0.00  0.00    +0.000 HD
BRANCH  28  30
ATOM     30  C   UNL     1     -11.252  54.274  46.240  0.00  0.00    +0.000 C 
BRANCH  30  31
ATOM     31  C   UNL     1     -10.386  53.631  45.189  0.00  0.00    +0.000 A 
ATOM     32  S   UNL     1      -8.681  53.874  45.208  0.00  0.00    +0.000 S 
ATOM     33  N   UNL     1     -10.848  52.948  44.158  0.00  0.00    +0.000 NA
ATOM     34  C   UNL     1      -8.554  53.025  43.726  0.00  0.00    +0.000 A 
ATOM     35  C   UNL     1      -9.802  52.605  43.323  0.00  0.00    +0.000 A 
ENDBRANCH  30  31
ENDBRANCH  28  30
ENDBRANCH   5  28
TORSDOF 5
ENDMDL
MODEL 7
REMARK VINA RESULT:      -8.0      2.116      7.154
REMARK  Name = 
REMARK  5 active torsions:
REMARK  status: ('A' for Active; 'I' for Inactive)
REMARK    1  A    between atoms: C_6  and  C_10
REMARK    2  A    between atoms: C_14  and  O_18
REMARK    3  A    between atoms: N_17  and  N_20
REMARK    4  A    between atoms: N_20  and  C_23
REMARK    5  A    between atoms: C_23  and  C_26
REMARK                            x       y       z     vdW  Elec       q    Type
REMARK                         _______ _______ _______ _____ _____    ______ ____
ROOT
ATOM      1  C   UNL     1      -9.114  54.366  49.943  0.00  0.00    +0.000 A 
ATOM      2  C   UNL     1     -10.189  55.394  50.074  0.00  0.00    +0.000 A 
ATOM      3  C   UNL     1      -8.989  53.657  48.808  0.00  0.00    +0.000 A 
ATOM      4  O   UNL     1     -10.263  56.010  51.143  0.00  0.00    +0.000 OA
ATOM      5  N   UNL     1     -11.019  55.629  48.974  0.00  0.00    +0.000 N 
ATOM      6  C   UNL     1      -9.886  53.902  47.667  0.00  0.00    +0.000 A 
ATOM      7  C   UNL     1     -10.896  54.876  47.768  0.00  0.00    +0.000 A 
ATOM      8  C   UNL     1      -9.735  53.180  46.472  0.00  0.00    +0.000 A 
ATOM      9  C   UNL     1     -11.747  55.092  46.672  0.00  0.00    +0.000 A 
ATOM     10  C   UNL     1     -10.574  53.418  45.383  0.00  0.00    +0.000 A 
ATOM     11  C   UNL     1     -11.584  54.369  45.487  0.00  0.00    +0.000 A 
ENDROOT
BRANCH   1  17
ATOM     12  S   UNL     1      -7.655  54.089  53.581  0.00  0.00    +0.000 S 
ATOM     13  O   UNL     1      -7.885  52.782  54.164  0.00  0.00    +0.000 OA
ATOM     14  O   UNL     1      -7.823  55.289  54.381  0.00  0.00    +0.000 OA
ATOM     15  N   UNL     1      -8.616  54.221  52.282  0.00  0.00    +0.000 N 
ATOM     16  C   UNL     1      -5.987  54.097  53.040  0.00  0.00    +0.000 A 
ATOM     17  C   UNL     1      -8.123  54.199  51.080  0.00  0.00    +0.000 C 
ATOM     18  C   UNL     1      -5.748  54.082  51.677  0.00  0.00    +0.000 A 
ATOM     19  C   UNL     1      -4.949  54.132  53.975  0.00  0.00    +0.000 A 
ATOM     20  N   UNL     1      -6.792  54.038  50.757  0.00  0.00    +0.000 N 
ATOM     21  C   UNL     1      -4.419  54.022  51.240  0.00  0.00    +0.000 A 
ATOM     22  C   UNL     1      -3.631  54.111  53.525  0.00  0.00    +0.000 A 
ATOM     23  C   UNL     1      -3.367  54.045  52.158  0.00  0.00    +0.000 A 
ATOM     24  H   UNL     1      -9.588  54.320  52.407  0.00  0.00    +0.000 HD
ATOM     25  H   UNL     1      -6.566  53.883  49.811  0.00  0.00    +0.000 HD
ENDBRANCH   1  17
BRANCH   3  26
ATOM     26  O   UNL     1      -8.022  52.692  48.594  0.00  0.00    +0.000 OA
ATOM     27  H   UNL     1      -7.235  52.910  48.136  0.00  0.00    +0.000 HD
ENDBRANCH   3  26
BRANCH   5  28
ATOM     28  N   UNL     1     -12.067  56.614  49.050  0.00  0.00    +0.000 N 
ATOM     29  H   UNL     1     -11.955  57.537  48.727  0.00  0.00    +0.000 HD
BRANCH  28  30
ATOM     30  C   UNL     1     -13.322  56.122  49.650  0.00  0.00    +0.000 C 
BRANCH  30  31
ATOM     31  C   UNL     1     -13.756  56.958  50.825  0.00  0.00    +0.000 A 
ATOM     32  S   UNL     1     -14.350  58.555  50.574  0.00  0.00    +0.000 S 
ATOM     33  N   UNL     1     -13.626  56.594  52.087  0.00  0.00    +0.000 NA
ATOM     34  C   UNL     1     -14.420  58.783  52.270  0.00  0.00    +0.000 A 
ATOM     35  C   UNL     1     -14.004  57.637  52.911  0.00  0.00    +0.000 A 
ENDBRANCH  30  31
ENDBRANCH  28  30
ENDBRANCH   5  28
TORSDOF 5
ENDMDL
MODEL 8
REMARK VINA RESULT:      -8.0      2.905      6.932
REMARK  Name = 
REMARK  5 active torsions:
REMARK  status: ('A' for Active; 'I' for Inactive)
REMARK    1  A    between atoms: C_6  and  C_10
REMARK    2  A    between atoms: C_14  and  O_18
REMARK    3  A    between atoms: N_17  and  N_20
REMARK    4  A    between atoms: N_20  and  C_23
REMARK    5  A    between atoms: C_23  and  C_26
REMARK                            x       y       z     vdW  Elec       q    Type
REMARK                         _______ _______ _______ _____ _____    ______ ____
ROOT
ATOM      1  C   UNL     1     -11.319  54.583  48.440  0.00  0.00    +0.000 A 
ATOM      2  C   UNL     1     -11.132  54.059  49.826  0.00  0.00    +0.000 A 
ATOM      3  C   UNL     1     -12.179  55.588  48.205  0.00  0.00    +0.000 A 
ATOM      4  O   UNL     1     -10.335  53.128  49.983  0.00  0.00    +0.000 OA
ATOM      5  N   UNL     1     -11.835  54.675  50.866  0.00  0.00    +0.000 N 
ATOM      6  C   UNL     1     -12.927  56.210  49.309  0.00  0.00    +0.000 A 
ATOM      7  C   UNL     1     -12.753  55.739  50.623  0.00  0.00    +0.000 A 
ATOM      8  C   UNL     1     -13.804  57.279  49.066  0.00  0.00    +0.000 A 
ATOM      9  C   UNL     1     -13.481  56.339  51.665  0.00  0.00    +0.000 A 
ATOM     10  C   UNL     1     -14.505  57.880  50.110  0.00  0.00    +0.000 A 
ATOM     11  C   UNL     1     -14.348  57.406  51.409  0.00  0.00    +0.000 A 
ENDROOT
BRANCH   1  17
ATOM     12  S   UNL     1      -8.212  53.888  46.136  0.00  0.00    +0.000 S 
ATOM     13  O   UNL     1      -7.280  52.957  46.741  0.00  0.00    +0.000 OA
ATOM     14  O   UNL     1      -7.725  55.057  45.427  0.00  0.00    +0.000 OA
ATOM     15  N   UNL     1      -9.220  54.398  47.299  0.00  0.00    +0.000 N 
ATOM     16  C   UNL     1      -9.137  52.963  44.967  0.00  0.00    +0.000 A 
ATOM     17  C   UNL     1     -10.461  54.014  47.325  0.00  0.00    +0.000 C 
ATOM     18  C   UNL     1     -10.467  52.707  45.250  0.00  0.00    +0.000 A 
ATOM     19  C   UNL     1      -8.531  52.522  43.788  0.00  0.00    +0.000 A 
ATOM     20  N   UNL     1     -11.055  53.145  46.434  0.00  0.00    +0.000 N 
ATOM     21  C   UNL     1     -11.193  51.914  44.353  0.00  0.00    +0.000 A 
ATOM     22  C   UNL     1      -9.275  51.766  42.885  0.00  0.00    +0.000 A 
ATOM     23  C   UNL     1     -10.603  51.454  43.173  0.00  0.00    +0.000 A 
ATOM     24  H   UNL     1      -8.885  55.007  47.997  0.00  0.00    +0.000 HD
ATOM     25  H   UNL     1     -11.957  52.813  46.650  0.00  0.00    +0.000 HD
ENDBRANCH   1  17
BRANCH   3  26
ATOM     26  O   UNL     1     -12.411  56.140  46.958  0.00  0.00    +0.000 OA
ATOM     27  H   UNL     1     -11.791  56.017  46.268  0.00  0.00    +0.000 HD
ENDBRANCH   3  26
BRANCH   5  28
ATOM     28  N   UNL     1     -11.684  54.210  52.221  0.00  0.00    +0.000 N 
ATOM     29  H   UNL     1     -12.350  53.637  52.665  0.00  0.00    +0.000 HD
BRANCH  28  30
ATOM     30  C   UNL     1     -10.448  54.665  52.886  0.00  0.00    +0.000 C 
BRANCH  30  31
ATOM     31  C   UNL     1      -9.679  53.524  53.498  0.00  0.00    +0.000 A 
ATOM     32  S   UNL     1      -7.957  53.519  53.447  0.00  0.00    +0.000 S 
ATOM     33  N   UNL     1     -10.233  52.438  54.005  0.00  0.00    +0.000 NA
ATOM     34  C   UNL     1      -7.953  51.949  54.132  0.00  0.00    +0.000 A 
ATOM     35  C   UNL     1      -9.247  51.540  54.365  0.00  0.00    +0.000 A 
ENDBRANCH  30  31
ENDBRANCH  28  30
ENDBRANCH   5  28
TORSDOF 5
ENDMDL
MODEL 9
REMARK VINA RESULT:      -7.9      1.397      1.553
REMARK  Name = 
REMARK  5 active torsions:
REMARK  status: ('A' for Active; 'I' for Inactive)
REMARK    1  A    between atoms: C_6  and  C_10
REMARK    2  A    between atoms: C_14  and  O_18
REMARK    3  A    between atoms: N_17  and  N_20
REMARK    4  A    between atoms: N_20  and  C_23
REMARK    5  A    between atoms: C_23  and  C_26
REMARK                            x       y       z     vdW  Elec       q    Type
REMARK                         _______ _______ _______ _____ _____    ______ ____
ROOT
ATOM      1  C   UNL     1     -11.395  56.020  48.760  0.00  0.00    +0.000 A 
ATOM      2  C   UNL     1     -10.304  55.450  49.606  0.00  0.00    +0.000 A 
ATOM      3  C   UNL     1     -11.528  55.640  47.478  0.00  0.00    +0.000 A 
ATOM      4  O   UNL     1     -10.224  55.842  50.775  0.00  0.00    +0.000 OA
ATOM      5  N   UNL     1      -9.467  54.482  49.043  0.00  0.00    +0.000 N 
ATOM      6  C   UNL     1     -10.624  54.635  46.895  0.00  0.00    +0.000 A 
ATOM      7  C   UNL     1      -9.599  54.077  47.681  0.00  0.00    +0.000 A 
ATOM      8  C   UNL     1     -10.783  54.218  45.564  0.00  0.00    +0.000 A 
ATOM      9  C   UNL     1      -8.741  53.125  47.107  0.00  0.00    +0.000 A 
ATOM     10  C   UNL     1      -9.937  53.257  45.011  0.00  0.00    +0.000 A 
ATOM     11  C   UNL     1      -8.913  52.716  45.781  0.00  0.00    +0.000 A 
ENDROOT
BRANCH   1  17
ATOM     12  S   UNL     1     -13.559  59.233  49.422  0.00  0.00    +0.000 S 
ATOM     13  O   UNL     1     -14.708  59.310  48.541  0.00  0.00    +0.000 OA
ATOM     14  O   UNL     1     -12.781  60.423  49.718  0.00  0.00    +0.000 OA
ATOM     15  N   UNL     1     -12.550  58.119  48.814  0.00  0.00    +0.000 N 
ATOM     16  C   UNL     1     -14.163  58.653  50.963  0.00  0.00    +0.000 A 
ATOM     17  C   UNL     1     -12.392  56.969  49.399  0.00  0.00    +0.000 C 
ATOM     18  C   UNL     1     -13.823  57.368  51.350  0.00  0.00    +0.000 A 
ATOM     19  C   UNL     1     -14.949  59.485  51.763  0.00  0.00    +0.000 A 
ATOM     20  N   UNL     1     -13.045  56.547  50.537  0.00  0.00    +0.000 N 
ATOM     21  C   UNL     1     -14.355  56.876  52.548  0.00  0.00    +0.000 A 
ATOM     22  C   UNL     1     -15.441  58.996  52.971  0.00  0.00    +0.000 A 
ATOM     23  C   UNL     1     -15.153  57.688  53.358  0.00  0.00    +0.000 A 
ATOM     24  H   UNL     1     -12.049  58.317  47.990  0.00  0.00    +0.000 HD
ATOM     25  H   UNL     1     -12.956  55.600  50.792  0.00  0.00    +0.000 HD
ENDBRANCH   1  17
BRANCH   3  26
ATOM     26  O   UNL     1     -12.509  56.108  46.624  0.00  0.00    +0.000 OA
ATOM     27  H   UNL     1     -13.387  55.788  46.696  0.00  0.00    +0.000 HD
ENDBRANCH   3  26
BRANCH   5  28
ATOM     28  N   UNL     1      -8.404  53.898  49.820  0.00  0.00    +0.000 N 
ATOM     29  H   UNL     1      -8.504  53.048  50.306  0.00  0.00    +0.000 HD
BRANCH  28  30
ATOM     30  C   UNL     1      -7.154  54.681  49.824  0.00  0.00    +0.000 C 
BRANCH  30  31
ATOM     31  C   UNL     1      -5.962  53.846  50.211  0.00  0.00    +0.000 A 
ATOM     32  S   UNL     1      -5.951  52.154  49.888  0.00  0.00    +0.000 S 
ATOM     33  N   UNL     1      -4.924  54.299  50.889  0.00  0.00    +0.000 NA
ATOM     34  C   UNL     1      -4.466  52.014  50.730  0.00  0.00    +0.000 A 
ATOM     35  C   UNL     1      -4.072  53.252  51.186  0.00  0.00    +0.000 A 
ENDBRANCH  30  31
ENDBRANCH  28  30
ENDBRANCH   5  28
TORSDOF 5
ENDMDL
