MODEL 1
REMARK VINA RESULT:      -8.5      0.000      0.000
REMARK  Name = 
REMARK  5 active torsions:
REMARK  status: ('A' for Active; 'I' for Inactive)
REMARK    1  A    between atoms: C_6  and  C_10
REMARK    2  A    between atoms: C_14  and  O_18
REMARK    3  A    between atoms: N_17  and  N_20
REMARK    4  A    between atoms: N_20  and  C_23
REMARK    5  A    between atoms: C_23  and  C_26
REMARK                            x       y       z     vdW  Elec       q    Type
REMARK                         _______ _______ _______ _____ _____    ______ ____
ROOT
ATOM      1  C   UNL     1     -10.106  54.607  52.299  0.00  0.00    +0.000 A 
ATOM      2  C   UNL     1      -8.704  55.094  52.094  0.00  0.00    +0.000 A 
ATOM      3  C   UNL     1     -10.319  53.461  52.975  0.00  0.00    +0.000 A 
ATOM      4  O   UNL     1      -8.502  56.084  51.381  0.00  0.00    +0.000 OA
ATOM      5  N   UNL     1      -7.668  54.380  52.708  0.00  0.00    +0.000 N 
ATOM      6  C   UNL     1      -9.215  52.758  53.645  0.00  0.00    +0.000 A 
ATOM      7  C   UNL     1      -7.913  53.268  53.562  0.00  0.00    +0.000 A 
ATOM      8  C   UNL     1      -9.450  51.595  54.403  0.00  0.00    +0.000 A 
ATOM      9  C   UNL     1      -6.888  52.657  54.300  0.00  0.00    +0.000 A 
ATOM     10  C   UNL     1      -8.411  50.966  55.085  0.00  0.00    +0.000 A 
ATOM     11  C   UNL     1      -7.132  51.504  55.046  0.00  0.00    +0.000 A 
ENDROOT
BRANCH   1  17
ATOM     12  S   UNL     1     -12.516  56.077  49.566  0.00  0.00    +0.000 S 
ATOM     13  O   UNL     1     -13.366  55.038  49.020  0.00  0.00    +0.000 OA
ATOM     14  O   UNL     1     -11.924  57.075  48.692  0.00  0.00    +0.000 OA
ATOM     15  N   UNL     1     -11.303  55.379  50.379  0.00  0.00    +0.000 N 
ATOM     16  C   UNL     1     -13.501  56.958  50.714  0.00  0.00    +0.000 A 
ATOM     17  C   UNL     1     -11.279  55.351  51.680  0.00  0.00    +0.000 C 
ATOM     18  C   UNL     1     -13.254  56.756  52.066  0.00  0.00    +0.000 A 
ATOM     19  C   UNL     1     -14.496  57.825  50.250  0.00  0.00    +0.000 A 
ATOM     20  N   UNL     1     -12.211  55.943  52.502  0.00  0.00    +0.000 N 
ATOM     21  C   UNL     1     -14.040  57.464  52.983  0.00  0.00    +0.000 A 
ATOM     22  C   UNL     1     -15.271  58.514  51.177  0.00  0.00    +0.000 A 
ATOM     23  C   UNL     1     -15.044  58.334  52.539  0.00  0.00    +0.000 A 
ATOM     24  H   UNL     1     -10.565  54.963  49.877  0.00  0.00    +0.000 HD
ATOM     25  H   UNL     1     -12.135  55.778  53.470  0.00  0.00    +0.000 HD
ENDBRANCH   1  17
BRANCH   3  26
ATOM     26  O   UNL     1     -11.554  52.857  53.133  0.00  0.00    +0.000 OA
ATOM     27  H   UNL     1     -12.264  53.086  52.566  0.00  0.00    +0.000 HD
ENDBRANCH   3  26
BRANCH   5  28
ATOM     28  N   UNL     1      -6.325  54.842  52.498  0.00  0.00    +0.000 N 
ATOM     29  H   UNL     1      -5.800  55.329  53.173  0.00  0.00    +0.000 HD
BRANCH  28  30
ATOM     30  C   UNL     1      -5.822  54.500  51.151  0.00  0.00    +0.000 C 
BRANCH  30  31
ATOM     31  C   UNL     1      -4.740  53.412  51.222  0.00  0.00    +0.000 C 
ATOM     32  C   UNL     1      -5.331  52.000  51.169  0.00  0.00    +0.000 C 
ATOM     33  C   UNL     1      -3.955  53.374  52.534  0.00  0.00    +0.000 C 
ATOM     34  C   UNL     1      -4.242  51.092  51.737  0.00  0.00    +0.000 C 
ATOM     35  C   UNL     1      -3.301  51.997  52.528  0.00  0.00    +0.000 C 
ENDBRANCH  30  31
ENDBRANCH  28  30
ENDBRANCH   5  28
TORSDOF 5
ENDMDL
MODEL 2
REMARK VINA RESULT:      -8.3      3.169      8.438
REMARK  Name = 
REMARK  5 active torsions:
REMARK  status: ('A' for Active; 'I' for Inactive)
REMARK    1  A    between atoms: C_6  and  C_10
REMARK    2  A    between atoms: C_14  and  O_18
REMARK    3  A    between atoms: N_17  and  N_20
REMARK    4  A    between atoms: N_20  and  C_23
REMARK    5  A    between atoms: C_23  and  C_26
REMARK                            x       y       z     vdW  Elec       q    Type
REMARK                         _______ _______ _______ _____ _____    ______ ____
ROOT
ATOM      1  C   UNL     1      -8.909  54.391  50.103  0.00  0.00    +0.000 A 
ATOM      2  C   UNL     1     -10.365  54.327  50.454  0.00  0.00    +0.000 A 
ATOM      3  C   UNL     1      -8.527  54.224  48.821  0.00  0.00    +0.000 A 
ATOM      4  O   UNL     1     -10.706  54.371  51.642  0.00  0.00    +0.000 OA
ATOM      5  N   UNL     1     -11.285  54.193  49.407  0.00  0.00    +0.000 N 
ATOM      6  C   UNL     1      -9.519  54.129  47.739  0.00  0.00    +0.000 A 
ATOM      7  C   UNL     1     -10.885  54.188  48.041  0.00  0.00    +0.000 A 
ATOM      8  C   UNL     1      -9.116  54.016  46.395  0.00  0.00    +0.000 A 
ATOM      9  C   UNL     1     -11.819  54.215  46.993  0.00  0.00    +0.000 A 
ATOM     10  C   UNL     1     -10.057  53.987  45.368  0.00  0.00    +0.000 A 
ATOM     11  C   UNL     1     -11.409  54.100  45.665  0.00  0.00    +0.000 A 
ENDROOT
BRANCH   1  17
ATOM     12  S   UNL     1      -7.156  55.700  53.366  0.00  0.00    +0.000 S 
ATOM     13  O   UNL     1      -7.740  55.087  54.542  0.00  0.00    +0.000 OA
ATOM     14  O   UNL     1      -6.822  57.113  53.364  0.00  0.00    +0.000 OA
ATOM     15  N   UNL     1      -8.139  55.442  52.107  0.00  0.00    +0.000 N 
ATOM     16  C   UNL     1      -5.657  54.845  53.066  0.00  0.00    +0.000 A 
ATOM     17  C   UNL     1      -7.860  54.561  51.190  0.00  0.00    +0.000 C 
ATOM     18  C   UNL     1      -5.622  53.959  51.996  0.00  0.00    +0.000 A 
ATOM     19  C   UNL     1      -4.555  55.067  53.899  0.00  0.00    +0.000 A 
ATOM     20  N   UNL     1      -6.709  53.808  51.140  0.00  0.00    +0.000 N 
ATOM     21  C   UNL     1      -4.422  53.280  51.755  0.00  0.00    +0.000 A 
ATOM     22  C   UNL     1      -3.374  54.377  53.647  0.00  0.00    +0.000 A 
ATOM     23  C   UNL     1      -3.308  53.486  52.580  0.00  0.00    +0.000 A 
ATOM     24  H   UNL     1      -8.971  55.964  52.032  0.00  0.00    +0.000 HD
ATOM     25  H   UNL     1      -6.651  53.111  50.447  0.00  0.00    +0.000 HD
ENDBRANCH   1  17
BRANCH   3  26
ATOM     26  O   UNL     1      -7.213  54.153  48.393  0.00  0.00    +0.000 OA
ATOM     27  H   UNL     1      -6.516  54.342  48.989  0.00  0.00    +0.000 HD
ENDBRANCH   3  26
BRANCH   5  28
ATOM     28  N   UNL     1     -12.677  54.119  49.749  0.00  0.00    +0.000 N 
ATOM     29  H   UNL     1     -13.137  53.286  50.003  0.00  0.00    +0.000 HD
BRANCH  28  30
ATOM     30  C   UNL     1     -13.340  55.437  49.675  0.00  0.00    +0.000 C 
BRANCH  30  31
ATOM     31  C   UNL     1     -14.058  55.772  50.990  0.00  0.00    +0.000 C 
ATOM     32  C   UNL     1     -15.404  56.467  50.757  0.00  0.00    +0.000 C 
ATOM     33  C   UNL     1     -13.332  56.786  51.876  0.00  0.00    +0.000 C 
ATOM     34  C   UNL     1     -15.729  57.157  52.081  0.00  0.00    +0.000 C 
ATOM     35  C   UNL     1     -14.410  57.265  52.842  0.00  0.00    +0.000 C 
ENDBRANCH  30  31
ENDBRANCH  28  30
ENDBRANCH   5  28
TORSDOF 5
ENDMDL
MODEL 3
REMARK VINA RESULT:      -8.2      2.966      8.327
REMARK  Name = 
REMARK  5 active torsions:
REMARK  status: ('A' for Active; 'I' for Inactive)
REMARK    1  A    between atoms: C_6  and  C_10
REMARK    2  A    between atoms: C_14  and  O_18
REMARK    3  A    between atoms: N_17  and  N_20
REMARK    4  A    between atoms: N_20  and  C_23
REMARK    5  A    between atoms: C_23  and  C_26
REMARK                            x       y       z     vdW  Elec       q    Type
REMARK                         _______ _______ _______ _____ _____    ______ ____
ROOT
ATOM      1  C   UNL     1      -9.750  54.103  50.668  0.00  0.00    +0.000 A 
ATOM      2  C   UNL     1     -10.809  55.133  50.915  0.00  0.00    +0.000 A 
ATOM      3  C   UNL     1      -9.612  53.575  49.435  0.00  0.00    +0.000 A 
ATOM      4  O   UNL     1     -11.009  55.537  52.067  0.00  0.00    +0.000 OA
ATOM      5  N   UNL     1     -11.556  55.580  49.818  0.00  0.00    +0.000 N 
ATOM      6  C   UNL     1     -10.380  54.097  48.295  0.00  0.00    +0.000 A 
ATOM      7  C   UNL     1     -11.290  55.143  48.490  0.00  0.00    +0.000 A 
ATOM      8  C   UNL     1     -10.189  53.585  46.998  0.00  0.00    +0.000 A 
ATOM      9  C   UNL     1     -11.930  55.712  47.378  0.00  0.00    +0.000 A 
ATOM     10  C   UNL     1     -10.874  54.122  45.910  0.00  0.00    +0.000 A 
ATOM     11  C   UNL     1     -11.736  55.196  46.097  0.00  0.00    +0.000 A 
ENDROOT
BRANCH   1  17
ATOM     12  S   UNL     1      -6.589  53.508  52.925  0.00  0.00    +0.000 S 
ATOM     13  O   UNL     1      -6.302  54.684  53.723  0.00  0.00    +0.000 OA
ATOM     14  O   UNL     1      -5.511  52.768  52.296  0.00  0.00    +0.000 OA
ATOM     15  N   UNL     1      -7.629  53.921  51.755  0.00  0.00    +0.000 N 
ATOM     16  C   UNL     1      -7.397  52.381  53.993  0.00  0.00    +0.000 A 
ATOM     17  C   UNL     1      -8.887  53.593  51.811  0.00  0.00    +0.000 C 
ATOM     18  C   UNL     1      -8.765  52.200  53.828  0.00  0.00    +0.000 A 
ATOM     19  C   UNL     1      -6.659  51.705  54.971  0.00  0.00    +0.000 A 
ATOM     20  N   UNL     1      -9.463  52.831  52.802  0.00  0.00    +0.000 N 
ATOM     21  C   UNL     1      -9.408  51.295  54.680  0.00  0.00    +0.000 A 
ATOM     22  C   UNL     1      -7.318  50.815  55.813  0.00  0.00    +0.000 A 
ATOM     23  C   UNL     1      -8.688  50.611  55.668  0.00  0.00    +0.000 A 
ATOM     24  H   UNL     1      -7.301  54.434  50.980  0.00  0.00    +0.000 HD
ATOM     25  H   UNL     1     -10.442  52.724  52.783  0.00  0.00    +0.000 HD
ENDBRANCH   1  17
BRANCH   3  26
ATOM     26  O   UNL     1      -8.748  52.544  49.112  0.00  0.00    +0.000 OA
ATOM     27  H   UNL     1      -8.714  51.775  49.648  0.00  0.00    +0.000 HD
ENDBRANCH   3  26
BRANCH   5  28
ATOM     28  N   UNL     1     -12.579  56.557  50.062  0.00  0.00    +0.000 N 
ATOM     29  H   UNL     1     -12.455  57.526  49.938  0.00  0.00    +0.000 HD
BRANCH  28  30
ATOM     30  C   UNL     1     -13.841  55.940  50.519  0.00  0.00    +0.000 C 
BRANCH  30  31
ATOM     31  C   UNL     1     -14.752  56.974  51.197  0.00  0.00    +0.000 C 
ATOM     32  C   UNL     1     -14.620  58.365  50.569  0.00  0.00    +0.000 C 
ATOM     33  C   UNL     1     -14.417  57.259  52.662  0.00  0.00    +0.000 C 
ATOM     34  C   UNL     1     -15.164  59.329  51.622  0.00  0.00    +0.000 C 
ATOM     35  C   UNL     1     -15.129  58.576  52.949  0.00  0.00    +0.000 C 
ENDBRANCH  30  31
ENDBRANCH  28  30
ENDBRANCH   5  28
TORSDOF 5
ENDMDL
MODEL 4
REMARK VINA RESULT:      -8.2      3.196      4.828
REMARK  Name = 
REMARK  5 active torsions:
REMARK  status: ('A' for Active; 'I' for Inactive)
REMARK    1  A    between atoms: C_6  and  C_10
REMARK    2  A    between atoms: C_14  and  O_18
REMARK    3  A    between atoms: N_17  and  N_20
REMARK    4  A    between atoms: N_20  and  C_23
REMARK    5  A    between atoms: C_23  and  C_26
REMARK                            x       y       z     vdW  Elec       q    Type
REMARK                         _______ _______ _______ _____ _____    ______ ____
ROOT
ATOM      1  C   UNL     1     -11.449  55.810  49.012  0.00  0.00    +0.000 A 
ATOM      2  C   UNL     1     -10.406  55.164  49.874  0.00  0.00    +0.000 A 
ATOM      3  C   UNL     1     -11.472  55.549  47.690  0.00  0.00    +0.000 A 
ATOM      4  O   UNL     1     -10.316  55.486  51.064  0.00  0.00    +0.000 OA
ATOM      5  N   UNL     1      -9.552  54.229  49.277  0.00  0.00    +0.000 N 
ATOM      6  C   UNL     1     -10.590  54.530  47.101  0.00  0.00    +0.000 A 
ATOM      7  C   UNL     1      -9.692  53.832  47.917  0.00  0.00    +0.000 A 
ATOM      8  C   UNL     1     -10.660  54.217  45.731  0.00  0.00    +0.000 A 
ATOM      9  C   UNL     1      -8.940  52.781  47.369  0.00  0.00    +0.000 A 
ATOM     10  C   UNL     1      -9.866  53.209  45.188  0.00  0.00    +0.000 A 
ATOM     11  C   UNL     1      -9.015  52.481  46.009  0.00  0.00    +0.000 A 
ENDROOT
BRANCH   1  17
ATOM     12  S   UNL     1     -13.528  59.114  49.451  0.00  0.00    +0.000 S 
ATOM     13  O   UNL     1     -14.633  59.151  48.514  0.00  0.00    +0.000 OA
ATOM     14  O   UNL     1     -12.744  60.309  49.708  0.00  0.00    +0.000 OA
ATOM     15  N   UNL     1     -12.495  57.958  48.985  0.00  0.00    +0.000 N 
ATOM     16  C   UNL     1     -14.212  58.639  50.991  0.00  0.00    +0.000 A 
ATOM     17  C   UNL     1     -12.424  56.815  49.604  0.00  0.00    +0.000 C 
ATOM     18  C   UNL     1     -13.967  57.346  51.436  0.00  0.00    +0.000 A 
ATOM     19  C   UNL     1     -14.979  59.556  51.719  0.00  0.00    +0.000 A 
ATOM     20  N   UNL     1     -13.143  56.477  50.727  0.00  0.00    +0.000 N 
ATOM     21  C   UNL     1     -14.511  56.970  52.670  0.00  0.00    +0.000 A 
ATOM     22  C   UNL     1     -15.517  59.160  52.939  0.00  0.00    +0.000 A 
ATOM     23  C   UNL     1     -15.284  57.872  53.413  0.00  0.00    +0.000 A 
ATOM     24  H   UNL     1     -11.907  58.123  48.213  0.00  0.00    +0.000 HD
ATOM     25  H   UNL     1     -13.068  55.551  51.054  0.00  0.00    +0.000 HD
ENDBRANCH   1  17
BRANCH   3  26
ATOM     26  O   UNL     1     -12.312  56.166  46.780  0.00  0.00    +0.000 OA
ATOM     27  H   UNL     1     -12.388  57.100  46.771  0.00  0.00    +0.000 HD
ENDBRANCH   3  26
BRANCH   5  28
ATOM     28  N   UNL     1      -8.546  53.623  50.102  0.00  0.00    +0.000 N 
ATOM     29  H   UNL     1      -8.675  52.781  50.597  0.00  0.00    +0.000 HD
BRANCH  28  30
ATOM     30  C   UNL     1      -7.295  54.408  50.124  0.00  0.00    +0.000 C 
BRANCH  30  31
ATOM     31  C   UNL     1      -6.846  54.700  51.563  0.00  0.00    +0.000 C 
ATOM     32  C   UNL     1      -7.524  53.778  52.582  0.00  0.00    +0.000 C 
ATOM     33  C   UNL     1      -7.236  56.084  52.086  0.00  0.00    +0.000 C 
ATOM     34  C   UNL     1      -7.378  54.494  53.923  0.00  0.00    +0.000 C 
ATOM     35  C   UNL     1      -7.089  55.958  53.598  0.00  0.00    +0.000 C 
ENDBRANCH  30  31
ENDBRANCH  28  30
ENDBRANCH   5  28
TORSDOF 5
ENDMDL
MODEL 5
REMARK VINA RESULT:      -8.1      4.416      5.502
REMARK  Name = 
REMARK  5 active torsions:
REMARK  status: ('A' for Active; 'I' for Inactive)
REMARK    1  A    between atoms: C_6  and  C_10
REMARK    2  A    between atoms: C_14  and  O_18
REMARK    3  A    between atoms: N_17  and  N_20
REMARK    4  A    between atoms: N_20  and  C_23
REMARK    5  A    between atoms: C_23  and  C_26
REMARK                            x       y       z     vdW  Elec       q    Type
REMARK                         _______ _______ _______ _____ _____    ______ ____
ROOT
ATOM      1  C   UNL     1     -12.356  54.245  49.777  0.00  0.00    +0.000 A 
ATOM      2  C   UNL     1     -11.926  53.993  48.364  0.00  0.00    +0.000 A 
ATOM      3  C   UNL     1     -12.069  53.337  50.730  0.00  0.00    +0.000 A 
ATOM      4  O   UNL     1     -12.285  54.771  47.471  0.00  0.00    +0.000 OA
ATOM      5  N   UNL     1     -11.148  52.857  48.109  0.00  0.00    +0.000 N 
ATOM      6  C   UNL     1     -11.212  52.176  50.441  0.00  0.00    +0.000 A 
ATOM      7  C   UNL     1     -10.704  51.993  49.149  0.00  0.00    +0.000 A 
ATOM      8  C   UNL     1     -10.863  51.263  51.453  0.00  0.00    +0.000 A 
ATOM      9  C   UNL     1      -9.794  50.951  48.911  0.00  0.00    +0.000 A 
ATOM     10  C   UNL     1     -10.003  50.199  51.189  0.00  0.00    +0.000 A 
ATOM     11  C   UNL     1      -9.457  50.050  49.921  0.00  0.00    +0.000 A 
ENDROOT
BRANCH   1  17
ATOM     12  S   UNL     1     -15.304  56.433  51.176  0.00  0.00    +0.000 S 
ATOM     13  O   UNL     1     -15.227  56.532  52.620  0.00  0.00    +0.000 OA
ATOM     14  O   UNL     1     -16.585  56.237  50.521  0.00  0.00    +0.000 OA
ATOM     15  N   UNL     1     -14.332  55.235  50.688  0.00  0.00    +0.000 N 
ATOM     16  C   UNL     1     -14.663  57.938  50.550  0.00  0.00    +0.000 A 
ATOM     17  C   UNL     1     -13.182  55.473  50.125  0.00  0.00    +0.000 C 
ATOM     18  C   UNL     1     -13.399  57.912  49.975  0.00  0.00    +0.000 A 
ATOM     19  C   UNL     1     -15.425  59.108  50.649  0.00  0.00    +0.000 A 
ATOM     20  N   UNL     1     -12.691  56.723  49.826  0.00  0.00    +0.000 N 
ATOM     21  C   UNL     1     -12.891  59.116  49.472  0.00  0.00    +0.000 A 
ATOM     22  C   UNL     1     -14.898  60.294  50.149  0.00  0.00    +0.000 A 
ATOM     23  C   UNL     1     -13.635  60.299  49.564  0.00  0.00    +0.000 A 
ATOM     24  H   UNL     1     -14.616  54.302  50.822  0.00  0.00    +0.000 HD
ATOM     25  H   UNL     1     -11.771  56.780  49.481  0.00  0.00    +0.000 HD
ENDBRANCH   1  17
BRANCH   3  26
ATOM     26  O   UNL     1     -12.505  53.404  52.042  0.00  0.00    +0.000 OA
ATOM     27  H   UNL     1     -13.336  53.040  52.277  0.00  0.00    +0.000 HD
ENDBRANCH   3  26
BRANCH   5  28
ATOM     28  N   UNL     1     -10.750  52.613  46.752  0.00  0.00    +0.000 N 
ATOM     29  H   UNL     1     -11.250  52.040  46.127  0.00  0.00    +0.000 HD
BRANCH  28  30
ATOM     30  C   UNL     1      -9.502  53.322  46.400  0.00  0.00    +0.000 C 
BRANCH  30  31
ATOM     31  C   UNL     1      -9.258  53.300  44.885  0.00  0.00    +0.000 C 
ATOM     32  C   UNL     1     -10.498  52.858  44.102  0.00  0.00    +0.000 C 
ATOM     33  C   UNL     1      -8.215  52.282  44.419  0.00  0.00    +0.000 C 
ATOM     34  C   UNL     1      -9.971  52.415  42.739  0.00  0.00    +0.000 C 
ATOM     35  C   UNL     1      -8.479  52.146  42.924  0.00  0.00    +0.000 C 
ENDBRANCH  30  31
ENDBRANCH  28  30
ENDBRANCH   5  28
TORSDOF 5
ENDMDL
MODEL 6
REMARK VINA RESULT:      -8.1      2.827      8.680
REMARK  Name = 
REMARK  5 active torsions:
REMARK  status: ('A' for Active; 'I' for Inactive)
REMARK    1  A    between atoms: C_6  and  C_10
REMARK    2  A    between atoms: C_14  and  O_18
REMARK    3  A    between atoms: N_17  and  N_20
REMARK    4  A    between atoms: N_20  and  C_23
REMARK    5  A    between atoms: C_23  and  C_26
REMARK                            x       y       z     vdW  Elec       q    Type
REMARK                         _______ _______ _______ _____ _____    ______ ____
ROOT
ATOM      1  C   UNL     1      -9.499  53.900  50.542  0.00  0.00    +0.000 A 
ATOM      2  C   UNL     1     -10.752  54.211  51.303  0.00  0.00    +0.000 A 
ATOM      3  C   UNL     1      -9.465  54.095  49.209  0.00  0.00    +0.000 A 
ATOM      4  O   UNL     1     -10.820  53.928  52.505  0.00  0.00    +0.000 OA
ATOM      5  N   UNL     1     -11.815  54.792  50.602  0.00  0.00    +0.000 N 
ATOM      6  C   UNL     1     -10.582  54.748  48.509  0.00  0.00    +0.000 A 
ATOM      7  C   UNL     1     -11.713  55.153  49.229  0.00  0.00    +0.000 A 
ATOM      8  C   UNL     1     -10.518  55.007  47.127  0.00  0.00    +0.000 A 
ATOM      9  C   UNL     1     -12.719  55.879  48.574  0.00  0.00    +0.000 A 
ATOM     10  C   UNL     1     -11.552  55.679  46.478  0.00  0.00    +0.000 A 
ATOM     11  C   UNL     1     -12.647  56.128  47.203  0.00  0.00    +0.000 A 
ENDROOT
BRANCH   1  17
ATOM     12  S   UNL     1      -7.374  51.446  52.757  0.00  0.00    +0.000 S 
ATOM     13  O   UNL     1      -7.117  50.209  52.047  0.00  0.00    +0.000 OA
ATOM     14  O   UNL     1      -7.724  51.424  54.166  0.00  0.00    +0.000 OA
ATOM     15  N   UNL     1      -8.551  52.248  51.987  0.00  0.00    +0.000 N 
ATOM     16  C   UNL     1      -5.906  52.392  52.634  0.00  0.00    +0.000 A 
ATOM     17  C   UNL     1      -8.298  53.290  51.249  0.00  0.00    +0.000 C 
ATOM     18  C   UNL     1      -5.908  53.481  51.772  0.00  0.00    +0.000 A 
ATOM     19  C   UNL     1      -4.785  52.030  53.390  0.00  0.00    +0.000 A 
ATOM     20  N   UNL     1      -7.057  53.862  51.084  0.00  0.00    +0.000 N 
ATOM     21  C   UNL     1      -4.735  54.238  51.679  0.00  0.00    +0.000 A 
ATOM     22  C   UNL     1      -3.626  52.791  53.278  0.00  0.00    +0.000 A 
ATOM     23  C   UNL     1      -3.601  53.891  52.424  0.00  0.00    +0.000 A 
ATOM     24  H   UNL     1      -9.481  51.939  52.077  0.00  0.00    +0.000 HD
ATOM     25  H   UNL     1      -6.976  54.594  50.431  0.00  0.00    +0.000 HD
ENDBRANCH   1  17
BRANCH   3  26
ATOM     26  O   UNL     1      -8.409  53.744  48.387  0.00  0.00    +0.000 OA
ATOM     27  H   UNL     1      -8.327  52.862  48.082  0.00  0.00    +0.000 HD
ENDBRANCH   3  26
BRANCH   5  28
ATOM     28  N   UNL     1     -13.018  55.076  51.331  0.00  0.00    +0.000 N 
ATOM     29  H   UNL     1     -13.833  54.524  51.284  0.00  0.00    +0.000 HD
BRANCH  28  30
ATOM     30  C   UNL     1     -12.893  56.291  52.162  0.00  0.00    +0.000 C 
BRANCH  30  31
ATOM     31  C   UNL     1     -14.144  57.174  52.047  0.00  0.00    +0.000 C 
ATOM     32  C   UNL     1     -14.038  58.188  50.903  0.00  0.00    +0.000 C 
ATOM     33  C   UNL     1     -14.398  58.085  53.250  0.00  0.00    +0.000 C 
ATOM     34  C   UNL     1     -15.071  59.265  51.230  0.00  0.00    +0.000 C 
ATOM     35  C   UNL     1     -15.377  59.126  52.719  0.00  0.00    +0.000 C 
ENDBRANCH  30  31
ENDBRANCH  28  30
ENDBRANCH   5  28
TORSDOF 5
ENDMDL
MODEL 7
REMARK VINA RESULT:      -8.1      3.525      5.029
REMARK  Name = 
REMARK  5 active torsions:
REMARK  status: ('A' for Active; 'I' for Inactive)
REMARK    1  A    between atoms: C_6  and  C_10
REMARK    2  A    between atoms: C_14  and  O_18
REMARK    3  A    between atoms: N_17  and  N_20
REMARK    4  A    between atoms: N_20  and  C_23
REMARK    5  A    between atoms: C_23  and  C_26
REMARK                            x       y       z     vdW  Elec       q    Type
REMARK                         _______ _______ _______ _____ _____    ______ ____
ROOT
ATOM      1  C   UNL     1     -10.632  55.759  48.415  0.00  0.00    +0.000 A 
ATOM      2  C   UNL     1      -9.186  55.830  48.801  0.00  0.00    +0.000 A 
ATOM      3  C   UNL     1     -10.979  55.192  47.242  0.00  0.00    +0.000 A 
ATOM      4  O   UNL     1      -8.858  56.446  49.822  0.00  0.00    +0.000 OA
ATOM      5  N   UNL     1      -8.254  55.209  47.961  0.00  0.00    +0.000 N 
ATOM      6  C   UNL     1      -9.983  54.510  46.403  0.00  0.00    +0.000 A 
ATOM      7  C   UNL     1      -8.644  54.465  46.812  0.00  0.00    +0.000 A 
ATOM      8  C   UNL     1     -10.359  53.866  45.210  0.00  0.00    +0.000 A 
ATOM      9  C   UNL     1      -7.724  53.712  46.066  0.00  0.00    +0.000 A 
ATOM     10  C   UNL     1      -9.423  53.169  44.449  0.00  0.00    +0.000 A 
ATOM     11  C   UNL     1      -8.107  53.080  44.883  0.00  0.00    +0.000 A 
ENDROOT
BRANCH   1  17
ATOM     12  S   UNL     1     -13.261  56.175  51.305  0.00  0.00    +0.000 S 
ATOM     13  O   UNL     1     -12.597  56.420  52.570  0.00  0.00    +0.000 OA
ATOM     14  O   UNL     1     -14.402  55.279  51.237  0.00  0.00    +0.000 OA
ATOM     15  N   UNL     1     -12.166  55.632  50.243  0.00  0.00    +0.000 N 
ATOM     16  C   UNL     1     -13.832  57.733  50.745  0.00  0.00    +0.000 A 
ATOM     17  C   UNL     1     -11.698  56.392  49.296  0.00  0.00    +0.000 C 
ATOM     18  C   UNL     1     -13.152  58.329  49.690  0.00  0.00    +0.000 A 
ATOM     19  C   UNL     1     -14.934  58.329  51.366  0.00  0.00    +0.000 A 
ATOM     20  N   UNL     1     -12.102  57.683  49.043  0.00  0.00    +0.000 N 
ATOM     21  C   UNL     1     -13.612  59.572  49.241  0.00  0.00    +0.000 A 
ATOM     22  C   UNL     1     -15.371  59.569  50.910  0.00  0.00    +0.000 A 
ATOM     23  C   UNL     1     -14.712  60.188  49.852  0.00  0.00    +0.000 A 
ATOM     24  H   UNL     1     -11.845  54.704  50.317  0.00  0.00    +0.000 HD
ATOM     25  H   UNL     1     -11.611  58.187  48.354  0.00  0.00    +0.000 HD
ENDBRANCH   1  17
BRANCH   3  26
ATOM     26  O   UNL     1     -12.264  55.166  46.729  0.00  0.00    +0.000 OA
ATOM     27  H   UNL     1     -12.398  55.064  45.807  0.00  0.00    +0.000 HD
ENDBRANCH   3  26
BRANCH   5  28
ATOM     28  N   UNL     1      -6.868  55.291  48.327  0.00  0.00    +0.000 N 
ATOM     29  H   UNL     1      -6.269  56.021  48.050  0.00  0.00    +0.000 HD
BRANCH  28  30
ATOM     30  C   UNL     1      -6.446  54.153  49.170  0.00  0.00    +0.000 C 
BRANCH  30  31
ATOM     31  C   UNL     1      -5.736  54.638  50.442  0.00  0.00    +0.000 C 
ATOM     32  C   UNL     1      -4.417  53.900  50.690  0.00  0.00    +0.000 C 
ATOM     33  C   UNL     1      -6.496  54.365  51.742  0.00  0.00    +0.000 C 
ATOM     34  C   UNL     1      -4.113  54.115  52.171  0.00  0.00    +0.000 C 
ATOM     35  C   UNL     1      -5.433  54.516  52.824  0.00  0.00    +0.000 C 
ENDBRANCH  30  31
ENDBRANCH  28  30
ENDBRANCH   5  28
TORSDOF 5
ENDMDL
MODEL 8
REMARK VINA RESULT:      -7.9      1.523      2.212
REMARK  Name = 
REMARK  5 active torsions:
REMARK  status: ('A' for Active; 'I' for Inactive)
REMARK    1  A    between atoms: C_6  and  C_10
REMARK    2  A    between atoms: C_14  and  O_18
REMARK    3  A    between atoms: N_17  and  N_20
REMARK    4  A    between atoms: N_20  and  C_23
REMARK    5  A    between atoms: C_23  and  C_26
REMARK                            x       y       z     vdW  Elec       q    Type
REMARK                         _______ _______ _______ _____ _____    ______ ____
ROOT
ATOM      1  C   UNL     1     -10.129  54.636  52.104  0.00  0.00    +0.000 A 
ATOM      2  C   UNL     1      -8.717  55.131  52.025  0.00  0.00    +0.000 A 
ATOM      3  C   UNL     1     -10.394  53.485  52.755  0.00  0.00    +0.000 A 
ATOM      4  O   UNL     1      -8.459  56.125  51.336  0.00  0.00    +0.000 OA
ATOM      5  N   UNL     1      -7.734  54.420  52.724  0.00  0.00    +0.000 N 
ATOM      6  C   UNL     1      -9.348  52.785  53.516  0.00  0.00    +0.000 A 
ATOM      7  C   UNL     1      -8.047  53.303  53.549  0.00  0.00    +0.000 A 
ATOM      8  C   UNL     1      -9.641  51.618  54.245  0.00  0.00    +0.000 A 
ATOM      9  C   UNL     1      -7.086  52.695  54.371  0.00  0.00    +0.000 A 
ATOM     10  C   UNL     1      -8.662  50.991  55.013  0.00  0.00    +0.000 A 
ATOM     11  C   UNL     1      -7.387  51.536  55.088  0.00  0.00    +0.000 A 
ENDROOT
BRANCH   1  17
ATOM     12  S   UNL     1     -13.502  56.568  51.538  0.00  0.00    +0.000 S 
ATOM     13  O   UNL     1     -13.390  57.939  51.996  0.00  0.00    +0.000 OA
ATOM     14  O   UNL     1     -14.706  55.802  51.807  0.00  0.00    +0.000 OA
ATOM     15  N   UNL     1     -12.258  55.722  52.133  0.00  0.00    +0.000 N 
ATOM     16  C   UNL     1     -13.337  56.622  49.796  0.00  0.00    +0.000 A 
ATOM     17  C   UNL     1     -11.248  55.376  51.388  0.00  0.00    +0.000 C 
ATOM     18  C   UNL     1     -12.144  56.170  49.247  0.00  0.00    +0.000 A 
ATOM     19  C   UNL     1     -14.389  57.114  49.016  0.00  0.00    +0.000 A 
ATOM     20  N   UNL     1     -11.140  55.619  50.039  0.00  0.00    +0.000 N 
ATOM     21  C   UNL     1     -12.015  56.209  47.853  0.00  0.00    +0.000 A 
ATOM     22  C   UNL     1     -14.238  57.151  47.634  0.00  0.00    +0.000 A 
ATOM     23  C   UNL     1     -13.055  56.702  47.054  0.00  0.00    +0.000 A 
ATOM     24  H   UNL     1     -12.264  55.463  53.083  0.00  0.00    +0.000 HD
ATOM     25  H   UNL     1     -10.289  55.388  49.601  0.00  0.00    +0.000 HD
ENDBRANCH   1  17
BRANCH   3  26
ATOM     26  O   UNL     1     -11.634  52.873  52.802  0.00  0.00    +0.000 OA
ATOM     27  H   UNL     1     -11.850  52.206  52.180  0.00  0.00    +0.000 HD
ENDBRANCH   3  26
BRANCH   5  28
ATOM     28  N   UNL     1      -6.381  54.890  52.634  0.00  0.00    +0.000 N 
ATOM     29  H   UNL     1      -5.937  55.425  53.331  0.00  0.00    +0.000 HD
BRANCH  28  30
ATOM     30  C   UNL     1      -5.730  54.477  51.373  0.00  0.00    +0.000 C 
BRANCH  30  31
ATOM     31  C   UNL     1      -4.618  53.450  51.632  0.00  0.00    +0.000 C 
ATOM     32  C   UNL     1      -5.132  52.008  51.567  0.00  0.00    +0.000 C 
ATOM     33  C   UNL     1      -4.012  53.503  53.036  0.00  0.00    +0.000 C 
ATOM     34  C   UNL     1      -4.087  51.180  52.311  0.00  0.00    +0.000 C 
ATOM     35  C   UNL     1      -3.300  52.162  53.176  0.00  0.00    +0.000 C 
ENDBRANCH  30  31
ENDBRANCH  28  30
ENDBRANCH   5  28
TORSDOF 5
ENDMDL
MODEL 9
REMARK VINA RESULT:      -7.9      3.784      7.528
REMARK  Name = 
REMARK  5 active torsions:
REMARK  status: ('A' for Active; 'I' for Inactive)
REMARK    1  A    between atoms: C_6  and  C_10
REMARK    2  A    between atoms: C_14  and  O_18
REMARK    3  A    between atoms: N_17  and  N_20
REMARK    4  A    between atoms: N_20  and  C_23
REMARK    5  A    between atoms: C_23  and  C_26
REMARK                            x       y       z     vdW  Elec       q    Type
REMARK                         _______ _______ _______ _____ _____    ______ ____
ROOT
ATOM      1  C   UNL     1     -10.325  55.071  50.774  0.00  0.00    +0.000 A 
ATOM      2  C   UNL     1      -9.991  55.031  49.314  0.00  0.00    +0.000 A 
ATOM      3  C   UNL     1     -11.454  55.685  51.180  0.00  0.00    +0.000 A 
ATOM      4  O   UNL     1      -8.904  54.565  48.951  0.00  0.00    +0.000 OA
ATOM      5  N   UNL     1     -10.927  55.554  48.414  0.00  0.00    +0.000 N 
ATOM      6  C   UNL     1     -12.438  56.186  50.208  0.00  0.00    +0.000 A 
ATOM      7  C   UNL     1     -12.193  56.048  48.836  0.00  0.00    +0.000 A 
ATOM      8  C   UNL     1     -13.645  56.771  50.635  0.00  0.00    +0.000 A 
ATOM      9  C   UNL     1     -13.189  56.421  47.920  0.00  0.00    +0.000 A 
ATOM     10  C   UNL     1     -14.601  57.190  49.712  0.00  0.00    +0.000 A 
ATOM     11  C   UNL     1     -14.380  57.003  48.354  0.00  0.00    +0.000 A 
ENDROOT
BRANCH   1  17
ATOM     12  S   UNL     1      -7.047  54.562  52.879  0.00  0.00    +0.000 S 
ATOM     13  O   UNL     1      -6.916  55.601  53.881  0.00  0.00    +0.000 OA
ATOM     14  O   UNL     1      -5.888  54.123  52.122  0.00  0.00    +0.000 OA
ATOM     15  N   UNL     1      -8.171  55.018  51.806  0.00  0.00    +0.000 N 
ATOM     16  C   UNL     1      -7.645  53.147  53.719  0.00  0.00    +0.000 A 
ATOM     17  C   UNL     1      -9.363  54.497  51.802  0.00  0.00    +0.000 C 
ATOM     18  C   UNL     1      -8.974  52.793  53.524  0.00  0.00    +0.000 A 
ATOM     19  C   UNL     1      -6.786  52.424  54.554  0.00  0.00    +0.000 A 
ATOM     20  N   UNL     1      -9.789  53.487  52.634  0.00  0.00    +0.000 N 
ATOM     21  C   UNL     1      -9.449  51.659  54.194  0.00  0.00    +0.000 A 
ATOM     22  C   UNL     1      -7.280  51.305  55.217  0.00  0.00    +0.000 A 
ATOM     23  C   UNL     1      -8.607  50.924  55.038  0.00  0.00    +0.000 A 
ATOM     24  H   UNL     1      -7.946  55.708  51.141  0.00  0.00    +0.000 HD
ATOM     25  H   UNL     1     -10.741  53.237  52.596  0.00  0.00    +0.000 HD
ENDBRANCH   1  17
BRANCH   3  26
ATOM     26  O   UNL     1     -11.814  55.882  52.502  0.00  0.00    +0.000 OA
ATOM     27  H   UNL     1     -11.702  55.190  53.125  0.00  0.00    +0.000 HD
ENDBRANCH   3  26
BRANCH   5  28
ATOM     28  N   UNL     1     -10.596  55.526  47.017  0.00  0.00    +0.000 N 
ATOM     29  H   UNL     1      -9.944  56.131  46.594  0.00  0.00    +0.000 HD
BRANCH  28  30
ATOM     30  C   UNL     1     -11.347  54.483  46.287  0.00  0.00    +0.000 C 
BRANCH  30  31
ATOM     31  C   UNL     1     -10.396  53.483  45.614  0.00  0.00    +0.000 C 
ATOM     32  C   UNL     1      -9.023  54.094  45.318  0.00  0.00    +0.000 C 
ATOM     33  C   UNL     1     -10.837  53.016  44.225  0.00  0.00    +0.000 C 
ATOM     34  C   UNL     1      -8.409  53.192  44.248  0.00  0.00    +0.000 C 
ATOM     35  C   UNL     1      -9.570  52.424  43.620  0.00  0.00    +0.000 C 
ENDBRANCH  30  31
ENDBRANCH  28  30
ENDBRANCH   5  28
TORSDOF 5
ENDMDL
