MODEL 1
REMARK VINA RESULT:      -8.0      0.000      0.000
REMARK  Name = 
REMARK  8 active torsions:
REMARK  status: ('A' for Active; 'I' for Inactive)
REMARK    1  A    between atoms: C_6  and  C_10
REMARK    2  A    between atoms: C_14  and  O_18
REMARK    3  A    between atoms: N_17  and  N_20
REMARK    4  A    between atoms: N_20  and  C_23
REMARK    5  A    between atoms: C_23  and  C_26
REMARK    6  A    between atoms: C_23  and  C_27
REMARK    7  A    between atoms: C_26  and  C_29
REMARK    8  A    between atoms: C_27  and  C_30
REMARK                            x       y       z     vdW  Elec       q    Type
REMARK                         _______ _______ _______ _____ _____    ______ ____
ROOT
ATOM      1  C   UNL     1     -10.082  55.424  50.670  0.00  0.00    +0.000 A 
ATOM      2  C   UNL     1      -9.619  55.579  49.250  0.00  0.00    +0.000 A 
ATOM      3  C   UNL     1     -11.322  55.836  51.002  0.00  0.00    +0.000 A 
ATOM      4  O   UNL     1      -8.410  55.523  49.007  0.00  0.00    +0.000 OA
ATOM      5  N   UNL     1     -10.626  55.705  48.282  0.00  0.00    +0.000 N 
ATOM      6  C   UNL     1     -12.265  56.299  49.976  0.00  0.00    +0.000 A 
ATOM      7  C   UNL     1     -11.928  56.162  48.625  0.00  0.00    +0.000 A 
ATOM      8  C   UNL     1     -13.544  56.764  50.320  0.00  0.00    +0.000 A 
ATOM      9  C   UNL     1     -12.872  56.493  47.640  0.00  0.00    +0.000 A 
ATOM     10  C   UNL     1     -14.486  57.064  49.337  0.00  0.00    +0.000 A 
ATOM     11  C   UNL     1     -14.151  56.921  47.996  0.00  0.00    +0.000 A 
ENDROOT
BRANCH   1  17
ATOM     12  S   UNL     1      -6.995  54.785  53.010  0.00  0.00    +0.000 S 
ATOM     13  O   UNL     1      -7.042  55.749  54.084  0.00  0.00    +0.000 OA
ATOM     14  O   UNL     1      -5.739  54.427  52.372  0.00  0.00    +0.000 OA
ATOM     15  N   UNL     1      -8.005  55.265  51.847  0.00  0.00    +0.000 N 
ATOM     16  C   UNL     1      -7.635  53.291  53.678  0.00  0.00    +0.000 A 
ATOM     17  C   UNL     1      -9.185  54.733  51.689  0.00  0.00    +0.000 C 
ATOM     18  C   UNL     1      -8.919  52.912  53.312  0.00  0.00    +0.000 A 
ATOM     19  C   UNL     1      -6.849  52.544  54.563  0.00  0.00    +0.000 A 
ATOM     20  N   UNL     1      -9.667  53.659  52.404  0.00  0.00    +0.000 N 
ATOM     21  C   UNL     1      -9.439  51.749  53.888  0.00  0.00    +0.000 A 
ATOM     22  C   UNL     1      -7.375  51.382  55.113  0.00  0.00    +0.000 A 
ATOM     23  C   UNL     1      -8.671  50.988  54.780  0.00  0.00    +0.000 A 
ATOM     24  H   UNL     1      -7.721  55.983  51.235  0.00  0.00    +0.000 HD
ATOM     25  H   UNL     1     -10.606  53.399  52.263  0.00  0.00    +0.000 HD
ENDBRANCH   1  17
BRANCH   3  26
ATOM     26  O   UNL     1     -11.861  55.779  52.274  0.00  0.00    +0.000 OA
ATOM     27  H   UNL     1     -12.682  55.349  52.417  0.00  0.00    +0.000 HD
ENDBRANCH   3  26
BRANCH   5  28
ATOM     28  N   UNL     1     -10.351  55.524  46.901  0.00  0.00    +0.000 N 
ATOM     29  H   UNL     1     -10.124  56.276  46.309  0.00  0.00    +0.000 HD
BRANCH  28  30
ATOM     30  C   UNL     1     -10.430  54.135  46.416  0.00  0.00    +0.000 C 
BRANCH  30  31
ATOM     31  C   UNL     1     -11.455  53.960  45.272  0.00  0.00    +0.000 C 
ATOM     32  C   UNL     1     -11.819  52.518  44.936  0.00  0.00    +0.000 C 
ENDBRANCH  30  31
BRANCH  30  33
ATOM     33  C   UNL     1      -9.022  53.678  45.972  0.00  0.00    +0.000 C 
ATOM     34  C   UNL     1      -8.110  54.827  45.553  0.00  0.00    +0.000 C 
ENDBRANCH  30  33
ENDBRANCH  28  30
ENDBRANCH   5  28
TORSDOF 6
ENDMDL
MODEL 2
REMARK VINA RESULT:      -7.9      3.781      6.844
REMARK  Name = 
REMARK  8 active torsions:
REMARK  status: ('A' for Active; 'I' for Inactive)
REMARK    1  A    between atoms: C_6  and  C_10
REMARK    2  A    between atoms: C_14  and  O_18
REMARK    3  A    between atoms: N_17  and  N_20
REMARK    4  A    between atoms: N_20  and  C_23
REMARK    5  A    between atoms: C_23  and  C_26
REMARK    6  A    between atoms: C_23  and  C_27
REMARK    7  A    between atoms: C_26  and  C_29
REMARK    8  A    between atoms: C_27  and  C_30
REMARK                            x       y       z     vdW  Elec       q    Type
REMARK                         _______ _______ _______ _____ _____    ______ ____
ROOT
ATOM      1  C   UNL     1     -12.440  54.327  49.586  0.00  0.00    +0.000 A 
ATOM      2  C   UNL     1     -11.757  54.248  48.252  0.00  0.00    +0.000 A 
ATOM      3  C   UNL     1     -12.228  53.348  50.488  0.00  0.00    +0.000 A 
ATOM      4  O   UNL     1     -12.188  54.932  47.319  0.00  0.00    +0.000 OA
ATOM      5  N   UNL     1     -10.613  53.440  48.191  0.00  0.00    +0.000 N 
ATOM      6  C   UNL     1     -11.238  52.292  50.239  0.00  0.00    +0.000 A 
ATOM      7  C   UNL     1     -10.397  52.392  49.126  0.00  0.00    +0.000 A 
ATOM      8  C   UNL     1     -11.039  51.250  51.158  0.00  0.00    +0.000 A 
ATOM      9  C   UNL     1      -9.372  51.449  48.948  0.00  0.00    +0.000 A 
ATOM     10  C   UNL     1     -10.002  50.334  50.990  0.00  0.00    +0.000 A 
ATOM     11  C   UNL     1      -9.163  50.439  49.886  0.00  0.00    +0.000 A 
ENDROOT
BRANCH   1  17
ATOM     12  S   UNL     1     -15.355  56.445  51.145  0.00  0.00    +0.000 S 
ATOM     13  O   UNL     1     -15.156  56.494  52.574  0.00  0.00    +0.000 OA
ATOM     14  O   UNL     1     -16.680  56.276  50.573  0.00  0.00    +0.000 OA
ATOM     15  N   UNL     1     -14.417  55.281  50.537  0.00  0.00    +0.000 N 
ATOM     16  C   UNL     1     -14.759  57.978  50.524  0.00  0.00    +0.000 A 
ATOM     17  C   UNL     1     -13.291  55.542  49.933  0.00  0.00    +0.000 C 
ATOM     18  C   UNL     1     -13.538  57.983  49.866  0.00  0.00    +0.000 A 
ATOM     19  C   UNL     1     -15.515  59.138  50.725  0.00  0.00    +0.000 A 
ATOM     20  N   UNL     1     -12.822  56.806  49.653  0.00  0.00    +0.000 N 
ATOM     21  C   UNL     1     -13.048  59.214  49.421  0.00  0.00    +0.000 A 
ATOM     22  C   UNL     1     -15.021  60.351  50.261  0.00  0.00    +0.000 A 
ATOM     23  C   UNL     1     -13.785  60.389  49.615  0.00  0.00    +0.000 A 
ATOM     24  H   UNL     1     -14.704  54.343  50.625  0.00  0.00    +0.000 HD
ATOM     25  H   UNL     1     -11.916  56.885  49.274  0.00  0.00    +0.000 HD
ENDBRANCH   1  17
BRANCH   3  26
ATOM     26  O   UNL     1     -12.815  53.282  51.739  0.00  0.00    +0.000 OA
ATOM     27  H   UNL     1     -12.469  52.702  52.389  0.00  0.00    +0.000 HD
ENDBRANCH   3  26
BRANCH   5  28
ATOM     28  N   UNL     1      -9.696  53.537  47.110  0.00  0.00    +0.000 N 
ATOM     29  H   UNL     1      -9.544  52.794  46.483  0.00  0.00    +0.000 HD
BRANCH  28  30
ATOM     30  C   UNL     1      -8.988  54.824  46.994  0.00  0.00    +0.000 C 
BRANCH  30  31
ATOM     31  C   UNL     1      -8.131  55.149  48.239  0.00  0.00    +0.000 C 
ATOM     32  C   UNL     1      -8.715  56.197  49.179  0.00  0.00    +0.000 C 
ENDBRANCH  30  31
BRANCH  30  33
ATOM     33  C   UNL     1      -8.121  54.805  45.715  0.00  0.00    +0.000 C 
ATOM     34  C   UNL     1      -8.443  53.647  44.775  0.00  0.00    +0.000 C 
ENDBRANCH  30  33
ENDBRANCH  28  30
ENDBRANCH   5  28
TORSDOF 6
ENDMDL
MODEL 3
REMARK VINA RESULT:      -7.8      1.501      2.092
REMARK  Name = 
REMARK  8 active torsions:
REMARK  status: ('A' for Active; 'I' for Inactive)
REMARK    1  A    between atoms: C_6  and  C_10
REMARK    2  A    between atoms: C_14  and  O_18
REMARK    3  A    between atoms: N_17  and  N_20
REMARK    4  A    between atoms: N_20  and  C_23
REMARK    5  A    between atoms: C_23  and  C_26
REMARK    6  A    between atoms: C_23  and  C_27
REMARK    7  A    between atoms: C_26  and  C_29
REMARK    8  A    between atoms: C_27  and  C_30
REMARK                            x       y       z     vdW  Elec       q    Type
REMARK                         _______ _______ _______ _____ _____    ______ ____
ROOT
ATOM      1  C   UNL     1     -10.290  55.277  50.604  0.00  0.00    +0.000 A 
ATOM      2  C   UNL     1      -9.758  55.459  49.212  0.00  0.00    +0.000 A 
ATOM      3  C   UNL     1     -11.531  55.722  50.892  0.00  0.00    +0.000 A 
ATOM      4  O   UNL     1      -8.541  55.369  49.023  0.00  0.00    +0.000 OA
ATOM      5  N   UNL     1     -10.714  55.646  48.204  0.00  0.00    +0.000 N 
ATOM      6  C   UNL     1     -12.410  56.246  49.838  0.00  0.00    +0.000 A 
ATOM      7  C   UNL     1     -12.015  56.136  48.501  0.00  0.00    +0.000 A 
ATOM      8  C   UNL     1     -13.688  56.742  50.138  0.00  0.00    +0.000 A 
ATOM      9  C   UNL     1     -12.901  56.527  47.484  0.00  0.00    +0.000 A 
ATOM     10  C   UNL     1     -14.573  57.102  49.123  0.00  0.00    +0.000 A 
ATOM     11  C   UNL     1     -14.180  56.987  47.794  0.00  0.00    +0.000 A 
ENDROOT
BRANCH   1  17
ATOM     12  S   UNL     1      -9.118  52.358  52.952  0.00  0.00    +0.000 S 
ATOM     13  O   UNL     1      -8.552  51.320  52.125  0.00  0.00    +0.000 OA
ATOM     14  O   UNL     1      -9.964  52.039  54.090  0.00  0.00    +0.000 OA
ATOM     15  N   UNL     1      -9.946  53.372  52.007  0.00  0.00    +0.000 N 
ATOM     16  C   UNL     1      -7.752  53.248  53.607  0.00  0.00    +0.000 A 
ATOM     17  C   UNL     1      -9.465  54.528  51.642  0.00  0.00    +0.000 C 
ATOM     18  C   UNL     1      -7.472  54.498  53.073  0.00  0.00    +0.000 A 
ATOM     19  C   UNL     1      -6.982  52.671  54.623  0.00  0.00    +0.000 A 
ATOM     20  N   UNL     1      -8.275  55.061  52.083  0.00  0.00    +0.000 N 
ATOM     21  C   UNL     1      -6.353  55.176  53.564  0.00  0.00    +0.000 A 
ATOM     22  C   UNL     1      -5.883  53.367  55.112  0.00  0.00    +0.000 A 
ATOM     23  C   UNL     1      -5.566  54.616  54.578  0.00  0.00    +0.000 A 
ATOM     24  H   UNL     1     -10.843  53.109  51.697  0.00  0.00    +0.000 HD
ATOM     25  H   UNL     1      -7.969  55.901  51.670  0.00  0.00    +0.000 HD
ENDBRANCH   1  17
BRANCH   3  26
ATOM     26  O   UNL     1     -12.131  55.645  52.136  0.00  0.00    +0.000 OA
ATOM     27  H   UNL     1     -12.803  56.254  52.370  0.00  0.00    +0.000 HD
ENDBRANCH   3  26
BRANCH   5  28
ATOM     28  N   UNL     1     -10.381  55.496  46.832  0.00  0.00    +0.000 N 
ATOM     29  H   UNL     1     -10.166  56.265  46.257  0.00  0.00    +0.000 HD
BRANCH  28  30
ATOM     30  C   UNL     1     -10.379  54.112  46.328  0.00  0.00    +0.000 C 
BRANCH  30  31
ATOM     31  C   UNL     1     -11.417  53.884  45.205  0.00  0.00    +0.000 C 
ATOM     32  C   UNL     1     -11.011  52.879  44.133  0.00  0.00    +0.000 C 
ENDBRANCH  30  31
BRANCH  30  33
ATOM     33  C   UNL     1      -8.955  53.756  45.845  0.00  0.00    +0.000 C 
ATOM     34  C   UNL     1      -8.063  54.974  45.621  0.00  0.00    +0.000 C 
ENDBRANCH  30  33
ENDBRANCH  28  30
ENDBRANCH   5  28
TORSDOF 6
ENDMDL
MODEL 4
REMARK VINA RESULT:      -7.7      3.225      7.322
REMARK  Name = 
REMARK  8 active torsions:
REMARK  status: ('A' for Active; 'I' for Inactive)
REMARK    1  A    between atoms: C_6  and  C_10
REMARK    2  A    between atoms: C_14  and  O_18
REMARK    3  A    between atoms: N_17  and  N_20
REMARK    4  A    between atoms: N_20  and  C_23
REMARK    5  A    between atoms: C_23  and  C_26
REMARK    6  A    between atoms: C_23  and  C_27
REMARK    7  A    between atoms: C_26  and  C_29
REMARK    8  A    between atoms: C_27  and  C_30
REMARK                            x       y       z     vdW  Elec       q    Type
REMARK                         _______ _______ _______ _____ _____    ______ ____
ROOT
ATOM      1  C   UNL     1     -10.024  54.401  52.101  0.00  0.00    +0.000 A 
ATOM      2  C   UNL     1      -8.603  54.805  51.838  0.00  0.00    +0.000 A 
ATOM      3  C   UNL     1     -10.264  53.327  52.882  0.00  0.00    +0.000 A 
ATOM      4  O   UNL     1      -8.362  55.552  50.885  0.00  0.00    +0.000 OA
ATOM      5  N   UNL     1      -7.650  54.351  52.760  0.00  0.00    +0.000 N 
ATOM      6  C   UNL     1      -9.170  52.644  53.584  0.00  0.00    +0.000 A 
ATOM      7  C   UNL     1      -7.890  53.206  53.569  0.00  0.00    +0.000 A 
ATOM      8  C   UNL     1      -9.410  51.505  54.370  0.00  0.00    +0.000 A 
ATOM      9  C   UNL     1      -6.869  52.622  54.335  0.00  0.00    +0.000 A 
ATOM     10  C   UNL     1      -8.399  50.947  55.149  0.00  0.00    +0.000 A 
ATOM     11  C   UNL     1      -7.128  51.511  55.137  0.00  0.00    +0.000 A 
ENDROOT
BRANCH   1  17
ATOM     12  S   UNL     1     -12.495  56.003  49.506  0.00  0.00    +0.000 S 
ATOM     13  O   UNL     1     -13.374  54.963  49.026  0.00  0.00    +0.000 OA
ATOM     14  O   UNL     1     -11.956  57.010  48.607  0.00  0.00    +0.000 OA
ATOM     15  N   UNL     1     -11.246  55.311  50.258  0.00  0.00    +0.000 N 
ATOM     16  C   UNL     1     -13.413  56.887  50.716  0.00  0.00    +0.000 A 
ATOM     17  C   UNL     1     -11.168  55.247  51.558  0.00  0.00    +0.000 C 
ATOM     18  C   UNL     1     -13.100  56.676  52.052  0.00  0.00    +0.000 A 
ATOM     19  C   UNL     1     -14.433  57.752  50.305  0.00  0.00    +0.000 A 
ATOM     20  N   UNL     1     -12.058  55.832  52.430  0.00  0.00    +0.000 N 
ATOM     21  C   UNL     1     -13.869  57.344  53.009  0.00  0.00    +0.000 A 
ATOM     22  C   UNL     1     -15.176  58.421  51.270  0.00  0.00    +0.000 A 
ATOM     23  C   UNL     1     -14.898  58.212  52.621  0.00  0.00    +0.000 A 
ATOM     24  H   UNL     1     -10.519  54.924  49.717  0.00  0.00    +0.000 HD
ATOM     25  H   UNL     1     -11.951  55.642  53.390  0.00  0.00    +0.000 HD
ENDBRANCH   1  17
BRANCH   3  26
ATOM     26  O   UNL     1     -11.520  52.830  53.181  0.00  0.00    +0.000 OA
ATOM     27  H   UNL     1     -11.844  52.075  52.731  0.00  0.00    +0.000 HD
ENDBRANCH   3  26
BRANCH   5  28
ATOM     28  N   UNL     1      -6.351  54.922  52.824  0.00  0.00    +0.000 N 
ATOM     29  H   UNL     1      -6.173  55.769  53.292  0.00  0.00    +0.000 HD
BRANCH  28  30
ATOM     30  C   UNL     1      -5.290  54.161  52.143  0.00  0.00    +0.000 C 
BRANCH  30  31
ATOM     31  C   UNL     1      -5.225  54.455  50.626  0.00  0.00    +0.000 C 
ATOM     32  C   UNL     1      -5.790  53.364  49.724  0.00  0.00    +0.000 C 
ENDBRANCH  30  31
BRANCH  30  33
ATOM     33  C   UNL     1      -3.937  54.467  52.824  0.00  0.00    +0.000 C 
ATOM     34  C   UNL     1      -3.316  53.259  53.518  0.00  0.00    +0.000 C 
ENDBRANCH  30  33
ENDBRANCH  28  30
ENDBRANCH   5  28
TORSDOF 6
ENDMDL
MODEL 5
REMARK VINA RESULT:      -7.7      2.322      4.593
REMARK  Name = 
REMARK  8 active torsions:
REMARK  status: ('A' for Active; 'I' for Inactive)
REMARK    1  A    between atoms: C_6  and  C_10
REMARK    2  A    between atoms: C_14  and  O_18
REMARK    3  A    between atoms: N_17  and  N_20
REMARK    4  A    between atoms: N_20  and  C_23
REMARK    5  A    between atoms: C_23  and  C_26
REMARK    6  A    between atoms: C_23  and  C_27
REMARK    7  A    between atoms: C_26  and  C_29
REMARK    8  A    between atoms: C_27  and  C_30
REMARK                            x       y       z     vdW  Elec       q    Type
REMARK                         _______ _______ _______ _____ _____    ______ ____
ROOT
ATOM      1  C   UNL     1      -9.011  54.602  50.383  0.00  0.00    +0.000 A 
ATOM      2  C   UNL     1     -10.424  54.533  50.885  0.00  0.00    +0.000 A 
ATOM      3  C   UNL     1      -8.789  54.590  49.053  0.00  0.00    +0.000 A 
ATOM      4  O   UNL     1     -10.624  54.211  52.060  0.00  0.00    +0.000 OA
ATOM      5  N   UNL     1     -11.421  54.919  49.979  0.00  0.00    +0.000 N 
ATOM      6  C   UNL     1      -9.904  54.652  48.100  0.00  0.00    +0.000 A 
ATOM      7  C   UNL     1     -11.199  54.886  48.576  0.00  0.00    +0.000 A 
ATOM      8  C   UNL     1      -9.681  54.604  46.715  0.00  0.00    +0.000 A 
ATOM      9  C   UNL     1     -12.250  55.064  47.662  0.00  0.00    +0.000 A 
ATOM     10  C   UNL     1     -10.724  54.810  45.813  0.00  0.00    +0.000 A 
ATOM     11  C   UNL     1     -12.009  55.047  46.289  0.00  0.00    +0.000 A 
ENDROOT
BRANCH   1  17
ATOM     12  S   UNL     1      -7.031  55.827  53.544  0.00  0.00    +0.000 S 
ATOM     13  O   UNL     1      -7.594  55.178  54.703  0.00  0.00    +0.000 OA
ATOM     14  O   UNL     1      -6.635  57.225  53.580  0.00  0.00    +0.000 OA
ATOM     15  N   UNL     1      -8.055  55.650  52.309  0.00  0.00    +0.000 N 
ATOM     16  C   UNL     1      -5.573  54.928  53.151  0.00  0.00    +0.000 A 
ATOM     17  C   UNL     1      -7.861  54.768  51.368  0.00  0.00    +0.000 C 
ATOM     18  C   UNL     1      -5.609  54.077  52.055  0.00  0.00    +0.000 A 
ATOM     19  C   UNL     1      -4.438  55.079  53.955  0.00  0.00    +0.000 A 
ATOM     20  N   UNL     1      -6.744  53.971  51.254  0.00  0.00    +0.000 N 
ATOM     21  C   UNL     1      -4.461  53.328  51.781  0.00  0.00    +0.000 A 
ATOM     22  C   UNL     1      -3.300  54.339  53.657  0.00  0.00    +0.000 A 
ATOM     23  C   UNL     1      -3.315  53.459  52.574  0.00  0.00    +0.000 A 
ATOM     24  H   UNL     1      -8.852  56.227  52.264  0.00  0.00    +0.000 HD
ATOM     25  H   UNL     1      -6.746  53.277  50.555  0.00  0.00    +0.000 HD
ENDBRANCH   1  17
BRANCH   3  26
ATOM     26  O   UNL     1      -7.541  54.619  48.458  0.00  0.00    +0.000 OA
ATOM     27  H   UNL     1      -7.465  54.749  47.533  0.00  0.00    +0.000 HD
ENDBRANCH   3  26
BRANCH   5  28
ATOM     28  N   UNL     1     -12.739  55.219  50.415  0.00  0.00    +0.000 N 
ATOM     29  H   UNL     1     -13.452  54.541  50.435  0.00  0.00    +0.000 HD
BRANCH  28  30
ATOM     30  C   UNL     1     -12.967  56.613  50.832  0.00  0.00    +0.000 C 
BRANCH  30  31
ATOM     31  C   UNL     1     -14.056  57.318  49.990  0.00  0.00    +0.000 C 
ATOM     32  C   UNL     1     -13.559  58.449  49.095  0.00  0.00    +0.000 C 
ENDBRANCH  30  31
BRANCH  30  33
ATOM     33  C   UNL     1     -13.330  56.634  52.334  0.00  0.00    +0.000 C 
ATOM     34  C   UNL     1     -14.176  57.837  52.741  0.00  0.00    +0.000 C 
ENDBRANCH  30  33
ENDBRANCH  28  30
ENDBRANCH   5  28
TORSDOF 6
ENDMDL
MODEL 6
REMARK VINA RESULT:      -7.6      2.954      6.786
REMARK  Name = 
REMARK  8 active torsions:
REMARK  status: ('A' for Active; 'I' for Inactive)
REMARK    1  A    between atoms: C_6  and  C_10
REMARK    2  A    between atoms: C_14  and  O_18
REMARK    3  A    between atoms: N_17  and  N_20
REMARK    4  A    between atoms: N_20  and  C_23
REMARK    5  A    between atoms: C_23  and  C_26
REMARK    6  A    between atoms: C_23  and  C_27
REMARK    7  A    between atoms: C_26  and  C_29
REMARK    8  A    between atoms: C_27  and  C_30
REMARK                            x       y       z     vdW  Elec       q    Type
REMARK                         _______ _______ _______ _____ _____    ______ ____
ROOT
ATOM      1  C   UNL     1     -11.902  54.365  48.157  0.00  0.00    +0.000 A 
ATOM      2  C   UNL     1     -12.039  53.534  49.400  0.00  0.00    +0.000 A 
ATOM      3  C   UNL     1     -12.574  55.531  48.074  0.00  0.00    +0.000 A 
ATOM      4  O   UNL     1     -11.714  52.343  49.360  0.00  0.00    +0.000 OA
ATOM      5  N   UNL     1     -12.465  54.209  50.552  0.00  0.00    +0.000 N 
ATOM      6  C   UNL     1     -13.315  56.060  49.226  0.00  0.00    +0.000 A 
ATOM      7  C   UNL     1     -13.193  55.428  50.467  0.00  0.00    +0.000 A 
ATOM      8  C   UNL     1     -14.046  57.255  49.134  0.00  0.00    +0.000 A 
ATOM      9  C   UNL     1     -13.804  55.996  51.596  0.00  0.00    +0.000 A 
ATOM     10  C   UNL     1     -14.626  57.829  50.264  0.00  0.00    +0.000 A 
ATOM     11  C   UNL     1     -14.498  57.201  51.498  0.00  0.00    +0.000 A 
ENDROOT
BRANCH   1  17
ATOM     12  S   UNL     1      -8.577  54.006  46.101  0.00  0.00    +0.000 S 
ATOM     13  O   UNL     1      -7.671  53.177  46.858  0.00  0.00    +0.000 OA
ATOM     14  O   UNL     1      -8.106  55.182  45.387  0.00  0.00    +0.000 OA
ATOM     15  N   UNL     1      -9.772  54.483  47.076  0.00  0.00    +0.000 N 
ATOM     16  C   UNL     1      -9.283  52.957  44.880  0.00  0.00    +0.000 A 
ATOM     17  C   UNL     1     -10.951  53.927  47.051  0.00  0.00    +0.000 C 
ATOM     18  C   UNL     1     -10.592  52.534  45.063  0.00  0.00    +0.000 A 
ATOM     19  C   UNL     1      -8.508  52.566  43.782  0.00  0.00    +0.000 A 
ATOM     20  N   UNL     1     -11.350  52.964  46.150  0.00  0.00    +0.000 N 
ATOM     21  C   UNL     1     -11.127  51.659  44.114  0.00  0.00    +0.000 A 
ATOM     22  C   UNL     1      -9.062  51.709  42.839  0.00  0.00    +0.000 A 
ATOM     23  C   UNL     1     -10.368  51.252  43.008  0.00  0.00    +0.000 A 
ATOM     24  H   UNL     1      -9.605  55.217  47.710  0.00  0.00    +0.000 HD
ATOM     25  H   UNL     1     -12.233  52.551  46.283  0.00  0.00    +0.000 HD
ENDBRANCH   1  17
BRANCH   3  26
ATOM     26  O   UNL     1     -12.561  56.376  46.980  0.00  0.00    +0.000 OA
ATOM     27  H   UNL     1     -13.049  56.155  46.211  0.00  0.00    +0.000 HD
ENDBRANCH   3  26
BRANCH   5  28
ATOM     28  N   UNL     1     -12.317  53.637  51.843  0.00  0.00    +0.000 N 
ATOM     29  H   UNL     1     -13.089  53.352  52.382  0.00  0.00    +0.000 HD
BRANCH  28  30
ATOM     30  C   UNL     1     -10.930  53.498  52.319  0.00  0.00    +0.000 C 
BRANCH  30  31
ATOM     31  C   UNL     1     -10.284  54.857  52.678  0.00  0.00    +0.000 C 
ATOM     32  C   UNL     1      -9.264  55.381  51.672  0.00  0.00    +0.000 C 
ENDBRANCH  30  31
BRANCH  30  33
ATOM     33  C   UNL     1     -10.909  52.540  53.531  0.00  0.00    +0.000 C 
ATOM     34  C   UNL     1      -9.503  52.188  54.008  0.00  0.00    +0.000 C 
ENDBRANCH  30  33
ENDBRANCH  28  30
ENDBRANCH   5  28
TORSDOF 6
ENDMDL
MODEL 7
REMARK VINA RESULT:      -7.5      3.530      6.054
REMARK  Name = 
REMARK  8 active torsions:
REMARK  status: ('A' for Active; 'I' for Inactive)
REMARK    1  A    between atoms: C_6  and  C_10
REMARK    2  A    between atoms: C_14  and  O_18
REMARK    3  A    between atoms: N_17  and  N_20
REMARK    4  A    between atoms: N_20  and  C_23
REMARK    5  A    between atoms: C_23  and  C_26
REMARK    6  A    between atoms: C_23  and  C_27
REMARK    7  A    between atoms: C_26  and  C_29
REMARK    8  A    between atoms: C_27  and  C_30
REMARK                            x       y       z     vdW  Elec       q    Type
REMARK                         _______ _______ _______ _____ _____    ______ ____
ROOT
ATOM      1  C   UNL     1     -10.369  54.985  47.550  0.00  0.00    +0.000 A 
ATOM      2  C   UNL     1      -8.883  55.195  47.512  0.00  0.00    +0.000 A 
ATOM      3  C   UNL     1     -10.973  54.399  46.497  0.00  0.00    +0.000 A 
ATOM      4  O   UNL     1      -8.375  56.008  48.290  0.00  0.00    +0.000 OA
ATOM      5  N   UNL     1      -8.166  54.379  46.626  0.00  0.00    +0.000 N 
ATOM      6  C   UNL     1     -10.187  53.841  45.388  0.00  0.00    +0.000 A 
ATOM      7  C   UNL     1      -8.795  53.777  45.501  0.00  0.00    +0.000 A 
ATOM      8  C   UNL     1     -10.812  53.261  44.273  0.00  0.00    +0.000 A 
ATOM      9  C   UNL     1      -8.048  53.139  44.499  0.00  0.00    +0.000 A 
ATOM     10  C   UNL     1     -10.067  52.605  43.295  0.00  0.00    +0.000 A 
ATOM     11  C   UNL     1      -8.683  52.537  43.413  0.00  0.00    +0.000 A 
ENDROOT
BRANCH   1  17
ATOM     12  S   UNL     1     -11.554  54.946  51.292  0.00  0.00    +0.000 S 
ATOM     13  O   UNL     1     -10.498  55.507  52.101  0.00  0.00    +0.000 OA
ATOM     14  O   UNL     1     -12.311  53.788  51.738  0.00  0.00    +0.000 OA
ATOM     15  N   UNL     1     -10.952  54.595  49.836  0.00  0.00    +0.000 N 
ATOM     16  C   UNL     1     -12.731  56.232  51.078  0.00  0.00    +0.000 A 
ATOM     17  C   UNL     1     -11.157  55.358  48.799  0.00  0.00    +0.000 C 
ATOM     18  C   UNL     1     -12.785  56.867  49.845  0.00  0.00    +0.000 A 
ATOM     19  C   UNL     1     -13.558  56.590  52.149  0.00  0.00    +0.000 A 
ATOM     20  N   UNL     1     -11.971  56.469  48.786  0.00  0.00    +0.000 N 
ATOM     21  C   UNL     1     -13.689  57.923  49.700  0.00  0.00    +0.000 A 
ATOM     22  C   UNL     1     -14.462  57.631  51.982  0.00  0.00    +0.000 A 
ATOM     23  C   UNL     1     -14.523  58.301  50.760  0.00  0.00    +0.000 A 
ATOM     24  H   UNL     1     -10.413  53.778  49.728  0.00  0.00    +0.000 HD
ATOM     25  H   UNL     1     -11.979  57.021  47.971  0.00  0.00    +0.000 HD
ENDBRANCH   1  17
BRANCH   3  26
ATOM     26  O   UNL     1     -12.333  54.172  46.389  0.00  0.00    +0.000 OA
ATOM     27  H   UNL     1     -12.893  54.323  47.125  0.00  0.00    +0.000 HD
ENDBRANCH   3  26
BRANCH   5  28
ATOM     28  N   UNL     1      -6.757  54.236  46.728  0.00  0.00    +0.000 N 
ATOM     29  H   UNL     1      -6.138  54.689  46.112  0.00  0.00    +0.000 HD
BRANCH  28  30
ATOM     30  C   UNL     1      -6.286  53.363  47.817  0.00  0.00    +0.000 C 
BRANCH  30  31
ATOM     31  C   UNL     1      -6.091  51.897  47.365  0.00  0.00    +0.000 C 
ATOM     32  C   UNL     1      -7.296  50.985  47.568  0.00  0.00    +0.000 C 
ENDBRANCH  30  31
BRANCH  30  33
ATOM     33  C   UNL     1      -4.974  53.943  48.393  0.00  0.00    +0.000 C 
ATOM     34  C   UNL     1      -5.195  55.022  49.449  0.00  0.00    +0.000 C 
ENDBRANCH  30  33
ENDBRANCH  28  30
ENDBRANCH   5  28
TORSDOF 6
ENDMDL
MODEL 8
REMARK VINA RESULT:      -7.5      3.270      6.653
REMARK  Name = 
REMARK  8 active torsions:
REMARK  status: ('A' for Active; 'I' for Inactive)
REMARK    1  A    between atoms: C_6  and  C_10
REMARK    2  A    between atoms: C_14  and  O_18
REMARK    3  A    between atoms: N_17  and  N_20
REMARK    4  A    between atoms: N_20  and  C_23
REMARK    5  A    between atoms: C_23  and  C_26
REMARK    6  A    between atoms: C_23  and  C_27
REMARK    7  A    between atoms: C_26  and  C_29
REMARK    8  A    between atoms: C_27  and  C_30
REMARK                            x       y       z     vdW  Elec       q    Type
REMARK                         _______ _______ _______ _____ _____    ______ ____
ROOT
ATOM      1  C   UNL     1     -11.580  56.062  48.712  0.00  0.00    +0.000 A 
ATOM      2  C   UNL     1     -10.435  55.395  49.416  0.00  0.00    +0.000 A 
ATOM      3  C   UNL     1     -11.845  55.726  47.433  0.00  0.00    +0.000 A 
ATOM      4  O   UNL     1      -9.978  55.916  50.438  0.00  0.00    +0.000 OA
ATOM      5  N   UNL     1     -10.013  54.168  48.887  0.00  0.00    +0.000 N 
ATOM      6  C   UNL     1     -11.127  54.627  46.776  0.00  0.00    +0.000 A 
ATOM      7  C   UNL     1     -10.271  53.819  47.533  0.00  0.00    +0.000 A 
ATOM      8  C   UNL     1     -11.373  54.295  45.434  0.00  0.00    +0.000 A 
ATOM      9  C   UNL     1      -9.674  52.697  46.938  0.00  0.00    +0.000 A 
ATOM     10  C   UNL     1     -10.799  53.164  44.858  0.00  0.00    +0.000 A 
ATOM     11  C   UNL     1      -9.954  52.359  45.614  0.00  0.00    +0.000 A 
ENDROOT
BRANCH   1  17
ATOM     12  S   UNL     1     -13.604  59.334  49.495  0.00  0.00    +0.000 S 
ATOM     13  O   UNL     1     -14.741  59.378  48.607  0.00  0.00    +0.000 OA
ATOM     14  O   UNL     1     -12.840  60.531  49.804  0.00  0.00    +0.000 OA
ATOM     15  N   UNL     1     -12.565  58.230  48.941  0.00  0.00    +0.000 N 
ATOM     16  C   UNL     1     -14.219  58.750  51.034  0.00  0.00    +0.000 A 
ATOM     17  C   UNL     1     -12.471  57.040  49.466  0.00  0.00    +0.000 C 
ATOM     18  C   UNL     1     -13.938  57.439  51.393  0.00  0.00    +0.000 A 
ATOM     19  C   UNL     1     -14.983  59.606  51.835  0.00  0.00    +0.000 A 
ATOM     20  N   UNL     1     -13.149  56.619  50.589  0.00  0.00    +0.000 N 
ATOM     21  C   UNL     1     -14.475  56.968  52.594  0.00  0.00    +0.000 A 
ATOM     22  C   UNL     1     -15.494  59.126  53.035  0.00  0.00    +0.000 A 
ATOM     23  C   UNL     1     -15.245  57.806  53.410  0.00  0.00    +0.000 A 
ATOM     24  H   UNL     1     -11.982  58.463  48.182  0.00  0.00    +0.000 HD
ATOM     25  H   UNL     1     -13.070  55.671  50.842  0.00  0.00    +0.000 HD
ENDBRANCH   1  17
BRANCH   3  26
ATOM     26  O   UNL     1     -12.848  56.282  46.660  0.00  0.00    +0.000 OA
ATOM     27  H   UNL     1     -13.652  56.552  47.058  0.00  0.00    +0.000 HD
ENDBRANCH   3  26
BRANCH   5  28
ATOM     28  N   UNL     1      -9.187  53.285  49.632  0.00  0.00    +0.000 N 
ATOM     29  H   UNL     1      -8.213  53.242  49.500  0.00  0.00    +0.000 HD
BRANCH  28  30
ATOM     30  C   UNL     1      -9.887  52.440  50.614  0.00  0.00    +0.000 C 
BRANCH  30  31
ATOM     31  C   UNL     1      -9.699  50.929  50.342  0.00  0.00    +0.000 C 
ATOM     32  C   UNL     1     -10.804  50.269  49.526  0.00  0.00    +0.000 C 
ENDBRANCH  30  31
BRANCH  30  33
ATOM     33  C   UNL     1      -9.401  52.811  52.033  0.00  0.00    +0.000 C 
ATOM     34  C   UNL     1     -10.459  52.610  53.114  0.00  0.00    +0.000 C 
ENDBRANCH  30  33
ENDBRANCH  28  30
ENDBRANCH   5  28
TORSDOF 6
ENDMDL
MODEL 9
REMARK VINA RESULT:      -7.5      2.881      6.633
REMARK  Name = 
REMARK  8 active torsions:
REMARK  status: ('A' for Active; 'I' for Inactive)
REMARK    1  A    between atoms: C_6  and  C_10
REMARK    2  A    between atoms: C_14  and  O_18
REMARK    3  A    between atoms: N_17  and  N_20
REMARK    4  A    between atoms: N_20  and  C_23
REMARK    5  A    between atoms: C_23  and  C_26
REMARK    6  A    between atoms: C_23  and  C_27
REMARK    7  A    between atoms: C_26  and  C_29
REMARK    8  A    between atoms: C_27  and  C_30
REMARK                            x       y       z     vdW  Elec       q    Type
REMARK                         _______ _______ _______ _____ _____    ______ ____
ROOT
ATOM      1  C   UNL     1     -11.736  54.751  50.599  0.00  0.00    +0.000 A 
ATOM      2  C   UNL     1     -11.760  54.010  49.293  0.00  0.00    +0.000 A 
ATOM      3  C   UNL     1     -10.817  54.411  51.525  0.00  0.00    +0.000 A 
ATOM      4  O   UNL     1     -12.774  54.072  48.591  0.00  0.00    +0.000 OA
ATOM      5  N   UNL     1     -10.576  53.351  48.934  0.00  0.00    +0.000 N 
ATOM      6  C   UNL     1      -9.763  53.434  51.222  0.00  0.00    +0.000 A 
ATOM      7  C   UNL     1      -9.616  52.971  49.911  0.00  0.00    +0.000 A 
ATOM      8  C   UNL     1      -8.826  53.050  52.195  0.00  0.00    +0.000 A 
ATOM      9  C   UNL     1      -8.538  52.130  49.592  0.00  0.00    +0.000 A 
ATOM     10  C   UNL     1      -7.743  52.238  51.864  0.00  0.00    +0.000 A 
ATOM     11  C   UNL     1      -7.595  51.783  50.559  0.00  0.00    +0.000 A 
ENDROOT
BRANCH   1  17
ATOM     12  S   UNL     1     -14.399  57.028  52.369  0.00  0.00    +0.000 S 
ATOM     13  O   UNL     1     -13.769  57.647  53.510  0.00  0.00    +0.000 OA
ATOM     14  O   UNL     1     -15.762  56.527  52.439  0.00  0.00    +0.000 OA
ATOM     15  N   UNL     1     -13.465  55.812  51.865  0.00  0.00    +0.000 N 
ATOM     16  C   UNL     1     -14.402  58.246  51.102  0.00  0.00    +0.000 A 
ATOM     17  C   UNL     1     -12.684  55.920  50.826  0.00  0.00    +0.000 C 
ATOM     18  C   UNL     1     -13.492  58.108  50.063  0.00  0.00    +0.000 A 
ATOM     19  C   UNL     1     -15.298  59.318  51.185  0.00  0.00    +0.000 A 
ATOM     20  N   UNL     1     -12.633  57.013  49.990  0.00  0.00    +0.000 N 
ATOM     21  C   UNL     1     -13.467  59.109  49.088  0.00  0.00    +0.000 A 
ATOM     22  C   UNL     1     -15.271  60.295  50.197  0.00  0.00    +0.000 A 
ATOM     23  C   UNL     1     -14.352  60.193  49.153  0.00  0.00    +0.000 A 
ATOM     24  H   UNL     1     -13.486  54.959  52.358  0.00  0.00    +0.000 HD
ATOM     25  H   UNL     1     -11.941  57.022  49.290  0.00  0.00    +0.000 HD
ENDBRANCH   1  17
BRANCH   3  26
ATOM     26  O   UNL     1     -10.703  54.990  52.776  0.00  0.00    +0.000 OA
ATOM     27  H   UNL     1      -9.860  55.236  53.104  0.00  0.00    +0.000 HD
ENDBRANCH   3  26
BRANCH   5  28
ATOM     28  N   UNL     1     -10.352  52.906  47.605  0.00  0.00    +0.000 N 
ATOM     29  H   UNL     1     -10.495  51.971  47.333  0.00  0.00    +0.000 HD
BRANCH  28  30
ATOM     30  C   UNL     1      -9.890  53.937  46.660  0.00  0.00    +0.000 C 
BRANCH  30  31
ATOM     31  C   UNL     1      -8.576  53.546  45.944  0.00  0.00    +0.000 C 
ATOM     32  C   UNL     1      -7.809  54.701  45.310  0.00  0.00    +0.000 C 
ENDBRANCH  30  31
BRANCH  30  33
ATOM     33  C   UNL     1     -11.014  54.221  45.638  0.00  0.00    +0.000 C 
ATOM     34  C   UNL     1     -11.191  53.115  44.602  0.00  0.00    +0.000 C 
ENDBRANCH  30  33
ENDBRANCH  28  30
ENDBRANCH   5  28
TORSDOF 6
ENDMDL
