MODEL 1
REMARK VINA RESULT:      -8.4      0.000      0.000
REMARK  Name = 
REMARK  5 active torsions:
REMARK  status: ('A' for Active; 'I' for Inactive)
REMARK    1  A    between atoms: C_6  and  C_10
REMARK    2  A    between atoms: C_14  and  O_18
REMARK    3  A    between atoms: N_17  and  N_20
REMARK    4  A    between atoms: N_20  and  C_23
REMARK    5  A    between atoms: C_23  and  C_26
REMARK                            x       y       z     vdW  Elec       q    Type
REMARK                         _______ _______ _______ _____ _____    ______ ____
ROOT
ATOM      1  C   UNL     1     -10.116  54.556  52.211  0.00  0.00    +0.000 A 
ATOM      2  C   UNL     1      -8.750  55.129  52.020  0.00  0.00    +0.000 A 
ATOM      3  C   UNL     1     -10.289  53.449  52.954  0.00  0.00    +0.000 A 
ATOM      4  O   UNL     1      -8.652  56.142  51.320  0.00  0.00    +0.000 OA
ATOM      5  N   UNL     1      -7.675  54.509  52.664  0.00  0.00    +0.000 N 
ATOM      6  C   UNL     1      -9.146  52.807  53.619  0.00  0.00    +0.000 A 
ATOM      7  C   UNL     1      -7.854  53.340  53.463  0.00  0.00    +0.000 A 
ATOM      8  C   UNL     1      -9.331  51.670  54.426  0.00  0.00    +0.000 A 
ATOM      9  C   UNL     1      -6.774  52.714  54.108  0.00  0.00    +0.000 A 
ATOM     10  C   UNL     1      -8.254  51.070  55.075  0.00  0.00    +0.000 A 
ATOM     11  C   UNL     1      -6.975  51.591  54.913  0.00  0.00    +0.000 A 
ENDROOT
BRANCH   1  17
ATOM     12  S   UNL     1     -12.568  56.060  49.532  0.00  0.00    +0.000 S 
ATOM     13  O   UNL     1     -13.466  55.061  48.984  0.00  0.00    +0.000 OA
ATOM     14  O   UNL     1     -11.963  57.054  48.668  0.00  0.00    +0.000 OA
ATOM     15  N   UNL     1     -11.377  55.278  50.303  0.00  0.00    +0.000 N 
ATOM     16  C   UNL     1     -13.500  56.955  50.720  0.00  0.00    +0.000 A 
ATOM     17  C   UNL     1     -11.299  55.282  51.601  0.00  0.00    +0.000 C 
ATOM     18  C   UNL     1     -13.191  56.773  52.057  0.00  0.00    +0.000 A 
ATOM     19  C   UNL     1     -14.512  57.825  50.303  0.00  0.00    +0.000 A 
ATOM     20  N   UNL     1     -12.192  55.891  52.458  0.00  0.00    +0.000 N 
ATOM     21  C   UNL     1     -13.972  57.435  53.011  0.00  0.00    +0.000 A 
ATOM     22  C   UNL     1     -15.255  58.507  51.262  0.00  0.00    +0.000 A 
ATOM     23  C   UNL     1     -14.993  58.306  52.616  0.00  0.00    +0.000 A 
ATOM     24  H   UNL     1     -10.700  54.791  49.780  0.00  0.00    +0.000 HD
ATOM     25  H   UNL     1     -12.117  55.689  53.419  0.00  0.00    +0.000 HD
ENDBRANCH   1  17
BRANCH   3  26
ATOM     26  O   UNL     1     -11.514  52.849  53.182  0.00  0.00    +0.000 OA
ATOM     27  H   UNL     1     -12.218  52.974  52.577  0.00  0.00    +0.000 HD
ENDBRANCH   3  26
BRANCH   5  28
ATOM     28  N   UNL     1      -6.330  54.971  52.450  0.00  0.00    +0.000 N 
ATOM     29  H   UNL     1      -5.814  55.436  53.148  0.00  0.00    +0.000 HD
BRANCH  28  30
ATOM     30  C   UNL     1      -5.782  54.695  51.115  0.00  0.00    +0.000 C 
BRANCH  30  31
ATOM     31  C   UNL     1      -4.995  53.417  51.120  0.00  0.00    +0.000 A 
ATOM     32  S   UNL     1      -5.618  52.023  50.334  0.00  0.00    +0.000 S 
ATOM     33  C   UNL     1      -3.747  53.178  51.661  0.00  0.00    +0.000 A 
ATOM     34  C   UNL     1      -4.221  51.111  50.708  0.00  0.00    +0.000 A 
ATOM     35  C   UNL     1      -3.301  51.846  51.421  0.00  0.00    +0.000 A 
ENDBRANCH  30  31
ENDBRANCH  28  30
ENDBRANCH   5  28
TORSDOF 5
ENDMDL
MODEL 2
REMARK VINA RESULT:      -8.3      3.274      4.900
REMARK  Name = 
REMARK  5 active torsions:
REMARK  status: ('A' for Active; 'I' for Inactive)
REMARK    1  A    between atoms: C_6  and  C_10
REMARK    2  A    between atoms: C_14  and  O_18
REMARK    3  A    between atoms: N_17  and  N_20
REMARK    4  A    between atoms: N_20  and  C_23
REMARK    5  A    between atoms: C_23  and  C_26
REMARK                            x       y       z     vdW  Elec       q    Type
REMARK                         _______ _______ _______ _____ _____    ______ ____
ROOT
ATOM      1  C   UNL     1     -11.438  55.934  48.864  0.00  0.00    +0.000 A 
ATOM      2  C   UNL     1     -10.443  55.280  49.766  0.00  0.00    +0.000 A 
ATOM      3  C   UNL     1     -11.483  55.615  47.559  0.00  0.00    +0.000 A 
ATOM      4  O   UNL     1     -10.444  55.621  50.954  0.00  0.00    +0.000 OA
ATOM      5  N   UNL     1      -9.598  54.307  49.225  0.00  0.00    +0.000 N 
ATOM      6  C   UNL     1     -10.582  54.592  47.007  0.00  0.00    +0.000 A 
ATOM      7  C   UNL     1      -9.648  53.955  47.843  0.00  0.00    +0.000 A 
ATOM      8  C   UNL     1     -10.652  54.231  45.650  0.00  0.00    +0.000 A 
ATOM      9  C   UNL     1      -8.796  52.979  47.298  0.00  0.00    +0.000 A 
ATOM     10  C   UNL     1      -9.815  53.248  45.126  0.00  0.00    +0.000 A 
ATOM     11  C   UNL     1      -8.884  52.625  45.950  0.00  0.00    +0.000 A 
ENDROOT
BRANCH   1  17
ATOM     12  S   UNL     1     -13.528  59.213  49.441  0.00  0.00    +0.000 S 
ATOM     13  O   UNL     1     -14.655  59.315  48.534  0.00  0.00    +0.000 OA
ATOM     14  O   UNL     1     -12.725  60.380  49.746  0.00  0.00    +0.000 OA
ATOM     15  N   UNL     1     -12.540  58.065  48.867  0.00  0.00    +0.000 N 
ATOM     16  C   UNL     1     -14.183  58.663  50.974  0.00  0.00    +0.000 A 
ATOM     17  C   UNL     1     -12.427  56.915  49.464  0.00  0.00    +0.000 C 
ATOM     18  C   UNL     1     -13.890  57.372  51.378  0.00  0.00    +0.000 A 
ATOM     19  C   UNL     1     -14.965  59.525  51.749  0.00  0.00    +0.000 A 
ATOM     20  N   UNL     1     -13.122  56.521  50.589  0.00  0.00    +0.000 N 
ATOM     21  C   UNL     1     -14.460  56.907  52.568  0.00  0.00    +0.000 A 
ATOM     22  C   UNL     1     -15.494  59.061  52.950  0.00  0.00    +0.000 A 
ATOM     23  C   UNL     1     -15.251  57.750  53.356  0.00  0.00    +0.000 A 
ATOM     24  H   UNL     1     -12.015  58.240  48.053  0.00  0.00    +0.000 HD
ATOM     25  H   UNL     1     -13.071  55.573  50.851  0.00  0.00    +0.000 HD
ENDBRANCH   1  17
BRANCH   3  26
ATOM     26  O   UNL     1     -12.367  56.170  46.651  0.00  0.00    +0.000 OA
ATOM     27  H   UNL     1     -12.938  55.618  46.156  0.00  0.00    +0.000 HD
ENDBRANCH   3  26
BRANCH   5  28
ATOM     28  N   UNL     1      -8.570  53.704  50.030  0.00  0.00    +0.000 N 
ATOM     29  H   UNL     1      -8.657  52.799  50.407  0.00  0.00    +0.000 HD
BRANCH  28  30
ATOM     30  C   UNL     1      -7.379  54.537  50.246  0.00  0.00    +0.000 C 
BRANCH  30  31
ATOM     31  C   UNL     1      -7.188  54.818  51.709  0.00  0.00    +0.000 A 
ATOM     32  S   UNL     1      -6.743  53.549  52.776  0.00  0.00    +0.000 S 
ATOM     33  C   UNL     1      -7.283  56.026  52.371  0.00  0.00    +0.000 A 
ATOM     34  C   UNL     1      -6.669  54.613  54.111  0.00  0.00    +0.000 A 
ATOM     35  C   UNL     1      -6.982  55.906  53.758  0.00  0.00    +0.000 A 
ENDBRANCH  30  31
ENDBRANCH  28  30
ENDBRANCH   5  28
TORSDOF 5
ENDMDL
MODEL 3
REMARK VINA RESULT:      -8.3      2.166      2.467
REMARK  Name = 
REMARK  5 active torsions:
REMARK  status: ('A' for Active; 'I' for Inactive)
REMARK    1  A    between atoms: C_6  and  C_10
REMARK    2  A    between atoms: C_14  and  O_18
REMARK    3  A    between atoms: N_17  and  N_20
REMARK    4  A    between atoms: N_20  and  C_23
REMARK    5  A    between atoms: C_23  and  C_26
REMARK                            x       y       z     vdW  Elec       q    Type
REMARK                         _______ _______ _______ _____ _____    ______ ____
ROOT
ATOM      1  C   UNL     1     -11.162  54.611  50.863  0.00  0.00    +0.000 A 
ATOM      2  C   UNL     1      -9.762  55.005  50.519  0.00  0.00    +0.000 A 
ATOM      3  C   UNL     1     -11.429  53.368  51.299  0.00  0.00    +0.000 A 
ATOM      4  O   UNL     1      -9.580  56.158  50.115  0.00  0.00    +0.000 OA
ATOM      5  N   UNL     1      -8.745  54.063  50.701  0.00  0.00    +0.000 N 
ATOM      6  C   UNL     1     -10.347  52.389  51.480  0.00  0.00    +0.000 A 
ATOM      7  C   UNL     1      -9.020  52.746  51.175  0.00  0.00    +0.000 A 
ATOM      8  C   UNL     1     -10.619  51.100  51.970  0.00  0.00    +0.000 A 
ATOM      9  C   UNL     1      -7.999  51.798  51.356  0.00  0.00    +0.000 A 
ATOM     10  C   UNL     1      -9.595  50.175  52.163  0.00  0.00    +0.000 A 
ATOM     11  C   UNL     1      -8.285  50.524  51.852  0.00  0.00    +0.000 A 
ENDROOT
BRANCH   1  17
ATOM     12  S   UNL     1     -13.615  57.286  49.355  0.00  0.00    +0.000 S 
ATOM     13  O   UNL     1     -14.752  56.679  48.690  0.00  0.00    +0.000 OA
ATOM     14  O   UNL     1     -12.952  58.434  48.769  0.00  0.00    +0.000 OA
ATOM     15  N   UNL     1     -12.504  56.129  49.580  0.00  0.00    +0.000 N 
ATOM     16  C   UNL     1     -14.193  57.811  50.927  0.00  0.00    +0.000 A 
ATOM     17  C   UNL     1     -12.255  55.658  50.766  0.00  0.00    +0.000 C 
ATOM     18  C   UNL     1     -13.749  57.123  52.043  0.00  0.00    +0.000 A 
ATOM     19  C   UNL     1     -15.065  58.899  51.022  0.00  0.00    +0.000 A 
ATOM     20  N   UNL     1     -12.893  56.032  51.930  0.00  0.00    +0.000 N 
ATOM     21  C   UNL     1     -14.255  57.497  53.293  0.00  0.00    +0.000 A 
ATOM     22  C   UNL     1     -15.530  59.285  52.277  0.00  0.00    +0.000 A 
ATOM     23  C   UNL     1     -15.133  58.579  53.412  0.00  0.00    +0.000 A 
ATOM     24  H   UNL     1     -12.008  55.777  48.806  0.00  0.00    +0.000 HD
ATOM     25  H   UNL     1     -12.730  55.491  52.737  0.00  0.00    +0.000 HD
ENDBRANCH   1  17
BRANCH   3  26
ATOM     26  O   UNL     1     -12.691  52.916  51.637  0.00  0.00    +0.000 OA
ATOM     27  H   UNL     1     -13.228  52.498  50.993  0.00  0.00    +0.000 HD
ENDBRANCH   3  26
BRANCH   5  28
ATOM     28  N   UNL     1      -7.394  54.363  50.312  0.00  0.00    +0.000 N 
ATOM     29  H   UNL     1      -6.940  53.894  49.575  0.00  0.00    +0.000 HD
BRANCH  28  30
ATOM     30  C   UNL     1      -6.742  55.424  51.091  0.00  0.00    +0.000 C 
BRANCH  30  31
ATOM     31  C   UNL     1      -6.341  54.914  52.446  0.00  0.00    +0.000 A 
ATOM     32  S   UNL     1      -7.215  55.405  53.840  0.00  0.00    +0.000 S 
ATOM     33  C   UNL     1      -5.337  54.023  52.766  0.00  0.00    +0.000 A 
ATOM     34  C   UNL     1      -6.260  54.421  54.861  0.00  0.00    +0.000 A 
ATOM     35  C   UNL     1      -5.292  53.738  54.161  0.00  0.00    +0.000 A 
ENDBRANCH  30  31
ENDBRANCH  28  30
ENDBRANCH   5  28
TORSDOF 5
ENDMDL
MODEL 4
REMARK VINA RESULT:      -8.3      3.141      8.377
REMARK  Name = 
REMARK  5 active torsions:
REMARK  status: ('A' for Active; 'I' for Inactive)
REMARK    1  A    between atoms: C_6  and  C_10
REMARK    2  A    between atoms: C_14  and  O_18
REMARK    3  A    between atoms: N_17  and  N_20
REMARK    4  A    between atoms: N_20  and  C_23
REMARK    5  A    between atoms: C_23  and  C_26
REMARK                            x       y       z     vdW  Elec       q    Type
REMARK                         _______ _______ _______ _____ _____    ______ ____
ROOT
ATOM      1  C   UNL     1      -9.118  54.363  49.896  0.00  0.00    +0.000 A 
ATOM      2  C   UNL     1     -10.166  55.423  49.992  0.00  0.00    +0.000 A 
ATOM      3  C   UNL     1      -9.009  53.615  48.784  0.00  0.00    +0.000 A 
ATOM      4  O   UNL     1     -10.223  56.072  51.041  0.00  0.00    +0.000 OA
ATOM      5  N   UNL     1     -10.994  55.638  48.886  0.00  0.00    +0.000 N 
ATOM      6  C   UNL     1      -9.893  53.852  47.632  0.00  0.00    +0.000 A 
ATOM      7  C   UNL     1     -10.876  54.856  47.698  0.00  0.00    +0.000 A 
ATOM      8  C   UNL     1      -9.756  53.096  46.455  0.00  0.00    +0.000 A 
ATOM      9  C   UNL     1     -11.710  55.069  46.588  0.00  0.00    +0.000 A 
ATOM     10  C   UNL     1     -10.577  53.330  45.354  0.00  0.00    +0.000 A 
ATOM     11  C   UNL     1     -11.556  54.315  45.422  0.00  0.00    +0.000 A 
ENDROOT
BRANCH   1  17
ATOM     12  S   UNL     1      -7.725  54.088  53.561  0.00  0.00    +0.000 S 
ATOM     13  O   UNL     1      -7.953  52.778  54.140  0.00  0.00    +0.000 OA
ATOM     14  O   UNL     1      -7.915  55.284  54.358  0.00  0.00    +0.000 OA
ATOM     15  N   UNL     1      -8.663  54.211  52.246  0.00  0.00    +0.000 N 
ATOM     16  C   UNL     1      -6.047  54.110  53.048  0.00  0.00    +0.000 A 
ATOM     17  C   UNL     1      -8.150  54.194  51.051  0.00  0.00    +0.000 C 
ATOM     18  C   UNL     1      -5.785  54.096  51.689  0.00  0.00    +0.000 A 
ATOM     19  C   UNL     1      -5.026  54.151  54.002  0.00  0.00    +0.000 A 
ATOM     20  N   UNL     1      -6.812  54.040  50.752  0.00  0.00    +0.000 N 
ATOM     21  C   UNL     1      -4.449  54.050  51.275  0.00  0.00    +0.000 A 
ATOM     22  C   UNL     1      -3.701  54.144  53.574  0.00  0.00    +0.000 A 
ATOM     23  C   UNL     1      -3.411  54.084  52.212  0.00  0.00    +0.000 A 
ATOM     24  H   UNL     1      -9.637  54.302  52.352  0.00  0.00    +0.000 HD
ATOM     25  H   UNL     1      -6.567  53.881  49.811  0.00  0.00    +0.000 HD
ENDBRANCH   1  17
BRANCH   3  26
ATOM     26  O   UNL     1      -8.073  52.613  48.608  0.00  0.00    +0.000 OA
ATOM     27  H   UNL     1      -7.395  52.711  47.969  0.00  0.00    +0.000 HD
ENDBRANCH   3  26
BRANCH   5  28
ATOM     28  N   UNL     1     -12.070  56.590  48.953  0.00  0.00    +0.000 N 
ATOM     29  H   UNL     1     -11.994  57.500  48.585  0.00  0.00    +0.000 HD
BRANCH  28  30
ATOM     30  C   UNL     1     -13.291  56.104  49.610  0.00  0.00    +0.000 C 
BRANCH  30  31
ATOM     31  C   UNL     1     -13.651  56.983  50.773  0.00  0.00    +0.000 A 
ATOM     32  S   UNL     1     -14.246  58.571  50.497  0.00  0.00    +0.000 S 
ATOM     33  C   UNL     1     -13.613  56.684  52.120  0.00  0.00    +0.000 A 
ATOM     34  C   UNL     1     -14.461  58.848  52.170  0.00  0.00    +0.000 A 
ATOM     35  C   UNL     1     -14.082  57.762  52.926  0.00  0.00    +0.000 A 
ENDBRANCH  30  31
ENDBRANCH  28  30
ENDBRANCH   5  28
TORSDOF 5
ENDMDL
MODEL 5
REMARK VINA RESULT:      -8.1      4.147      5.562
REMARK  Name = 
REMARK  5 active torsions:
REMARK  status: ('A' for Active; 'I' for Inactive)
REMARK    1  A    between atoms: C_6  and  C_10
REMARK    2  A    between atoms: C_14  and  O_18
REMARK    3  A    between atoms: N_17  and  N_20
REMARK    4  A    between atoms: N_20  and  C_23
REMARK    5  A    between atoms: C_23  and  C_26
REMARK                            x       y       z     vdW  Elec       q    Type
REMARK                         _______ _______ _______ _____ _____    ______ ____
ROOT
ATOM      1  C   UNL     1     -10.320  54.883  47.759  0.00  0.00    +0.000 A 
ATOM      2  C   UNL     1      -8.829  54.959  47.767  0.00  0.00    +0.000 A 
ATOM      3  C   UNL     1     -10.967  54.366  46.700  0.00  0.00    +0.000 A 
ATOM      4  O   UNL     1      -8.291  55.452  48.764  0.00  0.00    +0.000 OA
ATOM      5  N   UNL     1      -8.133  54.446  46.668  0.00  0.00    +0.000 N 
ATOM      6  C   UNL     1     -10.219  53.835  45.551  0.00  0.00    +0.000 A 
ATOM      7  C   UNL     1      -8.813  53.886  45.546  0.00  0.00    +0.000 A 
ATOM      8  C   UNL     1     -10.892  53.262  44.458  0.00  0.00    +0.000 A 
ATOM      9  C   UNL     1      -8.114  53.373  44.440  0.00  0.00    +0.000 A 
ATOM     10  C   UNL     1     -10.187  52.740  43.376  0.00  0.00    +0.000 A 
ATOM     11  C   UNL     1      -8.798  52.798  43.366  0.00  0.00    +0.000 A 
ENDROOT
BRANCH   1  17
ATOM     12  S   UNL     1     -11.759  54.962  51.416  0.00  0.00    +0.000 S 
ATOM     13  O   UNL     1     -10.786  55.436  52.381  0.00  0.00    +0.000 OA
ATOM     14  O   UNL     1     -12.622  53.843  51.736  0.00  0.00    +0.000 OA
ATOM     15  N   UNL     1     -10.962  54.601  50.053  0.00  0.00    +0.000 N 
ATOM     16  C   UNL     1     -12.826  56.317  51.090  0.00  0.00    +0.000 A 
ATOM     17  C   UNL     1     -11.077  55.342  48.991  0.00  0.00    +0.000 C 
ATOM     18  C   UNL     1     -12.742  56.924  49.849  0.00  0.00    +0.000 A 
ATOM     19  C   UNL     1     -13.729  56.745  52.068  0.00  0.00    +0.000 A 
ATOM     20  N   UNL     1     -11.827  56.496  48.892  0.00  0.00    +0.000 N 
ATOM     21  C   UNL     1     -13.545  58.044  49.606  0.00  0.00    +0.000 A 
ATOM     22  C   UNL     1     -14.549  57.837  51.798  0.00  0.00    +0.000 A 
ATOM     23  C   UNL     1     -14.451  58.493  50.572  0.00  0.00    +0.000 A 
ATOM     24  H   UNL     1     -10.380  53.807  50.027  0.00  0.00    +0.000 HD
ATOM     25  H   UNL     1     -11.706  57.054  48.090  0.00  0.00    +0.000 HD
ENDBRANCH   1  17
BRANCH   3  26
ATOM     26  O   UNL     1     -12.343  54.257  46.605  0.00  0.00    +0.000 OA
ATOM     27  H   UNL     1     -12.725  53.533  46.150  0.00  0.00    +0.000 HD
ENDBRANCH   3  26
BRANCH   5  28
ATOM     28  N   UNL     1      -6.702  54.567  46.589  0.00  0.00    +0.000 N 
ATOM     29  H   UNL     1      -6.258  55.375  46.244  0.00  0.00    +0.000 HD
BRANCH  28  30
ATOM     30  C   UNL     1      -5.951  53.396  47.064  0.00  0.00    +0.000 C 
BRANCH  30  31
ATOM     31  C   UNL     1      -5.629  53.532  48.524  0.00  0.00    +0.000 A 
ATOM     32  S   UNL     1      -6.194  52.355  49.640  0.00  0.00    +0.000 S 
ATOM     33  C   UNL     1      -4.866  54.497  49.150  0.00  0.00    +0.000 A 
ATOM     34  C   UNL     1      -5.413  53.130  50.948  0.00  0.00    +0.000 A 
ATOM     35  C   UNL     1      -4.741  54.264  50.550  0.00  0.00    +0.000 A 
ENDBRANCH  30  31
ENDBRANCH  28  30
ENDBRANCH   5  28
TORSDOF 5
ENDMDL
MODEL 6
REMARK VINA RESULT:      -8.1      3.609      7.384
REMARK  Name = 
REMARK  5 active torsions:
REMARK  status: ('A' for Active; 'I' for Inactive)
REMARK    1  A    between atoms: C_6  and  C_10
REMARK    2  A    between atoms: C_14  and  O_18
REMARK    3  A    between atoms: N_17  and  N_20
REMARK    4  A    between atoms: N_20  and  C_23
REMARK    5  A    between atoms: C_23  and  C_26
REMARK                            x       y       z     vdW  Elec       q    Type
REMARK                         _______ _______ _______ _____ _____    ______ ____
ROOT
ATOM      1  C   UNL     1     -10.405  55.178  50.899  0.00  0.00    +0.000 A 
ATOM      2  C   UNL     1     -10.087  55.055  49.444  0.00  0.00    +0.000 A 
ATOM      3  C   UNL     1     -11.573  55.713  51.294  0.00  0.00    +0.000 A 
ATOM      4  O   UNL     1      -8.995  54.563  49.141  0.00  0.00    +0.000 OA
ATOM      5  N   UNL     1     -11.047  55.473  48.518  0.00  0.00    +0.000 N 
ATOM      6  C   UNL     1     -12.569  56.152  50.306  0.00  0.00    +0.000 A 
ATOM      7  C   UNL     1     -12.294  56.031  48.932  0.00  0.00    +0.000 A 
ATOM      8  C   UNL     1     -13.806  56.678  50.718  0.00  0.00    +0.000 A 
ATOM      9  C   UNL     1     -13.258  56.454  48.002  0.00  0.00    +0.000 A 
ATOM     10  C   UNL     1     -14.761  57.077  49.786  0.00  0.00    +0.000 A 
ATOM     11  C   UNL     1     -14.486  56.967  48.428  0.00  0.00    +0.000 A 
ENDROOT
BRANCH   1  17
ATOM     12  S   UNL     1      -7.087  54.687  52.949  0.00  0.00    +0.000 S 
ATOM     13  O   UNL     1      -6.939  55.674  54.001  0.00  0.00    +0.000 OA
ATOM     14  O   UNL     1      -5.946  54.298  52.144  0.00  0.00    +0.000 OA
ATOM     15  N   UNL     1      -8.248  55.210  51.947  0.00  0.00    +0.000 N 
ATOM     16  C   UNL     1      -7.651  53.220  53.730  0.00  0.00    +0.000 A 
ATOM     17  C   UNL     1      -9.412  54.632  51.907  0.00  0.00    +0.000 C 
ATOM     18  C   UNL     1      -8.956  52.823  53.498  0.00  0.00    +0.000 A 
ATOM     19  C   UNL     1      -6.785  52.488  54.548  0.00  0.00    +0.000 A 
ATOM     20  N   UNL     1      -9.811  53.571  52.694  0.00  0.00    +0.000 N 
ATOM     21  C   UNL     1      -9.430  51.690  54.168  0.00  0.00    +0.000 A 
ATOM     22  C   UNL     1      -7.259  51.340  55.176  0.00  0.00    +0.000 A 
ATOM     23  C   UNL     1      -8.584  50.945  54.995  0.00  0.00    +0.000 A 
ATOM     24  H   UNL     1      -8.070  55.979  51.358  0.00  0.00    +0.000 HD
ATOM     25  H   UNL     1     -10.765  53.326  52.685  0.00  0.00    +0.000 HD
ENDBRANCH   1  17
BRANCH   3  26
ATOM     26  O   UNL     1     -11.950  55.867  52.616  0.00  0.00    +0.000 OA
ATOM     27  H   UNL     1     -11.574  56.551  53.134  0.00  0.00    +0.000 HD
ENDBRANCH   3  26
BRANCH   5  28
ATOM     28  N   UNL     1     -10.761  55.451  47.109  0.00  0.00    +0.000 N 
ATOM     29  H   UNL     1     -10.174  56.114  46.679  0.00  0.00    +0.000 HD
BRANCH  28  30
ATOM     30  C   UNL     1     -11.408  54.366  46.359  0.00  0.00    +0.000 C 
BRANCH  30  31
ATOM     31  C   UNL     1     -10.465  53.793  45.340  0.00  0.00    +0.000 A 
ATOM     32  S   UNL     1      -8.770  53.992  45.532  0.00  0.00    +0.000 S 
ATOM     33  C   UNL     1     -10.763  53.049  44.216  0.00  0.00    +0.000 A 
ATOM     34  C   UNL     1      -8.441  53.078  44.125  0.00  0.00    +0.000 A 
ATOM     35  C   UNL     1      -9.594  52.635  43.516  0.00  0.00    +0.000 A 
ENDBRANCH  30  31
ENDBRANCH  28  30
ENDBRANCH   5  28
TORSDOF 5
ENDMDL
MODEL 7
REMARK VINA RESULT:      -8.1      3.700      4.580
REMARK  Name = 
REMARK  5 active torsions:
REMARK  status: ('A' for Active; 'I' for Inactive)
REMARK    1  A    between atoms: C_6  and  C_10
REMARK    2  A    between atoms: C_14  and  O_18
REMARK    3  A    between atoms: N_17  and  N_20
REMARK    4  A    between atoms: N_20  and  C_23
REMARK    5  A    between atoms: C_23  and  C_26
REMARK                            x       y       z     vdW  Elec       q    Type
REMARK                         _______ _______ _______ _____ _____    ______ ____
ROOT
ATOM      1  C   UNL     1     -12.425  54.287  49.765  0.00  0.00    +0.000 A 
ATOM      2  C   UNL     1     -12.005  54.144  48.339  0.00  0.00    +0.000 A 
ATOM      3  C   UNL     1     -12.034  53.384  50.682  0.00  0.00    +0.000 A 
ATOM      4  O   UNL     1     -12.402  54.999  47.541  0.00  0.00    +0.000 OA
ATOM      5  N   UNL     1     -11.168  53.076  47.999  0.00  0.00    +0.000 N 
ATOM      6  C   UNL     1     -11.158  52.265  50.305  0.00  0.00    +0.000 A 
ATOM      7  C   UNL     1     -10.740  52.122  48.969  0.00  0.00    +0.000 A 
ATOM      8  C   UNL     1     -10.718  51.341  51.268  0.00  0.00    +0.000 A 
ATOM      9  C   UNL     1      -9.902  51.047  48.627  0.00  0.00    +0.000 A 
ATOM     10  C   UNL     1      -9.872  50.290  50.920  0.00  0.00    +0.000 A 
ATOM     11  C   UNL     1      -9.467  50.142  49.598  0.00  0.00    +0.000 A 
ENDROOT
BRANCH   1  17
ATOM     12  S   UNL     1     -15.355  56.474  51.209  0.00  0.00    +0.000 S 
ATOM     13  O   UNL     1     -15.289  56.600  52.652  0.00  0.00    +0.000 OA
ATOM     14  O   UNL     1     -16.629  56.266  50.549  0.00  0.00    +0.000 OA
ATOM     15  N   UNL     1     -14.368  55.264  50.777  0.00  0.00    +0.000 N 
ATOM     16  C   UNL     1     -14.712  57.971  50.558  0.00  0.00    +0.000 A 
ATOM     17  C   UNL     1     -13.247  55.499  50.161  0.00  0.00    +0.000 C 
ATOM     18  C   UNL     1     -13.479  57.929  49.931  0.00  0.00    +0.000 A 
ATOM     19  C   UNL     1     -15.446  59.155  50.673  0.00  0.00    +0.000 A 
ATOM     20  N   UNL     1     -12.752  56.745  49.838  0.00  0.00    +0.000 N 
ATOM     21  C   UNL     1     -12.932  59.130  49.466  0.00  0.00    +0.000 A 
ATOM     22  C   UNL     1     -14.908  60.336  50.170  0.00  0.00    +0.000 A 
ATOM     23  C   UNL     1     -13.647  60.327  49.575  0.00  0.00    +0.000 A 
ATOM     24  H   UNL     1     -14.620  54.336  50.984  0.00  0.00    +0.000 HD
ATOM     25  H   UNL     1     -11.822  56.801  49.519  0.00  0.00    +0.000 HD
ENDBRANCH   1  17
BRANCH   3  26
ATOM     26  O   UNL     1     -12.376  53.436  52.021  0.00  0.00    +0.000 OA
ATOM     27  H   UNL     1     -13.270  53.334  52.281  0.00  0.00    +0.000 HD
ENDBRANCH   3  26
BRANCH   5  28
ATOM     28  N   UNL     1     -10.799  52.846  46.629  0.00  0.00    +0.000 N 
ATOM     29  H   UNL     1     -11.088  52.047  46.131  0.00  0.00    +0.000 HD
BRANCH  28  30
ATOM     30  C   UNL     1      -9.962  53.892  46.024  0.00  0.00    +0.000 C 
BRANCH  30  31
ATOM     31  C   UNL     1      -8.569  53.842  46.583  0.00  0.00    +0.000 A 
ATOM     32  S   UNL     1      -8.070  55.001  47.748  0.00  0.00    +0.000 S 
ATOM     33  C   UNL     1      -7.570  52.927  46.319  0.00  0.00    +0.000 A 
ATOM     34  C   UNL     1      -6.531  54.274  47.903  0.00  0.00    +0.000 A 
ATOM     35  C   UNL     1      -6.393  53.177  47.082  0.00  0.00    +0.000 A 
ENDBRANCH  30  31
ENDBRANCH  28  30
ENDBRANCH   5  28
TORSDOF 5
ENDMDL
MODEL 8
REMARK VINA RESULT:      -8.0      2.865      8.286
REMARK  Name = 
REMARK  5 active torsions:
REMARK  status: ('A' for Active; 'I' for Inactive)
REMARK    1  A    between atoms: C_6  and  C_10
REMARK    2  A    between atoms: C_14  and  O_18
REMARK    3  A    between atoms: N_17  and  N_20
REMARK    4  A    between atoms: N_20  and  C_23
REMARK    5  A    between atoms: C_23  and  C_26
REMARK                            x       y       z     vdW  Elec       q    Type
REMARK                         _______ _______ _______ _____ _____    ______ ____
ROOT
ATOM      1  C   UNL     1      -9.766  53.908  50.509  0.00  0.00    +0.000 A 
ATOM      2  C   UNL     1     -11.034  54.657  50.759  0.00  0.00    +0.000 A 
ATOM      3  C   UNL     1      -9.392  53.607  49.253  0.00  0.00    +0.000 A 
ATOM      4  O   UNL     1     -11.330  54.897  51.934  0.00  0.00    +0.000 OA
ATOM      5  N   UNL     1     -11.792  55.064  49.656  0.00  0.00    +0.000 N 
ATOM      6  C   UNL     1     -10.204  54.039  48.106  0.00  0.00    +0.000 A 
ATOM      7  C   UNL     1     -11.394  54.757  48.320  0.00  0.00    +0.000 A 
ATOM      8  C   UNL     1      -9.796  53.756  46.791  0.00  0.00    +0.000 A 
ATOM      9  C   UNL     1     -12.156  55.163  47.212  0.00  0.00    +0.000 A 
ATOM     10  C   UNL     1     -10.551  54.180  45.700  0.00  0.00    +0.000 A 
ATOM     11  C   UNL     1     -11.733  54.881  45.911  0.00  0.00    +0.000 A 
ENDROOT
BRANCH   1  17
ATOM     12  S   UNL     1      -6.644  53.721  52.889  0.00  0.00    +0.000 S 
ATOM     13  O   UNL     1      -6.499  54.911  53.704  0.00  0.00    +0.000 OA
ATOM     14  O   UNL     1      -5.480  53.098  52.291  0.00  0.00    +0.000 OA
ATOM     15  N   UNL     1      -7.691  54.063  51.702  0.00  0.00    +0.000 N 
ATOM     16  C   UNL     1      -7.364  52.502  53.927  0.00  0.00    +0.000 A 
ATOM     17  C   UNL     1      -8.888  53.554  51.694  0.00  0.00    +0.000 C 
ATOM     18  C   UNL     1      -8.675  52.134  53.681  0.00  0.00    +0.000 A 
ATOM     19  C   UNL     1      -6.612  51.931  54.958  0.00  0.00    +0.000 A 
ATOM     20  N   UNL     1      -9.415  52.724  52.661  0.00  0.00    +0.000 N 
ATOM     21  C   UNL     1      -9.275  51.210  54.544  0.00  0.00    +0.000 A 
ATOM     22  C   UNL     1      -7.210  50.983  55.785  0.00  0.00    +0.000 A 
ATOM     23  C   UNL     1      -8.544  50.629  55.585  0.00  0.00    +0.000 A 
ATOM     24  H   UNL     1      -7.417  54.667  50.974  0.00  0.00    +0.000 HD
ATOM     25  H   UNL     1     -10.381  52.535  52.626  0.00  0.00    +0.000 HD
ENDBRANCH   1  17
BRANCH   3  26
ATOM     26  O   UNL     1      -8.238  52.917  48.929  0.00  0.00    +0.000 OA
ATOM     27  H   UNL     1      -7.401  53.276  49.146  0.00  0.00    +0.000 HD
ENDBRANCH   3  26
BRANCH   5  28
ATOM     28  N   UNL     1     -13.059  55.716  49.842  0.00  0.00    +0.000 N 
ATOM     29  H   UNL     1     -13.904  55.217  49.922  0.00  0.00    +0.000 HD
BRANCH  28  30
ATOM     30  C   UNL     1     -13.002  57.183  49.905  0.00  0.00    +0.000 C 
BRANCH  30  31
ATOM     31  C   UNL     1     -13.774  57.692  51.088  0.00  0.00    +0.000 A 
ATOM     32  S   UNL     1     -14.466  59.263  51.050  0.00  0.00    +0.000 S 
ATOM     33  C   UNL     1     -14.070  57.037  52.267  0.00  0.00    +0.000 A 
ATOM     34  C   UNL     1     -15.164  59.061  52.598  0.00  0.00    +0.000 A 
ATOM     35  C   UNL     1     -14.873  57.829  53.138  0.00  0.00    +0.000 A 
ENDBRANCH  30  31
ENDBRANCH  28  30
ENDBRANCH   5  28
TORSDOF 5
ENDMDL
MODEL 9
REMARK VINA RESULT:      -8.0      4.520      7.358
REMARK  Name = 
REMARK  5 active torsions:
REMARK  status: ('A' for Active; 'I' for Inactive)
REMARK    1  A    between atoms: C_6  and  C_10
REMARK    2  A    between atoms: C_14  and  O_18
REMARK    3  A    between atoms: N_17  and  N_20
REMARK    4  A    between atoms: N_20  and  C_23
REMARK    5  A    between atoms: C_23  and  C_26
REMARK                            x       y       z     vdW  Elec       q    Type
REMARK                         _______ _______ _______ _____ _____    ______ ____
ROOT
ATOM      1  C   UNL     1     -11.250  54.705  48.361  0.00  0.00    +0.000 A 
ATOM      2  C   UNL     1     -11.067  54.207  49.757  0.00  0.00    +0.000 A 
ATOM      3  C   UNL     1     -12.104  55.711  48.106  0.00  0.00    +0.000 A 
ATOM      4  O   UNL     1     -10.275  53.275  49.928  0.00  0.00    +0.000 OA
ATOM      5  N   UNL     1     -11.774  54.840  50.785  0.00  0.00    +0.000 N 
ATOM      6  C   UNL     1     -12.843  56.361  49.199  0.00  0.00    +0.000 A 
ATOM      7  C   UNL     1     -12.673  55.916  50.522  0.00  0.00    +0.000 A 
ATOM      8  C   UNL     1     -13.710  57.437  48.939  0.00  0.00    +0.000 A 
ATOM      9  C   UNL     1     -13.386  56.550  51.554  0.00  0.00    +0.000 A 
ATOM     10  C   UNL     1     -14.397  58.070  49.973  0.00  0.00    +0.000 A 
ATOM     11  C   UNL     1     -14.237  57.623  51.280  0.00  0.00    +0.000 A 
ENDROOT
BRANCH   1  17
ATOM     12  S   UNL     1      -8.184  53.929  46.028  0.00  0.00    +0.000 S 
ATOM     13  O   UNL     1      -7.238  53.019  46.644  0.00  0.00    +0.000 OA
ATOM     14  O   UNL     1      -7.713  55.071  45.270  0.00  0.00    +0.000 OA
ATOM     15  N   UNL     1      -9.169  54.476  47.192  0.00  0.00    +0.000 N 
ATOM     16  C   UNL     1      -9.132  52.964  44.909  0.00  0.00    +0.000 A 
ATOM     17  C   UNL     1     -10.410  54.093  47.256  0.00  0.00    +0.000 C 
ATOM     18  C   UNL     1     -10.455  52.716  45.229  0.00  0.00    +0.000 A 
ATOM     19  C   UNL     1      -8.547  52.482  43.735  0.00  0.00    +0.000 A 
ATOM     20  N   UNL     1     -11.018  53.190  46.409  0.00  0.00    +0.000 N 
ATOM     21  C   UNL     1     -11.198  51.895  44.373  0.00  0.00    +0.000 A 
ATOM     22  C   UNL     1      -9.310  51.699  42.873  0.00  0.00    +0.000 A 
ATOM     23  C   UNL     1     -10.633  51.396  43.195  0.00  0.00    +0.000 A 
ATOM     24  H   UNL     1      -8.822  55.109  47.862  0.00  0.00    +0.000 HD
ATOM     25  H   UNL     1     -11.913  52.860  46.657  0.00  0.00    +0.000 HD
ENDBRANCH   1  17
BRANCH   3  26
ATOM     26  O   UNL     1     -12.338  56.234  46.847  0.00  0.00    +0.000 OA
ATOM     27  H   UNL     1     -12.878  55.768  46.239  0.00  0.00    +0.000 HD
ENDBRANCH   3  26
BRANCH   5  28
ATOM     28  N   UNL     1     -11.695  54.350  52.134  0.00  0.00    +0.000 N 
ATOM     29  H   UNL     1     -12.395  53.782  52.532  0.00  0.00    +0.000 HD
BRANCH  28  30
ATOM     30  C   UNL     1     -10.493  54.755  52.876  0.00  0.00    +0.000 C 
BRANCH  30  31
ATOM     31  C   UNL     1      -9.764  53.551  53.399  0.00  0.00    +0.000 A 
ATOM     32  S   UNL     1      -8.049  53.489  53.327  0.00  0.00    +0.000 S 
ATOM     33  C   UNL     1     -10.286  52.427  54.005  0.00  0.00    +0.000 A 
ATOM     34  C   UNL     1      -8.009  51.971  54.112  0.00  0.00    +0.000 A 
ATOM     35  C   UNL     1      -9.272  51.515  54.417  0.00  0.00    +0.000 A 
ENDBRANCH  30  31
ENDBRANCH  28  30
ENDBRANCH   5  28
TORSDOF 5
ENDMDL
