MODEL 1
REMARK VINA RESULT:      -8.0      0.000      0.000
REMARK  Name = 
REMARK  9 active torsions:
REMARK  status: ('A' for Active; 'I' for Inactive)
REMARK    1  A    between atoms: C_6  and  C_10
REMARK    2  A    between atoms: C_14  and  O_18
REMARK    3  A    between atoms: N_17  and  N_20
REMARK    4  A    between atoms: N_20  and  C_23
REMARK    5  A    between atoms: C_23  and  C_26
REMARK    6  A    between atoms: C_23  and  C_27
REMARK    7  A    between atoms: C_26  and  C_29
REMARK    8  A    between atoms: C_27  and  C_30
REMARK    9  A    between atoms: C_29  and  C_31
REMARK                            x       y       z     vdW  Elec       q    Type
REMARK                         _______ _______ _______ _____ _____    ______ ____
ROOT
ATOM      1  C   UNL     1      -8.995  54.750  50.297  0.00  0.00    +0.000 A 
ATOM      2  C   UNL     1     -10.404  54.739  50.805  0.00  0.00    +0.000 A 
ATOM      3  C   UNL     1      -8.779  54.694  48.970  0.00  0.00    +0.000 A 
ATOM      4  O   UNL     1     -10.587  54.466  51.997  0.00  0.00    +0.000 OA
ATOM      5  N   UNL     1     -11.411  55.119  49.901  0.00  0.00    +0.000 N 
ATOM      6  C   UNL     1      -9.898  54.718  48.021  0.00  0.00    +0.000 A 
ATOM      7  C   UNL     1     -11.198  54.990  48.484  0.00  0.00    +0.000 A 
ATOM      8  C   UNL     1      -9.664  54.537  46.644  0.00  0.00    +0.000 A 
ATOM      9  C   UNL     1     -12.233  55.082  47.534  0.00  0.00    +0.000 A 
ATOM     10  C   UNL     1     -10.700  54.634  45.722  0.00  0.00    +0.000 A 
ATOM     11  C   UNL     1     -11.985  54.911  46.167  0.00  0.00    +0.000 A 
ENDROOT
BRANCH   1  17
ATOM     12  S   UNL     1      -6.993  55.833  53.504  0.00  0.00    +0.000 S 
ATOM     13  O   UNL     1      -7.541  55.173  54.672  0.00  0.00    +0.000 OA
ATOM     14  O   UNL     1      -6.600  57.226  53.565  0.00  0.00    +0.000 OA
ATOM     15  N   UNL     1      -8.057  55.675  52.303  0.00  0.00    +0.000 N 
ATOM     16  C   UNL     1      -5.550  54.937  53.075  0.00  0.00    +0.000 A 
ATOM     17  C   UNL     1      -7.843  54.890  51.286  0.00  0.00    +0.000 C 
ATOM     18  C   UNL     1      -5.566  54.194  51.905  0.00  0.00    +0.000 A 
ATOM     19  C   UNL     1      -4.436  54.984  53.922  0.00  0.00    +0.000 A 
ATOM     20  N   UNL     1      -6.690  54.164  51.082  0.00  0.00    +0.000 N 
ATOM     21  C   UNL     1      -4.426  53.447  51.594  0.00  0.00    +0.000 A 
ATOM     22  C   UNL     1      -3.306  54.251  53.590  0.00  0.00    +0.000 A 
ATOM     23  C   UNL     1      -3.301  53.478  52.430  0.00  0.00    +0.000 A 
ATOM     24  H   UNL     1      -8.894  56.190  52.339  0.00  0.00    +0.000 HD
ATOM     25  H   UNL     1      -6.656  53.578  50.292  0.00  0.00    +0.000 HD
ENDBRANCH   1  17
BRANCH   3  26
ATOM     26  O   UNL     1      -7.531  54.671  48.372  0.00  0.00    +0.000 OA
ATOM     27  H   UNL     1      -6.937  55.386  48.501  0.00  0.00    +0.000 HD
ENDBRANCH   3  26
BRANCH   5  28
ATOM     28  N   UNL     1     -12.741  55.333  50.394  0.00  0.00    +0.000 N 
ATOM     29  H   UNL     1     -13.373  54.589  50.519  0.00  0.00    +0.000 HD
BRANCH  28  30
ATOM     30  C   UNL     1     -13.116  56.735  50.707  0.00  0.00    +0.000 C 
BRANCH  30  31
ATOM     31  C   UNL     1     -13.610  56.734  52.176  0.00  0.00    +0.000 C 
ATOM     32  C   UNL     1     -15.066  57.156  52.335  0.00  0.00    +0.000 C 
ENDBRANCH  30  31
BRANCH  30  33
ATOM     33  C   UNL     1     -14.210  57.294  49.759  0.00  0.00    +0.000 C 
BRANCH  33  34
ATOM     34  C   UNL     1     -13.754  58.547  48.992  0.00  0.00    +0.000 C 
ATOM     35  C   UNL     1     -13.662  59.780  49.879  0.00  0.00    +0.000 C 
ENDBRANCH  33  34
ENDBRANCH  30  33
ENDBRANCH  28  30
ENDBRANCH   5  28
TORSDOF 7
ENDMDL
MODEL 2
REMARK VINA RESULT:      -7.9      2.331      4.760
REMARK  Name = 
REMARK  9 active torsions:
REMARK  status: ('A' for Active; 'I' for Inactive)
REMARK    1  A    between atoms: C_6  and  C_10
REMARK    2  A    between atoms: C_14  and  O_18
REMARK    3  A    between atoms: N_17  and  N_20
REMARK    4  A    between atoms: N_20  and  C_23
REMARK    5  A    between atoms: C_23  and  C_26
REMARK    6  A    between atoms: C_23  and  C_27
REMARK    7  A    between atoms: C_26  and  C_29
REMARK    8  A    between atoms: C_27  and  C_30
REMARK    9  A    between atoms: C_29  and  C_31
REMARK                            x       y       z     vdW  Elec       q    Type
REMARK                         _______ _______ _______ _____ _____    ______ ____
ROOT
ATOM      1  C   UNL     1      -9.895  55.290  50.359  0.00  0.00    +0.000 A 
ATOM      2  C   UNL     1      -9.423  55.363  48.940  0.00  0.00    +0.000 A 
ATOM      3  C   UNL     1     -11.135  55.723  50.658  0.00  0.00    +0.000 A 
ATOM      4  O   UNL     1      -8.207  55.275  48.731  0.00  0.00    +0.000 OA
ATOM      5  N   UNL     1     -10.409  55.447  47.942  0.00  0.00    +0.000 N 
ATOM      6  C   UNL     1     -12.052  56.173  49.604  0.00  0.00    +0.000 A 
ATOM      7  C   UNL     1     -11.710  55.978  48.254  0.00  0.00    +0.000 A 
ATOM      8  C   UNL     1     -13.297  56.737  49.941  0.00  0.00    +0.000 A 
ATOM      9  C   UNL     1     -12.648  56.351  47.274  0.00  0.00    +0.000 A 
ATOM     10  C   UNL     1     -14.211  57.096  48.957  0.00  0.00    +0.000 A 
ATOM     11  C   UNL     1     -13.888  56.899  47.623  0.00  0.00    +0.000 A 
ENDROOT
BRANCH   1  17
ATOM     12  S   UNL     1      -6.873  54.848  52.836  0.00  0.00    +0.000 S 
ATOM     13  O   UNL     1      -6.952  55.839  53.890  0.00  0.00    +0.000 OA
ATOM     14  O   UNL     1      -5.598  54.523  52.228  0.00  0.00    +0.000 OA
ATOM     15  N   UNL     1      -7.877  55.298  51.658  0.00  0.00    +0.000 N 
ATOM     16  C   UNL     1      -7.478  53.357  53.528  0.00  0.00    +0.000 A 
ATOM     17  C   UNL     1      -8.992  54.669  51.420  0.00  0.00    +0.000 C 
ATOM     18  C   UNL     1      -8.692  52.871  53.070  0.00  0.00    +0.000 A 
ATOM     19  C   UNL     1      -6.734  52.710  54.522  0.00  0.00    +0.000 A 
ATOM     20  N   UNL     1      -9.413  53.536  52.082  0.00  0.00    +0.000 N 
ATOM     21  C   UNL     1      -9.189  51.704  53.660  0.00  0.00    +0.000 A 
ATOM     22  C   UNL     1      -7.231  51.544  55.084  0.00  0.00    +0.000 A 
ATOM     23  C   UNL     1      -8.460  51.042  54.660  0.00  0.00    +0.000 A 
ATOM     24  H   UNL     1      -7.639  56.074  51.101  0.00  0.00    +0.000 HD
ATOM     25  H   UNL     1     -10.292  53.167  51.837  0.00  0.00    +0.000 HD
ENDBRANCH   1  17
BRANCH   3  26
ATOM     26  O   UNL     1     -11.683  55.735  51.928  0.00  0.00    +0.000 OA
ATOM     27  H   UNL     1     -11.242  56.182  52.625  0.00  0.00    +0.000 HD
ENDBRANCH   3  26
BRANCH   5  28
ATOM     28  N   UNL     1     -10.021  55.301  46.569  0.00  0.00    +0.000 N 
ATOM     29  H   UNL     1      -9.727  56.070  46.030  0.00  0.00    +0.000 HD
BRANCH  28  30
ATOM     30  C   UNL     1     -10.084  53.931  46.003  0.00  0.00    +0.000 C 
BRANCH  30  31
ATOM     31  C   UNL     1      -8.845  53.783  45.084  0.00  0.00    +0.000 C 
ATOM     32  C   UNL     1      -7.783  54.853  45.308  0.00  0.00    +0.000 C 
ENDBRANCH  30  31
BRANCH  30  33
ATOM     33  C   UNL     1     -11.392  53.664  45.211  0.00  0.00    +0.000 C 
BRANCH  33  34
ATOM     34  C   UNL     1     -12.152  52.424  45.711  0.00  0.00    +0.000 C 
ATOM     35  C   UNL     1     -12.209  52.339  47.229  0.00  0.00    +0.000 C 
ENDBRANCH  33  34
ENDBRANCH  30  33
ENDBRANCH  28  30
ENDBRANCH   5  28
TORSDOF 7
ENDMDL
MODEL 3
REMARK VINA RESULT:      -7.9      2.280      4.822
REMARK  Name = 
REMARK  9 active torsions:
REMARK  status: ('A' for Active; 'I' for Inactive)
REMARK    1  A    between atoms: C_6  and  C_10
REMARK    2  A    between atoms: C_14  and  O_18
REMARK    3  A    between atoms: N_17  and  N_20
REMARK    4  A    between atoms: N_20  and  C_23
REMARK    5  A    between atoms: C_23  and  C_26
REMARK    6  A    between atoms: C_23  and  C_27
REMARK    7  A    between atoms: C_26  and  C_29
REMARK    8  A    between atoms: C_27  and  C_30
REMARK    9  A    between atoms: C_29  and  C_31
REMARK                            x       y       z     vdW  Elec       q    Type
REMARK                         _______ _______ _______ _____ _____    ______ ____
ROOT
ATOM      1  C   UNL     1     -10.369  55.200  50.583  0.00  0.00    +0.000 A 
ATOM      2  C   UNL     1      -9.825  55.304  49.192  0.00  0.00    +0.000 A 
ATOM      3  C   UNL     1     -11.599  55.683  50.841  0.00  0.00    +0.000 A 
ATOM      4  O   UNL     1      -8.606  55.163  49.036  0.00  0.00    +0.000 OA
ATOM      5  N   UNL     1     -10.757  55.477  48.154  0.00  0.00    +0.000 N 
ATOM      6  C   UNL     1     -12.441  56.220  49.766  0.00  0.00    +0.000 A 
ATOM      7  C   UNL     1     -12.044  56.061  48.427  0.00  0.00    +0.000 A 
ATOM      8  C   UNL     1     -13.672  56.832  50.068  0.00  0.00    +0.000 A 
ATOM      9  C   UNL     1     -12.914  56.519  47.420  0.00  0.00    +0.000 A 
ATOM     10  C   UNL     1     -14.518  57.276  49.059  0.00  0.00    +0.000 A 
ATOM     11  C   UNL     1     -14.141  57.115  47.733  0.00  0.00    +0.000 A 
ENDROOT
BRANCH   1  17
ATOM     12  S   UNL     1      -9.162  52.386  53.050  0.00  0.00    +0.000 S 
ATOM     13  O   UNL     1      -8.605  51.278  52.298  0.00  0.00    +0.000 OA
ATOM     14  O   UNL     1     -10.013  52.139  54.197  0.00  0.00    +0.000 OA
ATOM     15  N   UNL     1      -9.981  53.318  52.022  0.00  0.00    +0.000 N 
ATOM     16  C   UNL     1      -7.793  53.302  53.647  0.00  0.00    +0.000 A 
ATOM     17  C   UNL     1      -9.550  54.493  51.658  0.00  0.00    +0.000 C 
ATOM     18  C   UNL     1      -7.569  54.561  53.113  0.00  0.00    +0.000 A 
ATOM     19  C   UNL     1      -6.965  52.740  54.625  0.00  0.00    +0.000 A 
ATOM     20  N   UNL     1      -8.408  55.095  52.138  0.00  0.00    +0.000 N 
ATOM     21  C   UNL     1      -6.448  55.267  53.563  0.00  0.00    +0.000 A 
ATOM     22  C   UNL     1      -5.868  53.459  55.074  0.00  0.00    +0.000 A 
ATOM     23  C   UNL     1      -5.604  54.720  54.541  0.00  0.00    +0.000 A 
ATOM     24  H   UNL     1     -10.834  52.990  51.658  0.00  0.00    +0.000 HD
ATOM     25  H   UNL     1      -8.165  55.972  51.763  0.00  0.00    +0.000 HD
ENDBRANCH   1  17
BRANCH   3  26
ATOM     26  O   UNL     1     -12.207  55.673  52.085  0.00  0.00    +0.000 OA
ATOM     27  H   UNL     1     -12.547  54.872  52.433  0.00  0.00    +0.000 HD
ENDBRANCH   3  26
BRANCH   5  28
ATOM     28  N   UNL     1     -10.310  55.366  46.795  0.00  0.00    +0.000 N 
ATOM     29  H   UNL     1      -9.978  56.145  46.294  0.00  0.00    +0.000 HD
BRANCH  28  30
ATOM     30  C   UNL     1     -10.373  54.015  46.183  0.00  0.00    +0.000 C 
BRANCH  30  31
ATOM     31  C   UNL     1      -8.992  53.772  45.524  0.00  0.00    +0.000 C 
ATOM     32  C   UNL     1      -8.048  54.964  45.619  0.00  0.00    +0.000 C 
ENDBRANCH  30  31
BRANCH  30  33
ATOM     33  C   UNL     1     -11.514  53.877  45.140  0.00  0.00    +0.000 C 
BRANCH  33  34
ATOM     34  C   UNL     1     -11.981  52.423  44.952  0.00  0.00    +0.000 C 
ATOM     35  C   UNL     1     -12.398  51.764  46.258  0.00  0.00    +0.000 C 
ENDBRANCH  33  34
ENDBRANCH  30  33
ENDBRANCH  28  30
ENDBRANCH   5  28
TORSDOF 7
ENDMDL
MODEL 4
REMARK VINA RESULT:      -7.8      3.802      7.700
REMARK  Name = 
REMARK  9 active torsions:
REMARK  status: ('A' for Active; 'I' for Inactive)
REMARK    1  A    between atoms: C_6  and  C_10
REMARK    2  A    between atoms: C_14  and  O_18
REMARK    3  A    between atoms: N_17  and  N_20
REMARK    4  A    between atoms: N_20  and  C_23
REMARK    5  A    between atoms: C_23  and  C_26
REMARK    6  A    between atoms: C_23  and  C_27
REMARK    7  A    between atoms: C_26  and  C_29
REMARK    8  A    between atoms: C_27  and  C_30
REMARK    9  A    between atoms: C_29  and  C_31
REMARK                            x       y       z     vdW  Elec       q    Type
REMARK                         _______ _______ _______ _____ _____    ______ ____
ROOT
ATOM      1  C   UNL     1     -12.366  54.311  49.716  0.00  0.00    +0.000 A 
ATOM      2  C   UNL     1     -11.631  54.247  48.413  0.00  0.00    +0.000 A 
ATOM      3  C   UNL     1     -12.170  53.336  50.624  0.00  0.00    +0.000 A 
ATOM      4  O   UNL     1     -12.049  54.944  47.480  0.00  0.00    +0.000 OA
ATOM      5  N   UNL     1     -10.469  53.457  48.373  0.00  0.00    +0.000 N 
ATOM      6  C   UNL     1     -11.183  52.275  50.391  0.00  0.00    +0.000 A 
ATOM      7  C   UNL     1     -10.300  52.372  49.302  0.00  0.00    +0.000 A 
ATOM      8  C   UNL     1     -11.077  51.197  51.291  0.00  0.00    +0.000 A 
ATOM      9  C   UNL     1      -9.317  51.375  49.157  0.00  0.00    +0.000 A 
ATOM     10  C   UNL     1     -10.097  50.224  51.131  0.00  0.00    +0.000 A 
ATOM     11  C   UNL     1      -9.214  50.315  50.065  0.00  0.00    +0.000 A 
ENDROOT
BRANCH   1  17
ATOM     12  S   UNL     1     -15.366  56.405  51.155  0.00  0.00    +0.000 S 
ATOM     13  O   UNL     1     -15.262  56.486  52.599  0.00  0.00    +0.000 OA
ATOM     14  O   UNL     1     -16.652  56.188  50.523  0.00  0.00    +0.000 OA
ATOM     15  N   UNL     1     -14.369  55.243  50.652  0.00  0.00    +0.000 N 
ATOM     16  C   UNL     1     -14.774  57.936  50.542  0.00  0.00    +0.000 A 
ATOM     17  C   UNL     1     -13.265  55.506  50.013  0.00  0.00    +0.000 C 
ATOM     18  C   UNL     1     -13.571  57.941  49.853  0.00  0.00    +0.000 A 
ATOM     19  C   UNL     1     -15.515  59.101  50.771  0.00  0.00    +0.000 A 
ATOM     20  N   UNL     1     -12.852  56.767  49.641  0.00  0.00    +0.000 N 
ATOM     21  C   UNL     1     -13.084  59.174  49.407  0.00  0.00    +0.000 A 
ATOM     22  C   UNL     1     -15.028  60.313  50.306  0.00  0.00    +0.000 A 
ATOM     23  C   UNL     1     -13.810  60.353  49.629  0.00  0.00    +0.000 A 
ATOM     24  H   UNL     1     -14.603  54.305  50.833  0.00  0.00    +0.000 HD
ATOM     25  H   UNL     1     -11.981  56.845  49.190  0.00  0.00    +0.000 HD
ENDBRANCH   1  17
BRANCH   3  26
ATOM     26  O   UNL     1     -12.803  53.261  51.852  0.00  0.00    +0.000 OA
ATOM     27  H   UNL     1     -13.478  53.875  52.069  0.00  0.00    +0.000 HD
ENDBRANCH   3  26
BRANCH   5  28
ATOM     28  N   UNL     1      -9.616  53.535  47.222  0.00  0.00    +0.000 N 
ATOM     29  H   UNL     1      -9.632  52.847  46.519  0.00  0.00    +0.000 HD
BRANCH  28  30
ATOM     30  C   UNL     1      -8.710  54.708  47.145  0.00  0.00    +0.000 C 
BRANCH  30  31
ATOM     31  C   UNL     1      -8.269  54.820  45.663  0.00  0.00    +0.000 C 
ATOM     32  C   UNL     1      -8.237  53.484  44.929  0.00  0.00    +0.000 C 
ENDBRANCH  30  31
BRANCH  30  33
ATOM     33  C   UNL     1      -7.476  54.581  48.078  0.00  0.00    +0.000 C 
BRANCH  33  34
ATOM     34  C   UNL     1      -7.677  55.281  49.433  0.00  0.00    +0.000 C 
ATOM     35  C   UNL     1      -8.743  56.365  49.385  0.00  0.00    +0.000 C 
ENDBRANCH  33  34
ENDBRANCH  30  33
ENDBRANCH  28  30
ENDBRANCH   5  28
TORSDOF 7
ENDMDL
MODEL 5
REMARK VINA RESULT:      -7.8      2.857      8.334
REMARK  Name = 
REMARK  9 active torsions:
REMARK  status: ('A' for Active; 'I' for Inactive)
REMARK    1  A    between atoms: C_6  and  C_10
REMARK    2  A    between atoms: C_14  and  O_18
REMARK    3  A    between atoms: N_17  and  N_20
REMARK    4  A    between atoms: N_20  and  C_23
REMARK    5  A    between atoms: C_23  and  C_26
REMARK    6  A    between atoms: C_23  and  C_27
REMARK    7  A    between atoms: C_26  and  C_29
REMARK    8  A    between atoms: C_27  and  C_30
REMARK    9  A    between atoms: C_29  and  C_31
REMARK                            x       y       z     vdW  Elec       q    Type
REMARK                         _______ _______ _______ _____ _____    ______ ____
ROOT
ATOM      1  C   UNL     1     -10.045  54.418  52.182  0.00  0.00    +0.000 A 
ATOM      2  C   UNL     1      -8.630  54.849  51.950  0.00  0.00    +0.000 A 
ATOM      3  C   UNL     1     -10.282  53.354  52.972  0.00  0.00    +0.000 A 
ATOM      4  O   UNL     1      -8.405  55.599  50.992  0.00  0.00    +0.000 OA
ATOM      5  N   UNL     1      -7.673  54.430  52.890  0.00  0.00    +0.000 N 
ATOM      6  C   UNL     1      -9.187  52.677  53.676  0.00  0.00    +0.000 A 
ATOM      7  C   UNL     1      -7.903  53.250  53.680  0.00  0.00    +0.000 A 
ATOM      8  C   UNL     1      -9.433  51.494  54.399  0.00  0.00    +0.000 A 
ATOM      9  C   UNL     1      -6.897  52.613  54.430  0.00  0.00    +0.000 A 
ATOM     10  C   UNL     1      -8.425  50.882  55.135  0.00  0.00    +0.000 A 
ATOM     11  C   UNL     1      -7.157  51.445  55.155  0.00  0.00    +0.000 A 
ENDROOT
BRANCH   1  17
ATOM     12  S   UNL     1     -12.487  55.911  49.486  0.00  0.00    +0.000 S 
ATOM     13  O   UNL     1     -13.327  54.859  48.946  0.00  0.00    +0.000 OA
ATOM     14  O   UNL     1     -11.926  56.923  48.612  0.00  0.00    +0.000 OA
ATOM     15  N   UNL     1     -11.268  55.213  50.276  0.00  0.00    +0.000 N 
ATOM     16  C   UNL     1     -13.476  56.767  50.652  0.00  0.00    +0.000 A 
ATOM     17  C   UNL     1     -11.186  55.229  51.576  0.00  0.00    +0.000 C 
ATOM     18  C   UNL     1     -13.152  56.646  51.995  0.00  0.00    +0.000 A 
ATOM     19  C   UNL     1     -14.559  57.531  50.204  0.00  0.00    +0.000 A 
ATOM     20  N   UNL     1     -12.069  55.877  52.412  0.00  0.00    +0.000 N 
ATOM     21  C   UNL     1     -13.973  57.296  52.921  0.00  0.00    +0.000 A 
ATOM     22  C   UNL     1     -15.353  58.185  51.135  0.00  0.00    +0.000 A 
ATOM     23  C   UNL     1     -15.066  58.064  52.493  0.00  0.00    +0.000 A 
ATOM     24  H   UNL     1     -10.563  54.762  49.760  0.00  0.00    +0.000 HD
ATOM     25  H   UNL     1     -11.923  55.790  53.382  0.00  0.00    +0.000 HD
ENDBRANCH   1  17
BRANCH   3  26
ATOM     26  O   UNL     1     -11.536  52.837  53.247  0.00  0.00    +0.000 OA
ATOM     27  H   UNL     1     -11.672  51.909  53.243  0.00  0.00    +0.000 HD
ENDBRANCH   3  26
BRANCH   5  28
ATOM     28  N   UNL     1      -6.354  54.991  52.833  0.00  0.00    +0.000 N 
ATOM     29  H   UNL     1      -6.158  55.888  53.187  0.00  0.00    +0.000 HD
BRANCH  28  30
ATOM     30  C   UNL     1      -5.299  54.150  52.215  0.00  0.00    +0.000 C 
BRANCH  30  31
ATOM     31  C   UNL     1      -3.992  54.452  52.990  0.00  0.00    +0.000 C 
ATOM     32  C   UNL     1      -3.301  53.209  53.537  0.00  0.00    +0.000 C 
ENDBRANCH  30  31
BRANCH  30  33
ATOM     33  C   UNL     1      -5.117  54.426  50.699  0.00  0.00    +0.000 C 
BRANCH  33  34
ATOM     34  C   UNL     1      -5.302  53.167  49.834  0.00  0.00    +0.000 C 
ATOM     35  C   UNL     1      -6.152  52.104  50.514  0.00  0.00    +0.000 C 
ENDBRANCH  33  34
ENDBRANCH  30  33
ENDBRANCH  28  30
ENDBRANCH   5  28
TORSDOF 7
ENDMDL
MODEL 6
REMARK VINA RESULT:      -7.6      3.575      7.725
REMARK  Name = 
REMARK  9 active torsions:
REMARK  status: ('A' for Active; 'I' for Inactive)
REMARK    1  A    between atoms: C_6  and  C_10
REMARK    2  A    between atoms: C_14  and  O_18
REMARK    3  A    between atoms: N_17  and  N_20
REMARK    4  A    between atoms: N_20  and  C_23
REMARK    5  A    between atoms: C_23  and  C_26
REMARK    6  A    between atoms: C_23  and  C_27
REMARK    7  A    between atoms: C_26  and  C_29
REMARK    8  A    between atoms: C_27  and  C_30
REMARK    9  A    between atoms: C_29  and  C_31
REMARK                            x       y       z     vdW  Elec       q    Type
REMARK                         _______ _______ _______ _____ _____    ______ ____
ROOT
ATOM      1  C   UNL     1     -11.603  54.105  51.160  0.00  0.00    +0.000 A 
ATOM      2  C   UNL     1     -10.675  53.976  52.328  0.00  0.00    +0.000 A 
ATOM      3  C   UNL     1     -11.741  53.063  50.318  0.00  0.00    +0.000 A 
ATOM      4  O   UNL     1     -10.311  55.014  52.893  0.00  0.00    +0.000 OA
ATOM      5  N   UNL     1     -10.351  52.674  52.745  0.00  0.00    +0.000 N 
ATOM      6  C   UNL     1     -11.073  51.783  50.584  0.00  0.00    +0.000 A 
ATOM      7  C   UNL     1     -10.434  51.576  51.819  0.00  0.00    +0.000 A 
ATOM      8  C   UNL     1     -11.128  50.745  49.635  0.00  0.00    +0.000 A 
ATOM      9  C   UNL     1      -9.872  50.309  52.068  0.00  0.00    +0.000 A 
ATOM     10  C   UNL     1     -10.569  49.501  49.902  0.00  0.00    +0.000 A 
ATOM     11  C   UNL     1      -9.944  49.281  51.121  0.00  0.00    +0.000 A 
ENDROOT
BRANCH   1  17
ATOM     12  S   UNL     1     -13.399  57.126  49.395  0.00  0.00    +0.000 S 
ATOM     13  O   UNL     1     -14.518  56.643  48.612  0.00  0.00    +0.000 OA
ATOM     14  O   UNL     1     -12.531  58.162  48.873  0.00  0.00    +0.000 OA
ATOM     15  N   UNL     1     -12.477  55.858  49.774  0.00  0.00    +0.000 N 
ATOM     16  C   UNL     1     -14.084  57.763  50.876  0.00  0.00    +0.000 A 
ATOM     17  C   UNL     1     -12.417  55.382  50.985  0.00  0.00    +0.000 C 
ATOM     18  C   UNL     1     -13.839  57.079  52.056  0.00  0.00    +0.000 A 
ATOM     19  C   UNL     1     -14.862  58.926  50.827  0.00  0.00    +0.000 A 
ATOM     20  N   UNL     1     -13.063  55.923  52.075  0.00  0.00    +0.000 N 
ATOM     21  C   UNL     1     -14.427  57.570  53.226  0.00  0.00    +0.000 A 
ATOM     22  C   UNL     1     -15.424  59.411  51.999  0.00  0.00    +0.000 A 
ATOM     23  C   UNL     1     -15.213  58.732  53.198  0.00  0.00    +0.000 A 
ATOM     24  H   UNL     1     -11.943  55.431  49.067  0.00  0.00    +0.000 HD
ATOM     25  H   UNL     1     -12.969  55.455  52.936  0.00  0.00    +0.000 HD
ENDBRANCH   1  17
BRANCH   3  26
ATOM     26  O   UNL     1     -12.543  53.059  49.190  0.00  0.00    +0.000 OA
ATOM     27  H   UNL     1     -12.610  52.285  48.665  0.00  0.00    +0.000 HD
ENDBRANCH   3  26
BRANCH   5  28
ATOM     28  N   UNL     1      -9.647  52.496  53.983  0.00  0.00    +0.000 N 
ATOM     29  H   UNL     1     -10.111  52.520  54.850  0.00  0.00    +0.000 HD
BRANCH  28  30
ATOM     30  C   UNL     1      -8.182  52.273  53.888  0.00  0.00    +0.000 C 
BRANCH  30  31
ATOM     31  C   UNL     1      -7.815  51.310  55.045  0.00  0.00    +0.000 C 
ATOM     32  C   UNL     1      -9.016  50.606  55.664  0.00  0.00    +0.000 C 
ENDBRANCH  30  31
BRANCH  30  33
ATOM     33  C   UNL     1      -7.364  53.588  53.986  0.00  0.00    +0.000 C 
BRANCH  33  34
ATOM     34  C   UNL     1      -6.457  53.820  52.764  0.00  0.00    +0.000 C 
ATOM     35  C   UNL     1      -7.062  53.294  51.472  0.00  0.00    +0.000 C 
ENDBRANCH  33  34
ENDBRANCH  30  33
ENDBRANCH  28  30
ENDBRANCH   5  28
TORSDOF 7
ENDMDL
MODEL 7
REMARK VINA RESULT:      -7.6      2.180      2.587
REMARK  Name = 
REMARK  9 active torsions:
REMARK  status: ('A' for Active; 'I' for Inactive)
REMARK    1  A    between atoms: C_6  and  C_10
REMARK    2  A    between atoms: C_14  and  O_18
REMARK    3  A    between atoms: N_17  and  N_20
REMARK    4  A    between atoms: N_20  and  C_23
REMARK    5  A    between atoms: C_23  and  C_26
REMARK    6  A    between atoms: C_23  and  C_27
REMARK    7  A    between atoms: C_26  and  C_29
REMARK    8  A    between atoms: C_27  and  C_30
REMARK    9  A    between atoms: C_29  and  C_31
REMARK                            x       y       z     vdW  Elec       q    Type
REMARK                         _______ _______ _______ _____ _____    ______ ____
ROOT
ATOM      1  C   UNL     1     -10.055  54.611  50.701  0.00  0.00    +0.000 A 
ATOM      2  C   UNL     1     -11.316  55.269  51.169  0.00  0.00    +0.000 A 
ATOM      3  C   UNL     1      -9.856  54.448  49.379  0.00  0.00    +0.000 A 
ATOM      4  O   UNL     1     -11.637  55.125  52.355  0.00  0.00    +0.000 OA
ATOM      5  N   UNL     1     -12.001  56.070  50.239  0.00  0.00    +0.000 N 
ATOM      6  C   UNL     1     -10.806  54.987  48.400  0.00  0.00    +0.000 A 
ATOM      7  C   UNL     1     -11.836  55.843  48.828  0.00  0.00    +0.000 A 
ATOM      8  C   UNL     1     -10.649  54.705  47.029  0.00  0.00    +0.000 A 
ATOM      9  C   UNL     1     -12.681  56.403  47.851  0.00  0.00    +0.000 A 
ATOM     10  C   UNL     1     -11.492  55.270  46.080  0.00  0.00    +0.000 A 
ATOM     11  C   UNL     1     -12.506  56.123  46.491  0.00  0.00    +0.000 A 
ENDROOT
BRANCH   1  17
ATOM     12  S   UNL     1      -6.806  54.752  52.911  0.00  0.00    +0.000 S 
ATOM     13  O   UNL     1      -6.916  55.826  53.878  0.00  0.00    +0.000 OA
ATOM     14  O   UNL     1      -5.556  54.514  52.217  0.00  0.00    +0.000 OA
ATOM     15  N   UNL     1      -7.951  54.971  51.798  0.00  0.00    +0.000 N 
ATOM     16  C   UNL     1      -7.168  53.277  53.784  0.00  0.00    +0.000 A 
ATOM     17  C   UNL     1      -8.999  54.200  51.721  0.00  0.00    +0.000 C 
ATOM     18  C   UNL     1      -8.349  52.616  53.486  0.00  0.00    +0.000 A 
ATOM     19  C   UNL     1      -6.272  52.817  54.755  0.00  0.00    +0.000 A 
ATOM     20  N   UNL     1      -9.224  53.097  52.516  0.00  0.00    +0.000 N 
ATOM     21  C   UNL     1      -8.651  51.463  54.219  0.00  0.00    +0.000 A 
ATOM     22  C   UNL     1      -6.576  51.663  55.461  0.00  0.00    +0.000 A 
ATOM     23  C   UNL     1      -7.768  50.988  55.199  0.00  0.00    +0.000 A 
ATOM     24  H   UNL     1      -7.856  55.710  51.156  0.00  0.00    +0.000 HD
ATOM     25  H   UNL     1     -10.070  52.610  52.387  0.00  0.00    +0.000 HD
ENDBRANCH   1  17
BRANCH   3  26
ATOM     26  O   UNL     1      -8.750  53.835  48.817  0.00  0.00    +0.000 OA
ATOM     27  H   UNL     1      -8.812  53.447  47.965  0.00  0.00    +0.000 HD
ENDBRANCH   3  26
BRANCH   5  28
ATOM     28  N   UNL     1     -13.087  56.890  50.697  0.00  0.00    +0.000 N 
ATOM     29  H   UNL     1     -13.024  57.872  50.707  0.00  0.00    +0.000 HD
BRANCH  28  30
ATOM     30  C   UNL     1     -14.309  56.182  51.151  0.00  0.00    +0.000 C 
BRANCH  30  31
ATOM     31  C   UNL     1     -15.351  56.340  50.015  0.00  0.00    +0.000 C 
ATOM     32  C   UNL     1     -16.790  56.122  50.466  0.00  0.00    +0.000 C 
ENDBRANCH  30  31
BRANCH  30  33
ATOM     33  C   UNL     1     -14.865  56.735  52.490  0.00  0.00    +0.000 C 
BRANCH  33  34
ATOM     34  C   UNL     1     -14.215  58.067  52.903  0.00  0.00    +0.000 C 
ATOM     35  C   UNL     1     -15.067  59.276  52.547  0.00  0.00    +0.000 C 
ENDBRANCH  33  34
ENDBRANCH  30  33
ENDBRANCH  28  30
ENDBRANCH   5  28
TORSDOF 7
ENDMDL
MODEL 8
REMARK VINA RESULT:      -7.5      3.169      7.568
REMARK  Name = 
REMARK  9 active torsions:
REMARK  status: ('A' for Active; 'I' for Inactive)
REMARK    1  A    between atoms: C_6  and  C_10
REMARK    2  A    between atoms: C_14  and  O_18
REMARK    3  A    between atoms: N_17  and  N_20
REMARK    4  A    between atoms: N_20  and  C_23
REMARK    5  A    between atoms: C_23  and  C_26
REMARK    6  A    between atoms: C_23  and  C_27
REMARK    7  A    between atoms: C_26  and  C_29
REMARK    8  A    between atoms: C_27  and  C_30
REMARK    9  A    between atoms: C_29  and  C_31
REMARK                            x       y       z     vdW  Elec       q    Type
REMARK                         _______ _______ _______ _____ _____    ______ ____
ROOT
ATOM      1  C   UNL     1     -11.615  54.844  50.435  0.00  0.00    +0.000 A 
ATOM      2  C   UNL     1     -11.619  54.176  49.095  0.00  0.00    +0.000 A 
ATOM      3  C   UNL     1     -10.690  54.479  51.343  0.00  0.00    +0.000 A 
ATOM      4  O   UNL     1     -12.640  54.274  48.404  0.00  0.00    +0.000 OA
ATOM      5  N   UNL     1     -10.427  53.553  48.689  0.00  0.00    +0.000 N 
ATOM      6  C   UNL     1      -9.639  53.514  51.004  0.00  0.00    +0.000 A 
ATOM      7  C   UNL     1      -9.476  53.102  49.670  0.00  0.00    +0.000 A 
ATOM      8  C   UNL     1      -8.754  53.051  51.998  0.00  0.00    +0.000 A 
ATOM      9  C   UNL     1      -8.407  52.236  49.371  0.00  0.00    +0.000 A 
ATOM     10  C   UNL     1      -7.704  52.197  51.681  0.00  0.00    +0.000 A 
ATOM     11  C   UNL     1      -7.528  51.793  50.366  0.00  0.00    +0.000 A 
ENDROOT
BRANCH   1  17
ATOM     12  S   UNL     1     -14.298  57.005  52.331  0.00  0.00    +0.000 S 
ATOM     13  O   UNL     1     -13.693  57.636  53.488  0.00  0.00    +0.000 OA
ATOM     14  O   UNL     1     -15.627  56.434  52.418  0.00  0.00    +0.000 OA
ATOM     15  N   UNL     1     -13.298  55.849  51.820  0.00  0.00    +0.000 N 
ATOM     16  C   UNL     1     -14.379  58.243  51.094  0.00  0.00    +0.000 A 
ATOM     17  C   UNL     1     -12.611  55.963  50.719  0.00  0.00    +0.000 C 
ATOM     18  C   UNL     1     -13.557  58.111  49.985  0.00  0.00    +0.000 A 
ATOM     19  C   UNL     1     -15.251  59.325  51.261  0.00  0.00    +0.000 A 
ATOM     20  N   UNL     1     -12.696  57.025  49.846  0.00  0.00    +0.000 N 
ATOM     21  C   UNL     1     -13.596  59.127  49.024  0.00  0.00    +0.000 A 
ATOM     22  C   UNL     1     -15.291  60.314  50.290  0.00  0.00    +0.000 A 
ATOM     23  C   UNL     1     -14.460  60.221  49.174  0.00  0.00    +0.000 A 
ATOM     24  H   UNL     1     -13.204  55.030  52.357  0.00  0.00    +0.000 HD
ATOM     25  H   UNL     1     -12.102  57.016  49.061  0.00  0.00    +0.000 HD
ENDBRANCH   1  17
BRANCH   3  26
ATOM     26  O   UNL     1     -10.593  54.997  52.623  0.00  0.00    +0.000 OA
ATOM     27  H   UNL     1     -11.215  55.632  52.921  0.00  0.00    +0.000 HD
ENDBRANCH   3  26
BRANCH   5  28
ATOM     28  N   UNL     1     -10.311  53.091  47.335  0.00  0.00    +0.000 N 
ATOM     29  H   UNL     1     -10.330  52.133  47.112  0.00  0.00    +0.000 HD
BRANCH  28  30
ATOM     30  C   UNL     1     -10.163  54.133  46.288  0.00  0.00    +0.000 C 
BRANCH  30  31
ATOM     31  C   UNL     1      -9.976  53.378  44.948  0.00  0.00    +0.000 C 
ATOM     32  C   UNL     1     -10.055  51.862  45.080  0.00  0.00    +0.000 C 
ENDBRANCH  30  31
BRANCH  30  33
ATOM     33  C   UNL     1      -8.969  55.090  46.553  0.00  0.00    +0.000 C 
BRANCH  33  34
ATOM     34  C   UNL     1      -7.696  54.682  45.791  0.00  0.00    +0.000 C 
ATOM     35  C   UNL     1      -6.683  53.970  46.673  0.00  0.00    +0.000 C 
ENDBRANCH  33  34
ENDBRANCH  30  33
ENDBRANCH  28  30
ENDBRANCH   5  28
TORSDOF 7
ENDMDL
MODEL 9
REMARK VINA RESULT:      -7.5      4.450      7.922
REMARK  Name = 
REMARK  9 active torsions:
REMARK  status: ('A' for Active; 'I' for Inactive)
REMARK    1  A    between atoms: C_6  and  C_10
REMARK    2  A    between atoms: C_14  and  O_18
REMARK    3  A    between atoms: N_17  and  N_20
REMARK    4  A    between atoms: N_20  and  C_23
REMARK    5  A    between atoms: C_23  and  C_26
REMARK    6  A    between atoms: C_23  and  C_27
REMARK    7  A    between atoms: C_26  and  C_29
REMARK    8  A    between atoms: C_27  and  C_30
REMARK    9  A    between atoms: C_29  and  C_31
REMARK                            x       y       z     vdW  Elec       q    Type
REMARK                         _______ _______ _______ _____ _____    ______ ____
ROOT
ATOM      1  C   UNL     1     -12.320  54.281  49.633  0.00  0.00    +0.000 A 
ATOM      2  C   UNL     1     -11.579  54.238  48.332  0.00  0.00    +0.000 A 
ATOM      3  C   UNL     1     -12.135  53.289  50.524  0.00  0.00    +0.000 A 
ATOM      4  O   UNL     1     -11.988  54.954  47.410  0.00  0.00    +0.000 OA
ATOM      5  N   UNL     1     -10.422  53.441  48.283  0.00  0.00    +0.000 N 
ATOM      6  C   UNL     1     -11.154  52.226  50.277  0.00  0.00    +0.000 A 
ATOM      7  C   UNL     1     -10.265  52.338  49.194  0.00  0.00    +0.000 A 
ATOM      8  C   UNL     1     -11.058  51.131  51.157  0.00  0.00    +0.000 A 
ATOM      9  C   UNL     1      -9.287  51.337  49.034  0.00  0.00    +0.000 A 
ATOM     10  C   UNL     1     -10.084  50.155  50.983  0.00  0.00    +0.000 A 
ATOM     11  C   UNL     1      -9.195  50.261  49.924  0.00  0.00    +0.000 A 
ENDROOT
BRANCH   1  17
ATOM     12  S   UNL     1     -15.305  56.371  51.111  0.00  0.00    +0.000 S 
ATOM     13  O   UNL     1     -15.193  56.436  52.555  0.00  0.00    +0.000 OA
ATOM     14  O   UNL     1     -16.595  56.165  50.485  0.00  0.00    +0.000 OA
ATOM     15  N   UNL     1     -14.315  55.211  50.591  0.00  0.00    +0.000 N 
ATOM     16  C   UNL     1     -14.711  57.906  50.511  0.00  0.00    +0.000 A 
ATOM     17  C   UNL     1     -13.213  55.477  49.948  0.00  0.00    +0.000 C 
ATOM     18  C   UNL     1     -13.511  57.914  49.816  0.00  0.00    +0.000 A 
ATOM     19  C   UNL     1     -15.446  59.071  50.757  0.00  0.00    +0.000 A 
ATOM     20  N   UNL     1     -12.798  56.740  49.587  0.00  0.00    +0.000 N 
ATOM     21  C   UNL     1     -13.022  59.150  49.379  0.00  0.00    +0.000 A 
ATOM     22  C   UNL     1     -14.957  60.286  50.302  0.00  0.00    +0.000 A 
ATOM     23  C   UNL     1     -13.743  60.329  49.618  0.00  0.00    +0.000 A 
ATOM     24  H   UNL     1     -14.551  54.272  50.763  0.00  0.00    +0.000 HD
ATOM     25  H   UNL     1     -11.929  56.820  49.132  0.00  0.00    +0.000 HD
ENDBRANCH   1  17
BRANCH   3  26
ATOM     26  O   UNL     1     -12.774  53.196  51.747  0.00  0.00    +0.000 OA
ATOM     27  H   UNL     1     -13.282  53.916  52.067  0.00  0.00    +0.000 HD
ENDBRANCH   3  26
BRANCH   5  28
ATOM     28  N   UNL     1      -9.563  53.535  47.138  0.00  0.00    +0.000 N 
ATOM     29  H   UNL     1      -8.968  54.306  47.000  0.00  0.00    +0.000 HD
BRANCH  28  30
ATOM     30  C   UNL     1      -9.617  52.409  46.173  0.00  0.00    +0.000 C 
BRANCH  30  31
ATOM     31  C   UNL     1      -8.418  52.604  45.210  0.00  0.00    +0.000 C 
ATOM     32  C   UNL     1      -8.824  53.004  43.797  0.00  0.00    +0.000 C 
ENDBRANCH  30  31
BRANCH  30  33
ATOM     33  C   UNL     1     -10.953  52.352  45.385  0.00  0.00    +0.000 C 
BRANCH  33  34
ATOM     34  C   UNL     1     -11.699  51.019  45.568  0.00  0.00    +0.000 C 
ATOM     35  C   UNL     1     -12.654  51.035  46.752  0.00  0.00    +0.000 C 
ENDBRANCH  33  34
ENDBRANCH  30  33
ENDBRANCH  28  30
ENDBRANCH   5  28
TORSDOF 7
ENDMDL
