MODEL 1
REMARK VINA RESULT:      -9.0      0.000      0.000
REMARK  Name = 
REMARK  6 active torsions:
REMARK  status: ('A' for Active; 'I' for Inactive)
REMARK    1  A    between atoms: C_6  and  C_10
REMARK    2  A    between atoms: C_14  and  O_18
REMARK    3  A    between atoms: N_17  and  N_20
REMARK    4  A    between atoms: N_20  and  C_23
REMARK    5  A    between atoms: C_23  and  C_26
REMARK    6  A    between atoms: C_28  and  C_31
REMARK                            x       y       z     vdW  Elec       q    Type
REMARK                         _______ _______ _______ _____ _____    ______ ____
ROOT
ATOM      1  C   UNL     1     -11.643  55.863  48.819  0.00  0.00    +0.000 A 
ATOM      2  C   UNL     1     -10.695  55.137  49.712  0.00  0.00    +0.000 A 
ATOM      3  C   UNL     1     -11.720  55.578  47.511  0.00  0.00    +0.000 A 
ATOM      4  O   UNL     1     -10.751  55.410  50.911  0.00  0.00    +0.000 OA
ATOM      5  N   UNL     1      -9.838  54.196  49.129  0.00  0.00    +0.000 N 
ATOM      6  C   UNL     1     -10.864  54.539  46.930  0.00  0.00    +0.000 A 
ATOM      7  C   UNL     1      -9.940  53.859  47.741  0.00  0.00    +0.000 A 
ATOM      8  C   UNL     1     -10.992  54.188  45.575  0.00  0.00    +0.000 A 
ATOM      9  C   UNL     1      -9.163  52.836  47.172  0.00  0.00    +0.000 A 
ATOM     10  C   UNL     1     -10.241  53.148  45.035  0.00  0.00    +0.000 A 
ATOM     11  C   UNL     1      -9.329  52.471  45.835  0.00  0.00    +0.000 A 
ENDROOT
BRANCH   1  17
ATOM     12  S   UNL     1     -13.561  59.209  49.473  0.00  0.00    +0.000 S 
ATOM     13  O   UNL     1     -14.688  59.359  48.579  0.00  0.00    +0.000 OA
ATOM     14  O   UNL     1     -12.712  60.343  49.787  0.00  0.00    +0.000 OA
ATOM     15  N   UNL     1     -12.615  58.036  48.885  0.00  0.00    +0.000 N 
ATOM     16  C   UNL     1     -14.217  58.657  51.003  0.00  0.00    +0.000 A 
ATOM     17  C   UNL     1     -12.583  56.864  49.441  0.00  0.00    +0.000 C 
ATOM     18  C   UNL     1     -14.001  57.337  51.368  0.00  0.00    +0.000 A 
ATOM     19  C   UNL     1     -14.923  59.547  51.810  0.00  0.00    +0.000 A 
ATOM     20  N   UNL     1     -13.317  56.464  50.534  0.00  0.00    +0.000 N 
ATOM     21  C   UNL     1     -14.565  56.884  52.565  0.00  0.00    +0.000 A 
ATOM     22  C   UNL     1     -15.461  59.088  53.008  0.00  0.00    +0.000 A 
ATOM     23  C   UNL     1     -15.285  57.758  53.384  0.00  0.00    +0.000 A 
ATOM     24  H   UNL     1     -12.055  58.214  48.095  0.00  0.00    +0.000 HD
ATOM     25  H   UNL     1     -13.360  55.501  50.735  0.00  0.00    +0.000 HD
ENDBRANCH   1  17
BRANCH   3  26
ATOM     26  O   UNL     1     -12.618  56.163  46.636  0.00  0.00    +0.000 OA
ATOM     27  H   UNL     1     -13.536  55.992  46.721  0.00  0.00    +0.000 HD
ENDBRANCH   3  26
BRANCH   5  28
ATOM     28  N   UNL     1      -8.890  53.451  49.911  0.00  0.00    +0.000 N 
ATOM     29  H   UNL     1      -9.115  52.566  50.281  0.00  0.00    +0.000 HD
BRANCH  28  30
ATOM     30  C   UNL     1      -7.574  54.061  50.135  0.00  0.00    +0.000 C 
BRANCH  30  31
ATOM     31  C   UNL     1      -7.381  54.444  51.584  0.00  0.00    +0.000 A 
ATOM     32  C   UNL     1      -7.367  55.789  52.005  0.00  0.00    +0.000 A 
ATOM     33  C   UNL     1      -7.204  53.420  52.537  0.00  0.00    +0.000 A 
ATOM     34  C   UNL     1      -7.192  56.072  53.368  0.00  0.00    +0.000 A 
ATOM     35  C   UNL     1      -7.560  56.951  51.068  0.00  0.00    +0.000 C 
ATOM     36  C   UNL     1      -7.048  53.721  53.888  0.00  0.00    +0.000 A 
ATOM     37  C   UNL     1      -7.045  55.048  54.304  0.00  0.00    +0.000 A 
ENDBRANCH  30  31
ENDBRANCH  28  30
ENDBRANCH   5  28
TORSDOF 5
ENDMDL
MODEL 2
REMARK VINA RESULT:      -9.0      2.551      7.069
REMARK  Name = 
REMARK  6 active torsions:
REMARK  status: ('A' for Active; 'I' for Inactive)
REMARK    1  A    between atoms: C_6  and  C_10
REMARK    2  A    between atoms: C_14  and  O_18
REMARK    3  A    between atoms: N_17  and  N_20
REMARK    4  A    between atoms: N_20  and  C_23
REMARK    5  A    between atoms: C_23  and  C_26
REMARK    6  A    between atoms: C_28  and  C_31
REMARK                            x       y       z     vdW  Elec       q    Type
REMARK                         _______ _______ _______ _____ _____    ______ ____
ROOT
ATOM      1  C   UNL     1      -9.106  54.666  50.156  0.00  0.00    +0.000 A 
ATOM      2  C   UNL     1     -10.483  55.172  50.419  0.00  0.00    +0.000 A 
ATOM      3  C   UNL     1      -8.742  54.247  48.935  0.00  0.00    +0.000 A 
ATOM      4  O   UNL     1     -10.701  55.609  51.548  0.00  0.00    +0.000 OA
ATOM      5  N   UNL     1     -11.406  55.132  49.367  0.00  0.00    +0.000 N 
ATOM      6  C   UNL     1      -9.701  54.278  47.827  0.00  0.00    +0.000 A 
ATOM      7  C   UNL     1     -11.015  54.723  48.052  0.00  0.00    +0.000 A 
ATOM      8  C   UNL     1      -9.303  53.908  46.531  0.00  0.00    +0.000 A 
ATOM      9  C   UNL     1     -11.904  54.787  46.965  0.00  0.00    +0.000 A 
ATOM     10  C   UNL     1     -10.185  54.012  45.458  0.00  0.00    +0.000 A 
ATOM     11  C   UNL     1     -11.484  54.454  45.676  0.00  0.00    +0.000 A 
ENDROOT
BRANCH   1  17
ATOM     12  S   UNL     1      -7.213  55.886  53.355  0.00  0.00    +0.000 S 
ATOM     13  O   UNL     1      -7.887  55.467  54.563  0.00  0.00    +0.000 OA
ATOM     14  O   UNL     1      -6.642  57.216  53.251  0.00  0.00    +0.000 OA
ATOM     15  N   UNL     1      -8.243  55.697  52.122  0.00  0.00    +0.000 N 
ATOM     16  C   UNL     1      -5.881  54.768  53.121  0.00  0.00    +0.000 A 
ATOM     17  C   UNL     1      -8.099  54.722  51.277  0.00  0.00    +0.000 C 
ATOM     18  C   UNL     1      -5.985  53.832  52.104  0.00  0.00    +0.000 A 
ATOM     19  C   UNL     1      -4.762  54.850  53.947  0.00  0.00    +0.000 A 
ATOM     20  N   UNL     1      -7.123  53.753  51.314  0.00  0.00    +0.000 N 
ATOM     21  C   UNL     1      -4.945  52.910  51.949  0.00  0.00    +0.000 A 
ATOM     22  C   UNL     1      -3.725  53.940  53.768  0.00  0.00    +0.000 A 
ATOM     23  C   UNL     1      -3.818  52.969  52.773  0.00  0.00    +0.000 A 
ATOM     24  H   UNL     1      -8.988  56.330  52.010  0.00  0.00    +0.000 HD
ATOM     25  H   UNL     1      -7.238  52.958  50.745  0.00  0.00    +0.000 HD
ENDBRANCH   1  17
BRANCH   3  26
ATOM     26  O   UNL     1      -7.466  53.825  48.601  0.00  0.00    +0.000 OA
ATOM     27  H   UNL     1      -7.168  53.888  47.715  0.00  0.00    +0.000 HD
ENDBRANCH   3  26
BRANCH   5  28
ATOM     28  N   UNL     1     -12.756  55.597  49.528  0.00  0.00    +0.000 N 
ATOM     29  H   UNL     1     -13.498  54.969  49.684  0.00  0.00    +0.000 HD
BRANCH  28  30
ATOM     30  C   UNL     1     -12.983  57.045  49.452  0.00  0.00    +0.000 C 
BRANCH  30  31
ATOM     31  C   UNL     1     -13.775  57.545  50.639  0.00  0.00    +0.000 A 
ATOM     32  C   UNL     1     -14.111  58.905  50.794  0.00  0.00    +0.000 A 
ATOM     33  C   UNL     1     -14.181  56.617  51.620  0.00  0.00    +0.000 A 
ATOM     34  C   UNL     1     -14.855  59.297  51.916  0.00  0.00    +0.000 A 
ATOM     35  C   UNL     1     -13.734  59.968  49.796  0.00  0.00    +0.000 C 
ATOM     36  C   UNL     1     -14.934  57.024  52.719  0.00  0.00    +0.000 A 
ATOM     37  C   UNL     1     -15.273  58.364  52.865  0.00  0.00    +0.000 A 
ENDBRANCH  30  31
ENDBRANCH  28  30
ENDBRANCH   5  28
TORSDOF 5
ENDMDL
MODEL 3
REMARK VINA RESULT:      -9.0      2.718      6.883
REMARK  Name = 
REMARK  6 active torsions:
REMARK  status: ('A' for Active; 'I' for Inactive)
REMARK    1  A    between atoms: C_6  and  C_10
REMARK    2  A    between atoms: C_14  and  O_18
REMARK    3  A    between atoms: N_17  and  N_20
REMARK    4  A    between atoms: N_20  and  C_23
REMARK    5  A    between atoms: C_23  and  C_26
REMARK    6  A    between atoms: C_28  and  C_31
REMARK                            x       y       z     vdW  Elec       q    Type
REMARK                         _______ _______ _______ _____ _____    ______ ____
ROOT
ATOM      1  C   UNL     1      -9.690  54.083  50.227  0.00  0.00    +0.000 A 
ATOM      2  C   UNL     1     -10.984  54.802  50.400  0.00  0.00    +0.000 A 
ATOM      3  C   UNL     1      -9.275  53.681  49.018  0.00  0.00    +0.000 A 
ATOM      4  O   UNL     1     -11.244  55.202  51.534  0.00  0.00    +0.000 OA
ATOM      5  N   UNL     1     -11.788  54.983  49.267  0.00  0.00    +0.000 N 
ATOM      6  C   UNL     1     -10.096  53.942  47.831  0.00  0.00    +0.000 A 
ATOM      7  C   UNL     1     -11.336  54.591  47.967  0.00  0.00    +0.000 A 
ATOM      8  C   UNL     1      -9.633  53.586  46.552  0.00  0.00    +0.000 A 
ATOM      9  C   UNL     1     -12.083  54.871  46.811  0.00  0.00    +0.000 A 
ATOM     10  C   UNL     1     -10.369  53.903  45.414  0.00  0.00    +0.000 A 
ATOM     11  C   UNL     1     -11.593  54.548  45.544  0.00  0.00    +0.000 A 
ENDROOT
BRANCH   1  17
ATOM     12  S   UNL     1      -6.708  54.527  52.720  0.00  0.00    +0.000 S 
ATOM     13  O   UNL     1      -6.892  55.683  53.569  0.00  0.00    +0.000 OA
ATOM     14  O   UNL     1      -5.403  54.219  52.166  0.00  0.00    +0.000 OA
ATOM     15  N   UNL     1      -7.749  54.646  51.488  0.00  0.00    +0.000 N 
ATOM     16  C   UNL     1      -7.166  53.133  53.682  0.00  0.00    +0.000 A 
ATOM     17  C   UNL     1      -8.810  53.900  51.438  0.00  0.00    +0.000 C 
ATOM     18  C   UNL     1      -8.362  52.498  53.383  0.00  0.00    +0.000 A 
ATOM     19  C   UNL     1      -6.327  52.697  54.704  0.00  0.00    +0.000 A 
ATOM     20  N   UNL     1      -9.194  52.970  52.377  0.00  0.00    +0.000 N 
ATOM     21  C   UNL     1      -8.751  51.417  54.180  0.00  0.00    +0.000 A 
ATOM     22  C   UNL     1      -6.716  51.606  55.476  0.00  0.00    +0.000 A 
ATOM     23  C   UNL     1      -7.928  50.969  55.217  0.00  0.00    +0.000 A 
ATOM     24  H   UNL     1      -7.575  55.292  50.766  0.00  0.00    +0.000 HD
ATOM     25  H   UNL     1     -10.112  52.618  52.331  0.00  0.00    +0.000 HD
ENDBRANCH   1  17
BRANCH   3  26
ATOM     26  O   UNL     1      -8.059  53.068  48.772  0.00  0.00    +0.000 OA
ATOM     27  H   UNL     1      -7.754  52.387  49.339  0.00  0.00    +0.000 HD
ENDBRANCH   3  26
BRANCH   5  28
ATOM     28  N   UNL     1     -13.052  55.662  49.338  0.00  0.00    +0.000 N 
ATOM     29  H   UNL     1     -13.902  55.164  49.319  0.00  0.00    +0.000 HD
BRANCH  28  30
ATOM     30  C   UNL     1     -13.025  57.126  49.441  0.00  0.00    +0.000 C 
BRANCH  30  31
ATOM     31  C   UNL     1     -13.816  57.611  50.635  0.00  0.00    +0.000 A 
ATOM     32  C   UNL     1     -14.088  58.978  50.844  0.00  0.00    +0.000 A 
ATOM     33  C   UNL     1     -14.286  56.663  51.566  0.00  0.00    +0.000 A 
ATOM     34  C   UNL     1     -14.836  59.357  51.970  0.00  0.00    +0.000 A 
ATOM     35  C   UNL     1     -13.641  60.064  49.902  0.00  0.00    +0.000 C 
ATOM     36  C   UNL     1     -15.041  57.057  52.668  0.00  0.00    +0.000 A 
ATOM     37  C   UNL     1     -15.318  58.405  52.868  0.00  0.00    +0.000 A 
ENDBRANCH  30  31
ENDBRANCH  28  30
ENDBRANCH   5  28
TORSDOF 5
ENDMDL
MODEL 4
REMARK VINA RESULT:      -8.9      2.363      3.263
REMARK  Name = 
REMARK  6 active torsions:
REMARK  status: ('A' for Active; 'I' for Inactive)
REMARK    1  A    between atoms: C_6  and  C_10
REMARK    2  A    between atoms: C_14  and  O_18
REMARK    3  A    between atoms: N_17  and  N_20
REMARK    4  A    between atoms: N_20  and  C_23
REMARK    5  A    between atoms: C_23  and  C_26
REMARK    6  A    between atoms: C_28  and  C_31
REMARK                            x       y       z     vdW  Elec       q    Type
REMARK                         _______ _______ _______ _____ _____    ______ ____
ROOT
ATOM      1  C   UNL     1     -11.213  54.621  50.697  0.00  0.00    +0.000 A 
ATOM      2  C   UNL     1      -9.854  55.024  50.239  0.00  0.00    +0.000 A 
ATOM      3  C   UNL     1     -11.436  53.411  51.229  0.00  0.00    +0.000 A 
ATOM      4  O   UNL     1      -9.729  56.181  49.838  0.00  0.00    +0.000 OA
ATOM      5  N   UNL     1      -8.828  54.073  50.318  0.00  0.00    +0.000 N 
ATOM      6  C   UNL     1     -10.336  52.452  51.370  0.00  0.00    +0.000 A 
ATOM      7  C   UNL     1      -9.049  52.793  50.919  0.00  0.00    +0.000 A 
ATOM      8  C   UNL     1     -10.549  51.210  51.992  0.00  0.00    +0.000 A 
ATOM      9  C   UNL     1      -8.001  51.876  51.106  0.00  0.00    +0.000 A 
ATOM     10  C   UNL     1      -9.493  50.328  52.202  0.00  0.00    +0.000 A 
ATOM     11  C   UNL     1      -8.219  50.663  51.761  0.00  0.00    +0.000 A 
ENDROOT
BRANCH   1  17
ATOM     12  S   UNL     1     -13.745  57.230  49.253  0.00  0.00    +0.000 S 
ATOM     13  O   UNL     1     -14.900  56.585  48.670  0.00  0.00    +0.000 OA
ATOM     14  O   UNL     1     -13.133  58.374  48.602  0.00  0.00    +0.000 OA
ATOM     15  N   UNL     1     -12.599  56.108  49.454  0.00  0.00    +0.000 N 
ATOM     16  C   UNL     1     -14.240  57.787  50.841  0.00  0.00    +0.000 A 
ATOM     17  C   UNL     1     -12.319  55.644  50.633  0.00  0.00    +0.000 C 
ATOM     18  C   UNL     1     -13.757  57.110  51.950  0.00  0.00    +0.000 A 
ATOM     19  C   UNL     1     -15.091  58.885  50.951  0.00  0.00    +0.000 A 
ATOM     20  N   UNL     1     -12.933  56.002  51.812  0.00  0.00    +0.000 N 
ATOM     21  C   UNL     1     -14.189  57.523  53.214  0.00  0.00    +0.000 A 
ATOM     22  C   UNL     1     -15.497  59.298  52.216  0.00  0.00    +0.000 A 
ATOM     23  C   UNL     1     -15.050  58.616  53.346  0.00  0.00    +0.000 A 
ATOM     24  H   UNL     1     -12.105  55.773  48.671  0.00  0.00    +0.000 HD
ATOM     25  H   UNL     1     -12.777  55.438  52.604  0.00  0.00    +0.000 HD
ENDBRANCH   1  17
BRANCH   3  26
ATOM     26  O   UNL     1     -12.655  52.991  51.734  0.00  0.00    +0.000 OA
ATOM     27  H   UNL     1     -12.843  53.090  52.647  0.00  0.00    +0.000 HD
ENDBRANCH   3  26
BRANCH   5  28
ATOM     28  N   UNL     1      -7.488  54.371  49.897  0.00  0.00    +0.000 N 
ATOM     29  H   UNL     1      -7.060  53.877  49.161  0.00  0.00    +0.000 HD
BRANCH  28  30
ATOM     30  C   UNL     1      -6.782  55.443  50.609  0.00  0.00    +0.000 C 
BRANCH  30  31
ATOM     31  C   UNL     1      -6.525  55.074  52.052  0.00  0.00    +0.000 A 
ATOM     32  C   UNL     1      -5.410  54.302  52.439  0.00  0.00    +0.000 A 
ATOM     33  C   UNL     1      -7.436  55.511  53.035  0.00  0.00    +0.000 A 
ATOM     34  C   UNL     1      -5.229  54.004  53.797  0.00  0.00    +0.000 A 
ATOM     35  C   UNL     1      -4.376  53.800  51.466  0.00  0.00    +0.000 C 
ATOM     36  C   UNL     1      -7.229  55.217  54.381  0.00  0.00    +0.000 A 
ATOM     37  C   UNL     1      -6.124  54.466  54.762  0.00  0.00    +0.000 A 
ENDBRANCH  30  31
ENDBRANCH  28  30
ENDBRANCH   5  28
TORSDOF 5
ENDMDL
MODEL 5
REMARK VINA RESULT:      -8.7      2.612      3.406
REMARK  Name = 
REMARK  6 active torsions:
REMARK  status: ('A' for Active; 'I' for Inactive)
REMARK    1  A    between atoms: C_6  and  C_10
REMARK    2  A    between atoms: C_14  and  O_18
REMARK    3  A    between atoms: N_17  and  N_20
REMARK    4  A    between atoms: N_20  and  C_23
REMARK    5  A    between atoms: C_23  and  C_26
REMARK    6  A    between atoms: C_28  and  C_31
REMARK                            x       y       z     vdW  Elec       q    Type
REMARK                         _______ _______ _______ _____ _____    ______ ____
ROOT
ATOM      1  C   UNL     1     -11.521  54.151  51.270  0.00  0.00    +0.000 A 
ATOM      2  C   UNL     1     -10.591  54.267  52.429  0.00  0.00    +0.000 A 
ATOM      3  C   UNL     1     -11.607  53.017  50.559  0.00  0.00    +0.000 A 
ATOM      4  O   UNL     1     -10.639  55.317  53.068  0.00  0.00    +0.000 OA
ATOM      5  N   UNL     1      -9.758  53.177  52.710  0.00  0.00    +0.000 N 
ATOM      6  C   UNL     1     -10.778  51.860  50.912  0.00  0.00    +0.000 A 
ATOM      7  C   UNL     1      -9.870  51.950  51.981  0.00  0.00    +0.000 A 
ATOM      8  C   UNL     1     -10.917  50.647  50.217  0.00  0.00    +0.000 A 
ATOM      9  C   UNL     1      -9.120  50.815  52.330  0.00  0.00    +0.000 A 
ATOM     10  C   UNL     1     -10.192  49.521  50.598  0.00  0.00    +0.000 A 
ATOM     11  C   UNL     1      -9.296  49.605  51.656  0.00  0.00    +0.000 A 
ENDROOT
BRANCH   1  17
ATOM     12  S   UNL     1     -13.317  57.021  49.309  0.00  0.00    +0.000 S 
ATOM     13  O   UNL     1     -14.413  56.516  48.513  0.00  0.00    +0.000 OA
ATOM     14  O   UNL     1     -12.431  58.042  48.781  0.00  0.00    +0.000 OA
ATOM     15  N   UNL     1     -12.405  55.761  49.753  0.00  0.00    +0.000 N 
ATOM     16  C   UNL     1     -14.034  57.704  50.757  0.00  0.00    +0.000 A 
ATOM     17  C   UNL     1     -12.435  55.313  50.970  0.00  0.00    +0.000 C 
ATOM     18  C   UNL     1     -13.882  57.014  51.949  0.00  0.00    +0.000 A 
ATOM     19  C   UNL     1     -14.724  58.912  50.678  0.00  0.00    +0.000 A 
ATOM     20  N   UNL     1     -13.214  55.798  51.995  0.00  0.00    +0.000 N 
ATOM     21  C   UNL     1     -14.495  57.534  53.094  0.00  0.00    +0.000 A 
ATOM     22  C   UNL     1     -15.311  59.429  51.829  0.00  0.00    +0.000 A 
ATOM     23  C   UNL     1     -15.200  58.739  53.035  0.00  0.00    +0.000 A 
ATOM     24  H   UNL     1     -11.818  55.329  49.091  0.00  0.00    +0.000 HD
ATOM     25  H   UNL     1     -13.301  55.252  52.810  0.00  0.00    +0.000 HD
ENDBRANCH   1  17
BRANCH   3  26
ATOM     26  O   UNL     1     -12.492  52.814  49.514  0.00  0.00    +0.000 OA
ATOM     27  H   UNL     1     -12.885  51.973  49.389  0.00  0.00    +0.000 HD
ENDBRANCH   3  26
BRANCH   5  28
ATOM     28  N   UNL     1      -8.829  53.200  53.806  0.00  0.00    +0.000 N 
ATOM     29  H   UNL     1      -8.902  52.561  54.552  0.00  0.00    +0.000 HD
BRANCH  28  30
ATOM     30  C   UNL     1      -7.768  54.213  53.767  0.00  0.00    +0.000 C 
BRANCH  30  31
ATOM     31  C   UNL     1      -6.859  54.018  52.575  0.00  0.00    +0.000 A 
ATOM     32  C   UNL     1      -6.778  54.964  51.534  0.00  0.00    +0.000 A 
ATOM     33  C   UNL     1      -6.075  52.847  52.507  0.00  0.00    +0.000 A 
ATOM     34  C   UNL     1      -5.907  54.721  50.462  0.00  0.00    +0.000 A 
ATOM     35  C   UNL     1      -7.564  56.248  51.522  0.00  0.00    +0.000 C 
ATOM     36  C   UNL     1      -5.203  52.633  51.442  0.00  0.00    +0.000 A 
ATOM     37  C   UNL     1      -5.117  53.572  50.421  0.00  0.00    +0.000 A 
ENDBRANCH  30  31
ENDBRANCH  28  30
ENDBRANCH   5  28
TORSDOF 5
ENDMDL
MODEL 6
REMARK VINA RESULT:      -8.7      2.133      2.833
REMARK  Name = 
REMARK  6 active torsions:
REMARK  status: ('A' for Active; 'I' for Inactive)
REMARK    1  A    between atoms: C_6  and  C_10
REMARK    2  A    between atoms: C_14  and  O_18
REMARK    3  A    between atoms: N_17  and  N_20
REMARK    4  A    between atoms: N_20  and  C_23
REMARK    5  A    between atoms: C_23  and  C_26
REMARK    6  A    between atoms: C_28  and  C_31
REMARK                            x       y       z     vdW  Elec       q    Type
REMARK                         _______ _______ _______ _____ _____    ______ ____
ROOT
ATOM      1  C   UNL     1     -10.672  55.675  48.168  0.00  0.00    +0.000 A 
ATOM      2  C   UNL     1      -9.214  55.745  48.471  0.00  0.00    +0.000 A 
ATOM      3  C   UNL     1     -11.124  55.033  47.081  0.00  0.00    +0.000 A 
ATOM      4  O   UNL     1      -8.899  56.286  49.531  0.00  0.00    +0.000 OA
ATOM      5  N   UNL     1      -8.326  55.179  47.549  0.00  0.00    +0.000 N 
ATOM      6  C   UNL     1     -10.184  54.384  46.162  0.00  0.00    +0.000 A 
ATOM      7  C   UNL     1      -8.802  54.459  46.406  0.00  0.00    +0.000 A 
ATOM      8  C   UNL     1     -10.657  53.649  45.061  0.00  0.00    +0.000 A 
ATOM      9  C   UNL     1      -7.923  53.791  45.538  0.00  0.00    +0.000 A 
ATOM     10  C   UNL     1      -9.775  52.963  44.231  0.00  0.00    +0.000 A 
ATOM     11  C   UNL     1      -8.408  53.032  44.471  0.00  0.00    +0.000 A 
ENDROOT
BRANCH   1  17
ATOM     12  S   UNL     1     -13.102  55.969  51.219  0.00  0.00    +0.000 S 
ATOM     13  O   UNL     1     -12.381  56.166  52.456  0.00  0.00    +0.000 OA
ATOM     14  O   UNL     1     -14.251  55.083  51.167  0.00  0.00    +0.000 OA
ATOM     15  N   UNL     1     -12.045  55.467  50.103  0.00  0.00    +0.000 N 
ATOM     16  C   UNL     1     -13.689  57.550  50.734  0.00  0.00    +0.000 A 
ATOM     17  C   UNL     1     -11.637  56.265  49.165  0.00  0.00    +0.000 C 
ATOM     18  C   UNL     1     -13.076  58.172  49.657  0.00  0.00    +0.000 A 
ATOM     19  C   UNL     1     -14.748  58.133  51.427  0.00  0.00    +0.000 A 
ATOM     20  N   UNL     1     -12.005  57.581  49.001  0.00  0.00    +0.000 N 
ATOM     21  C   UNL     1     -13.511  59.452  49.301  0.00  0.00    +0.000 A 
ATOM     22  C   UNL     1     -15.185  59.398  51.049  0.00  0.00    +0.000 A 
ATOM     23  C   UNL     1     -14.565  60.059  49.989  0.00  0.00    +0.000 A 
ATOM     24  H   UNL     1     -11.707  54.543  50.135  0.00  0.00    +0.000 HD
ATOM     25  H   UNL     1     -11.478  58.135  48.381  0.00  0.00    +0.000 HD
ENDBRANCH   1  17
BRANCH   3  26
ATOM     26  O   UNL     1     -12.463  54.870  46.769  0.00  0.00    +0.000 OA
ATOM     27  H   UNL     1     -12.877  55.453  46.163  0.00  0.00    +0.000 HD
ENDBRANCH   3  26
BRANCH   5  28
ATOM     28  N   UNL     1      -6.905  55.202  47.757  0.00  0.00    +0.000 N 
ATOM     29  H   UNL     1      -6.375  56.013  47.580  0.00  0.00    +0.000 HD
BRANCH  28  30
ATOM     30  C   UNL     1      -6.276  53.968  48.243  0.00  0.00    +0.000 C 
BRANCH  30  31
ATOM     31  C   UNL     1      -6.467  53.799  49.733  0.00  0.00    +0.000 A 
ATOM     32  C   UNL     1      -7.459  52.953  50.268  0.00  0.00    +0.000 A 
ATOM     33  C   UNL     1      -5.628  54.519  50.609  0.00  0.00    +0.000 A 
ATOM     34  C   UNL     1      -7.575  52.838  51.661  0.00  0.00    +0.000 A 
ATOM     35  C   UNL     1      -8.394  52.135  49.417  0.00  0.00    +0.000 C 
ATOM     36  C   UNL     1      -5.748  54.378  51.989  0.00  0.00    +0.000 A 
ATOM     37  C   UNL     1      -6.720  53.535  52.515  0.00  0.00    +0.000 A 
ENDBRANCH  30  31
ENDBRANCH  28  30
ENDBRANCH   5  28
TORSDOF 5
ENDMDL
MODEL 7
REMARK VINA RESULT:      -8.6      2.659      6.920
REMARK  Name = 
REMARK  6 active torsions:
REMARK  status: ('A' for Active; 'I' for Inactive)
REMARK    1  A    between atoms: C_6  and  C_10
REMARK    2  A    between atoms: C_14  and  O_18
REMARK    3  A    between atoms: N_17  and  N_20
REMARK    4  A    between atoms: N_20  and  C_23
REMARK    5  A    between atoms: C_23  and  C_26
REMARK    6  A    between atoms: C_28  and  C_31
REMARK                            x       y       z     vdW  Elec       q    Type
REMARK                         _______ _______ _______ _____ _____    ______ ____
ROOT
ATOM      1  C   UNL     1      -9.746  53.735  49.830  0.00  0.00    +0.000 A 
ATOM      2  C   UNL     1     -10.585  54.965  49.903  0.00  0.00    +0.000 A 
ATOM      3  C   UNL     1      -9.664  53.016  48.701  0.00  0.00    +0.000 A 
ATOM      4  O   UNL     1     -10.536  55.603  50.954  0.00  0.00    +0.000 OA
ATOM      5  N   UNL     1     -11.341  55.308  48.775  0.00  0.00    +0.000 N 
ATOM      6  C   UNL     1     -10.407  53.430  47.507  0.00  0.00    +0.000 A 
ATOM      7  C   UNL     1     -11.231  54.568  47.554  0.00  0.00    +0.000 A 
ATOM      8  C   UNL     1     -10.268  52.721  46.301  0.00  0.00    +0.000 A 
ATOM      9  C   UNL     1     -11.897  54.972  46.385  0.00  0.00    +0.000 A 
ATOM     10  C   UNL     1     -10.907  53.155  45.143  0.00  0.00    +0.000 A 
ATOM     11  C   UNL     1     -11.719  54.281  45.185  0.00  0.00    +0.000 A 
ENDROOT
BRANCH   1  17
ATOM     12  S   UNL     1      -8.420  51.754  52.932  0.00  0.00    +0.000 S 
ATOM     13  O   UNL     1      -7.540  50.677  52.538  0.00  0.00    +0.000 OA
ATOM     14  O   UNL     1      -9.393  51.563  53.991  0.00  0.00    +0.000 OA
ATOM     15  N   UNL     1      -9.218  52.249  51.615  0.00  0.00    +0.000 N 
ATOM     16  C   UNL     1      -7.383  53.068  53.460  0.00  0.00    +0.000 A 
ATOM     17  C   UNL     1      -8.914  53.368  51.033  0.00  0.00    +0.000 C 
ATOM     18  C   UNL     1      -7.264  54.177  52.637  0.00  0.00    +0.000 A 
ATOM     19  C   UNL     1      -6.718  52.971  54.680  0.00  0.00    +0.000 A 
ATOM     20  N   UNL     1      -7.916  54.237  51.413  0.00  0.00    +0.000 N 
ATOM     21  C   UNL     1      -6.401  55.203  53.035  0.00  0.00    +0.000 A 
ATOM     22  C   UNL     1      -5.878  54.008  55.074  0.00  0.00    +0.000 A 
ATOM     23  C   UNL     1      -5.716  55.120  54.250  0.00  0.00    +0.000 A 
ATOM     24  H   UNL     1      -9.945  51.695  51.251  0.00  0.00    +0.000 HD
ATOM     25  H   UNL     1      -7.650  54.942  50.780  0.00  0.00    +0.000 HD
ENDBRANCH   1  17
BRANCH   3  26
ATOM     26  O   UNL     1      -8.857  51.904  48.540  0.00  0.00    +0.000 OA
ATOM     27  H   UNL     1      -9.161  51.060  48.813  0.00  0.00    +0.000 HD
ENDBRANCH   3  26
BRANCH   5  28
ATOM     28  N   UNL     1     -12.181  56.474  48.754  0.00  0.00    +0.000 N 
ATOM     29  H   UNL     1     -11.841  57.343  48.441  0.00  0.00    +0.000 HD
BRANCH  28  30
ATOM     30  C   UNL     1     -13.564  56.316  49.220  0.00  0.00    +0.000 C 
BRANCH  30  31
ATOM     31  C   UNL     1     -13.851  57.201  50.412  0.00  0.00    +0.000 A 
ATOM     32  C   UNL     1     -14.159  58.569  50.268  0.00  0.00    +0.000 A 
ATOM     33  C   UNL     1     -13.801  56.636  51.702  0.00  0.00    +0.000 A 
ATOM     34  C   UNL     1     -14.423  59.329  51.418  0.00  0.00    +0.000 A 
ATOM     35  C   UNL     1     -14.249  59.261  48.934  0.00  0.00    +0.000 C 
ATOM     36  C   UNL     1     -14.083  57.404  52.830  0.00  0.00    +0.000 A 
ATOM     37  C   UNL     1     -14.397  58.750  52.686  0.00  0.00    +0.000 A 
ENDBRANCH  30  31
ENDBRANCH  28  30
ENDBRANCH   5  28
TORSDOF 5
ENDMDL
MODEL 8
REMARK VINA RESULT:      -8.6      2.903      4.269
REMARK  Name = 
REMARK  6 active torsions:
REMARK  status: ('A' for Active; 'I' for Inactive)
REMARK    1  A    between atoms: C_6  and  C_10
REMARK    2  A    between atoms: C_14  and  O_18
REMARK    3  A    between atoms: N_17  and  N_20
REMARK    4  A    between atoms: N_20  and  C_23
REMARK    5  A    between atoms: C_23  and  C_26
REMARK    6  A    between atoms: C_28  and  C_31
REMARK                            x       y       z     vdW  Elec       q    Type
REMARK                         _______ _______ _______ _____ _____    ______ ____
ROOT
ATOM      1  C   UNL     1     -12.413  54.345  49.830  0.00  0.00    +0.000 A 
ATOM      2  C   UNL     1     -11.969  54.223  48.413  0.00  0.00    +0.000 A 
ATOM      3  C   UNL     1     -12.022  53.460  50.758  0.00  0.00    +0.000 A 
ATOM      4  O   UNL     1     -12.313  55.125  47.649  0.00  0.00    +0.000 OA
ATOM      5  N   UNL     1     -11.187  53.114  48.065  0.00  0.00    +0.000 N 
ATOM      6  C   UNL     1     -11.144  52.344  50.392  0.00  0.00    +0.000 A 
ATOM      7  C   UNL     1     -10.734  52.186  49.057  0.00  0.00    +0.000 A 
ATOM      8  C   UNL     1     -10.674  51.456  51.374  0.00  0.00    +0.000 A 
ATOM      9  C   UNL     1      -9.857  51.137  48.737  0.00  0.00    +0.000 A 
ATOM     10  C   UNL     1      -9.777  50.443  51.048  0.00  0.00    +0.000 A 
ATOM     11  C   UNL     1      -9.366  50.286  49.730  0.00  0.00    +0.000 A 
ENDROOT
BRANCH   1  17
ATOM     12  S   UNL     1     -15.373  56.491  51.221  0.00  0.00    +0.000 S 
ATOM     13  O   UNL     1     -15.310  56.615  52.660  0.00  0.00    +0.000 OA
ATOM     14  O   UNL     1     -16.644  56.275  50.555  0.00  0.00    +0.000 OA
ATOM     15  N   UNL     1     -14.380  55.292  50.783  0.00  0.00    +0.000 N 
ATOM     16  C   UNL     1     -14.733  57.988  50.569  0.00  0.00    +0.000 A 
ATOM     17  C   UNL     1     -13.240  55.545  50.217  0.00  0.00    +0.000 C 
ATOM     18  C   UNL     1     -13.478  57.961  49.983  0.00  0.00    +0.000 A 
ATOM     19  C   UNL     1     -15.494  59.153  50.648  0.00  0.00    +0.000 A 
ATOM     20  N   UNL     1     -12.729  56.793  49.942  0.00  0.00    +0.000 N 
ATOM     21  C   UNL     1     -12.947  59.164  49.506  0.00  0.00    +0.000 A 
ATOM     22  C   UNL     1     -14.963  60.339  50.150  0.00  0.00    +0.000 A 
ATOM     23  C   UNL     1     -13.689  60.346  49.584  0.00  0.00    +0.000 A 
ATOM     24  H   UNL     1     -14.644  54.358  50.946  0.00  0.00    +0.000 HD
ATOM     25  H   UNL     1     -11.776  56.861  49.702  0.00  0.00    +0.000 HD
ENDBRANCH   1  17
BRANCH   3  26
ATOM     26  O   UNL     1     -12.340  53.545  52.103  0.00  0.00    +0.000 OA
ATOM     27  H   UNL     1     -11.658  53.623  52.742  0.00  0.00    +0.000 HD
ENDBRANCH   3  26
BRANCH   5  28
ATOM     28  N   UNL     1     -10.716  52.913  46.723  0.00  0.00    +0.000 N 
ATOM     29  H   UNL     1     -10.999  52.132  46.193  0.00  0.00    +0.000 HD
BRANCH  28  30
ATOM     30  C   UNL     1      -9.798  53.918  46.174  0.00  0.00    +0.000 C 
BRANCH  30  31
ATOM     31  C   UNL     1      -8.433  53.830  46.818  0.00  0.00    +0.000 A 
ATOM     32  C   UNL     1      -8.007  54.753  47.794  0.00  0.00    +0.000 A 
ATOM     33  C   UNL     1      -7.562  52.796  46.420  0.00  0.00    +0.000 A 
ATOM     34  C   UNL     1      -6.730  54.607  48.356  0.00  0.00    +0.000 A 
ATOM     35  C   UNL     1      -8.868  55.883  48.294  0.00  0.00    +0.000 C 
ATOM     36  C   UNL     1      -6.304  52.658  47.002  0.00  0.00    +0.000 A 
ATOM     37  C   UNL     1      -5.889  53.562  47.972  0.00  0.00    +0.000 A 
ENDBRANCH  30  31
ENDBRANCH  28  30
ENDBRANCH   5  28
TORSDOF 5
ENDMDL
MODEL 9
REMARK VINA RESULT:      -8.5      2.707      6.650
REMARK  Name = 
REMARK  6 active torsions:
REMARK  status: ('A' for Active; 'I' for Inactive)
REMARK    1  A    between atoms: C_6  and  C_10
REMARK    2  A    between atoms: C_14  and  O_18
REMARK    3  A    between atoms: N_17  and  N_20
REMARK    4  A    between atoms: N_20  and  C_23
REMARK    5  A    between atoms: C_23  and  C_26
REMARK    6  A    between atoms: C_28  and  C_31
REMARK                            x       y       z     vdW  Elec       q    Type
REMARK                         _______ _______ _______ _____ _____    ______ ____
ROOT
ATOM      1  C   UNL     1     -11.262  54.593  48.400  0.00  0.00    +0.000 A 
ATOM      2  C   UNL     1     -10.967  54.166  49.797  0.00  0.00    +0.000 A 
ATOM      3  C   UNL     1     -12.197  55.519  48.140  0.00  0.00    +0.000 A 
ATOM      4  O   UNL     1     -10.040  53.372  49.945  0.00  0.00    +0.000 OA
ATOM      5  N   UNL     1     -11.746  54.711  50.826  0.00  0.00    +0.000 N 
ATOM      6  C   UNL     1     -12.954  56.132  49.235  0.00  0.00    +0.000 A 
ATOM      7  C   UNL     1     -12.719  55.727  50.561  0.00  0.00    +0.000 A 
ATOM      8  C   UNL     1     -13.884  57.153  48.974  0.00  0.00    +0.000 A 
ATOM      9  C   UNL     1     -13.424  56.361  51.598  0.00  0.00    +0.000 A 
ATOM     10  C   UNL     1     -14.547  57.796  50.015  0.00  0.00    +0.000 A 
ATOM     11  C   UNL     1     -14.315  57.401  51.327  0.00  0.00    +0.000 A 
ENDROOT
BRANCH   1  17
ATOM     12  S   UNL     1      -8.203  53.971  46.043  0.00  0.00    +0.000 S 
ATOM     13  O   UNL     1      -7.243  53.072  46.644  0.00  0.00    +0.000 OA
ATOM     14  O   UNL     1      -7.758  55.138  45.305  0.00  0.00    +0.000 OA
ATOM     15  N   UNL     1      -9.203  54.478  47.208  0.00  0.00    +0.000 N 
ATOM     16  C   UNL     1      -9.136  53.010  44.911  0.00  0.00    +0.000 A 
ATOM     17  C   UNL     1     -10.417  54.026  47.288  0.00  0.00    +0.000 C 
ATOM     18  C   UNL     1     -10.443  52.692  45.246  0.00  0.00    +0.000 A 
ATOM     19  C   UNL     1      -8.554  52.599  43.713  0.00  0.00    +0.000 A 
ATOM     20  N   UNL     1     -10.991  53.091  46.458  0.00  0.00    +0.000 N 
ATOM     21  C   UNL     1     -11.172  51.886  44.365  0.00  0.00    +0.000 A 
ATOM     22  C   UNL     1      -9.297  51.815  42.837  0.00  0.00    +0.000 A 
ATOM     23  C   UNL     1     -10.603  51.456  43.164  0.00  0.00    +0.000 A 
ATOM     24  H   UNL     1      -8.888  55.140  47.865  0.00  0.00    +0.000 HD
ATOM     25  H   UNL     1     -11.841  52.681  46.740  0.00  0.00    +0.000 HD
ENDBRANCH   1  17
BRANCH   3  26
ATOM     26  O   UNL     1     -12.480  56.011  46.877  0.00  0.00    +0.000 OA
ATOM     27  H   UNL     1     -11.839  55.952  46.197  0.00  0.00    +0.000 HD
ENDBRANCH   3  26
BRANCH   5  28
ATOM     28  N   UNL     1     -11.535  54.357  52.202  0.00  0.00    +0.000 N 
ATOM     29  H   UNL     1     -12.138  53.733  52.668  0.00  0.00    +0.000 HD
BRANCH  28  30
ATOM     30  C   UNL     1     -10.384  54.961  52.884  0.00  0.00    +0.000 C 
BRANCH  30  31
ATOM     31  C   UNL     1      -9.426  53.909  53.392  0.00  0.00    +0.000 A 
ATOM     32  C   UNL     1      -8.065  54.189  53.628  0.00  0.00    +0.000 A 
ATOM     33  C   UNL     1      -9.913  52.606  53.627  0.00  0.00    +0.000 A 
ATOM     34  C   UNL     1      -7.234  53.166  54.108  0.00  0.00    +0.000 A 
ATOM     35  C   UNL     1      -7.453  55.549  53.419  0.00  0.00    +0.000 C 
ATOM     36  C   UNL     1      -9.075  51.608  54.119  0.00  0.00    +0.000 A 
ATOM     37  C   UNL     1      -7.736  51.889  54.362  0.00  0.00    +0.000 A 
ENDBRANCH  30  31
ENDBRANCH  28  30
ENDBRANCH   5  28
TORSDOF 5
ENDMDL
