MODEL 1
REMARK VINA RESULT:      -8.1      0.000      0.000
REMARK  Name = 
REMARK  8 active torsions:
REMARK  status: ('A' for Active; 'I' for Inactive)
REMARK    1  A    between atoms: C_6  and  C_10
REMARK    2  A    between atoms: C_14  and  O_18
REMARK    3  A    between atoms: N_17  and  N_20
REMARK    4  A    between atoms: N_20  and  C_23
REMARK    5  A    between atoms: C_23  and  C_26
REMARK    6  A    between atoms: C_26  and  C_28
REMARK    7  A    between atoms: C_28  and  C_29
REMARK    8  A    between atoms: C_29  and  C_30
REMARK                            x       y       z     vdW  Elec       q    Type
REMARK                         _______ _______ _______ _____ _____    ______ ____
ROOT
ATOM      1  C   UNL     1     -10.357  55.020  50.478  0.00  0.00    +0.000 A 
ATOM      2  C   UNL     1     -11.476  55.130  51.458  0.00  0.00    +0.000 A 
ATOM      3  C   UNL     1     -10.538  55.371  49.194  0.00  0.00    +0.000 A 
ATOM      4  O   UNL     1     -11.245  54.762  52.615  0.00  0.00    +0.000 OA
ATOM      5  N   UNL     1     -12.690  55.667  51.017  0.00  0.00    +0.000 N 
ATOM      6  C   UNL     1     -11.831  55.900  48.741  0.00  0.00    +0.000 A 
ATOM      7  C   UNL     1     -12.890  56.042  49.654  0.00  0.00    +0.000 A 
ATOM      8  C   UNL     1     -12.009  56.294  47.404  0.00  0.00    +0.000 A 
ATOM      9  C   UNL     1     -14.114  56.561  49.202  0.00  0.00    +0.000 A 
ATOM     10  C   UNL     1     -13.221  56.831  46.974  0.00  0.00    +0.000 A 
ATOM     11  C   UNL     1     -14.273  56.961  47.872  0.00  0.00    +0.000 A 
ENDROOT
BRANCH   1  17
ATOM     12  S   UNL     1      -6.977  53.046  50.731  0.00  0.00    +0.000 S 
ATOM     13  O   UNL     1      -5.984  53.558  49.806  0.00  0.00    +0.000 OA
ATOM     14  O   UNL     1      -7.125  51.620  50.926  0.00  0.00    +0.000 OA
ATOM     15  N   UNL     1      -8.413  53.642  50.280  0.00  0.00    +0.000 N 
ATOM     16  C   UNL     1      -6.569  53.717  52.299  0.00  0.00    +0.000 A 
ATOM     17  C   UNL     1      -9.001  54.570  50.975  0.00  0.00    +0.000 C 
ATOM     18  C   UNL     1      -7.395  54.699  52.820  0.00  0.00    +0.000 A 
ATOM     19  C   UNL     1      -5.449  53.247  52.987  0.00  0.00    +0.000 A 
ATOM     20  N   UNL     1      -8.501  55.166  52.114  0.00  0.00    +0.000 N 
ATOM     21  C   UNL     1      -7.045  55.278  54.044  0.00  0.00    +0.000 A 
ATOM     22  C   UNL     1      -5.129  53.807  54.222  0.00  0.00    +0.000 A 
ATOM     23  C   UNL     1      -5.923  54.828  54.746  0.00  0.00    +0.000 A 
ATOM     24  H   UNL     1      -8.848  53.296  49.468  0.00  0.00    +0.000 HD
ATOM     25  H   UNL     1      -8.954  55.974  52.448  0.00  0.00    +0.000 HD
ENDBRANCH   1  17
BRANCH   3  26
ATOM     26  O   UNL     1      -9.554  55.311  48.224  0.00  0.00    +0.000 OA
ATOM     27  H   UNL     1      -8.772  55.821  48.317  0.00  0.00    +0.000 HD
ENDBRANCH   3  26
BRANCH   5  28
ATOM     28  N   UNL     1     -13.805  55.800  51.922  0.00  0.00    +0.000 N 
ATOM     29  H   UNL     1     -14.494  55.104  52.030  0.00  0.00    +0.000 HD
BRANCH  28  30
ATOM     30  C   UNL     1     -13.823  57.063  52.670  0.00  0.00    +0.000 C 
BRANCH  30  31
ATOM     31  C   UNL     1     -15.179  57.761  52.574  0.00  0.00    +0.000 C 
BRANCH  31  32
ATOM     32  C   UNL     1     -14.972  59.252  52.281  0.00  0.00    +0.000 C 
BRANCH  32  33
ATOM     33  C   UNL     1     -15.182  59.574  50.805  0.00  0.00    +0.000 C 
ATOM     34  C   UNL     1     -13.884  60.019  50.148  0.00  0.00    +0.000 C 
ENDBRANCH  32  33
ENDBRANCH  31  32
ENDBRANCH  30  31
ENDBRANCH  28  30
ENDBRANCH   5  28
TORSDOF 7
ENDMDL
MODEL 2
REMARK VINA RESULT:      -8.0      1.660      2.197
REMARK  Name = 
REMARK  8 active torsions:
REMARK  status: ('A' for Active; 'I' for Inactive)
REMARK    1  A    between atoms: C_6  and  C_10
REMARK    2  A    between atoms: C_14  and  O_18
REMARK    3  A    between atoms: N_17  and  N_20
REMARK    4  A    between atoms: N_20  and  C_23
REMARK    5  A    between atoms: C_23  and  C_26
REMARK    6  A    between atoms: C_26  and  C_28
REMARK    7  A    between atoms: C_28  and  C_29
REMARK    8  A    between atoms: C_29  and  C_30
REMARK                            x       y       z     vdW  Elec       q    Type
REMARK                         _______ _______ _______ _____ _____    ______ ____
ROOT
ATOM      1  C   UNL     1      -9.976  55.233  50.894  0.00  0.00    +0.000 A 
ATOM      2  C   UNL     1     -11.159  55.349  51.794  0.00  0.00    +0.000 A 
ATOM      3  C   UNL     1     -10.098  55.451  49.575  0.00  0.00    +0.000 A 
ATOM      4  O   UNL     1     -10.977  55.106  52.992  0.00  0.00    +0.000 OA
ATOM      5  N   UNL     1     -12.377  55.754  51.236  0.00  0.00    +0.000 N 
ATOM      6  C   UNL     1     -11.393  55.841  49.000  0.00  0.00    +0.000 A 
ATOM      7  C   UNL     1     -12.515  55.988  49.834  0.00  0.00    +0.000 A 
ATOM      8  C   UNL     1     -11.513  56.097  47.624  0.00  0.00    +0.000 A 
ATOM      9  C   UNL     1     -13.740  56.373  49.267  0.00  0.00    +0.000 A 
ATOM     10  C   UNL     1     -12.729  56.503  47.077  0.00  0.00    +0.000 A 
ATOM     11  C   UNL     1     -13.841  56.637  47.897  0.00  0.00    +0.000 A 
ENDROOT
BRANCH   1  17
ATOM     12  S   UNL     1      -6.951  55.282  53.390  0.00  0.00    +0.000 S 
ATOM     13  O   UNL     1      -7.178  54.412  54.528  0.00  0.00    +0.000 OA
ATOM     14  O   UNL     1      -6.345  56.583  53.578  0.00  0.00    +0.000 OA
ATOM     15  N   UNL     1      -8.376  55.495  52.650  0.00  0.00    +0.000 N 
ATOM     16  C   UNL     1      -5.893  54.398  52.307  0.00  0.00    +0.000 A 
ATOM     17  C   UNL     1      -8.627  54.930  51.507  0.00  0.00    +0.000 C 
ATOM     18  C   UNL     1      -6.431  53.914  51.126  0.00  0.00    +0.000 A 
ATOM     19  C   UNL     1      -4.550  54.216  52.642  0.00  0.00    +0.000 A 
ATOM     20  N   UNL     1      -7.776  54.093  50.815  0.00  0.00    +0.000 N 
ATOM     21  C   UNL     1      -5.607  53.160  50.285  0.00  0.00    +0.000 A 
ATOM     22  C   UNL     1      -3.730  53.492  51.778  0.00  0.00    +0.000 A 
ATOM     23  C   UNL     1      -4.261  52.958  50.603  0.00  0.00    +0.000 A 
ATOM     24  H   UNL     1      -9.062  56.060  53.072  0.00  0.00    +0.000 HD
ATOM     25  H   UNL     1      -8.144  53.590  50.053  0.00  0.00    +0.000 HD
ENDBRANCH   1  17
BRANCH   3  26
ATOM     26  O   UNL     1      -9.053  55.375  48.671  0.00  0.00    +0.000 OA
ATOM     27  H   UNL     1      -9.055  55.917  47.906  0.00  0.00    +0.000 HD
ENDBRANCH   3  26
BRANCH   5  28
ATOM     28  N   UNL     1     -13.553  55.887  52.060  0.00  0.00    +0.000 N 
ATOM     29  H   UNL     1     -14.222  55.172  52.157  0.00  0.00    +0.000 HD
BRANCH  28  30
ATOM     30  C   UNL     1     -13.665  57.183  52.741  0.00  0.00    +0.000 C 
BRANCH  30  31
ATOM     31  C   UNL     1     -15.067  57.775  52.611  0.00  0.00    +0.000 C 
BRANCH  31  32
ATOM     32  C   UNL     1     -14.969  59.254  52.217  0.00  0.00    +0.000 C 
BRANCH  32  33
ATOM     33  C   UNL     1     -15.126  59.452  50.713  0.00  0.00    +0.000 C 
ATOM     34  C   UNL     1     -13.856  60.015  50.095  0.00  0.00    +0.000 C 
ENDBRANCH  32  33
ENDBRANCH  31  32
ENDBRANCH  30  31
ENDBRANCH  28  30
ENDBRANCH   5  28
TORSDOF 7
ENDMDL
MODEL 3
REMARK VINA RESULT:      -7.7      2.983      7.250
REMARK  Name = 
REMARK  8 active torsions:
REMARK  status: ('A' for Active; 'I' for Inactive)
REMARK    1  A    between atoms: C_6  and  C_10
REMARK    2  A    between atoms: C_14  and  O_18
REMARK    3  A    between atoms: N_17  and  N_20
REMARK    4  A    between atoms: N_20  and  C_23
REMARK    5  A    between atoms: C_23  and  C_26
REMARK    6  A    between atoms: C_26  and  C_28
REMARK    7  A    between atoms: C_28  and  C_29
REMARK    8  A    between atoms: C_29  and  C_30
REMARK                            x       y       z     vdW  Elec       q    Type
REMARK                         _______ _______ _______ _____ _____    ______ ____
ROOT
ATOM      1  C   UNL     1     -11.565  54.144  51.349  0.00  0.00    +0.000 A 
ATOM      2  C   UNL     1     -10.635  54.249  52.510  0.00  0.00    +0.000 A 
ATOM      3  C   UNL     1     -11.659  53.001  50.650  0.00  0.00    +0.000 A 
ATOM      4  O   UNL     1     -10.581  55.340  53.087  0.00  0.00    +0.000 OA
ATOM      5  N   UNL     1      -9.917  53.109  52.885  0.00  0.00    +0.000 N 
ATOM      6  C   UNL     1     -10.871  51.824  51.038  0.00  0.00    +0.000 A 
ATOM      7  C   UNL     1     -10.010  51.890  52.147  0.00  0.00    +0.000 A 
ATOM      8  C   UNL     1     -10.991  50.620  50.323  0.00  0.00    +0.000 A 
ATOM      9  C   UNL     1      -9.274  50.750  52.507  0.00  0.00    +0.000 A 
ATOM     10  C   UNL     1     -10.274  49.488  50.706  0.00  0.00    +0.000 A 
ATOM     11  C   UNL     1      -9.414  49.555  51.795  0.00  0.00    +0.000 A 
ENDROOT
BRANCH   1  17
ATOM     12  S   UNL     1     -13.278  57.032  49.321  0.00  0.00    +0.000 S 
ATOM     13  O   UNL     1     -14.375  56.543  48.509  0.00  0.00    +0.000 OA
ATOM     14  O   UNL     1     -12.363  58.020  48.791  0.00  0.00    +0.000 OA
ATOM     15  N   UNL     1     -12.410  55.748  49.790  0.00  0.00    +0.000 N 
ATOM     16  C   UNL     1     -14.010  57.753  50.742  0.00  0.00    +0.000 A 
ATOM     17  C   UNL     1     -12.448  55.328  51.019  0.00  0.00    +0.000 C 
ATOM     18  C   UNL     1     -13.877  57.087  51.950  0.00  0.00    +0.000 A 
ATOM     19  C   UNL     1     -14.687  58.969  50.635  0.00  0.00    +0.000 A 
ATOM     20  N   UNL     1     -13.209  55.868  52.035  0.00  0.00    +0.000 N 
ATOM     21  C   UNL     1     -14.506  57.627  53.075  0.00  0.00    +0.000 A 
ATOM     22  C   UNL     1     -15.281  59.514  51.772  0.00  0.00    +0.000 A 
ATOM     23  C   UNL     1     -15.196  58.839  52.990  0.00  0.00    +0.000 A 
ATOM     24  H   UNL     1     -11.846  55.278  49.135  0.00  0.00    +0.000 HD
ATOM     25  H   UNL     1     -13.287  55.357  52.874  0.00  0.00    +0.000 HD
ENDBRANCH   1  17
BRANCH   3  26
ATOM     26  O   UNL     1     -12.502  52.814  49.570  0.00  0.00    +0.000 OA
ATOM     27  H   UNL     1     -12.373  53.309  48.783  0.00  0.00    +0.000 HD
ENDBRANCH   3  26
BRANCH   5  28
ATOM     28  N   UNL     1      -9.005  53.151  54.002  0.00  0.00    +0.000 N 
ATOM     29  H   UNL     1      -9.277  52.940  54.924  0.00  0.00    +0.000 HD
BRANCH  28  30
ATOM     30  C   UNL     1      -7.635  53.539  53.643  0.00  0.00    +0.000 C 
BRANCH  30  31
ATOM     31  C   UNL     1      -7.178  54.783  54.404  0.00  0.00    +0.000 C 
BRANCH  31  32
ATOM     32  C   UNL     1      -7.124  55.982  53.449  0.00  0.00    +0.000 C 
BRANCH  32  33
ATOM     33  C   UNL     1      -7.075  55.541  51.990  0.00  0.00    +0.000 C 
ATOM     34  C   UNL     1      -7.747  56.561  51.083  0.00  0.00    +0.000 C 
ENDBRANCH  32  33
ENDBRANCH  31  32
ENDBRANCH  30  31
ENDBRANCH  28  30
ENDBRANCH   5  28
TORSDOF 7
ENDMDL
MODEL 4
REMARK VINA RESULT:      -7.7      2.221      2.543
REMARK  Name = 
REMARK  8 active torsions:
REMARK  status: ('A' for Active; 'I' for Inactive)
REMARK    1  A    between atoms: C_6  and  C_10
REMARK    2  A    between atoms: C_14  and  O_18
REMARK    3  A    between atoms: N_17  and  N_20
REMARK    4  A    between atoms: N_20  and  C_23
REMARK    5  A    between atoms: C_23  and  C_26
REMARK    6  A    between atoms: C_26  and  C_28
REMARK    7  A    between atoms: C_28  and  C_29
REMARK    8  A    between atoms: C_29  and  C_30
REMARK                            x       y       z     vdW  Elec       q    Type
REMARK                         _______ _______ _______ _____ _____    ______ ____
ROOT
ATOM      1  C   UNL     1      -9.948  54.452  50.968  0.00  0.00    +0.000 A 
ATOM      2  C   UNL     1     -11.129  55.283  51.339  0.00  0.00    +0.000 A 
ATOM      3  C   UNL     1      -9.681  54.182  49.680  0.00  0.00    +0.000 A 
ATOM      4  O   UNL     1     -11.329  55.466  52.545  0.00  0.00    +0.000 OA
ATOM      5  N   UNL     1     -11.907  55.823  50.309  0.00  0.00    +0.000 N 
ATOM      6  C   UNL     1     -10.529  54.728  48.612  0.00  0.00    +0.000 A 
ATOM      7  C   UNL     1     -11.630  55.540  48.937  0.00  0.00    +0.000 A 
ATOM      8  C   UNL     1     -10.232  54.468  47.264  0.00  0.00    +0.000 A 
ATOM      9  C   UNL     1     -12.421  56.062  47.901  0.00  0.00    +0.000 A 
ATOM     10  C   UNL     1     -11.011  55.013  46.244  0.00  0.00    +0.000 A 
ATOM     11  C   UNL     1     -12.105  55.806  46.563  0.00  0.00    +0.000 A 
ENDROOT
BRANCH   1  17
ATOM     12  S   UNL     1      -6.737  54.045  53.183  0.00  0.00    +0.000 S 
ATOM     13  O   UNL     1      -6.593  55.135  54.129  0.00  0.00    +0.000 OA
ATOM     14  O   UNL     1      -5.579  53.536  52.479  0.00  0.00    +0.000 OA
ATOM     15  N   UNL     1      -7.833  54.500  52.081  0.00  0.00    +0.000 N 
ATOM     16  C   UNL     1      -7.392  52.697  54.092  0.00  0.00    +0.000 A 
ATOM     17  C   UNL     1      -9.023  53.978  52.067  0.00  0.00    +0.000 C 
ATOM     18  C   UNL     1      -8.710  52.337  53.859  0.00  0.00    +0.000 A 
ATOM     19  C   UNL     1      -6.586  52.015  55.004  0.00  0.00    +0.000 A 
ATOM     20  N   UNL     1      -9.504  53.038  52.955  0.00  0.00    +0.000 N 
ATOM     21  C   UNL     1      -9.256  51.299  54.620  0.00  0.00    +0.000 A 
ATOM     22  C   UNL     1      -7.132  50.959  55.732  0.00  0.00    +0.000 A 
ATOM     23  C   UNL     1      -8.469  50.607  55.545  0.00  0.00    +0.000 A 
ATOM     24  H   UNL     1      -7.595  55.181  51.412  0.00  0.00    +0.000 HD
ATOM     25  H   UNL     1     -10.471  52.852  52.950  0.00  0.00    +0.000 HD
ENDBRANCH   1  17
BRANCH   3  26
ATOM     26  O   UNL     1      -8.603  53.430  49.248  0.00  0.00    +0.000 OA
ATOM     27  H   UNL     1      -8.067  52.978  49.871  0.00  0.00    +0.000 HD
ENDBRANCH   3  26
BRANCH   5  28
ATOM     28  N   UNL     1     -13.059  56.638  50.609  0.00  0.00    +0.000 N 
ATOM     29  H   UNL     1     -13.040  57.622  50.586  0.00  0.00    +0.000 HD
BRANCH  28  30
ATOM     30  C   UNL     1     -14.262  55.870  50.953  0.00  0.00    +0.000 C 
BRANCH  30  31
ATOM     31  C   UNL     1     -15.438  56.782  51.302  0.00  0.00    +0.000 C 
BRANCH  31  32
ATOM     32  C   UNL     1     -15.220  57.398  52.689  0.00  0.00    +0.000 C 
BRANCH  32  33
ATOM     33  C   UNL     1     -14.984  58.903  52.610  0.00  0.00    +0.000 C 
ATOM     34  C   UNL     1     -15.136  59.411  51.185  0.00  0.00    +0.000 C 
ENDBRANCH  32  33
ENDBRANCH  31  32
ENDBRANCH  30  31
ENDBRANCH  28  30
ENDBRANCH   5  28
TORSDOF 7
ENDMDL
MODEL 5
REMARK VINA RESULT:      -7.5      2.577      7.994
REMARK  Name = 
REMARK  8 active torsions:
REMARK  status: ('A' for Active; 'I' for Inactive)
REMARK    1  A    between atoms: C_6  and  C_10
REMARK    2  A    between atoms: C_14  and  O_18
REMARK    3  A    between atoms: N_17  and  N_20
REMARK    4  A    between atoms: N_20  and  C_23
REMARK    5  A    between atoms: C_23  and  C_26
REMARK    6  A    between atoms: C_26  and  C_28
REMARK    7  A    between atoms: C_28  and  C_29
REMARK    8  A    between atoms: C_29  and  C_30
REMARK                            x       y       z     vdW  Elec       q    Type
REMARK                         _______ _______ _______ _____ _____    ______ ____
ROOT
ATOM      1  C   UNL     1     -10.091  54.503  52.213  0.00  0.00    +0.000 A 
ATOM      2  C   UNL     1      -8.724  55.063  52.014  0.00  0.00    +0.000 A 
ATOM      3  C   UNL     1     -10.278  53.409  52.969  0.00  0.00    +0.000 A 
ATOM      4  O   UNL     1      -8.625  56.054  51.282  0.00  0.00    +0.000 OA
ATOM      5  N   UNL     1      -7.658  54.457  52.688  0.00  0.00    +0.000 N 
ATOM      6  C   UNL     1      -9.142  52.765  53.641  0.00  0.00    +0.000 A 
ATOM      7  C   UNL     1      -7.848  53.294  53.494  0.00  0.00    +0.000 A 
ATOM      8  C   UNL     1      -9.342  51.637  54.455  0.00  0.00    +0.000 A 
ATOM      9  C   UNL     1      -6.778  52.669  54.154  0.00  0.00    +0.000 A 
ATOM     10  C   UNL     1      -8.275  51.042  55.125  0.00  0.00    +0.000 A 
ATOM     11  C   UNL     1      -6.994  51.556  54.972  0.00  0.00    +0.000 A 
ENDROOT
BRANCH   1  17
ATOM     12  S   UNL     1     -12.520  56.008  49.525  0.00  0.00    +0.000 S 
ATOM     13  O   UNL     1     -13.422  55.004  48.992  0.00  0.00    +0.000 OA
ATOM     14  O   UNL     1     -11.915  56.984  48.645  0.00  0.00    +0.000 OA
ATOM     15  N   UNL     1     -11.332  55.229  50.302  0.00  0.00    +0.000 N 
ATOM     16  C   UNL     1     -13.448  56.916  50.703  0.00  0.00    +0.000 A 
ATOM     17  C   UNL     1     -11.268  55.231  51.600  0.00  0.00    +0.000 C 
ATOM     18  C   UNL     1     -13.150  56.734  52.044  0.00  0.00    +0.000 A 
ATOM     19  C   UNL     1     -14.440  57.800  50.276  0.00  0.00    +0.000 A 
ATOM     20  N   UNL     1     -12.167  55.837  52.453  0.00  0.00    +0.000 N 
ATOM     21  C   UNL     1     -13.924  57.412  52.991  0.00  0.00    +0.000 A 
ATOM     22  C   UNL     1     -15.181  58.497  51.228  0.00  0.00    +0.000 A 
ATOM     23  C   UNL     1     -14.927  58.297  52.586  0.00  0.00    +0.000 A 
ATOM     24  H   UNL     1     -10.648  54.747  49.784  0.00  0.00    +0.000 HD
ATOM     25  H   UNL     1     -12.110  55.621  53.412  0.00  0.00    +0.000 HD
ENDBRANCH   1  17
BRANCH   3  26
ATOM     26  O   UNL     1     -11.511  52.831  53.214  0.00  0.00    +0.000 OA
ATOM     27  H   UNL     1     -12.130  52.734  52.517  0.00  0.00    +0.000 HD
ENDBRANCH   3  26
BRANCH   5  28
ATOM     28  N   UNL     1      -6.314  54.959  52.536  0.00  0.00    +0.000 N 
ATOM     29  H   UNL     1      -5.822  55.401  53.265  0.00  0.00    +0.000 HD
BRANCH  28  30
ATOM     30  C   UNL     1      -5.746  54.753  51.198  0.00  0.00    +0.000 C 
BRANCH  30  31
ATOM     31  C   UNL     1      -5.401  53.285  50.947  0.00  0.00    +0.000 C 
BRANCH  31  32
ATOM     32  C   UNL     1      -6.098  52.803  49.668  0.00  0.00    +0.000 C 
BRANCH  32  33
ATOM     33  C   UNL     1      -7.440  52.144  49.969  0.00  0.00    +0.000 C 
ATOM     34  C   UNL     1      -7.265  50.913  50.844  0.00  0.00    +0.000 C 
ENDBRANCH  32  33
ENDBRANCH  31  32
ENDBRANCH  30  31
ENDBRANCH  28  30
ENDBRANCH   5  28
TORSDOF 7
ENDMDL
MODEL 6
REMARK VINA RESULT:      -7.5      3.836      7.667
REMARK  Name = 
REMARK  8 active torsions:
REMARK  status: ('A' for Active; 'I' for Inactive)
REMARK    1  A    between atoms: C_6  and  C_10
REMARK    2  A    between atoms: C_14  and  O_18
REMARK    3  A    between atoms: N_17  and  N_20
REMARK    4  A    between atoms: N_20  and  C_23
REMARK    5  A    between atoms: C_23  and  C_26
REMARK    6  A    between atoms: C_26  and  C_28
REMARK    7  A    between atoms: C_28  and  C_29
REMARK    8  A    between atoms: C_29  and  C_30
REMARK                            x       y       z     vdW  Elec       q    Type
REMARK                         _______ _______ _______ _____ _____    ______ ____
ROOT
ATOM      1  C   UNL     1     -12.464  54.349  49.778  0.00  0.00    +0.000 A 
ATOM      2  C   UNL     1     -12.152  54.141  48.335  0.00  0.00    +0.000 A 
ATOM      3  C   UNL     1     -11.974  53.515  50.709  0.00  0.00    +0.000 A 
ATOM      4  O   UNL     1     -12.661  54.930  47.532  0.00  0.00    +0.000 OA
ATOM      5  N   UNL     1     -11.286  53.098  47.990  0.00  0.00    +0.000 N 
ATOM      6  C   UNL     1     -11.094  52.403  50.326  0.00  0.00    +0.000 A 
ATOM      7  C   UNL     1     -10.761  52.206  48.974  0.00  0.00    +0.000 A 
ATOM      8  C   UNL     1     -10.559  51.549  51.304  0.00  0.00    +0.000 A 
ATOM      9  C   UNL     1      -9.909  51.145  48.631  0.00  0.00    +0.000 A 
ATOM     10  C   UNL     1      -9.695  50.514  50.952  0.00  0.00    +0.000 A 
ATOM     11  C   UNL     1      -9.373  50.311  49.617  0.00  0.00    +0.000 A 
ENDROOT
BRANCH   1  17
ATOM     12  S   UNL     1     -15.397  56.514  51.226  0.00  0.00    +0.000 S 
ATOM     13  O   UNL     1     -15.307  56.646  52.668  0.00  0.00    +0.000 OA
ATOM     14  O   UNL     1     -16.679  56.292  50.594  0.00  0.00    +0.000 OA
ATOM     15  N   UNL     1     -14.407  55.310  50.787  0.00  0.00    +0.000 N 
ATOM     16  C   UNL     1     -14.773  58.012  50.563  0.00  0.00    +0.000 A 
ATOM     17  C   UNL     1     -13.288  55.555  50.174  0.00  0.00    +0.000 C 
ATOM     18  C   UNL     1     -13.539  57.980  49.934  0.00  0.00    +0.000 A 
ATOM     19  C   UNL     1     -15.524  59.184  50.665  0.00  0.00    +0.000 A 
ATOM     20  N   UNL     1     -12.797  56.804  49.853  0.00  0.00    +0.000 N 
ATOM     21  C   UNL     1     -13.011  59.181  49.452  0.00  0.00    +0.000 A 
ATOM     22  C   UNL     1     -15.002  60.369  50.151  0.00  0.00    +0.000 A 
ATOM     23  C   UNL     1     -13.742  60.368  49.551  0.00  0.00    +0.000 A 
ATOM     24  H   UNL     1     -14.656  54.380  50.987  0.00  0.00    +0.000 HD
ATOM     25  H   UNL     1     -11.863  56.868  49.550  0.00  0.00    +0.000 HD
ENDBRANCH   1  17
BRANCH   3  26
ATOM     26  O   UNL     1     -12.204  53.641  52.068  0.00  0.00    +0.000 OA
ATOM     27  H   UNL     1     -12.881  53.137  52.477  0.00  0.00    +0.000 HD
ENDBRANCH   3  26
BRANCH   5  28
ATOM     28  N   UNL     1     -10.946  52.852  46.610  0.00  0.00    +0.000 N 
ATOM     29  H   UNL     1     -11.211  52.034  46.130  0.00  0.00    +0.000 HD
BRANCH  28  30
ATOM     30  C   UNL     1     -10.169  53.929  45.984  0.00  0.00    +0.000 C 
BRANCH  30  31
ATOM     31  C   UNL     1      -8.784  54.072  46.614  0.00  0.00    +0.000 C 
BRANCH  31  32
ATOM     32  C   UNL     1      -8.688  55.415  47.348  0.00  0.00    +0.000 C 
BRANCH  32  33
ATOM     33  C   UNL     1      -8.457  55.228  48.843  0.00  0.00    +0.000 C 
ATOM     34  C   UNL     1      -9.231  56.257  49.654  0.00  0.00    +0.000 C 
ENDBRANCH  32  33
ENDBRANCH  31  32
ENDBRANCH  30  31
ENDBRANCH  28  30
ENDBRANCH   5  28
TORSDOF 7
ENDMDL
MODEL 7
REMARK VINA RESULT:      -7.5      2.551      4.555
REMARK  Name = 
REMARK  8 active torsions:
REMARK  status: ('A' for Active; 'I' for Inactive)
REMARK    1  A    between atoms: C_6  and  C_10
REMARK    2  A    between atoms: C_14  and  O_18
REMARK    3  A    between atoms: N_17  and  N_20
REMARK    4  A    between atoms: N_20  and  C_23
REMARK    5  A    between atoms: C_23  and  C_26
REMARK    6  A    between atoms: C_26  and  C_28
REMARK    7  A    between atoms: C_28  and  C_29
REMARK    8  A    between atoms: C_29  and  C_30
REMARK                            x       y       z     vdW  Elec       q    Type
REMARK                         _______ _______ _______ _____ _____    ______ ____
ROOT
ATOM      1  C   UNL     1     -10.259  55.250  50.758  0.00  0.00    +0.000 A 
ATOM      2  C   UNL     1      -9.797  55.255  49.340  0.00  0.00    +0.000 A 
ATOM      3  C   UNL     1     -11.495  55.669  51.075  0.00  0.00    +0.000 A 
ATOM      4  O   UNL     1      -8.638  54.883  49.128  0.00  0.00    +0.000 OA
ATOM      5  N   UNL     1     -10.706  55.644  48.351  0.00  0.00    +0.000 N 
ATOM      6  C   UNL     1     -12.425  56.107  50.026  0.00  0.00    +0.000 A 
ATOM      7  C   UNL     1     -12.022  56.091  48.679  0.00  0.00    +0.000 A 
ATOM      8  C   UNL     1     -13.728  56.518  50.355  0.00  0.00    +0.000 A 
ATOM      9  C   UNL     1     -12.930  56.503  47.691  0.00  0.00    +0.000 A 
ATOM     10  C   UNL     1     -14.627  56.901  49.362  0.00  0.00    +0.000 A 
ATOM     11  C   UNL     1     -14.227  56.896  48.033  0.00  0.00    +0.000 A 
ENDROOT
BRANCH   1  17
ATOM     12  S   UNL     1      -7.082  54.774  53.009  0.00  0.00    +0.000 S 
ATOM     13  O   UNL     1      -7.035  55.744  54.086  0.00  0.00    +0.000 OA
ATOM     14  O   UNL     1      -5.876  54.431  52.285  0.00  0.00    +0.000 OA
ATOM     15  N   UNL     1      -8.179  55.292  51.937  0.00  0.00    +0.000 N 
ATOM     16  C   UNL     1      -7.667  53.283  53.723  0.00  0.00    +0.000 A 
ATOM     17  C   UNL     1      -9.331  54.702  51.820  0.00  0.00    +0.000 C 
ATOM     18  C   UNL     1      -8.952  52.873  53.405  0.00  0.00    +0.000 A 
ATOM     19  C   UNL     1      -6.840  52.545  54.569  0.00  0.00    +0.000 A 
ATOM     20  N   UNL     1      -9.769  53.630  52.569  0.00  0.00    +0.000 N 
ATOM     21  C   UNL     1      -9.446  51.716  54.015  0.00  0.00    +0.000 A 
ATOM     22  C   UNL     1      -7.331  51.375  55.144  0.00  0.00    +0.000 A 
ATOM     23  C   UNL     1      -8.637  50.964  54.871  0.00  0.00    +0.000 A 
ATOM     24  H   UNL     1      -7.971  56.066  51.365  0.00  0.00    +0.000 HD
ATOM     25  H   UNL     1     -10.721  53.385  52.510  0.00  0.00    +0.000 HD
ENDBRANCH   1  17
BRANCH   3  26
ATOM     26  O   UNL     1     -12.007  55.687  52.360  0.00  0.00    +0.000 OA
ATOM     27  H   UNL     1     -12.813  56.133  52.537  0.00  0.00    +0.000 HD
ENDBRANCH   3  26
BRANCH   5  28
ATOM     28  N   UNL     1     -10.314  55.664  46.963  0.00  0.00    +0.000 N 
ATOM     29  H   UNL     1     -10.122  56.496  46.473  0.00  0.00    +0.000 HD
BRANCH  28  30
ATOM     30  C   UNL     1     -10.229  54.336  46.344  0.00  0.00    +0.000 C 
BRANCH  30  31
ATOM     31  C   UNL     1     -11.561  53.909  45.728  0.00  0.00    +0.000 C 
BRANCH  31  32
ATOM     32  C   UNL     1     -11.909  52.487  46.185  0.00  0.00    +0.000 C 
BRANCH  32  33
ATOM     33  C   UNL     1     -11.254  52.144  47.518  0.00  0.00    +0.000 C 
ATOM     34  C   UNL     1     -12.210  52.377  48.678  0.00  0.00    +0.000 C 
ENDBRANCH  32  33
ENDBRANCH  31  32
ENDBRANCH  30  31
ENDBRANCH  28  30
ENDBRANCH   5  28
TORSDOF 7
ENDMDL
MODEL 8
REMARK VINA RESULT:      -7.2      3.363      7.461
REMARK  Name = 
REMARK  8 active torsions:
REMARK  status: ('A' for Active; 'I' for Inactive)
REMARK    1  A    between atoms: C_6  and  C_10
REMARK    2  A    between atoms: C_14  and  O_18
REMARK    3  A    between atoms: N_17  and  N_20
REMARK    4  A    between atoms: N_20  and  C_23
REMARK    5  A    between atoms: C_23  and  C_26
REMARK    6  A    between atoms: C_26  and  C_28
REMARK    7  A    between atoms: C_28  and  C_29
REMARK    8  A    between atoms: C_29  and  C_30
REMARK                            x       y       z     vdW  Elec       q    Type
REMARK                         _______ _______ _______ _____ _____    ______ ____
ROOT
ATOM      1  C   UNL     1     -10.204  54.821  47.673  0.00  0.00    +0.000 A 
ATOM      2  C   UNL     1      -8.715  54.889  47.651  0.00  0.00    +0.000 A 
ATOM      3  C   UNL     1     -10.880  54.308  46.633  0.00  0.00    +0.000 A 
ATOM      4  O   UNL     1      -8.163  55.400  48.632  0.00  0.00    +0.000 OA
ATOM      5  N   UNL     1      -8.045  54.346  46.549  0.00  0.00    +0.000 N 
ATOM      6  C   UNL     1     -10.162  53.775  45.467  0.00  0.00    +0.000 A 
ATOM      7  C   UNL     1      -8.756  53.800  45.438  0.00  0.00    +0.000 A 
ATOM      8  C   UNL     1     -10.869  53.213  44.391  0.00  0.00    +0.000 A 
ATOM      9  C   UNL     1      -8.089  53.274  44.320  0.00  0.00    +0.000 A 
ATOM     10  C   UNL     1     -10.194  52.671  43.299  0.00  0.00    +0.000 A 
ATOM     11  C   UNL     1      -8.806  52.705  43.263  0.00  0.00    +0.000 A 
ENDROOT
BRANCH   1  17
ATOM     12  S   UNL     1     -11.545  54.898  51.359  0.00  0.00    +0.000 S 
ATOM     13  O   UNL     1     -10.546  55.397  52.285  0.00  0.00    +0.000 OA
ATOM     14  O   UNL     1     -12.376  53.770  51.722  0.00  0.00    +0.000 OA
ATOM     15  N   UNL     1     -10.786  54.537  49.975  0.00  0.00    +0.000 N 
ATOM     16  C   UNL     1     -12.637  56.236  51.057  0.00  0.00    +0.000 A 
ATOM     17  C   UNL     1     -10.931  55.280  48.919  0.00  0.00    +0.000 C 
ATOM     18  C   UNL     1     -12.589  56.845  49.813  0.00  0.00    +0.000 A 
ATOM     19  C   UNL     1     -13.527  56.646  52.051  0.00  0.00    +0.000 A 
ATOM     20  N   UNL     1     -11.685  56.433  48.838  0.00  0.00    +0.000 N 
ATOM     21  C   UNL     1     -13.418  57.948  49.585  0.00  0.00    +0.000 A 
ATOM     22  C   UNL     1     -14.372  57.725  51.800  0.00  0.00    +0.000 A 
ATOM     23  C   UNL     1     -14.312  58.380  50.569  0.00  0.00    +0.000 A 
ATOM     24  H   UNL     1     -10.207  53.742  49.933  0.00  0.00    +0.000 HD
ATOM     25  H   UNL     1     -11.576  57.000  48.041  0.00  0.00    +0.000 HD
ENDBRANCH   1  17
BRANCH   3  26
ATOM     26  O   UNL     1     -12.258  54.198  46.575  0.00  0.00    +0.000 OA
ATOM     27  H   UNL     1     -12.769  54.298  47.355  0.00  0.00    +0.000 HD
ENDBRANCH   3  26
BRANCH   5  28
ATOM     28  N   UNL     1      -6.605  54.381  46.476  0.00  0.00    +0.000 N 
ATOM     29  H   UNL     1      -6.109  55.101  46.023  0.00  0.00    +0.000 HD
BRANCH  28  30
ATOM     30  C   UNL     1      -5.944  53.249  47.135  0.00  0.00    +0.000 C 
BRANCH  30  31
ATOM     31  C   UNL     1      -4.784  53.704  48.020  0.00  0.00    +0.000 C 
BRANCH  31  32
ATOM     32  C   UNL     1      -5.048  53.286  49.472  0.00  0.00    +0.000 C 
BRANCH  32  33
ATOM     33  C   UNL     1      -5.045  54.483  50.416  0.00  0.00    +0.000 C 
ATOM     34  C   UNL     1      -4.603  54.082  51.815  0.00  0.00    +0.000 C 
ENDBRANCH  32  33
ENDBRANCH  31  32
ENDBRANCH  30  31
ENDBRANCH  28  30
ENDBRANCH   5  28
TORSDOF 7
ENDMDL
MODEL 9
REMARK VINA RESULT:      -7.2      2.214      4.437
REMARK  Name = 
REMARK  8 active torsions:
REMARK  status: ('A' for Active; 'I' for Inactive)
REMARK    1  A    between atoms: C_6  and  C_10
REMARK    2  A    between atoms: C_14  and  O_18
REMARK    3  A    between atoms: N_17  and  N_20
REMARK    4  A    between atoms: N_20  and  C_23
REMARK    5  A    between atoms: C_23  and  C_26
REMARK    6  A    between atoms: C_26  and  C_28
REMARK    7  A    between atoms: C_28  and  C_29
REMARK    8  A    between atoms: C_29  and  C_30
REMARK                            x       y       z     vdW  Elec       q    Type
REMARK                         _______ _______ _______ _____ _____    ______ ____
ROOT
ATOM      1  C   UNL     1     -10.352  54.865  50.436  0.00  0.00    +0.000 A 
ATOM      2  C   UNL     1      -9.888  54.948  49.021  0.00  0.00    +0.000 A 
ATOM      3  C   UNL     1     -11.559  55.337  50.787  0.00  0.00    +0.000 A 
ATOM      4  O   UNL     1      -8.756  54.519  48.777  0.00  0.00    +0.000 OA
ATOM      5  N   UNL     1     -10.769  55.470  48.067  0.00  0.00    +0.000 N 
ATOM      6  C   UNL     1     -12.456  55.915  49.778  0.00  0.00    +0.000 A 
ATOM      7  C   UNL     1     -12.053  55.976  48.433  0.00  0.00    +0.000 A 
ATOM      8  C   UNL     1     -13.730  56.384  50.143  0.00  0.00    +0.000 A 
ATOM      9  C   UNL     1     -12.931  56.521  47.483  0.00  0.00    +0.000 A 
ATOM     10  C   UNL     1     -14.601  56.900  49.186  0.00  0.00    +0.000 A 
ATOM     11  C   UNL     1     -14.200  56.971  47.858  0.00  0.00    +0.000 A 
ENDROOT
BRANCH   1  17
ATOM     12  S   UNL     1      -9.037  52.210  53.007  0.00  0.00    +0.000 S 
ATOM     13  O   UNL     1      -8.418  51.079  52.344  0.00  0.00    +0.000 OA
ATOM     14  O   UNL     1      -9.898  52.002  54.151  0.00  0.00    +0.000 OA
ATOM     15  N   UNL     1      -9.878  53.027  51.890  0.00  0.00    +0.000 N 
ATOM     16  C   UNL     1      -7.721  53.227  53.561  0.00  0.00    +0.000 A 
ATOM     17  C   UNL     1      -9.464  54.177  51.449  0.00  0.00    +0.000 C 
ATOM     18  C   UNL     1      -7.512  54.432  52.908  0.00  0.00    +0.000 A 
ATOM     19  C   UNL     1      -6.932  52.820  54.638  0.00  0.00    +0.000 A 
ATOM     20  N   UNL     1      -8.300  54.816  51.826  0.00  0.00    +0.000 N 
ATOM     21  C   UNL     1      -6.430  55.221  53.307  0.00  0.00    +0.000 A 
ATOM     22  C   UNL     1      -5.877  53.632  55.049  0.00  0.00    +0.000 A 
ATOM     23  C   UNL     1      -5.623  54.829  54.379  0.00  0.00    +0.000 A 
ATOM     24  H   UNL     1     -10.716  52.647  51.540  0.00  0.00    +0.000 HD
ATOM     25  H   UNL     1      -8.008  55.592  51.296  0.00  0.00    +0.000 HD
ENDBRANCH   1  17
BRANCH   3  26
ATOM     26  O   UNL     1     -12.071  55.291  52.072  0.00  0.00    +0.000 OA
ATOM     27  H   UNL     1     -11.768  54.638  52.673  0.00  0.00    +0.000 HD
ENDBRANCH   3  26
BRANCH   5  28
ATOM     28  N   UNL     1     -10.374  55.572  46.683  0.00  0.00    +0.000 N 
ATOM     29  H   UNL     1     -10.204  56.432  46.236  0.00  0.00    +0.000 HD
BRANCH  28  30
ATOM     30  C   UNL     1     -10.250  54.279  45.999  0.00  0.00    +0.000 C 
BRANCH  30  31
ATOM     31  C   UNL     1     -11.532  53.903  45.256  0.00  0.00    +0.000 C 
BRANCH  31  32
ATOM     32  C   UNL     1     -12.057  52.561  45.781  0.00  0.00    +0.000 C 
BRANCH  32  33
ATOM     33  C   UNL     1     -11.310  52.109  47.031  0.00  0.00    +0.000 C 
ATOM     34  C   UNL     1     -12.216  52.131  48.253  0.00  0.00    +0.000 C 
ENDBRANCH  32  33
ENDBRANCH  31  32
ENDBRANCH  30  31
ENDBRANCH  28  30
ENDBRANCH   5  28
TORSDOF 7
ENDMDL
