MODEL 1
REMARK VINA RESULT:      -8.1      0.000      0.000
REMARK  Name = 
REMARK  7 active torsions:
REMARK  status: ('A' for Active; 'I' for Inactive)
REMARK    1  A    between atoms: C_6  and  C_10
REMARK    2  A    between atoms: C_14  and  O_18
REMARK    3  A    between atoms: N_17  and  N_20
REMARK    4  A    between atoms: N_20  and  C_23
REMARK    5  A    between atoms: C_23  and  C_26
REMARK    6  A    between atoms: C_26  and  C_28
REMARK    7  A    between atoms: C_28  and  C_29
REMARK                            x       y       z     vdW  Elec       q    Type
REMARK                         _______ _______ _______ _____ _____    ______ ____
ROOT
ATOM      1  C   UNL     1     -10.131  54.529  52.245  0.00  0.00    +0.000 A 
ATOM      2  C   UNL     1      -8.759  55.085  52.059  0.00  0.00    +0.000 A 
ATOM      3  C   UNL     1     -10.324  53.424  52.984  0.00  0.00    +0.000 A 
ATOM      4  O   UNL     1      -8.648  56.079  51.333  0.00  0.00    +0.000 OA
ATOM      5  N   UNL     1      -7.699  54.469  52.731  0.00  0.00    +0.000 N 
ATOM      6  C   UNL     1      -9.194  52.772  53.660  0.00  0.00    +0.000 A 
ATOM      7  C   UNL     1      -7.896  53.298  53.525  0.00  0.00    +0.000 A 
ATOM      8  C   UNL     1      -9.397  51.630  54.456  0.00  0.00    +0.000 A 
ATOM      9  C   UNL     1      -6.829  52.659  54.179  0.00  0.00    +0.000 A 
ATOM     10  C   UNL     1      -8.332  51.016  55.112  0.00  0.00    +0.000 A 
ATOM     11  C   UNL     1      -7.048  51.527  54.969  0.00  0.00    +0.000 A 
ENDROOT
BRANCH   1  17
ATOM     12  S   UNL     1     -12.524  56.085  49.545  0.00  0.00    +0.000 S 
ATOM     13  O   UNL     1     -13.416  55.106  48.961  0.00  0.00    +0.000 OA
ATOM     14  O   UNL     1     -11.897  57.084  48.703  0.00  0.00    +0.000 OA
ATOM     15  N   UNL     1     -11.353  55.283  50.325  0.00  0.00    +0.000 N 
ATOM     16  C   UNL     1     -13.473  56.971  50.726  0.00  0.00    +0.000 A 
ATOM     17  C   UNL     1     -11.300  55.272  51.625  0.00  0.00    +0.000 C 
ATOM     18  C   UNL     1     -13.191  56.766  52.067  0.00  0.00    +0.000 A 
ATOM     19  C   UNL     1     -14.466  57.859  50.302  0.00  0.00    +0.000 A 
ATOM     20  N   UNL     1     -12.205  55.870  52.474  0.00  0.00    +0.000 N 
ATOM     21  C   UNL     1     -13.985  57.418  53.016  0.00  0.00    +0.000 A 
ATOM     22  C   UNL     1     -15.226  58.529  51.260  0.00  0.00    +0.000 A 
ATOM     23  C   UNL     1     -14.992  58.301  52.615  0.00  0.00    +0.000 A 
ATOM     24  H   UNL     1     -10.671  54.797  49.807  0.00  0.00    +0.000 HD
ATOM     25  H   UNL     1     -12.151  55.652  53.432  0.00  0.00    +0.000 HD
ENDBRANCH   1  17
BRANCH   3  26
ATOM     26  O   UNL     1     -11.557  52.834  53.198  0.00  0.00    +0.000 OA
ATOM     27  H   UNL     1     -12.286  53.062  52.654  0.00  0.00    +0.000 HD
ENDBRANCH   3  26
BRANCH   5  28
ATOM     28  N   UNL     1      -6.345  54.938  52.550  0.00  0.00    +0.000 N 
ATOM     29  H   UNL     1      -5.862  55.453  53.235  0.00  0.00    +0.000 HD
BRANCH  28  30
ATOM     30  C   UNL     1      -5.753  54.578  51.253  0.00  0.00    +0.000 C 
BRANCH  30  31
ATOM     31  C   UNL     1      -4.392  53.898  51.423  0.00  0.00    +0.000 C 
BRANCH  31  32
ATOM     32  C   UNL     1      -3.757  54.323  52.752  0.00  0.00    +0.000 C 
ATOM     33  C   UNL     1      -3.300  53.132  53.575  0.00  0.00    +0.000 C 
ENDBRANCH  31  32
ENDBRANCH  30  31
ENDBRANCH  28  30
ENDBRANCH   5  28
TORSDOF 6
ENDMDL
MODEL 2
REMARK VINA RESULT:      -7.9      2.592      8.119
REMARK  Name = 
REMARK  7 active torsions:
REMARK  status: ('A' for Active; 'I' for Inactive)
REMARK    1  A    between atoms: C_6  and  C_10
REMARK    2  A    between atoms: C_14  and  O_18
REMARK    3  A    between atoms: N_17  and  N_20
REMARK    4  A    between atoms: N_20  and  C_23
REMARK    5  A    between atoms: C_23  and  C_26
REMARK    6  A    between atoms: C_26  and  C_28
REMARK    7  A    between atoms: C_28  and  C_29
REMARK                            x       y       z     vdW  Elec       q    Type
REMARK                         _______ _______ _______ _____ _____    ______ ____
ROOT
ATOM      1  C   UNL     1     -10.231  55.269  50.431  0.00  0.00    +0.000 A 
ATOM      2  C   UNL     1     -11.279  55.376  51.488  0.00  0.00    +0.000 A 
ATOM      3  C   UNL     1     -10.516  55.580  49.155  0.00  0.00    +0.000 A 
ATOM      4  O   UNL     1     -10.961  55.034  52.632  0.00  0.00    +0.000 OA
ATOM      5  N   UNL     1     -12.534  55.875  51.127  0.00  0.00    +0.000 N 
ATOM      6  C   UNL     1     -11.850  56.075  48.788  0.00  0.00    +0.000 A 
ATOM      7  C   UNL     1     -12.843  56.215  49.774  0.00  0.00    +0.000 A 
ATOM      8  C   UNL     1     -12.143  56.427  47.458  0.00  0.00    +0.000 A 
ATOM      9  C   UNL     1     -14.112  56.691  49.402  0.00  0.00    +0.000 A 
ATOM     10  C   UNL     1     -13.401  56.912  47.105  0.00  0.00    +0.000 A 
ATOM     11  C   UNL     1     -14.386  57.038  48.077  0.00  0.00    +0.000 A 
ENDROOT
BRANCH   1  17
ATOM     12  S   UNL     1      -6.796  53.362  50.495  0.00  0.00    +0.000 S 
ATOM     13  O   UNL     1      -5.873  53.844  49.490  0.00  0.00    +0.000 OA
ATOM     14  O   UNL     1      -6.913  51.939  50.744  0.00  0.00    +0.000 OA
ATOM     15  N   UNL     1      -8.268  53.926  50.124  0.00  0.00    +0.000 N 
ATOM     16  C   UNL     1      -6.290  54.083  52.013  0.00  0.00    +0.000 A 
ATOM     17  C   UNL     1      -8.831  54.853  50.843  0.00  0.00    +0.000 C 
ATOM     18  C   UNL     1      -7.102  55.060  52.566  0.00  0.00    +0.000 A 
ATOM     19  C   UNL     1      -5.111  53.658  52.630  0.00  0.00    +0.000 A 
ATOM     20  N   UNL     1      -8.269  55.480  51.933  0.00  0.00    +0.000 N 
ATOM     21  C   UNL     1      -6.674  55.686  53.742  0.00  0.00    +0.000 A 
ATOM     22  C   UNL     1      -4.715  54.266  53.821  0.00  0.00    +0.000 A 
ATOM     23  C   UNL     1      -5.491  55.286  54.370  0.00  0.00    +0.000 A 
ATOM     24  H   UNL     1      -8.744  53.562  49.343  0.00  0.00    +0.000 HD
ATOM     25  H   UNL     1      -8.723  56.277  52.291  0.00  0.00    +0.000 HD
ENDBRANCH   1  17
BRANCH   3  26
ATOM     26  O   UNL     1      -9.611  55.496  48.111  0.00  0.00    +0.000 OA
ATOM     27  H   UNL     1      -9.026  54.766  48.056  0.00  0.00    +0.000 HD
ENDBRANCH   3  26
BRANCH   5  28
ATOM     28  N   UNL     1     -13.597  55.956  52.100  0.00  0.00    +0.000 N 
ATOM     29  H   UNL     1     -14.214  55.212  52.282  0.00  0.00    +0.000 HD
BRANCH  28  30
ATOM     30  C   UNL     1     -13.677  57.250  52.796  0.00  0.00    +0.000 C 
BRANCH  30  31
ATOM     31  C   UNL     1     -15.128  57.697  52.993  0.00  0.00    +0.000 C 
BRANCH  31  32
ATOM     32  C   UNL     1     -15.263  59.189  52.666  0.00  0.00    +0.000 C 
ATOM     33  C   UNL     1     -14.927  59.489  51.216  0.00  0.00    +0.000 C 
ENDBRANCH  31  32
ENDBRANCH  30  31
ENDBRANCH  28  30
ENDBRANCH   5  28
TORSDOF 6
ENDMDL
MODEL 3
REMARK VINA RESULT:      -7.7      2.682      8.347
REMARK  Name = 
REMARK  7 active torsions:
REMARK  status: ('A' for Active; 'I' for Inactive)
REMARK    1  A    between atoms: C_6  and  C_10
REMARK    2  A    between atoms: C_14  and  O_18
REMARK    3  A    between atoms: N_17  and  N_20
REMARK    4  A    between atoms: N_20  and  C_23
REMARK    5  A    between atoms: C_23  and  C_26
REMARK    6  A    between atoms: C_26  and  C_28
REMARK    7  A    between atoms: C_28  and  C_29
REMARK                            x       y       z     vdW  Elec       q    Type
REMARK                         _______ _______ _______ _____ _____    ______ ____
ROOT
ATOM      1  C   UNL     1     -10.117  55.298  50.806  0.00  0.00    +0.000 A 
ATOM      2  C   UNL     1     -11.269  55.417  51.748  0.00  0.00    +0.000 A 
ATOM      3  C   UNL     1     -10.282  55.539  49.495  0.00  0.00    +0.000 A 
ATOM      4  O   UNL     1     -11.057  55.140  52.934  0.00  0.00    +0.000 OA
ATOM      5  N   UNL     1     -12.496  55.854  51.241  0.00  0.00    +0.000 N 
ATOM      6  C   UNL     1     -11.588  55.969  48.974  0.00  0.00    +0.000 A 
ATOM      7  C   UNL     1     -12.678  56.120  49.849  0.00  0.00    +0.000 A 
ATOM      8  C   UNL     1     -11.756  56.247  47.606  0.00  0.00    +0.000 A 
ATOM      9  C   UNL     1     -13.918  56.532  49.331  0.00  0.00    +0.000 A 
ATOM     10  C   UNL     1     -12.987  56.671  47.107  0.00  0.00    +0.000 A 
ATOM     11  C   UNL     1     -14.068  56.807  47.968  0.00  0.00    +0.000 A 
ENDROOT
BRANCH   1  17
ATOM     12  S   UNL     1      -7.049  55.150  53.256  0.00  0.00    +0.000 S 
ATOM     13  O   UNL     1      -7.243  54.203  54.333  0.00  0.00    +0.000 OA
ATOM     14  O   UNL     1      -6.445  56.439  53.528  0.00  0.00    +0.000 OA
ATOM     15  N   UNL     1      -8.490  55.409  52.564  0.00  0.00    +0.000 N 
ATOM     16  C   UNL     1      -6.005  54.359  52.088  0.00  0.00    +0.000 A 
ATOM     17  C   UNL     1      -8.754  54.951  51.375  0.00  0.00    +0.000 C 
ATOM     18  C   UNL     1      -6.561  53.977  50.879  0.00  0.00    +0.000 A 
ATOM     19  C   UNL     1      -4.657  54.146  52.387  0.00  0.00    +0.000 A 
ATOM     20  N   UNL     1      -7.910  54.187  50.600  0.00  0.00    +0.000 N 
ATOM     21  C   UNL     1      -5.753  53.288  49.968  0.00  0.00    +0.000 A 
ATOM     22  C   UNL     1      -3.854  53.490  51.455  0.00  0.00    +0.000 A 
ATOM     23  C   UNL     1      -4.404  53.052  50.251  0.00  0.00    +0.000 A 
ATOM     24  H   UNL     1      -9.176  55.923  53.049  0.00  0.00    +0.000 HD
ATOM     25  H   UNL     1      -8.283  53.762  49.793  0.00  0.00    +0.000 HD
ENDBRANCH   1  17
BRANCH   3  26
ATOM     26  O   UNL     1      -9.276  55.439  48.551  0.00  0.00    +0.000 OA
ATOM     27  H   UNL     1      -9.323  54.783  47.883  0.00  0.00    +0.000 HD
ENDBRANCH   3  26
BRANCH   5  28
ATOM     28  N   UNL     1     -13.654  55.943  52.099  0.00  0.00    +0.000 N 
ATOM     29  H   UNL     1     -14.330  55.231  52.161  0.00  0.00    +0.000 HD
BRANCH  28  30
ATOM     30  C   UNL     1     -13.733  57.191  52.873  0.00  0.00    +0.000 C 
BRANCH  30  31
ATOM     31  C   UNL     1     -15.153  57.764  52.878  0.00  0.00    +0.000 C 
BRANCH  31  32
ATOM     32  C   UNL     1     -15.119  59.245  52.483  0.00  0.00    +0.000 C 
ATOM     33  C   UNL     1     -15.090  59.435  50.976  0.00  0.00    +0.000 C 
ENDBRANCH  31  32
ENDBRANCH  30  31
ENDBRANCH  28  30
ENDBRANCH   5  28
TORSDOF 6
ENDMDL
MODEL 4
REMARK VINA RESULT:      -7.7      2.069      2.729
REMARK  Name = 
REMARK  7 active torsions:
REMARK  status: ('A' for Active; 'I' for Inactive)
REMARK    1  A    between atoms: C_6  and  C_10
REMARK    2  A    between atoms: C_14  and  O_18
REMARK    3  A    between atoms: N_17  and  N_20
REMARK    4  A    between atoms: N_20  and  C_23
REMARK    5  A    between atoms: C_23  and  C_26
REMARK    6  A    between atoms: C_26  and  C_28
REMARK    7  A    between atoms: C_28  and  C_29
REMARK                            x       y       z     vdW  Elec       q    Type
REMARK                         _______ _______ _______ _____ _____    ______ ____
ROOT
ATOM      1  C   UNL     1     -11.660  54.131  51.314  0.00  0.00    +0.000 A 
ATOM      2  C   UNL     1     -10.698  54.242  52.450  0.00  0.00    +0.000 A 
ATOM      3  C   UNL     1     -11.766  52.984  50.622  0.00  0.00    +0.000 A 
ATOM      4  O   UNL     1     -10.621  55.338  53.017  0.00  0.00    +0.000 OA
ATOM      5  N   UNL     1      -9.970  53.106  52.815  0.00  0.00    +0.000 N 
ATOM      6  C   UNL     1     -10.971  51.807  51.000  0.00  0.00    +0.000 A 
ATOM      7  C   UNL     1     -10.083  51.880  52.088  0.00  0.00    +0.000 A 
ATOM      8  C   UNL     1     -11.100  50.599  50.293  0.00  0.00    +0.000 A 
ATOM      9  C   UNL     1      -9.332  50.744  52.434  0.00  0.00    +0.000 A 
ATOM     10  C   UNL     1     -10.361  49.474  50.657  0.00  0.00    +0.000 A 
ATOM     11  C   UNL     1      -9.473  49.549  51.723  0.00  0.00    +0.000 A 
ENDROOT
BRANCH   1  17
ATOM     12  S   UNL     1     -13.422  57.017  49.313  0.00  0.00    +0.000 S 
ATOM     13  O   UNL     1     -14.541  56.545  48.527  0.00  0.00    +0.000 OA
ATOM     14  O   UNL     1     -12.509  57.994  48.756  0.00  0.00    +0.000 OA
ATOM     15  N   UNL     1     -12.556  55.724  49.763  0.00  0.00    +0.000 N 
ATOM     16  C   UNL     1     -14.108  57.754  50.750  0.00  0.00    +0.000 A 
ATOM     17  C   UNL     1     -12.545  55.322  51.000  0.00  0.00    +0.000 C 
ATOM     18  C   UNL     1     -13.935  57.098  51.958  0.00  0.00    +0.000 A 
ATOM     19  C   UNL     1     -14.789  58.970  50.656  0.00  0.00    +0.000 A 
ATOM     20  N   UNL     1     -13.263  55.880  52.035  0.00  0.00    +0.000 N 
ATOM     21  C   UNL     1     -14.534  57.644  53.099  0.00  0.00    +0.000 A 
ATOM     22  C   UNL     1     -15.349  59.522  51.807  0.00  0.00    +0.000 A 
ATOM     23  C   UNL     1     -15.231  58.854  53.025  0.00  0.00    +0.000 A 
ATOM     24  H   UNL     1     -12.029  55.236  49.089  0.00  0.00    +0.000 HD
ATOM     25  H   UNL     1     -13.302  55.387  52.887  0.00  0.00    +0.000 HD
ENDBRANCH   1  17
BRANCH   3  26
ATOM     26  O   UNL     1     -12.619  52.798  49.548  0.00  0.00    +0.000 OA
ATOM     27  H   UNL     1     -13.535  52.976  49.640  0.00  0.00    +0.000 HD
ENDBRANCH   3  26
BRANCH   5  28
ATOM     28  N   UNL     1      -8.994  53.170  53.876  0.00  0.00    +0.000 N 
ATOM     29  H   UNL     1      -9.203  52.942  54.810  0.00  0.00    +0.000 HD
BRANCH  28  30
ATOM     30  C   UNL     1      -7.659  53.607  53.440  0.00  0.00    +0.000 C 
BRANCH  30  31
ATOM     31  C   UNL     1      -7.176  54.825  54.232  0.00  0.00    +0.000 C 
BRANCH  31  32
ATOM     32  C   UNL     1      -5.869  54.489  54.960  0.00  0.00    +0.000 C 
ATOM     33  C   UNL     1      -4.661  55.117  54.287  0.00  0.00    +0.000 C 
ENDBRANCH  31  32
ENDBRANCH  30  31
ENDBRANCH  28  30
ENDBRANCH   5  28
TORSDOF 6
ENDMDL
MODEL 5
REMARK VINA RESULT:      -7.7      2.785      7.920
REMARK  Name = 
REMARK  7 active torsions:
REMARK  status: ('A' for Active; 'I' for Inactive)
REMARK    1  A    between atoms: C_6  and  C_10
REMARK    2  A    between atoms: C_14  and  O_18
REMARK    3  A    between atoms: N_17  and  N_20
REMARK    4  A    between atoms: N_20  and  C_23
REMARK    5  A    between atoms: C_23  and  C_26
REMARK    6  A    between atoms: C_26  and  C_28
REMARK    7  A    between atoms: C_28  and  C_29
REMARK                            x       y       z     vdW  Elec       q    Type
REMARK                         _______ _______ _______ _____ _____    ______ ____
ROOT
ATOM      1  C   UNL     1      -9.975  54.428  51.025  0.00  0.00    +0.000 A 
ATOM      2  C   UNL     1     -11.114  55.305  51.425  0.00  0.00    +0.000 A 
ATOM      3  C   UNL     1      -9.750  54.151  49.730  0.00  0.00    +0.000 A 
ATOM      4  O   UNL     1     -11.289  55.484  52.635  0.00  0.00    +0.000 OA
ATOM      5  N   UNL     1     -11.890  55.883  50.415  0.00  0.00    +0.000 N 
ATOM      6  C   UNL     1     -10.594  54.744  48.682  0.00  0.00    +0.000 A 
ATOM      7  C   UNL     1     -11.653  55.600  49.035  0.00  0.00    +0.000 A 
ATOM      8  C   UNL     1     -10.344  54.477  47.325  0.00  0.00    +0.000 A 
ATOM      9  C   UNL     1     -12.447  56.157  48.019  0.00  0.00    +0.000 A 
ATOM     10  C   UNL     1     -11.130  55.048  46.326  0.00  0.00    +0.000 A 
ATOM     11  C   UNL     1     -12.185  55.884  46.673  0.00  0.00    +0.000 A 
ENDROOT
BRANCH   1  17
ATOM     12  S   UNL     1      -6.740  53.835  53.176  0.00  0.00    +0.000 S 
ATOM     13  O   UNL     1      -6.482  54.917  54.101  0.00  0.00    +0.000 OA
ATOM     14  O   UNL     1      -5.644  53.233  52.443  0.00  0.00    +0.000 OA
ATOM     15  N   UNL     1      -7.832  54.357  52.100  0.00  0.00    +0.000 N 
ATOM     16  C   UNL     1      -7.462  52.544  54.120  0.00  0.00    +0.000 A 
ATOM     17  C   UNL     1      -9.053  53.905  52.110  0.00  0.00    +0.000 C 
ATOM     18  C   UNL     1      -8.805  52.268  53.917  0.00  0.00    +0.000 A 
ATOM     19  C   UNL     1      -6.684  51.823  55.030  0.00  0.00    +0.000 A 
ATOM     20  N   UNL     1      -9.570  53.002  53.014  0.00  0.00    +0.000 N 
ATOM     21  C   UNL     1      -9.405  51.285  54.711  0.00  0.00    +0.000 A 
ATOM     22  C   UNL     1      -7.287  50.821  55.789  0.00  0.00    +0.000 A 
ATOM     23  C   UNL     1      -8.648  50.560  55.637  0.00  0.00    +0.000 A 
ATOM     24  H   UNL     1      -7.569  55.026  51.427  0.00  0.00    +0.000 HD
ATOM     25  H   UNL     1     -10.545  52.866  53.021  0.00  0.00    +0.000 HD
ENDBRANCH   1  17
BRANCH   3  26
ATOM     26  O   UNL     1      -8.728  53.338  49.272  0.00  0.00    +0.000 OA
ATOM     27  H   UNL     1      -8.377  53.466  48.411  0.00  0.00    +0.000 HD
ENDBRANCH   3  26
BRANCH   5  28
ATOM     28  N   UNL     1     -13.031  56.703  50.747  0.00  0.00    +0.000 N 
ATOM     29  H   UNL     1     -13.004  57.686  50.736  0.00  0.00    +0.000 HD
BRANCH  28  30
ATOM     30  C   UNL     1     -14.236  55.939  51.103  0.00  0.00    +0.000 C 
BRANCH  30  31
ATOM     31  C   UNL     1     -15.050  56.643  52.192  0.00  0.00    +0.000 C 
BRANCH  31  32
ATOM     32  C   UNL     1     -14.218  57.766  52.822  0.00  0.00    +0.000 C 
ATOM     33  C   UNL     1     -14.874  59.126  52.657  0.00  0.00    +0.000 C 
ENDBRANCH  31  32
ENDBRANCH  30  31
ENDBRANCH  28  30
ENDBRANCH   5  28
TORSDOF 6
ENDMDL
MODEL 6
REMARK VINA RESULT:      -7.6      3.927      5.432
REMARK  Name = 
REMARK  7 active torsions:
REMARK  status: ('A' for Active; 'I' for Inactive)
REMARK    1  A    between atoms: C_6  and  C_10
REMARK    2  A    between atoms: C_14  and  O_18
REMARK    3  A    between atoms: N_17  and  N_20
REMARK    4  A    between atoms: N_20  and  C_23
REMARK    5  A    between atoms: C_23  and  C_26
REMARK    6  A    between atoms: C_26  and  C_28
REMARK    7  A    between atoms: C_28  and  C_29
REMARK                            x       y       z     vdW  Elec       q    Type
REMARK                         _______ _______ _______ _____ _____    ______ ____
ROOT
ATOM      1  C   UNL     1     -10.636  55.694  48.241  0.00  0.00    +0.000 A 
ATOM      2  C   UNL     1      -9.181  55.794  48.559  0.00  0.00    +0.000 A 
ATOM      3  C   UNL     1     -11.050  55.052  47.136  0.00  0.00    +0.000 A 
ATOM      4  O   UNL     1      -8.868  56.435  49.568  0.00  0.00    +0.000 OA
ATOM      5  N   UNL     1      -8.274  55.142  47.718  0.00  0.00    +0.000 N 
ATOM      6  C   UNL     1     -10.079  54.397  46.246  0.00  0.00    +0.000 A 
ATOM      7  C   UNL     1      -8.706  54.450  46.544  0.00  0.00    +0.000 A 
ATOM      8  C   UNL     1     -10.512  53.701  45.103  0.00  0.00    +0.000 A 
ATOM      9  C   UNL     1      -7.795  53.818  45.682  0.00  0.00    +0.000 A 
ATOM     10  C   UNL     1      -9.599  53.064  44.264  0.00  0.00    +0.000 A 
ATOM     11  C   UNL     1      -8.241  53.128  44.551  0.00  0.00    +0.000 A 
ENDROOT
BRANCH   1  17
ATOM     12  S   UNL     1     -13.094  56.025  51.289  0.00  0.00    +0.000 S 
ATOM     13  O   UNL     1     -12.402  56.260  52.538  0.00  0.00    +0.000 OA
ATOM     14  O   UNL     1     -14.216  55.109  51.246  0.00  0.00    +0.000 OA
ATOM     15  N   UNL     1     -11.999  55.522  50.206  0.00  0.00    +0.000 N 
ATOM     16  C   UNL     1     -13.715  57.582  50.770  0.00  0.00    +0.000 A 
ATOM     17  C   UNL     1     -11.630  56.288  49.221  0.00  0.00    +0.000 C 
ATOM     18  C   UNL     1     -13.127  58.176  49.665  0.00  0.00    +0.000 A 
ATOM     19  C   UNL     1     -14.777  58.175  51.457  0.00  0.00    +0.000 A 
ATOM     20  N   UNL     1     -12.062  57.577  48.997  0.00  0.00    +0.000 N 
ATOM     21  C   UNL     1     -13.572  59.447  49.284  0.00  0.00    +0.000 A 
ATOM     22  C   UNL     1     -15.235  59.426  51.043  0.00  0.00    +0.000 A 
ATOM     23  C   UNL     1     -14.625  60.065  49.964  0.00  0.00    +0.000 A 
ATOM     24  H   UNL     1     -11.607  54.623  50.295  0.00  0.00    +0.000 HD
ATOM     25  H   UNL     1     -11.587  58.111  48.319  0.00  0.00    +0.000 HD
ENDBRANCH   1  17
BRANCH   3  26
ATOM     26  O   UNL     1     -12.374  54.923  46.757  0.00  0.00    +0.000 OA
ATOM     27  H   UNL     1     -12.786  54.081  46.770  0.00  0.00    +0.000 HD
ENDBRANCH   3  26
BRANCH   5  28
ATOM     28  N   UNL     1      -6.854  55.244  47.953  0.00  0.00    +0.000 N 
ATOM     29  H   UNL     1      -6.283  55.905  47.501  0.00  0.00    +0.000 HD
BRANCH  28  30
ATOM     30  C   UNL     1      -6.335  54.274  48.929  0.00  0.00    +0.000 C 
BRANCH  30  31
ATOM     31  C   UNL     1      -4.824  54.077  48.782  0.00  0.00    +0.000 C 
BRANCH  31  32
ATOM     32  C   UNL     1      -4.533  53.135  47.607  0.00  0.00    +0.000 C 
ATOM     33  C   UNL     1      -5.352  51.858  47.681  0.00  0.00    +0.000 C 
ENDBRANCH  31  32
ENDBRANCH  30  31
ENDBRANCH  28  30
ENDBRANCH   5  28
TORSDOF 6
ENDMDL
MODEL 7
REMARK VINA RESULT:      -7.5      2.630      8.233
REMARK  Name = 
REMARK  7 active torsions:
REMARK  status: ('A' for Active; 'I' for Inactive)
REMARK    1  A    between atoms: C_6  and  C_10
REMARK    2  A    between atoms: C_14  and  O_18
REMARK    3  A    between atoms: N_17  and  N_20
REMARK    4  A    between atoms: N_20  and  C_23
REMARK    5  A    between atoms: C_23  and  C_26
REMARK    6  A    between atoms: C_26  and  C_28
REMARK    7  A    between atoms: C_28  and  C_29
REMARK                            x       y       z     vdW  Elec       q    Type
REMARK                         _______ _______ _______ _____ _____    ______ ____
ROOT
ATOM      1  C   UNL     1      -9.955  54.172  50.751  0.00  0.00    +0.000 A 
ATOM      2  C   UNL     1     -11.145  54.554  51.567  0.00  0.00    +0.000 A 
ATOM      3  C   UNL     1      -9.921  54.431  49.433  0.00  0.00    +0.000 A 
ATOM      4  O   UNL     1     -11.128  54.248  52.765  0.00  0.00    +0.000 OA
ATOM      5  N   UNL     1     -12.183  55.248  50.939  0.00  0.00    +0.000 N 
ATOM      6  C   UNL     1     -11.035  55.137  48.783  0.00  0.00    +0.000 A 
ATOM      7  C   UNL     1     -12.151  55.535  49.539  0.00  0.00    +0.000 A 
ATOM      8  C   UNL     1     -10.990  55.433  47.409  0.00  0.00    +0.000 A 
ATOM      9  C   UNL     1     -13.205  56.208  48.899  0.00  0.00    +0.000 A 
ATOM     10  C   UNL     1     -12.035  56.115  46.788  0.00  0.00    +0.000 A 
ATOM     11  C   UNL     1     -13.144  56.498  47.532  0.00  0.00    +0.000 A 
ENDROOT
BRANCH   1  17
ATOM     12  S   UNL     1      -7.858  51.756  53.033  0.00  0.00    +0.000 S 
ATOM     13  O   UNL     1      -7.594  50.482  52.399  0.00  0.00    +0.000 OA
ATOM     14  O   UNL     1      -8.219  51.804  54.436  0.00  0.00    +0.000 OA
ATOM     15  N   UNL     1      -9.029  52.492  52.191  0.00  0.00    +0.000 N 
ATOM     16  C   UNL     1      -6.385  52.697  52.877  0.00  0.00    +0.000 A 
ATOM     17  C   UNL     1      -8.772  53.535  51.456  0.00  0.00    +0.000 C 
ATOM     18  C   UNL     1      -6.398  53.779  52.011  0.00  0.00    +0.000 A 
ATOM     19  C   UNL     1      -5.254  52.354  53.622  0.00  0.00    +0.000 A 
ATOM     20  N   UNL     1      -7.531  54.102  51.267  0.00  0.00    +0.000 N 
ATOM     21  C   UNL     1      -5.210  54.495  51.831  0.00  0.00    +0.000 A 
ATOM     22  C   UNL     1      -4.087  53.099  53.459  0.00  0.00    +0.000 A 
ATOM     23  C   UNL     1      -4.062  54.162  52.557  0.00  0.00    +0.000 A 
ATOM     24  H   UNL     1      -9.950  52.146  52.236  0.00  0.00    +0.000 HD
ATOM     25  H   UNL     1      -7.437  54.781  50.561  0.00  0.00    +0.000 HD
ENDBRANCH   1  17
BRANCH   3  26
ATOM     26  O   UNL     1      -8.868  54.100  48.600  0.00  0.00    +0.000 OA
ATOM     27  H   UNL     1      -8.447  53.266  48.685  0.00  0.00    +0.000 HD
ENDBRANCH   3  26
BRANCH   5  28
ATOM     28  N   UNL     1     -13.376  55.602  51.671  0.00  0.00    +0.000 N 
ATOM     29  H   UNL     1     -14.168  55.020  51.714  0.00  0.00    +0.000 HD
BRANCH  28  30
ATOM     30  C   UNL     1     -13.303  56.907  52.345  0.00  0.00    +0.000 C 
BRANCH  30  31
ATOM     31  C   UNL     1     -14.690  57.410  52.755  0.00  0.00    +0.000 C 
BRANCH  31  32
ATOM     32  C   UNL     1     -14.802  58.914  52.481  0.00  0.00    +0.000 C 
ATOM     33  C   UNL     1     -14.600  59.244  51.012  0.00  0.00    +0.000 C 
ENDBRANCH  31  32
ENDBRANCH  30  31
ENDBRANCH  28  30
ENDBRANCH   5  28
TORSDOF 6
ENDMDL
MODEL 8
REMARK VINA RESULT:      -7.4      3.435      5.129
REMARK  Name = 
REMARK  7 active torsions:
REMARK  status: ('A' for Active; 'I' for Inactive)
REMARK    1  A    between atoms: C_6  and  C_10
REMARK    2  A    between atoms: C_14  and  O_18
REMARK    3  A    between atoms: N_17  and  N_20
REMARK    4  A    between atoms: N_20  and  C_23
REMARK    5  A    between atoms: C_23  and  C_26
REMARK    6  A    between atoms: C_26  and  C_28
REMARK    7  A    between atoms: C_28  and  C_29
REMARK                            x       y       z     vdW  Elec       q    Type
REMARK                         _______ _______ _______ _____ _____    ______ ____
ROOT
ATOM      1  C   UNL     1     -11.747  55.854  48.755  0.00  0.00    +0.000 A 
ATOM      2  C   UNL     1     -10.747  55.143  49.605  0.00  0.00    +0.000 A 
ATOM      3  C   UNL     1     -11.866  55.558  47.450  0.00  0.00    +0.000 A 
ATOM      4  O   UNL     1     -10.661  55.494  50.786  0.00  0.00    +0.000 OA
ATOM      5  N   UNL     1      -9.994  54.118  49.023  0.00  0.00    +0.000 N 
ATOM      6  C   UNL     1     -11.046  54.497  46.848  0.00  0.00    +0.000 A 
ATOM      7  C   UNL     1     -10.120  53.792  47.638  0.00  0.00    +0.000 A 
ATOM      8  C   UNL     1     -11.187  54.167  45.488  0.00  0.00    +0.000 A 
ATOM      9  C   UNL     1      -9.345  52.781  47.043  0.00  0.00    +0.000 A 
ATOM     10  C   UNL     1     -10.423  53.151  44.914  0.00  0.00    +0.000 A 
ATOM     11  C   UNL     1      -9.499  52.463  45.691  0.00  0.00    +0.000 A 
ENDROOT
BRANCH   1  17
ATOM     12  S   UNL     1     -13.601  59.239  49.494  0.00  0.00    +0.000 S 
ATOM     13  O   UNL     1     -14.735  59.453  48.622  0.00  0.00    +0.000 OA
ATOM     14  O   UNL     1     -12.715  60.342  49.812  0.00  0.00    +0.000 OA
ATOM     15  N   UNL     1     -12.706  58.050  48.855  0.00  0.00    +0.000 N 
ATOM     16  C   UNL     1     -14.255  58.683  51.024  0.00  0.00    +0.000 A 
ATOM     17  C   UNL     1     -12.656  56.875  49.413  0.00  0.00    +0.000 C 
ATOM     18  C   UNL     1     -14.040  57.360  51.376  0.00  0.00    +0.000 A 
ATOM     19  C   UNL     1     -14.953  59.568  51.850  0.00  0.00    +0.000 A 
ATOM     20  N   UNL     1     -13.351  56.487  50.538  0.00  0.00    +0.000 N 
ATOM     21  C   UNL     1     -14.613  56.890  52.563  0.00  0.00    +0.000 A 
ATOM     22  C   UNL     1     -15.488  59.095  53.047  0.00  0.00    +0.000 A 
ATOM     23  C   UNL     1     -15.327  57.755  53.398  0.00  0.00    +0.000 A 
ATOM     24  H   UNL     1     -12.192  58.218  48.032  0.00  0.00    +0.000 HD
ATOM     25  H   UNL     1     -13.360  55.529  50.765  0.00  0.00    +0.000 HD
ENDBRANCH   1  17
BRANCH   3  26
ATOM     26  O   UNL     1     -12.754  56.175  46.588  0.00  0.00    +0.000 OA
ATOM     27  H   UNL     1     -12.620  56.125  45.661  0.00  0.00    +0.000 HD
ENDBRANCH   3  26
BRANCH   5  28
ATOM     28  N   UNL     1      -8.981  53.430  49.787  0.00  0.00    +0.000 N 
ATOM     29  H   UNL     1      -9.101  52.517  50.133  0.00  0.00    +0.000 HD
BRANCH  28  30
ATOM     30  C   UNL     1      -7.754  54.212  50.001  0.00  0.00    +0.000 C 
BRANCH  30  31
ATOM     31  C   UNL     1      -7.388  54.295  51.486  0.00  0.00    +0.000 C 
BRANCH  31  32
ATOM     32  C   UNL     1      -7.328  55.762  51.927  0.00  0.00    +0.000 C 
ATOM     33  C   UNL     1      -7.527  56.718  50.764  0.00  0.00    +0.000 C 
ENDBRANCH  31  32
ENDBRANCH  30  31
ENDBRANCH  28  30
ENDBRANCH   5  28
TORSDOF 6
ENDMDL
MODEL 9
REMARK VINA RESULT:      -7.4      1.649      2.399
REMARK  Name = 
REMARK  7 active torsions:
REMARK  status: ('A' for Active; 'I' for Inactive)
REMARK    1  A    between atoms: C_6  and  C_10
REMARK    2  A    between atoms: C_14  and  O_18
REMARK    3  A    between atoms: N_17  and  N_20
REMARK    4  A    between atoms: N_20  and  C_23
REMARK    5  A    between atoms: C_23  and  C_26
REMARK    6  A    between atoms: C_26  and  C_28
REMARK    7  A    between atoms: C_28  and  C_29
REMARK                            x       y       z     vdW  Elec       q    Type
REMARK                         _______ _______ _______ _____ _____    ______ ____
ROOT
ATOM      1  C   UNL     1     -10.132  54.571  52.150  0.00  0.00    +0.000 A 
ATOM      2  C   UNL     1      -8.742  55.112  52.096  0.00  0.00    +0.000 A 
ATOM      3  C   UNL     1     -10.401  53.453  52.844  0.00  0.00    +0.000 A 
ATOM      4  O   UNL     1      -8.556  56.120  51.406  0.00  0.00    +0.000 OA
ATOM      5  N   UNL     1      -7.751  54.466  52.842  0.00  0.00    +0.000 N 
ATOM      6  C   UNL     1      -9.341  52.770  53.600  0.00  0.00    +0.000 A 
ATOM      7  C   UNL     1      -8.031  53.280  53.590  0.00  0.00    +0.000 A 
ATOM      8  C   UNL     1      -9.626  51.614  54.348  0.00  0.00    +0.000 A 
ATOM      9  C   UNL     1      -7.033  52.613  54.318  0.00  0.00    +0.000 A 
ATOM     10  C   UNL     1      -8.630  50.970  55.080  0.00  0.00    +0.000 A 
ATOM     11  C   UNL     1      -7.333  51.467  55.060  0.00  0.00    +0.000 A 
ENDROOT
BRANCH   1  17
ATOM     12  S   UNL     1     -13.484  56.532  51.550  0.00  0.00    +0.000 S 
ATOM     13  O   UNL     1     -13.406  57.910  51.982  0.00  0.00    +0.000 OA
ATOM     14  O   UNL     1     -14.679  55.756  51.816  0.00  0.00    +0.000 OA
ATOM     15  N   UNL     1     -12.224  55.742  52.192  0.00  0.00    +0.000 N 
ATOM     16  C   UNL     1     -13.296  56.552  49.805  0.00  0.00    +0.000 A 
ATOM     17  C   UNL     1     -11.233  55.343  51.448  0.00  0.00    +0.000 C 
ATOM     18  C   UNL     1     -12.119  56.048  49.275  0.00  0.00    +0.000 A 
ATOM     19  C   UNL     1     -14.320  57.054  48.997  0.00  0.00    +0.000 A 
ATOM     20  N   UNL     1     -11.103  55.561  50.094  0.00  0.00    +0.000 N 
ATOM     21  C   UNL     1     -11.934  56.120  47.891  0.00  0.00    +0.000 A 
ATOM     22  C   UNL     1     -14.136  57.086  47.616  0.00  0.00    +0.000 A 
ATOM     23  C   UNL     1     -12.940  56.630  47.064  0.00  0.00    +0.000 A 
ATOM     24  H   UNL     1     -12.207  55.561  53.160  0.00  0.00    +0.000 HD
ATOM     25  H   UNL     1     -10.235  55.359  49.676  0.00  0.00    +0.000 HD
ENDBRANCH   1  17
BRANCH   3  26
ATOM     26  O   UNL     1     -11.655  52.875  52.936  0.00  0.00    +0.000 OA
ATOM     27  H   UNL     1     -12.398  53.306  52.560  0.00  0.00    +0.000 HD
ENDBRANCH   3  26
BRANCH   5  28
ATOM     28  N   UNL     1      -6.382  54.920  52.790  0.00  0.00    +0.000 N 
ATOM     29  H   UNL     1      -5.983  55.495  53.482  0.00  0.00    +0.000 HD
BRANCH  28  30
ATOM     30  C   UNL     1      -5.636  54.448  51.614  0.00  0.00    +0.000 C 
BRANCH  30  31
ATOM     31  C   UNL     1      -4.220  53.999  51.985  0.00  0.00    +0.000 C 
BRANCH  31  32
ATOM     32  C   UNL     1      -3.866  52.711  51.232  0.00  0.00    +0.000 C 
ATOM     33  C   UNL     1      -4.805  51.569  51.581  0.00  0.00    +0.000 C 
ENDBRANCH  31  32
ENDBRANCH  30  31
ENDBRANCH  28  30
ENDBRANCH   5  28
TORSDOF 6
ENDMDL
