MODEL 1
REMARK VINA RESULT:      -9.3      0.000      0.000
REMARK  Name = 
REMARK  6 active torsions:
REMARK  status: ('A' for Active; 'I' for Inactive)
REMARK    1  A    between atoms: C_6  and  C_10
REMARK    2  A    between atoms: C_14  and  O_18
REMARK    3  A    between atoms: N_17  and  N_20
REMARK    4  A    between atoms: N_20  and  C_23
REMARK    5  A    between atoms: C_23  and  C_26
REMARK    6  A    between atoms: C_30  and  C_33
REMARK                            x       y       z     vdW  Elec       q    Type
REMARK                         _______ _______ _______ _____ _____    ______ ____
ROOT
ATOM      1  C   UNL     1      -9.216  54.117  49.596  0.00  0.00    +0.000 A 
ATOM      2  C   UNL     1     -10.195  55.240  49.506  0.00  0.00    +0.000 A 
ATOM      3  C   UNL     1      -9.096  53.237  48.588  0.00  0.00    +0.000 A 
ATOM      4  O   UNL     1     -10.285  55.999  50.477  0.00  0.00    +0.000 OA
ATOM      5  N   UNL     1     -10.927  55.381  48.326  0.00  0.00    +0.000 N 
ATOM      6  C   UNL     1      -9.896  53.388  47.363  0.00  0.00    +0.000 A 
ATOM      7  C   UNL     1     -10.800  54.457  47.246  0.00  0.00    +0.000 A 
ATOM      8  C   UNL     1      -9.752  52.484  46.296  0.00  0.00    +0.000 A 
ATOM      9  C   UNL     1     -11.550  54.594  46.066  0.00  0.00    +0.000 A 
ATOM     10  C   UNL     1     -10.489  52.641  45.123  0.00  0.00    +0.000 A 
ATOM     11  C   UNL     1     -11.389  53.695  45.009  0.00  0.00    +0.000 A 
ENDROOT
BRANCH   1  17
ATOM     12  S   UNL     1      -8.075  54.030  53.353  0.00  0.00    +0.000 S 
ATOM     13  O   UNL     1      -8.286  52.731  53.962  0.00  0.00    +0.000 OA
ATOM     14  O   UNL     1      -8.372  55.244  54.089  0.00  0.00    +0.000 OA
ATOM     15  N   UNL     1      -8.922  54.064  51.972  0.00  0.00    +0.000 N 
ATOM     16  C   UNL     1      -6.366  54.108  52.955  0.00  0.00    +0.000 A 
ATOM     17  C   UNL     1      -8.323  54.034  50.818  0.00  0.00    +0.000 C 
ATOM     18  C   UNL     1      -6.007  54.069  51.618  0.00  0.00    +0.000 A 
ATOM     19  C   UNL     1      -5.418  54.223  53.975  0.00  0.00    +0.000 A 
ATOM     20  N   UNL     1      -6.962  53.940  50.614  0.00  0.00    +0.000 N 
ATOM     21  C   UNL     1      -4.645  54.070  51.300  0.00  0.00    +0.000 A 
ATOM     22  C   UNL     1      -4.066  54.262  53.641  0.00  0.00    +0.000 A 
ATOM     23  C   UNL     1      -3.680  54.177  52.305  0.00  0.00    +0.000 A 
ATOM     24  H   UNL     1      -9.905  54.109  52.006  0.00  0.00    +0.000 HD
ATOM     25  H   UNL     1      -6.646  53.772  49.697  0.00  0.00    +0.000 HD
ENDBRANCH   1  17
BRANCH   3  26
ATOM     26  O   UNL     1      -8.219  52.167  48.587  0.00  0.00    +0.000 OA
ATOM     27  H   UNL     1      -7.883  51.836  49.397  0.00  0.00    +0.000 HD
ENDBRANCH   3  26
BRANCH   5  28
ATOM     28  N   UNL     1     -11.921  56.405  48.209  0.00  0.00    +0.000 N 
ATOM     29  H   UNL     1     -11.751  57.256  47.742  0.00  0.00    +0.000 HD
BRANCH  28  30
ATOM     30  C   UNL     1     -13.213  56.098  48.836  0.00  0.00    +0.000 C 
BRANCH  30  31
ATOM     31  C   UNL     1     -13.697  57.273  49.649  0.00  0.00    +0.000 A 
ATOM     32  C   UNL     1     -14.106  57.088  50.982  0.00  0.00    +0.000 A 
ATOM     33  C   UNL     1     -13.783  58.546  49.078  0.00  0.00    +0.000 A 
ATOM     34  C   UNL     1     -14.599  58.158  51.736  0.00  0.00    +0.000 A 
ATOM     35  C   UNL     1     -14.267  59.617  49.826  0.00  0.00    +0.000 A 
ATOM     36  C   UNL     1     -14.678  59.424  51.145  0.00  0.00    +0.000 A 
ATOM     37  C   UNL     1     -15.084  57.949  53.139  0.00  0.00    +0.000 C 
ENDBRANCH  30  31
ENDBRANCH  28  30
ENDBRANCH   5  28
TORSDOF 5
ENDMDL
MODEL 2
REMARK VINA RESULT:      -9.0      1.457      1.985
REMARK  Name = 
REMARK  6 active torsions:
REMARK  status: ('A' for Active; 'I' for Inactive)
REMARK    1  A    between atoms: C_6  and  C_10
REMARK    2  A    between atoms: C_14  and  O_18
REMARK    3  A    between atoms: N_17  and  N_20
REMARK    4  A    between atoms: N_20  and  C_23
REMARK    5  A    between atoms: C_23  and  C_26
REMARK    6  A    between atoms: C_30  and  C_33
REMARK                            x       y       z     vdW  Elec       q    Type
REMARK                         _______ _______ _______ _____ _____    ______ ____
ROOT
ATOM      1  C   UNL     1      -9.524  54.053  49.629  0.00  0.00    +0.000 A 
ATOM      2  C   UNL     1     -10.462  55.205  49.490  0.00  0.00    +0.000 A 
ATOM      3  C   UNL     1      -9.380  53.168  48.627  0.00  0.00    +0.000 A 
ATOM      4  O   UNL     1     -10.578  55.967  50.456  0.00  0.00    +0.000 OA
ATOM      5  N   UNL     1     -11.129  55.368  48.275  0.00  0.00    +0.000 N 
ATOM      6  C   UNL     1     -10.111  53.343  47.363  0.00  0.00    +0.000 A 
ATOM      7  C   UNL     1     -10.976  54.440  47.202  0.00  0.00    +0.000 A 
ATOM      8  C   UNL     1      -9.942  52.435  46.304  0.00  0.00    +0.000 A 
ATOM      9  C   UNL     1     -11.660  54.599  45.986  0.00  0.00    +0.000 A 
ATOM     10  C   UNL     1     -10.613  52.614  45.095  0.00  0.00    +0.000 A 
ATOM     11  C   UNL     1     -11.473  53.695  44.937  0.00  0.00    +0.000 A 
ENDROOT
BRANCH   1  17
ATOM     12  S   UNL     1      -6.731  54.742  52.302  0.00  0.00    +0.000 S 
ATOM     13  O   UNL     1      -7.026  55.903  53.120  0.00  0.00    +0.000 OA
ATOM     14  O   UNL     1      -5.383  54.504  51.823  0.00  0.00    +0.000 OA
ATOM     15  N   UNL     1      -7.716  54.788  51.017  0.00  0.00    +0.000 N 
ATOM     16  C   UNL     1      -7.156  53.342  53.274  0.00  0.00    +0.000 A 
ATOM     17  C   UNL     1      -8.697  53.943  50.895  0.00  0.00    +0.000 C 
ATOM     18  C   UNL     1      -8.264  52.602  52.899  0.00  0.00    +0.000 A 
ATOM     19  C   UNL     1      -6.372  52.997  54.378  0.00  0.00    +0.000 A 
ATOM     20  N   UNL     1      -9.042  52.965  51.804  0.00  0.00    +0.000 N 
ATOM     21  C   UNL     1      -8.640  51.522  53.705  0.00  0.00    +0.000 A 
ATOM     22  C   UNL     1      -6.737  51.896  55.150  0.00  0.00    +0.000 A 
ATOM     23  C   UNL     1      -7.876  51.164  54.818  0.00  0.00    +0.000 A 
ATOM     24  H   UNL     1      -7.570  55.465  50.317  0.00  0.00    +0.000 HD
ATOM     25  H   UNL     1      -9.895  52.493  51.669  0.00  0.00    +0.000 HD
ENDBRANCH   1  17
BRANCH   3  26
ATOM     26  O   UNL     1      -8.537  52.073  48.670  0.00  0.00    +0.000 OA
ATOM     27  H   UNL     1      -7.803  52.068  49.253  0.00  0.00    +0.000 HD
ENDBRANCH   3  26
BRANCH   5  28
ATOM     28  N   UNL     1     -12.083  56.422  48.109  0.00  0.00    +0.000 N 
ATOM     29  H   UNL     1     -11.872  57.255  47.626  0.00  0.00    +0.000 HD
BRANCH  28  30
ATOM     30  C   UNL     1     -13.400  56.174  48.710  0.00  0.00    +0.000 C 
BRANCH  30  31
ATOM     31  C   UNL     1     -13.805  57.333  49.587  0.00  0.00    +0.000 A 
ATOM     32  C   UNL     1     -14.199  57.107  50.918  0.00  0.00    +0.000 A 
ATOM     33  C   UNL     1     -13.834  58.635  49.077  0.00  0.00    +0.000 A 
ATOM     34  C   UNL     1     -14.620  58.165  51.730  0.00  0.00    +0.000 A 
ATOM     35  C   UNL     1     -14.246  59.693  49.884  0.00  0.00    +0.000 A 
ATOM     36  C   UNL     1     -14.642  59.460  51.201  0.00  0.00    +0.000 A 
ATOM     37  C   UNL     1     -15.090  57.915  53.133  0.00  0.00    +0.000 C 
ENDBRANCH  30  31
ENDBRANCH  28  30
ENDBRANCH   5  28
TORSDOF 5
ENDMDL
MODEL 3
REMARK VINA RESULT:      -8.9      2.083      5.838
REMARK  Name = 
REMARK  6 active torsions:
REMARK  status: ('A' for Active; 'I' for Inactive)
REMARK    1  A    between atoms: C_6  and  C_10
REMARK    2  A    between atoms: C_14  and  O_18
REMARK    3  A    between atoms: N_17  and  N_20
REMARK    4  A    between atoms: N_20  and  C_23
REMARK    5  A    between atoms: C_23  and  C_26
REMARK    6  A    between atoms: C_30  and  C_33
REMARK                            x       y       z     vdW  Elec       q    Type
REMARK                         _______ _______ _______ _____ _____    ______ ____
ROOT
ATOM      1  C   UNL     1     -10.448  55.277  51.038  0.00  0.00    +0.000 A 
ATOM      2  C   UNL     1     -10.177  55.234  49.571  0.00  0.00    +0.000 A 
ATOM      3  C   UNL     1     -11.624  55.736  51.499  0.00  0.00    +0.000 A 
ATOM      4  O   UNL     1      -9.066  54.833  49.207  0.00  0.00    +0.000 OA
ATOM      5  N   UNL     1     -11.198  55.621  48.702  0.00  0.00    +0.000 N 
ATOM      6  C   UNL     1     -12.678  56.163  50.567  0.00  0.00    +0.000 A 
ATOM      7  C   UNL     1     -12.454  56.100  49.181  0.00  0.00    +0.000 A 
ATOM      8  C   UNL     1     -13.919  56.618  51.046  0.00  0.00    +0.000 A 
ATOM      9  C   UNL     1     -13.474  56.503  48.304  0.00  0.00    +0.000 A 
ATOM     10  C   UNL     1     -14.930  56.997  50.164  0.00  0.00    +0.000 A 
ATOM     11  C   UNL     1     -14.706  56.941  48.794  0.00  0.00    +0.000 A 
ENDROOT
BRANCH   1  17
ATOM     12  S   UNL     1      -7.021  54.830  52.904  0.00  0.00    +0.000 S 
ATOM     13  O   UNL     1      -6.840  55.805  53.963  0.00  0.00    +0.000 OA
ATOM     14  O   UNL     1      -5.916  54.477  52.034  0.00  0.00    +0.000 OA
ATOM     15  N   UNL     1      -8.244  55.344  51.973  0.00  0.00    +0.000 N 
ATOM     16  C   UNL     1      -7.515  53.341  53.693  0.00  0.00    +0.000 A 
ATOM     17  C   UNL     1      -9.394  54.735  51.983  0.00  0.00    +0.000 C 
ATOM     18  C   UNL     1      -8.820  52.913  53.517  0.00  0.00    +0.000 A 
ATOM     19  C   UNL     1      -6.593  52.619  54.456  0.00  0.00    +0.000 A 
ATOM     20  N   UNL     1      -9.729  53.650  52.765  0.00  0.00    +0.000 N 
ATOM     21  C   UNL     1      -9.233  51.761  54.193  0.00  0.00    +0.000 A 
ATOM     22  C   UNL     1      -7.009  51.451  55.092  0.00  0.00    +0.000 A 
ATOM     23  C   UNL     1      -8.330  51.027  54.967  0.00  0.00    +0.000 A 
ATOM     24  H   UNL     1      -8.116  56.127  51.392  0.00  0.00    +0.000 HD
ATOM     25  H   UNL     1     -10.675  53.379  52.792  0.00  0.00    +0.000 HD
ENDBRANCH   1  17
BRANCH   3  26
ATOM     26  O   UNL     1     -11.958  55.814  52.839  0.00  0.00    +0.000 OA
ATOM     27  H   UNL     1     -12.636  55.267  53.186  0.00  0.00    +0.000 HD
ENDBRANCH   3  26
BRANCH   5  28
ATOM     28  N   UNL     1     -10.972  55.653  47.288  0.00  0.00    +0.000 N 
ATOM     29  H   UNL     1     -10.500  56.396  46.845  0.00  0.00    +0.000 HD
BRANCH  28  30
ATOM     30  C   UNL     1     -11.493  54.499  46.545  0.00  0.00    +0.000 C 
BRANCH  30  31
ATOM     31  C   UNL     1     -10.451  53.974  45.588  0.00  0.00    +0.000 A 
ATOM     32  C   UNL     1     -10.805  53.032  44.606  0.00  0.00    +0.000 A 
ATOM     33  C   UNL     1      -9.119  54.385  45.693  0.00  0.00    +0.000 A 
ATOM     34  C   UNL     1      -9.842  52.502  43.741  0.00  0.00    +0.000 A 
ATOM     35  C   UNL     1      -8.156  53.866  44.828  0.00  0.00    +0.000 A 
ATOM     36  C   UNL     1      -8.514  52.926  43.862  0.00  0.00    +0.000 A 
ATOM     37  C   UNL     1     -10.212  51.458  42.729  0.00  0.00    +0.000 C 
ENDBRANCH  30  31
ENDBRANCH  28  30
ENDBRANCH   5  28
TORSDOF 5
ENDMDL
MODEL 4
REMARK VINA RESULT:      -8.9      2.474      7.436
REMARK  Name = 
REMARK  6 active torsions:
REMARK  status: ('A' for Active; 'I' for Inactive)
REMARK    1  A    between atoms: C_6  and  C_10
REMARK    2  A    between atoms: C_14  and  O_18
REMARK    3  A    between atoms: N_17  and  N_20
REMARK    4  A    between atoms: N_20  and  C_23
REMARK    5  A    between atoms: C_23  and  C_26
REMARK    6  A    between atoms: C_30  and  C_33
REMARK                            x       y       z     vdW  Elec       q    Type
REMARK                         _______ _______ _______ _____ _____    ______ ____
ROOT
ATOM      1  C   UNL     1     -11.392  56.153  48.734  0.00  0.00    +0.000 A 
ATOM      2  C   UNL     1     -10.202  55.724  49.527  0.00  0.00    +0.000 A 
ATOM      3  C   UNL     1     -11.583  55.686  47.489  0.00  0.00    +0.000 A 
ATOM      4  O   UNL     1     -10.060  56.212  50.653  0.00  0.00    +0.000 OA
ATOM      5  N   UNL     1      -9.341  54.783  48.963  0.00  0.00    +0.000 N 
ATOM      6  C   UNL     1     -10.650  54.713  46.902  0.00  0.00    +0.000 A 
ATOM      7  C   UNL     1      -9.541  54.273  47.645  0.00  0.00    +0.000 A 
ATOM      8  C   UNL     1     -10.863  54.202  45.610  0.00  0.00    +0.000 A 
ATOM      9  C   UNL     1      -8.663  53.336  47.075  0.00  0.00    +0.000 A 
ATOM     10  C   UNL     1      -9.995  53.259  45.063  0.00  0.00    +0.000 A 
ATOM     11  C   UNL     1      -8.894  52.828  45.794  0.00  0.00    +0.000 A 
ENDROOT
BRANCH   1  17
ATOM     12  S   UNL     1     -13.591  59.325  49.460  0.00  0.00    +0.000 S 
ATOM     13  O   UNL     1     -14.741  59.411  48.580  0.00  0.00    +0.000 OA
ATOM     14  O   UNL     1     -12.826  60.513  49.787  0.00  0.00    +0.000 OA
ATOM     15  N   UNL     1     -12.574  58.234  48.827  0.00  0.00    +0.000 N 
ATOM     16  C   UNL     1     -14.194  58.699  50.987  0.00  0.00    +0.000 A 
ATOM     17  C   UNL     1     -12.402  57.074  49.390  0.00  0.00    +0.000 C 
ATOM     18  C   UNL     1     -13.836  57.411  51.347  0.00  0.00    +0.000 A 
ATOM     19  C   UNL     1     -14.994  59.503  51.802  0.00  0.00    +0.000 A 
ATOM     20  N   UNL     1     -13.049  56.617  50.519  0.00  0.00    +0.000 N 
ATOM     21  C   UNL     1     -14.363  56.888  52.533  0.00  0.00    +0.000 A 
ATOM     22  C   UNL     1     -15.480  58.982  52.999  0.00  0.00    +0.000 A 
ATOM     23  C   UNL     1     -15.172  57.672  53.360  0.00  0.00    +0.000 A 
ATOM     24  H   UNL     1     -12.077  58.452  48.007  0.00  0.00    +0.000 HD
ATOM     25  H   UNL     1     -12.946  55.667  50.754  0.00  0.00    +0.000 HD
ENDBRANCH   1  17
BRANCH   3  26
ATOM     26  O   UNL     1     -12.654  56.031  46.683  0.00  0.00    +0.000 OA
ATOM     27  H   UNL     1     -13.049  55.388  46.127  0.00  0.00    +0.000 HD
ENDBRANCH   3  26
BRANCH   5  28
ATOM     28  N   UNL     1      -8.154  54.380  49.656  0.00  0.00    +0.000 N 
ATOM     29  H   UNL     1      -7.251  54.604  49.333  0.00  0.00    +0.000 HD
BRANCH  28  30
ATOM     30  C   UNL     1      -8.380  53.608  50.885  0.00  0.00    +0.000 C 
BRANCH  30  31
ATOM     31  C   UNL     1      -7.521  54.140  52.006  0.00  0.00    +0.000 A 
ATOM     32  C   UNL     1      -6.121  54.040  51.930  0.00  0.00    +0.000 A 
ATOM     33  C   UNL     1      -8.106  54.698  53.146  0.00  0.00    +0.000 A 
ATOM     34  C   UNL     1      -5.312  54.487  52.980  0.00  0.00    +0.000 A 
ATOM     35  C   UNL     1      -7.305  55.152  54.193  0.00  0.00    +0.000 A 
ATOM     36  C   UNL     1      -5.917  55.042  54.113  0.00  0.00    +0.000 A 
ATOM     37  C   UNL     1      -3.821  54.331  52.921  0.00  0.00    +0.000 C 
ENDBRANCH  30  31
ENDBRANCH  28  30
ENDBRANCH   5  28
TORSDOF 5
ENDMDL
MODEL 5
REMARK VINA RESULT:      -8.9      3.002      7.950
REMARK  Name = 
REMARK  6 active torsions:
REMARK  status: ('A' for Active; 'I' for Inactive)
REMARK    1  A    between atoms: C_6  and  C_10
REMARK    2  A    between atoms: C_14  and  O_18
REMARK    3  A    between atoms: N_17  and  N_20
REMARK    4  A    between atoms: N_20  and  C_23
REMARK    5  A    between atoms: C_23  and  C_26
REMARK    6  A    between atoms: C_30  and  C_33
REMARK                            x       y       z     vdW  Elec       q    Type
REMARK                         _______ _______ _______ _____ _____    ______ ____
ROOT
ATOM      1  C   UNL     1     -11.188  54.617  50.764  0.00  0.00    +0.000 A 
ATOM      2  C   UNL     1      -9.823  54.997  50.295  0.00  0.00    +0.000 A 
ATOM      3  C   UNL     1     -11.412  53.399  51.287  0.00  0.00    +0.000 A 
ATOM      4  O   UNL     1      -9.685  56.118  49.792  0.00  0.00    +0.000 OA
ATOM      5  N   UNL     1      -8.786  54.082  50.477  0.00  0.00    +0.000 N 
ATOM      6  C   UNL     1     -10.310  52.439  51.447  0.00  0.00    +0.000 A 
ATOM      7  C   UNL     1      -9.011  52.791  51.041  0.00  0.00    +0.000 A 
ATOM      8  C   UNL     1     -10.536  51.175  52.020  0.00  0.00    +0.000 A 
ATOM      9  C   UNL     1      -7.967  51.866  51.208  0.00  0.00    +0.000 A 
ATOM     10  C   UNL     1      -9.488  50.274  52.198  0.00  0.00    +0.000 A 
ATOM     11  C   UNL     1      -8.204  50.619  51.790  0.00  0.00    +0.000 A 
ENDROOT
BRANCH   1  17
ATOM     12  S   UNL     1     -13.727  57.230  49.299  0.00  0.00    +0.000 S 
ATOM     13  O   UNL     1     -14.885  56.596  48.698  0.00  0.00    +0.000 OA
ATOM     14  O   UNL     1     -13.099  58.370  48.659  0.00  0.00    +0.000 OA
ATOM     15  N   UNL     1     -12.597  56.087  49.504  0.00  0.00    +0.000 N 
ATOM     16  C   UNL     1     -14.245  57.786  50.883  0.00  0.00    +0.000 A 
ATOM     17  C   UNL     1     -12.292  55.653  50.691  0.00  0.00    +0.000 C 
ATOM     18  C   UNL     1     -13.742  57.135  51.997  0.00  0.00    +0.000 A 
ATOM     19  C   UNL     1     -15.126  58.865  50.989  0.00  0.00    +0.000 A 
ATOM     20  N   UNL     1     -12.875  56.053  51.875  0.00  0.00    +0.000 N 
ATOM     21  C   UNL     1     -14.198  57.535  53.257  0.00  0.00    +0.000 A 
ATOM     22  C   UNL     1     -15.542  59.278  52.252  0.00  0.00    +0.000 A 
ATOM     23  C   UNL     1     -15.085  58.607  53.385  0.00  0.00    +0.000 A 
ATOM     24  H   UNL     1     -12.133  55.717  48.719  0.00  0.00    +0.000 HD
ATOM     25  H   UNL     1     -12.664  55.539  52.688  0.00  0.00    +0.000 HD
ENDBRANCH   1  17
BRANCH   3  26
ATOM     26  O   UNL     1     -12.642  52.961  51.744  0.00  0.00    +0.000 OA
ATOM     27  H   UNL     1     -12.721  52.597  52.604  0.00  0.00    +0.000 HD
ENDBRANCH   3  26
BRANCH   5  28
ATOM     28  N   UNL     1      -7.470  54.374  49.993  0.00  0.00    +0.000 N 
ATOM     29  H   UNL     1      -7.061  53.882  49.244  0.00  0.00    +0.000 HD
BRANCH  28  30
ATOM     30  C   UNL     1      -6.773  55.460  50.694  0.00  0.00    +0.000 C 
BRANCH  30  31
ATOM     31  C   UNL     1      -6.327  55.004  52.061  0.00  0.00    +0.000 A 
ATOM     32  C   UNL     1      -5.193  54.184  52.196  0.00  0.00    +0.000 A 
ATOM     33  C   UNL     1      -7.056  55.356  53.201  0.00  0.00    +0.000 A 
ATOM     34  C   UNL     1      -4.792  53.716  53.451  0.00  0.00    +0.000 A 
ATOM     35  C   UNL     1      -6.657  54.899  54.455  0.00  0.00    +0.000 A 
ATOM     36  C   UNL     1      -5.535  54.079  54.580  0.00  0.00    +0.000 A 
ATOM     37  C   UNL     1      -3.613  52.798  53.588  0.00  0.00    +0.000 C 
ENDBRANCH  30  31
ENDBRANCH  28  30
ENDBRANCH   5  28
TORSDOF 5
ENDMDL
MODEL 6
REMARK VINA RESULT:      -8.9      2.556      3.359
REMARK  Name = 
REMARK  6 active torsions:
REMARK  status: ('A' for Active; 'I' for Inactive)
REMARK    1  A    between atoms: C_6  and  C_10
REMARK    2  A    between atoms: C_14  and  O_18
REMARK    3  A    between atoms: N_17  and  N_20
REMARK    4  A    between atoms: N_20  and  C_23
REMARK    5  A    between atoms: C_23  and  C_26
REMARK    6  A    between atoms: C_30  and  C_33
REMARK                            x       y       z     vdW  Elec       q    Type
REMARK                         _______ _______ _______ _____ _____    ______ ____
ROOT
ATOM      1  C   UNL     1      -8.150  53.667  50.974  0.00  0.00    +0.000 A 
ATOM      2  C   UNL     1      -9.219  54.707  50.926  0.00  0.00    +0.000 A 
ATOM      3  C   UNL     1      -7.537  53.270  49.846  0.00  0.00    +0.000 A 
ATOM      4  O   UNL     1      -9.770  55.008  51.991  0.00  0.00    +0.000 OA
ATOM      5  N   UNL     1      -9.512  55.294  49.695  0.00  0.00    +0.000 N 
ATOM      6  C   UNL     1      -7.878  53.882  48.554  0.00  0.00    +0.000 A 
ATOM      7  C   UNL     1      -8.859  54.886  48.493  0.00  0.00    +0.000 A 
ATOM      8  C   UNL     1      -7.218  53.488  47.376  0.00  0.00    +0.000 A 
ATOM      9  C   UNL     1      -9.167  55.468  47.252  0.00  0.00    +0.000 A 
ATOM     10  C   UNL     1      -7.520  54.087  46.154  0.00  0.00    +0.000 A 
ATOM     11  C   UNL     1      -8.496  55.075  46.092  0.00  0.00    +0.000 A 
ENDROOT
BRANCH   1  17
ATOM     12  S   UNL     1      -5.951  52.848  54.123  0.00  0.00    +0.000 S 
ATOM     13  O   UNL     1      -5.866  53.967  55.042  0.00  0.00    +0.000 OA
ATOM     14  O   UNL     1      -4.779  52.045  53.833  0.00  0.00    +0.000 OA
ATOM     15  N   UNL     1      -6.530  53.412  52.719  0.00  0.00    +0.000 N 
ATOM     16  C   UNL     1      -7.137  51.747  54.807  0.00  0.00    +0.000 A 
ATOM     17  C   UNL     1      -7.734  53.120  52.326  0.00  0.00    +0.000 C 
ATOM     18  C   UNL     1      -8.355  51.621  54.161  0.00  0.00    +0.000 A 
ATOM     19  C   UNL     1      -6.829  51.021  55.960  0.00  0.00    +0.000 A 
ATOM     20  N   UNL     1      -8.652  52.361  53.021  0.00  0.00    +0.000 N 
ATOM     21  C   UNL     1      -9.324  50.792  54.736  0.00  0.00    +0.000 A 
ATOM     22  C   UNL     1      -7.790  50.169  56.501  0.00  0.00    +0.000 A 
ATOM     23  C   UNL     1      -9.040  50.061  55.893  0.00  0.00    +0.000 A 
ATOM     24  H   UNL     1      -5.961  53.984  52.155  0.00  0.00    +0.000 HD
ATOM     25  H   UNL     1      -9.578  52.341  52.688  0.00  0.00    +0.000 HD
ENDBRANCH   1  17
BRANCH   3  26
ATOM     26  O   UNL     1      -6.540  52.312  49.797  0.00  0.00    +0.000 OA
ATOM     27  H   UNL     1      -6.194  51.953  50.591  0.00  0.00    +0.000 HD
ENDBRANCH   3  26
BRANCH   5  28
ATOM     28  N   UNL     1     -10.567  56.254  49.583  0.00  0.00    +0.000 N 
ATOM     29  H   UNL     1     -10.395  57.217  49.465  0.00  0.00    +0.000 HD
BRANCH  28  30
ATOM     30  C   UNL     1     -11.926  55.702  49.659  0.00  0.00    +0.000 C 
BRANCH  30  31
ATOM     31  C   UNL     1     -12.828  56.628  50.437  0.00  0.00    +0.000 A 
ATOM     32  C   UNL     1     -13.319  57.802  49.839  0.00  0.00    +0.000 A 
ATOM     33  C   UNL     1     -13.152  56.352  51.769  0.00  0.00    +0.000 A 
ATOM     34  C   UNL     1     -14.120  58.694  50.560  0.00  0.00    +0.000 A 
ATOM     35  C   UNL     1     -13.955  57.233  52.490  0.00  0.00    +0.000 A 
ATOM     36  C   UNL     1     -14.432  58.400  51.892  0.00  0.00    +0.000 A 
ATOM     37  C   UNL     1     -14.599  59.971  49.937  0.00  0.00    +0.000 C 
ENDBRANCH  30  31
ENDBRANCH  28  30
ENDBRANCH   5  28
TORSDOF 5
ENDMDL
MODEL 7
REMARK VINA RESULT:      -8.7      3.200      8.338
REMARK  Name = 
REMARK  6 active torsions:
REMARK  status: ('A' for Active; 'I' for Inactive)
REMARK    1  A    between atoms: C_6  and  C_10
REMARK    2  A    between atoms: C_14  and  O_18
REMARK    3  A    between atoms: N_17  and  N_20
REMARK    4  A    between atoms: N_20  and  C_23
REMARK    5  A    between atoms: C_23  and  C_26
REMARK    6  A    between atoms: C_30  and  C_33
REMARK                            x       y       z     vdW  Elec       q    Type
REMARK                         _______ _______ _______ _____ _____    ______ ____
ROOT
ATOM      1  C   UNL     1     -11.334  53.967  51.580  0.00  0.00    +0.000 A 
ATOM      2  C   UNL     1     -10.359  54.155  52.695  0.00  0.00    +0.000 A 
ATOM      3  C   UNL     1     -11.470  52.766  50.992  0.00  0.00    +0.000 A 
ATOM      4  O   UNL     1     -10.253  55.289  53.175  0.00  0.00    +0.000 OA
ATOM      5  N   UNL     1      -9.651  53.040  53.145  0.00  0.00    +0.000 N 
ATOM      6  C   UNL     1     -10.696  51.609  51.464  0.00  0.00    +0.000 A 
ATOM      7  C   UNL     1      -9.796  51.759  52.534  0.00  0.00    +0.000 A 
ATOM      8  C   UNL     1     -10.857  50.346  50.869  0.00  0.00    +0.000 A 
ATOM      9  C   UNL     1      -9.070  50.642  52.979  0.00  0.00    +0.000 A 
ATOM     10  C   UNL     1     -10.144  49.241  51.333  0.00  0.00    +0.000 A 
ATOM     11  C   UNL     1      -9.249  49.391  52.386  0.00  0.00    +0.000 A 
ENDROOT
BRANCH   1  17
ATOM     12  S   UNL     1     -12.957  56.792  49.389  0.00  0.00    +0.000 S 
ATOM     13  O   UNL     1     -14.003  56.285  48.522  0.00  0.00    +0.000 OA
ATOM     14  O   UNL     1     -12.012  57.778  48.900  0.00  0.00    +0.000 OA
ATOM     15  N   UNL     1     -12.115  55.520  49.934  0.00  0.00    +0.000 N 
ATOM     16  C   UNL     1     -13.775  57.539  50.753  0.00  0.00    +0.000 A 
ATOM     17  C   UNL     1     -12.202  55.141  51.175  0.00  0.00    +0.000 C 
ATOM     18  C   UNL     1     -13.689  56.912  51.984  0.00  0.00    +0.000 A 
ATOM     19  C   UNL     1     -14.471  58.737  50.576  0.00  0.00    +0.000 A 
ATOM     20  N   UNL     1     -13.003  55.712  52.141  0.00  0.00    +0.000 N 
ATOM     21  C   UNL     1     -14.389  57.471  53.059  0.00  0.00    +0.000 A 
ATOM     22  C   UNL     1     -15.132  59.303  51.664  0.00  0.00    +0.000 A 
ATOM     23  C   UNL     1     -15.098  58.665  52.903  0.00  0.00    +0.000 A 
ATOM     24  H   UNL     1     -11.527  55.027  49.317  0.00  0.00    +0.000 HD
ATOM     25  H   UNL     1     -13.095  55.238  52.999  0.00  0.00    +0.000 HD
ENDBRANCH   1  17
BRANCH   3  26
ATOM     26  O   UNL     1     -12.345  52.502  49.953  0.00  0.00    +0.000 OA
ATOM     27  H   UNL     1     -12.843  51.708  49.950  0.00  0.00    +0.000 HD
ENDBRANCH   3  26
BRANCH   5  28
ATOM     28  N   UNL     1      -8.663  53.177  54.172  0.00  0.00    +0.000 N 
ATOM     29  H   UNL     1      -8.744  52.730  55.046  0.00  0.00    +0.000 HD
BRANCH  28  30
ATOM     30  C   UNL     1      -7.519  54.032  53.829  0.00  0.00    +0.000 C 
BRANCH  30  31
ATOM     31  C   UNL     1      -6.405  53.208  53.233  0.00  0.00    +0.000 A 
ATOM     32  C   UNL     1      -5.950  53.474  51.930  0.00  0.00    +0.000 A 
ATOM     33  C   UNL     1      -5.842  52.148  53.951  0.00  0.00    +0.000 A 
ATOM     34  C   UNL     1      -4.950  52.691  51.345  0.00  0.00    +0.000 A 
ATOM     35  C   UNL     1      -4.840  51.368  53.376  0.00  0.00    +0.000 A 
ATOM     36  C   UNL     1      -4.400  51.634  52.079  0.00  0.00    +0.000 A 
ATOM     37  C   UNL     1      -4.503  52.942  49.935  0.00  0.00    +0.000 C 
ENDBRANCH  30  31
ENDBRANCH  28  30
ENDBRANCH   5  28
TORSDOF 5
ENDMDL
MODEL 8
REMARK VINA RESULT:      -8.7      2.626      7.449
REMARK  Name = 
REMARK  6 active torsions:
REMARK  status: ('A' for Active; 'I' for Inactive)
REMARK    1  A    between atoms: C_6  and  C_10
REMARK    2  A    between atoms: C_14  and  O_18
REMARK    3  A    between atoms: N_17  and  N_20
REMARK    4  A    between atoms: N_20  and  C_23
REMARK    5  A    between atoms: C_23  and  C_26
REMARK    6  A    between atoms: C_30  and  C_33
REMARK                            x       y       z     vdW  Elec       q    Type
REMARK                         _______ _______ _______ _____ _____    ______ ____
ROOT
ATOM      1  C   UNL     1     -11.239  54.516  48.405  0.00  0.00    +0.000 A 
ATOM      2  C   UNL     1     -10.919  54.096  49.800  0.00  0.00    +0.000 A 
ATOM      3  C   UNL     1     -12.228  55.396  48.170  0.00  0.00    +0.000 A 
ATOM      4  O   UNL     1     -10.022  53.259  49.953  0.00  0.00    +0.000 OA
ATOM      5  N   UNL     1     -11.628  54.689  50.845  0.00  0.00    +0.000 N 
ATOM      6  C   UNL     1     -12.981  55.991  49.284  0.00  0.00    +0.000 A 
ATOM      7  C   UNL     1     -12.673  55.631  50.607  0.00  0.00    +0.000 A 
ATOM      8  C   UNL     1     -13.997  56.932  49.042  0.00  0.00    +0.000 A 
ATOM      9  C   UNL     1     -13.394  56.215  51.661  0.00  0.00    +0.000 A 
ATOM     10  C   UNL     1     -14.693  57.518  50.098  0.00  0.00    +0.000 A 
ATOM     11  C   UNL     1     -14.393  57.158  51.407  0.00  0.00    +0.000 A 
ENDROOT
BRANCH   1  17
ATOM     12  S   UNL     1      -8.163  53.943  46.032  0.00  0.00    +0.000 S 
ATOM     13  O   UNL     1      -7.178  53.052  46.613  0.00  0.00    +0.000 OA
ATOM     14  O   UNL     1      -7.746  55.129  45.309  0.00  0.00    +0.000 OA
ATOM     15  N   UNL     1      -9.161  54.409  47.220  0.00  0.00    +0.000 N 
ATOM     16  C   UNL     1      -9.080  52.974  44.889  0.00  0.00    +0.000 A 
ATOM     17  C   UNL     1     -10.386  53.977  47.274  0.00  0.00    +0.000 C 
ATOM     18  C   UNL     1     -10.393  52.668  45.202  0.00  0.00    +0.000 A 
ATOM     19  C   UNL     1      -8.484  52.552  43.698  0.00  0.00    +0.000 A 
ATOM     20  N   UNL     1     -10.970  53.085  46.399  0.00  0.00    +0.000 N 
ATOM     21  C   UNL     1     -11.107  51.847  44.324  0.00  0.00    +0.000 A 
ATOM     22  C   UNL     1      -9.219  51.766  42.814  0.00  0.00    +0.000 A 
ATOM     23  C   UNL     1     -10.528  51.407  43.131  0.00  0.00    +0.000 A 
ATOM     24  H   UNL     1      -8.835  55.029  47.912  0.00  0.00    +0.000 HD
ATOM     25  H   UNL     1     -11.853  52.720  46.636  0.00  0.00    +0.000 HD
ENDBRANCH   1  17
BRANCH   3  26
ATOM     26  O   UNL     1     -12.594  55.838  46.912  0.00  0.00    +0.000 OA
ATOM     27  H   UNL     1     -12.566  55.251  46.181  0.00  0.00    +0.000 HD
ENDBRANCH   3  26
BRANCH   5  28
ATOM     28  N   UNL     1     -11.400  54.280  52.199  0.00  0.00    +0.000 N 
ATOM     29  H   UNL     1     -11.860  53.508  52.602  0.00  0.00    +0.000 HD
BRANCH  28  30
ATOM     30  C   UNL     1     -10.430  55.093  52.943  0.00  0.00    +0.000 C 
BRANCH  30  31
ATOM     31  C   UNL     1      -9.287  54.237  53.429  0.00  0.00    +0.000 A 
ATOM     32  C   UNL     1      -8.077  54.834  53.824  0.00  0.00    +0.000 A 
ATOM     33  C   UNL     1      -9.403  52.844  53.453  0.00  0.00    +0.000 A 
ATOM     34  C   UNL     1      -6.992  54.052  54.234  0.00  0.00    +0.000 A 
ATOM     35  C   UNL     1      -8.328  52.060  53.868  0.00  0.00    +0.000 A 
ATOM     36  C   UNL     1      -7.127  52.659  54.251  0.00  0.00    +0.000 A 
ATOM     37  C   UNL     1      -5.684  54.686  54.604  0.00  0.00    +0.000 C 
ENDBRANCH  30  31
ENDBRANCH  28  30
ENDBRANCH   5  28
TORSDOF 5
ENDMDL
MODEL 9
REMARK VINA RESULT:      -8.6      3.381      7.669
REMARK  Name = 
REMARK  6 active torsions:
REMARK  status: ('A' for Active; 'I' for Inactive)
REMARK    1  A    between atoms: C_6  and  C_10
REMARK    2  A    between atoms: C_14  and  O_18
REMARK    3  A    between atoms: N_17  and  N_20
REMARK    4  A    between atoms: N_20  and  C_23
REMARK    5  A    between atoms: C_23  and  C_26
REMARK    6  A    between atoms: C_30  and  C_33
REMARK                            x       y       z     vdW  Elec       q    Type
REMARK                         _______ _______ _______ _____ _____    ______ ____
ROOT
ATOM      1  C   UNL     1     -11.890  53.610  50.830  0.00  0.00    +0.000 A 
ATOM      2  C   UNL     1     -11.915  52.624  49.709  0.00  0.00    +0.000 A 
ATOM      3  C   UNL     1     -11.219  53.335  51.962  0.00  0.00    +0.000 A 
ATOM      4  O   UNL     1     -12.576  52.917  48.706  0.00  0.00    +0.000 OA
ATOM      5  N   UNL     1     -11.173  51.451  49.848  0.00  0.00    +0.000 N 
ATOM      6  C   UNL     1     -10.464  52.081  52.099  0.00  0.00    +0.000 A 
ATOM      7  C   UNL     1     -10.449  51.154  51.042  0.00  0.00    +0.000 A 
ATOM      8  C   UNL     1      -9.739  51.804  53.271  0.00  0.00    +0.000 A 
ATOM      9  C   UNL     1      -9.716  49.965  51.184  0.00  0.00    +0.000 A 
ATOM     10  C   UNL     1      -9.000  50.628  53.392  0.00  0.00    +0.000 A 
ATOM     11  C   UNL     1      -8.990  49.708  52.350  0.00  0.00    +0.000 A 
ENDROOT
BRANCH   1  17
ATOM     12  S   UNL     1     -12.999  57.007  49.202  0.00  0.00    +0.000 S 
ATOM     13  O   UNL     1     -14.021  56.825  48.189  0.00  0.00    +0.000 OA
ATOM     14  O   UNL     1     -11.911  57.942  48.987  0.00  0.00    +0.000 OA
ATOM     15  N   UNL     1     -12.353  55.553  49.510  0.00  0.00    +0.000 N 
ATOM     16  C   UNL     1     -13.836  57.557  50.644  0.00  0.00    +0.000 A 
ATOM     17  C   UNL     1     -12.584  54.943  50.635  0.00  0.00    +0.000 C 
ATOM     18  C   UNL     1     -13.923  56.686  51.717  0.00  0.00    +0.000 A 
ATOM     19  C   UNL     1     -14.374  58.845  50.688  0.00  0.00    +0.000 A 
ATOM     20  N   UNL     1     -13.392  55.401  51.654  0.00  0.00    +0.000 N 
ATOM     21  C   UNL     1     -14.640  57.098  52.845  0.00  0.00    +0.000 A 
ATOM     22  C   UNL     1     -15.054  59.256  51.833  0.00  0.00    +0.000 A 
ATOM     23  C   UNL     1     -15.194  58.380  52.908  0.00  0.00    +0.000 A 
ATOM     24  H   UNL     1     -11.777  55.125  48.836  0.00  0.00    +0.000 HD
ATOM     25  H   UNL     1     -13.607  54.778  52.385  0.00  0.00    +0.000 HD
ENDBRANCH   1  17
BRANCH   3  26
ATOM     26  O   UNL     1     -11.145  54.186  53.049  0.00  0.00    +0.000 OA
ATOM     27  H   UNL     1     -11.905  54.658  53.329  0.00  0.00    +0.000 HD
ENDBRANCH   3  26
BRANCH   5  28
ATOM     28  N   UNL     1     -11.209  50.447  48.828  0.00  0.00    +0.000 N 
ATOM     29  H   UNL     1     -11.954  49.809  48.739  0.00  0.00    +0.000 HD
BRANCH  28  30
ATOM     30  C   UNL     1     -10.053  50.435  47.921  0.00  0.00    +0.000 C 
BRANCH  30  31
ATOM     31  C   UNL     1     -10.187  51.523  46.884  0.00  0.00    +0.000 A 
ATOM     32  C   UNL     1      -9.373  52.667  46.953  0.00  0.00    +0.000 A 
ATOM     33  C   UNL     1     -11.145  51.425  45.871  0.00  0.00    +0.000 A 
ATOM     34  C   UNL     1      -9.515  53.705  46.025  0.00  0.00    +0.000 A 
ATOM     35  C   UNL     1     -11.287  52.452  44.939  0.00  0.00    +0.000 A 
ATOM     36  C   UNL     1     -10.481  53.588  45.019  0.00  0.00    +0.000 A 
ATOM     37  C   UNL     1      -8.683  54.948  46.131  0.00  0.00    +0.000 C 
ENDBRANCH  30  31
ENDBRANCH  28  30
ENDBRANCH   5  28
TORSDOF 5
ENDMDL
