MODEL 1
REMARK VINA RESULT:      -8.9      0.000      0.000
REMARK  Name = 
REMARK  5 active torsions:
REMARK  status: ('A' for Active; 'I' for Inactive)
REMARK    1  A    between atoms: C_6  and  C_10
REMARK    2  A    between atoms: C_14  and  O_18
REMARK    3  A    between atoms: N_17  and  O_20
REMARK    4  A    between atoms: O_20  and  C_23
REMARK    5  A    between atoms: C_23  and  C_26
REMARK                            x       y       z     vdW  Elec       q    Type
REMARK                         _______ _______ _______ _____ _____    ______ ____
ROOT
ATOM      1  C   UNL     1     -10.493  55.119  50.901  0.00  0.00    +0.000 A 
ATOM      2  C   UNL     1     -10.229  54.944  49.441  0.00  0.00    +0.000 A 
ATOM      3  C   UNL     1     -11.660  55.647  51.312  0.00  0.00    +0.000 A 
ATOM      4  O   UNL     1      -9.145  54.442  49.125  0.00  0.00    +0.000 OA
ATOM      5  N   UNL     1     -11.208  55.333  48.562  0.00  0.00    +0.000 N 
ATOM      6  C   UNL     1     -12.659  56.095  50.334  0.00  0.00    +0.000 A 
ATOM      7  C   UNL     1     -12.418  55.954  48.961  0.00  0.00    +0.000 A 
ATOM      8  C   UNL     1     -13.846  56.717  50.737  0.00  0.00    +0.000 A 
ATOM      9  N   UNL     1     -13.291  56.398  48.020  0.00  0.00    +0.000 NA
ATOM     10  C   UNL     1     -14.738  57.190  49.784  0.00  0.00    +0.000 A 
ATOM     11  C   UNL     1     -14.416  57.011  48.452  0.00  0.00    +0.000 A 
ENDROOT
BRANCH   1  17
ATOM     12  S   UNL     1      -7.075  54.967  52.818  0.00  0.00    +0.000 S 
ATOM     13  O   UNL     1      -6.980  55.976  53.857  0.00  0.00    +0.000 OA
ATOM     14  O   UNL     1      -5.936  54.679  51.968  0.00  0.00    +0.000 OA
ATOM     15  N   UNL     1      -8.320  55.366  51.862  0.00  0.00    +0.000 N 
ATOM     16  C   UNL     1      -7.466  53.461  53.630  0.00  0.00    +0.000 A 
ATOM     17  C   UNL     1      -9.429  54.690  51.890  0.00  0.00    +0.000 C 
ATOM     18  C   UNL     1      -8.743  52.950  53.468  0.00  0.00    +0.000 A 
ATOM     19  C   UNL     1      -6.498  52.811  54.399  0.00  0.00    +0.000 A 
ATOM     20  N   UNL     1      -9.703  53.621  52.714  0.00  0.00    +0.000 N 
ATOM     21  C   UNL     1      -9.080  51.780  54.158  0.00  0.00    +0.000 A 
ATOM     22  C   UNL     1      -6.837  51.630  55.055  0.00  0.00    +0.000 A 
ATOM     23  C   UNL     1      -8.130  51.118  54.941  0.00  0.00    +0.000 A 
ATOM     24  H   UNL     1      -8.235  56.131  51.249  0.00  0.00    +0.000 HD
ATOM     25  H   UNL     1     -10.636  53.310  52.774  0.00  0.00    +0.000 HD
ENDBRANCH   1  17
BRANCH   3  26
ATOM     26  O   UNL     1     -12.011  55.835  52.636  0.00  0.00    +0.000 OA
ATOM     27  H   UNL     1     -12.800  56.293  52.851  0.00  0.00    +0.000 HD
ENDBRANCH   3  26
BRANCH   5  28
ATOM     28  O   UNL     1     -10.918  55.396  47.166  0.00  0.00    +0.000 OA
BRANCH  28  29
ATOM     29  C   UNL     1     -11.469  54.291  46.437  0.00  0.00    +0.000 C 
BRANCH  29  30
ATOM     30  C   UNL     1     -10.521  53.799  45.369  0.00  0.00    +0.000 A 
ATOM     31  C   UNL     1      -9.153  54.119  45.450  0.00  0.00    +0.000 A 
ATOM     32  C   UNL     1     -10.968  53.001  44.310  0.00  0.00    +0.000 A 
ATOM     33  C   UNL     1      -8.261  53.686  44.470  0.00  0.00    +0.000 A 
ATOM     34  C   UNL     1     -10.073  52.568  43.330  0.00  0.00    +0.000 A 
ATOM     35  C   UNL     1      -8.724  52.914  43.407  0.00  0.00    +0.000 A 
ENDBRANCH  29  30
ENDBRANCH  28  29
ENDBRANCH   5  28
TORSDOF 5
ENDMDL
MODEL 2
REMARK VINA RESULT:      -8.9      2.083      5.576
REMARK  Name = 
REMARK  5 active torsions:
REMARK  status: ('A' for Active; 'I' for Inactive)
REMARK    1  A    between atoms: C_6  and  C_10
REMARK    2  A    between atoms: C_14  and  O_18
REMARK    3  A    between atoms: N_17  and  O_20
REMARK    4  A    between atoms: O_20  and  C_23
REMARK    5  A    between atoms: C_23  and  C_26
REMARK                            x       y       z     vdW  Elec       q    Type
REMARK                         _______ _______ _______ _____ _____    ______ ____
ROOT
ATOM      1  C   UNL     1      -9.006  54.489  49.754  0.00  0.00    +0.000 A 
ATOM      2  C   UNL     1     -10.038  55.565  49.840  0.00  0.00    +0.000 A 
ATOM      3  C   UNL     1      -8.897  53.753  48.633  0.00  0.00    +0.000 A 
ATOM      4  O   UNL     1     -10.083  56.216  50.889  0.00  0.00    +0.000 OA
ATOM      5  N   UNL     1     -10.848  55.765  48.749  0.00  0.00    +0.000 N 
ATOM      6  C   UNL     1      -9.816  53.969  47.510  0.00  0.00    +0.000 A 
ATOM      7  C   UNL     1     -10.801  54.962  47.582  0.00  0.00    +0.000 A 
ATOM      8  C   UNL     1      -9.771  53.163  46.365  0.00  0.00    +0.000 A 
ATOM      9  N   UNL     1     -11.704  55.164  46.588  0.00  0.00    +0.000 NA
ATOM     10  C   UNL     1     -10.699  53.350  45.350  0.00  0.00    +0.000 A 
ATOM     11  C   UNL     1     -11.638  54.352  45.509  0.00  0.00    +0.000 A 
ENDROOT
BRANCH   1  17
ATOM     12  S   UNL     1      -7.806  54.098  53.467  0.00  0.00    +0.000 S 
ATOM     13  O   UNL     1      -8.073  52.773  53.996  0.00  0.00    +0.000 OA
ATOM     14  O   UNL     1      -8.029  55.274  54.285  0.00  0.00    +0.000 OA
ATOM     15  N   UNL     1      -8.671  54.266  52.109  0.00  0.00    +0.000 N 
ATOM     16  C   UNL     1      -6.104  54.121  53.041  0.00  0.00    +0.000 A 
ATOM     17  C   UNL     1      -8.098  54.255  50.944  0.00  0.00    +0.000 C 
ATOM     18  C   UNL     1      -5.772  54.125  51.696  0.00  0.00    +0.000 A 
ATOM     19  C   UNL     1      -5.132  54.149  54.044  0.00  0.00    +0.000 A 
ATOM     20  N   UNL     1      -6.752  54.077  50.707  0.00  0.00    +0.000 N 
ATOM     21  C   UNL     1      -4.418  54.086  51.348  0.00  0.00    +0.000 A 
ATOM     22  C   UNL     1      -3.787  54.142  53.683  0.00  0.00    +0.000 A 
ATOM     23  C   UNL     1      -3.429  54.103  52.335  0.00  0.00    +0.000 A 
ATOM     24  H   UNL     1      -9.648  54.377  52.167  0.00  0.00    +0.000 HD
ATOM     25  H   UNL     1      -6.464  53.905  49.781  0.00  0.00    +0.000 HD
ENDBRANCH   1  17
BRANCH   3  26
ATOM     26  O   UNL     1      -7.966  52.747  48.445  0.00  0.00    +0.000 OA
ATOM     27  H   UNL     1      -7.308  52.591  49.094  0.00  0.00    +0.000 HD
ENDBRANCH   3  26
BRANCH   5  28
ATOM     28  O   UNL     1     -11.985  56.618  48.862  0.00  0.00    +0.000 OA
BRANCH  28  29
ATOM     29  C   UNL     1     -13.038  56.035  49.640  0.00  0.00    +0.000 C 
BRANCH  29  30
ATOM     30  C   UNL     1     -13.594  57.012  50.649  0.00  0.00    +0.000 A 
ATOM     31  C   UNL     1     -14.173  58.216  50.207  0.00  0.00    +0.000 A 
ATOM     32  C   UNL     1     -13.577  56.732  52.020  0.00  0.00    +0.000 A 
ATOM     33  C   UNL     1     -14.683  59.139  51.120  0.00  0.00    +0.000 A 
ATOM     34  C   UNL     1     -14.088  57.657  52.932  0.00  0.00    +0.000 A 
ATOM     35  C   UNL     1     -14.634  58.859  52.483  0.00  0.00    +0.000 A 
ENDBRANCH  29  30
ENDBRANCH  28  29
ENDBRANCH   5  28
TORSDOF 5
ENDMDL
MODEL 3
REMARK VINA RESULT:      -8.8      2.846      7.501
REMARK  Name = 
REMARK  5 active torsions:
REMARK  status: ('A' for Active; 'I' for Inactive)
REMARK    1  A    between atoms: C_6  and  C_10
REMARK    2  A    between atoms: C_14  and  O_18
REMARK    3  A    between atoms: N_17  and  O_20
REMARK    4  A    between atoms: O_20  and  C_23
REMARK    5  A    between atoms: C_23  and  C_26
REMARK                            x       y       z     vdW  Elec       q    Type
REMARK                         _______ _______ _______ _____ _____    ______ ____
ROOT
ATOM      1  C   UNL     1     -11.351  55.851  49.079  0.00  0.00    +0.000 A 
ATOM      2  C   UNL     1     -10.402  55.225  50.047  0.00  0.00    +0.000 A 
ATOM      3  C   UNL     1     -11.282  55.536  47.773  0.00  0.00    +0.000 A 
ATOM      4  O   UNL     1     -10.521  55.544  51.234  0.00  0.00    +0.000 OA
ATOM      5  N   UNL     1      -9.481  54.333  49.555  0.00  0.00    +0.000 N 
ATOM      6  C   UNL     1     -10.249  54.614  47.285  0.00  0.00    +0.000 A 
ATOM      7  C   UNL     1      -9.340  54.033  48.178  0.00  0.00    +0.000 A 
ATOM      8  C   UNL     1     -10.110  54.332  45.920  0.00  0.00    +0.000 A 
ATOM      9  N   UNL     1      -8.339  53.213  47.765  0.00  0.00    +0.000 NA
ATOM     10  C   UNL     1      -9.080  53.509  45.486  0.00  0.00    +0.000 A 
ATOM     11  C   UNL     1      -8.227  52.982  46.438  0.00  0.00    +0.000 A 
ENDROOT
BRANCH   1  17
ATOM     12  S   UNL     1     -13.483  59.122  49.446  0.00  0.00    +0.000 S 
ATOM     13  O   UNL     1     -14.593  59.165  48.512  0.00  0.00    +0.000 OA
ATOM     14  O   UNL     1     -12.695  60.312  49.706  0.00  0.00    +0.000 OA
ATOM     15  N   UNL     1     -12.473  57.957  48.953  0.00  0.00    +0.000 N 
ATOM     16  C   UNL     1     -14.162  58.644  50.992  0.00  0.00    +0.000 A 
ATOM     17  C   UNL     1     -12.379  56.834  49.600  0.00  0.00    +0.000 C 
ATOM     18  C   UNL     1     -13.878  57.372  51.459  0.00  0.00    +0.000 A 
ATOM     19  C   UNL     1     -14.949  59.542  51.717  0.00  0.00    +0.000 A 
ATOM     20  N   UNL     1     -13.108  56.481  50.715  0.00  0.00    +0.000 N 
ATOM     21  C   UNL     1     -14.461  56.963  52.663  0.00  0.00    +0.000 A 
ATOM     22  C   UNL     1     -15.498  59.133  52.930  0.00  0.00    +0.000 A 
ATOM     23  C   UNL     1     -15.261  57.841  53.400  0.00  0.00    +0.000 A 
ATOM     24  H   UNL     1     -11.922  58.101  48.151  0.00  0.00    +0.000 HD
ATOM     25  H   UNL     1     -13.082  55.540  51.005  0.00  0.00    +0.000 HD
ENDBRANCH   1  17
BRANCH   3  26
ATOM     26  O   UNL     1     -12.122  56.044  46.800  0.00  0.00    +0.000 OA
ATOM     27  H   UNL     1     -13.051  55.983  46.904  0.00  0.00    +0.000 HD
ENDBRANCH   3  26
BRANCH   5  28
ATOM     28  O   UNL     1      -8.418  53.884  50.394  0.00  0.00    +0.000 OA
BRANCH  28  29
ATOM     29  C   UNL     1      -7.394  54.872  50.565  0.00  0.00    +0.000 C 
BRANCH  29  30
ATOM     30  C   UNL     1      -6.801  54.827  51.954  0.00  0.00    +0.000 A 
ATOM     31  C   UNL     1      -7.589  55.195  53.060  0.00  0.00    +0.000 A 
ATOM     32  C   UNL     1      -5.488  54.395  52.170  0.00  0.00    +0.000 A 
ATOM     33  C   UNL     1      -7.060  55.171  54.350  0.00  0.00    +0.000 A 
ATOM     34  C   UNL     1      -4.960  54.372  53.463  0.00  0.00    +0.000 A 
ATOM     35  C   UNL     1      -5.742  54.765  54.549  0.00  0.00    +0.000 A 
ENDBRANCH  29  30
ENDBRANCH  28  29
ENDBRANCH   5  28
TORSDOF 5
ENDMDL
MODEL 4
REMARK VINA RESULT:      -8.7      2.206      5.544
REMARK  Name = 
REMARK  5 active torsions:
REMARK  status: ('A' for Active; 'I' for Inactive)
REMARK    1  A    between atoms: C_6  and  C_10
REMARK    2  A    between atoms: C_14  and  O_18
REMARK    3  A    between atoms: N_17  and  O_20
REMARK    4  A    between atoms: O_20  and  C_23
REMARK    5  A    between atoms: C_23  and  C_26
REMARK                            x       y       z     vdW  Elec       q    Type
REMARK                         _______ _______ _______ _____ _____    ______ ____
ROOT
ATOM      1  C   UNL     1      -8.992  54.868  50.107  0.00  0.00    +0.000 A 
ATOM      2  C   UNL     1     -10.395  55.291  50.398  0.00  0.00    +0.000 A 
ATOM      3  C   UNL     1      -8.643  54.520  48.856  0.00  0.00    +0.000 A 
ATOM      4  O   UNL     1     -10.653  55.611  51.563  0.00  0.00    +0.000 OA
ATOM      5  N   UNL     1     -11.287  55.311  49.355  0.00  0.00    +0.000 N 
ATOM      6  C   UNL     1      -9.642  54.509  47.781  0.00  0.00    +0.000 A 
ATOM      7  C   UNL     1     -10.966  54.886  48.042  0.00  0.00    +0.000 A 
ATOM      8  C   UNL     1      -9.319  54.076  46.489  0.00  0.00    +0.000 A 
ATOM      9  N   UNL     1     -11.935  54.844  47.091  0.00  0.00    +0.000 NA
ATOM     10  C   UNL     1     -10.305  54.014  45.514  0.00  0.00    +0.000 A 
ATOM     11  C   UNL     1     -11.586  54.401  45.862  0.00  0.00    +0.000 A 
ENDROOT
BRANCH   1  17
ATOM     12  S   UNL     1      -7.111  55.873  53.398  0.00  0.00    +0.000 S 
ATOM     13  O   UNL     1      -7.773  55.370  54.588  0.00  0.00    +0.000 OA
ATOM     14  O   UNL     1      -6.562  57.215  53.376  0.00  0.00    +0.000 OA
ATOM     15  N   UNL     1      -8.153  55.743  52.166  0.00  0.00    +0.000 N 
ATOM     16  C   UNL     1      -5.762  54.793  53.094  0.00  0.00    +0.000 A 
ATOM     17  C   UNL     1      -7.989  54.845  51.242  0.00  0.00    +0.000 C 
ATOM     18  C   UNL     1      -5.848  53.938  52.007  0.00  0.00    +0.000 A 
ATOM     19  C   UNL     1      -4.641  54.822  53.927  0.00  0.00    +0.000 A 
ATOM     20  N   UNL     1      -6.981  53.907  51.197  0.00  0.00    +0.000 N 
ATOM     21  C   UNL     1      -4.802  53.035  51.791  0.00  0.00    +0.000 A 
ATOM     22  C   UNL     1      -3.593  53.939  53.682  0.00  0.00    +0.000 A 
ATOM     23  C   UNL     1      -3.675  53.039  52.619  0.00  0.00    +0.000 A 
ATOM     24  H   UNL     1      -8.924  56.353  52.117  0.00  0.00    +0.000 HD
ATOM     25  H   UNL     1      -7.065  53.168  50.552  0.00  0.00    +0.000 HD
ENDBRANCH   1  17
BRANCH   3  26
ATOM     26  O   UNL     1      -7.371  54.131  48.478  0.00  0.00    +0.000 OA
ATOM     27  H   UNL     1      -6.638  54.326  49.028  0.00  0.00    +0.000 HD
ENDBRANCH   3  26
BRANCH   5  28
ATOM     28  O   UNL     1     -12.678  55.488  49.620  0.00  0.00    +0.000 OA
BRANCH  28  29
ATOM     29  C   UNL     1     -13.133  56.814  49.321  0.00  0.00    +0.000 C 
BRANCH  29  30
ATOM     30  C   UNL     1     -13.779  57.466  50.521  0.00  0.00    +0.000 A 
ATOM     31  C   UNL     1     -14.411  58.716  50.377  0.00  0.00    +0.000 A 
ATOM     32  C   UNL     1     -13.794  56.839  51.771  0.00  0.00    +0.000 A 
ATOM     33  C   UNL     1     -15.005  59.342  51.472  0.00  0.00    +0.000 A 
ATOM     34  C   UNL     1     -14.389  57.468  52.866  0.00  0.00    +0.000 A 
ATOM     35  C   UNL     1     -14.988  58.719  52.718  0.00  0.00    +0.000 A 
ENDBRANCH  29  30
ENDBRANCH  28  29
ENDBRANCH   5  28
TORSDOF 5
ENDMDL
MODEL 5
REMARK VINA RESULT:      -8.7      1.439      5.205
REMARK  Name = 
REMARK  5 active torsions:
REMARK  status: ('A' for Active; 'I' for Inactive)
REMARK    1  A    between atoms: C_6  and  C_10
REMARK    2  A    between atoms: C_14  and  O_18
REMARK    3  A    between atoms: N_17  and  O_20
REMARK    4  A    between atoms: O_20  and  C_23
REMARK    5  A    between atoms: C_23  and  C_26
REMARK                            x       y       z     vdW  Elec       q    Type
REMARK                         _______ _______ _______ _____ _____    ______ ____
ROOT
ATOM      1  C   UNL     1      -9.586  54.376  50.178  0.00  0.00    +0.000 A 
ATOM      2  C   UNL     1     -10.945  54.973  50.346  0.00  0.00    +0.000 A 
ATOM      3  C   UNL     1      -9.141  54.058  48.949  0.00  0.00    +0.000 A 
ATOM      4  O   UNL     1     -11.294  55.255  51.497  0.00  0.00    +0.000 OA
ATOM      5  N   UNL     1     -11.697  55.180  49.216  0.00  0.00    +0.000 N 
ATOM      6  C   UNL     1      -9.999  54.252  47.774  0.00  0.00    +0.000 A 
ATOM      7  C   UNL     1     -11.283  54.795  47.918  0.00  0.00    +0.000 A 
ATOM      8  C   UNL     1      -9.586  53.858  46.496  0.00  0.00    +0.000 A 
ATOM      9  N   UNL     1     -12.129  54.947  46.866  0.00  0.00    +0.000 NA
ATOM     10  C   UNL     1     -10.449  53.993  45.417  0.00  0.00    +0.000 A 
ATOM     11  C   UNL     1     -11.699  54.535  45.653  0.00  0.00    +0.000 A 
ENDROOT
BRANCH   1  17
ATOM     12  S   UNL     1      -6.645  54.695  52.752  0.00  0.00    +0.000 S 
ATOM     13  O   UNL     1      -6.816  55.823  53.649  0.00  0.00    +0.000 OA
ATOM     14  O   UNL     1      -5.341  54.391  52.195  0.00  0.00    +0.000 OA
ATOM     15  N   UNL     1      -7.677  54.888  51.520  0.00  0.00    +0.000 N 
ATOM     16  C   UNL     1      -7.128  53.271  53.657  0.00  0.00    +0.000 A 
ATOM     17  C   UNL     1      -8.736  54.143  51.410  0.00  0.00    +0.000 C 
ATOM     18  C   UNL     1      -8.318  52.654  53.306  0.00  0.00    +0.000 A 
ATOM     19  C   UNL     1      -6.315  52.786  54.683  0.00  0.00    +0.000 A 
ATOM     20  N   UNL     1      -9.127  53.161  52.293  0.00  0.00    +0.000 N 
ATOM     21  C   UNL     1      -8.739  51.552  54.059  0.00  0.00    +0.000 A 
ATOM     22  C   UNL     1      -6.730  51.669  55.405  0.00  0.00    +0.000 A 
ATOM     23  C   UNL     1      -7.946  51.056  55.098  0.00  0.00    +0.000 A 
ATOM     24  H   UNL     1      -7.500  55.581  50.843  0.00  0.00    +0.000 HD
ATOM     25  H   UNL     1     -10.037  52.793  52.202  0.00  0.00    +0.000 HD
ENDBRANCH   1  17
BRANCH   3  26
ATOM     26  O   UNL     1      -7.896  53.518  48.683  0.00  0.00    +0.000 OA
ATOM     27  H   UNL     1      -7.121  54.013  48.867  0.00  0.00    +0.000 HD
ENDBRANCH   3  26
BRANCH   5  28
ATOM     28  O   UNL     1     -13.074  55.534  49.342  0.00  0.00    +0.000 OA
BRANCH  28  29
ATOM     29  C   UNL     1     -13.283  56.952  49.327  0.00  0.00    +0.000 C 
BRANCH  29  30
ATOM     30  C   UNL     1     -13.982  57.427  50.579  0.00  0.00    +0.000 A 
ATOM     31  C   UNL     1     -14.079  58.806  50.842  0.00  0.00    +0.000 A 
ATOM     32  C   UNL     1     -14.566  56.524  51.474  0.00  0.00    +0.000 A 
ATOM     33  C   UNL     1     -14.709  59.268  51.997  0.00  0.00    +0.000 A 
ATOM     34  C   UNL     1     -15.197  56.989  52.629  0.00  0.00    +0.000 A 
ATOM     35  C   UNL     1     -15.263  58.357  52.893  0.00  0.00    +0.000 A 
ENDBRANCH  29  30
ENDBRANCH  28  29
ENDBRANCH   5  28
TORSDOF 5
ENDMDL
MODEL 6
REMARK VINA RESULT:      -8.5      3.727      6.630
REMARK  Name = 
REMARK  5 active torsions:
REMARK  status: ('A' for Active; 'I' for Inactive)
REMARK    1  A    between atoms: C_6  and  C_10
REMARK    2  A    between atoms: C_14  and  O_18
REMARK    3  A    between atoms: N_17  and  O_20
REMARK    4  A    between atoms: O_20  and  C_23
REMARK    5  A    between atoms: C_23  and  C_26
REMARK                            x       y       z     vdW  Elec       q    Type
REMARK                         _______ _______ _______ _____ _____    ______ ____
ROOT
ATOM      1  C   UNL     1     -12.485  54.283  49.792  0.00  0.00    +0.000 A 
ATOM      2  C   UNL     1     -12.123  54.116  48.353  0.00  0.00    +0.000 A 
ATOM      3  C   UNL     1     -12.109  53.355  50.691  0.00  0.00    +0.000 A 
ATOM      4  O   UNL     1     -12.485  55.006  47.577  0.00  0.00    +0.000 OA
ATOM      5  N   UNL     1     -11.404  53.000  48.000  0.00  0.00    +0.000 N 
ATOM      6  C   UNL     1     -11.384  52.154  50.260  0.00  0.00    +0.000 A 
ATOM      7  C   UNL     1     -11.053  51.974  48.911  0.00  0.00    +0.000 A 
ATOM      8  C   UNL     1     -11.051  51.139  51.165  0.00  0.00    +0.000 A 
ATOM      9  N   UNL     1     -10.426  50.856  48.459  0.00  0.00    +0.000 NA
ATOM     10  C   UNL     1     -10.425  49.986  50.712  0.00  0.00    +0.000 A 
ATOM     11  C   UNL     1     -10.140  49.892  49.363  0.00  0.00    +0.000 A 
ENDROOT
BRANCH   1  17
ATOM     12  S   UNL     1     -15.369  56.504  51.254  0.00  0.00    +0.000 S 
ATOM     13  O   UNL     1     -15.283  56.639  52.697  0.00  0.00    +0.000 OA
ATOM     14  O   UNL     1     -16.652  56.300  50.610  0.00  0.00    +0.000 OA
ATOM     15  N   UNL     1     -14.396  55.284  50.819  0.00  0.00    +0.000 N 
ATOM     16  C   UNL     1     -14.721  57.990  50.583  0.00  0.00    +0.000 A 
ATOM     17  C   UNL     1     -13.273  55.509  50.207  0.00  0.00    +0.000 C 
ATOM     18  C   UNL     1     -13.486  57.934  49.957  0.00  0.00    +0.000 A 
ATOM     19  C   UNL     1     -15.452  59.176  50.677  0.00  0.00    +0.000 A 
ATOM     20  N   UNL     1     -12.761  56.748  49.888  0.00  0.00    +0.000 N 
ATOM     21  C   UNL     1     -12.937  59.125  49.469  0.00  0.00    +0.000 A 
ATOM     22  C   UNL     1     -14.908  60.349  50.160  0.00  0.00    +0.000 A 
ATOM     23  C   UNL     1     -13.647  60.326  49.562  0.00  0.00    +0.000 A 
ATOM     24  H   UNL     1     -14.660  54.358  51.021  0.00  0.00    +0.000 HD
ATOM     25  H   UNL     1     -11.822  56.798  49.592  0.00  0.00    +0.000 HD
ENDBRANCH   1  17
BRANCH   3  26
ATOM     26  O   UNL     1     -12.377  53.424  52.046  0.00  0.00    +0.000 OA
ATOM     27  H   UNL     1     -13.258  53.334  52.354  0.00  0.00    +0.000 HD
ENDBRANCH   3  26
BRANCH   5  28
ATOM     28  O   UNL     1     -11.230  52.683  46.620  0.00  0.00    +0.000 OA
BRANCH  28  29
ATOM     29  C   UNL     1     -10.419  53.643  45.930  0.00  0.00    +0.000 C 
BRANCH  29  30
ATOM     30  C   UNL     1      -9.000  53.651  46.449  0.00  0.00    +0.000 A 
ATOM     31  C   UNL     1      -8.512  54.785  47.124  0.00  0.00    +0.000 A 
ATOM     32  C   UNL     1      -8.165  52.539  46.300  0.00  0.00    +0.000 A 
ATOM     33  C   UNL     1      -7.203  54.820  47.602  0.00  0.00    +0.000 A 
ATOM     34  C   UNL     1      -6.854  52.576  46.780  0.00  0.00    +0.000 A 
ATOM     35  C   UNL     1      -6.373  53.716  47.424  0.00  0.00    +0.000 A 
ENDBRANCH  29  30
ENDBRANCH  28  29
ENDBRANCH   5  28
TORSDOF 5
ENDMDL
MODEL 7
REMARK VINA RESULT:      -8.4      3.867      7.519
REMARK  Name = 
REMARK  5 active torsions:
REMARK  status: ('A' for Active; 'I' for Inactive)
REMARK    1  A    between atoms: C_6  and  C_10
REMARK    2  A    between atoms: C_14  and  O_18
REMARK    3  A    between atoms: N_17  and  O_20
REMARK    4  A    between atoms: O_20  and  C_23
REMARK    5  A    between atoms: C_23  and  C_26
REMARK                            x       y       z     vdW  Elec       q    Type
REMARK                         _______ _______ _______ _____ _____    ______ ____
ROOT
ATOM      1  C   UNL     1     -11.175  54.581  50.978  0.00  0.00    +0.000 A 
ATOM      2  C   UNL     1      -9.766  54.981  50.685  0.00  0.00    +0.000 A 
ATOM      3  C   UNL     1     -11.446  53.324  51.374  0.00  0.00    +0.000 A 
ATOM      4  O   UNL     1      -9.577  56.151  50.338  0.00  0.00    +0.000 OA
ATOM      5  N   UNL     1      -8.786  54.032  50.838  0.00  0.00    +0.000 N 
ATOM      6  C   UNL     1     -10.372  52.329  51.477  0.00  0.00    +0.000 A 
ATOM      7  C   UNL     1      -9.049  52.684  51.188  0.00  0.00    +0.000 A 
ATOM      8  C   UNL     1     -10.643  50.996  51.812  0.00  0.00    +0.000 A 
ATOM      9  N   UNL     1      -8.031  51.785  51.222  0.00  0.00    +0.000 NA
ATOM     10  C   UNL     1      -9.613  50.066  51.833  0.00  0.00    +0.000 A 
ATOM     11  C   UNL     1      -8.338  50.505  51.530  0.00  0.00    +0.000 A 
ENDROOT
BRANCH   1  17
ATOM     12  S   UNL     1     -13.556  57.223  49.326  0.00  0.00    +0.000 S 
ATOM     13  O   UNL     1     -14.676  56.605  48.641  0.00  0.00    +0.000 OA
ATOM     14  O   UNL     1     -12.862  58.349  48.731  0.00  0.00    +0.000 OA
ATOM     15  N   UNL     1     -12.462  56.066  49.620  0.00  0.00    +0.000 N 
ATOM     16  C   UNL     1     -14.177  57.796  50.864  0.00  0.00    +0.000 A 
ATOM     17  C   UNL     1     -12.272  55.614  50.823  0.00  0.00    +0.000 C 
ATOM     18  C   UNL     1     -13.788  57.124  52.011  0.00  0.00    +0.000 A 
ATOM     19  C   UNL     1     -15.025  58.905  50.907  0.00  0.00    +0.000 A 
ATOM     20  N   UNL     1     -12.958  56.007  51.951  0.00  0.00    +0.000 N 
ATOM     21  C   UNL     1     -14.324  57.538  53.236  0.00  0.00    +0.000 A 
ATOM     22  C   UNL     1     -15.527  59.327  52.135  0.00  0.00    +0.000 A 
ATOM     23  C   UNL     1     -15.182  58.639  53.300  0.00  0.00    +0.000 A 
ATOM     24  H   UNL     1     -11.933  55.699  48.875  0.00  0.00    +0.000 HD
ATOM     25  H   UNL     1     -12.854  55.465  52.767  0.00  0.00    +0.000 HD
ENDBRANCH   1  17
BRANCH   3  26
ATOM     26  O   UNL     1     -12.710  52.858  51.686  0.00  0.00    +0.000 OA
ATOM     27  H   UNL     1     -12.872  51.936  51.728  0.00  0.00    +0.000 HD
ENDBRANCH   3  26
BRANCH   5  28
ATOM     28  O   UNL     1      -7.468  54.296  50.359  0.00  0.00    +0.000 OA
BRANCH  28  29
ATOM     29  C   UNL     1      -6.701  55.097  51.267  0.00  0.00    +0.000 C 
BRANCH  29  30
ATOM     30  C   UNL     1      -5.512  54.340  51.811  0.00  0.00    +0.000 A 
ATOM     31  C   UNL     1      -4.736  53.547  50.946  0.00  0.00    +0.000 A 
ATOM     32  C   UNL     1      -5.143  54.435  53.157  0.00  0.00    +0.000 A 
ATOM     33  C   UNL     1      -3.641  52.830  51.427  0.00  0.00    +0.000 A 
ATOM     34  C   UNL     1      -4.045  53.717  53.637  0.00  0.00    +0.000 A 
ATOM     35  C   UNL     1      -3.300  52.912  52.775  0.00  0.00    +0.000 A 
ENDBRANCH  29  30
ENDBRANCH  28  29
ENDBRANCH   5  28
TORSDOF 5
ENDMDL
MODEL 8
REMARK VINA RESULT:      -8.3      2.917      6.328
REMARK  Name = 
REMARK  5 active torsions:
REMARK  status: ('A' for Active; 'I' for Inactive)
REMARK    1  A    between atoms: C_6  and  C_10
REMARK    2  A    between atoms: C_14  and  O_18
REMARK    3  A    between atoms: N_17  and  O_20
REMARK    4  A    between atoms: O_20  and  C_23
REMARK    5  A    between atoms: C_23  and  C_26
REMARK                            x       y       z     vdW  Elec       q    Type
REMARK                         _______ _______ _______ _____ _____    ______ ____
ROOT
ATOM      1  C   UNL     1     -11.863  53.867  50.835  0.00  0.00    +0.000 A 
ATOM      2  C   UNL     1     -11.868  52.865  49.727  0.00  0.00    +0.000 A 
ATOM      3  C   UNL     1     -11.153  53.627  51.952  0.00  0.00    +0.000 A 
ATOM      4  O   UNL     1     -12.528  53.145  48.721  0.00  0.00    +0.000 OA
ATOM      5  N   UNL     1     -11.131  51.719  49.897  0.00  0.00    +0.000 N 
ATOM      6  C   UNL     1     -10.419  52.366  52.110  0.00  0.00    +0.000 A 
ATOM      7  C   UNL     1     -10.429  51.409  51.087  0.00  0.00    +0.000 A 
ATOM      8  C   UNL     1      -9.737  52.063  53.295  0.00  0.00    +0.000 A 
ATOM      9  N   UNL     1      -9.805  50.208  51.209  0.00  0.00    +0.000 NA
ATOM     10  C   UNL     1      -9.110  50.833  53.437  0.00  0.00    +0.000 A 
ATOM     11  C   UNL     1      -9.175  49.947  52.377  0.00  0.00    +0.000 A 
ENDROOT
BRANCH   1  17
ATOM     12  S   UNL     1     -13.271  57.165  49.248  0.00  0.00    +0.000 S 
ATOM     13  O   UNL     1     -14.351  56.910  48.312  0.00  0.00    +0.000 OA
ATOM     14  O   UNL     1     -12.254  58.152  48.943  0.00  0.00    +0.000 OA
ATOM     15  N   UNL     1     -12.526  55.756  49.531  0.00  0.00    +0.000 N 
ATOM     16  C   UNL     1     -14.029  57.696  50.739  0.00  0.00    +0.000 A 
ATOM     17  C   UNL     1     -12.664  55.141  50.667  0.00  0.00    +0.000 C 
ATOM     18  C   UNL     1     -14.013  56.828  51.819  0.00  0.00    +0.000 A 
ATOM     19  C   UNL     1     -14.611  58.963  50.815  0.00  0.00    +0.000 A 
ATOM     20  N   UNL     1     -13.446  55.560  51.721  0.00  0.00    +0.000 N 
ATOM     21  C   UNL     1     -14.665  57.220  52.993  0.00  0.00    +0.000 A 
ATOM     22  C   UNL     1     -15.229  59.354  52.000  0.00  0.00    +0.000 A 
ATOM     23  C   UNL     1     -15.263  58.480  53.088  0.00  0.00    +0.000 A 
ATOM     24  H   UNL     1     -11.960  55.358  48.831  0.00  0.00    +0.000 HD
ATOM     25  H   UNL     1     -13.615  54.922  52.453  0.00  0.00    +0.000 HD
ENDBRANCH   1  17
BRANCH   3  26
ATOM     26  O   UNL     1     -11.067  54.494  53.026  0.00  0.00    +0.000 OA
ATOM     27  H   UNL     1     -11.481  54.276  53.838  0.00  0.00    +0.000 HD
ENDBRANCH   3  26
BRANCH   5  28
ATOM     28  O   UNL     1     -11.282  50.641  48.974  0.00  0.00    +0.000 OA
BRANCH  28  29
ATOM     29  C   UNL     1     -10.213  50.575  48.022  0.00  0.00    +0.000 C 
BRANCH  29  30
ATOM     30  C   UNL     1     -10.493  51.429  46.807  0.00  0.00    +0.000 A 
ATOM     31  C   UNL     1     -11.582  51.115  45.972  0.00  0.00    +0.000 A 
ATOM     32  C   UNL     1      -9.711  52.549  46.508  0.00  0.00    +0.000 A 
ATOM     33  C   UNL     1     -11.854  51.882  44.840  0.00  0.00    +0.000 A 
ATOM     34  C   UNL     1      -9.986  53.316  45.374  0.00  0.00    +0.000 A 
ATOM     35  C   UNL     1     -11.051  52.979  44.539  0.00  0.00    +0.000 A 
ENDBRANCH  29  30
ENDBRANCH  28  29
ENDBRANCH   5  28
TORSDOF 5
ENDMDL
MODEL 9
REMARK VINA RESULT:      -8.3      2.147      7.124
REMARK  Name = 
REMARK  5 active torsions:
REMARK  status: ('A' for Active; 'I' for Inactive)
REMARK    1  A    between atoms: C_6  and  C_10
REMARK    2  A    between atoms: C_14  and  O_18
REMARK    3  A    between atoms: N_17  and  O_20
REMARK    4  A    between atoms: O_20  and  C_23
REMARK    5  A    between atoms: C_23  and  C_26
REMARK                            x       y       z     vdW  Elec       q    Type
REMARK                         _______ _______ _______ _____ _____    ______ ____
ROOT
ATOM      1  C   UNL     1     -10.884  55.040  48.294  0.00  0.00    +0.000 A 
ATOM      2  C   UNL     1     -10.318  54.964  49.674  0.00  0.00    +0.000 A 
ATOM      3  C   UNL     1     -12.043  55.687  48.078  0.00  0.00    +0.000 A 
ATOM      4  O   UNL     1      -9.245  54.368  49.807  0.00  0.00    +0.000 OA
ATOM      5  N   UNL     1     -11.017  55.574  50.686  0.00  0.00    +0.000 N 
ATOM      6  C   UNL     1     -12.782  56.281  49.199  0.00  0.00    +0.000 A 
ATOM      7  C   UNL     1     -12.273  56.203  50.502  0.00  0.00    +0.000 A 
ATOM      8  C   UNL     1     -14.027  56.892  49.009  0.00  0.00    +0.000 A 
ATOM      9  N   UNL     1     -12.944  56.696  51.575  0.00  0.00    +0.000 NA
ATOM     10  C   UNL     1     -14.730  57.384  50.101  0.00  0.00    +0.000 A 
ATOM     11  C   UNL     1     -14.153  57.259  51.351  0.00  0.00    +0.000 A 
ENDROOT
BRANCH   1  17
ATOM     12  S   UNL     1      -8.025  54.243  45.729  0.00  0.00    +0.000 S 
ATOM     13  O   UNL     1      -6.996  53.391  46.297  0.00  0.00    +0.000 OA
ATOM     14  O   UNL     1      -7.666  55.363  44.882  0.00  0.00    +0.000 OA
ATOM     15  N   UNL     1      -8.919  54.813  46.953  0.00  0.00    +0.000 N 
ATOM     16  C   UNL     1      -9.038  53.199  44.748  0.00  0.00    +0.000 A 
ATOM     17  C   UNL     1     -10.126  54.380  47.159  0.00  0.00    +0.000 C 
ATOM     18  C   UNL     1     -10.313  52.913  45.210  0.00  0.00    +0.000 A 
ATOM     19  C   UNL     1      -8.558  52.696  43.537  0.00  0.00    +0.000 A 
ATOM     20  N   UNL     1     -10.770  53.405  46.429  0.00  0.00    +0.000 N 
ATOM     21  C   UNL     1     -11.106  52.036  44.462  0.00  0.00    +0.000 A 
ATOM     22  C   UNL     1      -9.370  51.849  42.786  0.00  0.00    +0.000 A 
ATOM     23  C   UNL     1     -10.642  51.512  43.251  0.00  0.00    +0.000 A 
ATOM     24  H   UNL     1      -8.542  55.498  47.551  0.00  0.00    +0.000 HD
ATOM     25  H   UNL     1     -11.608  53.034  46.791  0.00  0.00    +0.000 HD
ENDBRANCH   1  17
BRANCH   3  26
ATOM     26  O   UNL     1     -12.642  55.829  46.840  0.00  0.00    +0.000 OA
ATOM     27  H   UNL     1     -13.342  55.258  46.590  0.00  0.00    +0.000 HD
ENDBRANCH   3  26
BRANCH   5  28
ATOM     28  O   UNL     1     -10.640  55.340  52.042  0.00  0.00    +0.000 OA
BRANCH  28  29
ATOM     29  C   UNL     1     -11.000  54.030  52.498  0.00  0.00    +0.000 C 
BRANCH  29  30
ATOM     30  C   UNL     1      -9.838  53.331  53.164  0.00  0.00    +0.000 A 
ATOM     31  C   UNL     1      -8.586  53.972  53.231  0.00  0.00    +0.000 A 
ATOM     32  C   UNL     1      -9.985  52.068  53.747  0.00  0.00    +0.000 A 
ATOM     33  C   UNL     1      -7.496  53.343  53.831  0.00  0.00    +0.000 A 
ATOM     34  C   UNL     1      -8.892  51.441  54.348  0.00  0.00    +0.000 A 
ATOM     35  C   UNL     1      -7.649  52.074  54.384  0.00  0.00    +0.000 A 
ENDBRANCH  29  30
ENDBRANCH  28  29
ENDBRANCH   5  28
TORSDOF 5
ENDMDL
