MODEL 1
REMARK VINA RESULT:      -8.4      0.000      0.000
REMARK  Name = 
REMARK  6 active torsions:
REMARK  status: ('A' for Active; 'I' for Inactive)
REMARK    1  A    between atoms: C_6  and  C_10
REMARK    2  A    between atoms: C_14  and  O_18
REMARK    3  A    between atoms: N_17  and  N_20
REMARK    4  A    between atoms: N_20  and  C_23
REMARK    5  A    between atoms: C_23  and  C_26
REMARK    6  A    between atoms: C_29  and  C_32
REMARK                            x       y       z     vdW  Elec       q    Type
REMARK                         _______ _______ _______ _____ _____    ______ ____
ROOT
ATOM      1  C   UNL     1     -10.032  54.312  52.390  0.00  0.00    +0.000 A 
ATOM      2  C   UNL     1      -8.648  54.872  52.319  0.00  0.00    +0.000 A 
ATOM      3  C   UNL     1     -10.280  53.207  53.111  0.00  0.00    +0.000 A 
ATOM      4  O   UNL     1      -8.519  55.941  51.712  0.00  0.00    +0.000 OA
ATOM      5  N   UNL     1      -7.608  54.176  52.958  0.00  0.00    +0.000 N 
ATOM      6  C   UNL     1      -9.202  52.541  53.854  0.00  0.00    +0.000 A 
ATOM      7  C   UNL     1      -7.879  53.010  53.755  0.00  0.00    +0.000 A 
ATOM      8  C   UNL     1      -9.489  51.427  54.666  0.00  0.00    +0.000 A 
ATOM      9  C   UNL     1      -6.875  52.335  54.474  0.00  0.00    +0.000 A 
ATOM     10  C   UNL     1      -8.487  50.791  55.394  0.00  0.00    +0.000 A 
ATOM     11  C   UNL     1      -7.181  51.247  55.298  0.00  0.00    +0.000 A 
ENDROOT
BRANCH   1  17
ATOM     12  S   UNL     1     -12.257  55.812  49.509  0.00  0.00    +0.000 S 
ATOM     13  O   UNL     1     -13.134  54.819  48.923  0.00  0.00    +0.000 OA
ATOM     14  O   UNL     1     -11.570  56.773  48.669  0.00  0.00    +0.000 OA
ATOM     15  N   UNL     1     -11.138  55.026  50.381  0.00  0.00    +0.000 N 
ATOM     16  C   UNL     1     -13.251  56.754  50.607  0.00  0.00    +0.000 A 
ATOM     17  C   UNL     1     -11.158  55.052  51.682  0.00  0.00    +0.000 C 
ATOM     18  C   UNL     1     -13.047  56.592  51.966  0.00  0.00    +0.000 A 
ATOM     19  C   UNL     1     -14.204  57.640  50.101  0.00  0.00    +0.000 A 
ATOM     20  N   UNL     1     -12.100  55.694  52.455  0.00  0.00    +0.000 N 
ATOM     21  C   UNL     1     -13.879  57.291  52.848  0.00  0.00    +0.000 A 
ATOM     22  C   UNL     1     -15.002  58.358  50.989  0.00  0.00    +0.000 A 
ATOM     23  C   UNL     1     -14.845  58.176  52.363  0.00  0.00    +0.000 A 
ATOM     24  H   UNL     1     -10.431  54.521  49.918  0.00  0.00    +0.000 HD
ATOM     25  H   UNL     1     -12.105  55.505  53.422  0.00  0.00    +0.000 HD
ENDBRANCH   1  17
BRANCH   3  26
ATOM     26  O   UNL     1     -11.529  52.626  53.243  0.00  0.00    +0.000 OA
ATOM     27  H   UNL     1     -12.150  52.687  52.545  0.00  0.00    +0.000 HD
ENDBRANCH   3  26
BRANCH   5  28
ATOM     28  N   UNL     1      -6.215  54.538  52.729  0.00  0.00    +0.000 N 
ATOM     29  H   UNL     1      -5.798  55.309  53.179  0.00  0.00    +0.000 HD
BRANCH  28  30
ATOM     30  C   UNL     1      -5.460  53.691  51.788  0.00  0.00    +0.000 C 
BRANCH  30  31
ATOM     31  C   UNL     1      -6.039  53.777  50.399  0.00  0.00    +0.000 A 
ATOM     32  S   UNL     1      -5.713  55.155  49.432  0.00  0.00    +0.000 S 
ATOM     33  C   UNL     1      -6.908  52.894  49.770  0.00  0.00    +0.000 A 
ATOM     34  C   UNL     1      -6.750  54.614  48.192  0.00  0.00    +0.000 A 
ATOM     35  C   UNL     1      -7.311  53.393  48.488  0.00  0.00    +0.000 A 
ATOM     36  C   UNL     1      -7.407  51.603  50.337  0.00  0.00    +0.000 C 
ENDBRANCH  30  31
ENDBRANCH  28  30
ENDBRANCH   5  28
TORSDOF 5
ENDMDL
MODEL 2
REMARK VINA RESULT:      -8.4      2.857      5.267
REMARK  Name = 
REMARK  6 active torsions:
REMARK  status: ('A' for Active; 'I' for Inactive)
REMARK    1  A    between atoms: C_6  and  C_10
REMARK    2  A    between atoms: C_14  and  O_18
REMARK    3  A    between atoms: N_17  and  N_20
REMARK    4  A    between atoms: N_20  and  C_23
REMARK    5  A    between atoms: C_23  and  C_26
REMARK    6  A    between atoms: C_29  and  C_32
REMARK                            x       y       z     vdW  Elec       q    Type
REMARK                         _______ _______ _______ _____ _____    ______ ____
ROOT
ATOM      1  C   UNL     1     -11.791  55.698  48.696  0.00  0.00    +0.000 A 
ATOM      2  C   UNL     1     -10.842  54.912  49.544  0.00  0.00    +0.000 A 
ATOM      3  C   UNL     1     -11.905  55.434  47.385  0.00  0.00    +0.000 A 
ATOM      4  O   UNL     1     -10.863  55.152  50.756  0.00  0.00    +0.000 OA
ATOM      5  N   UNL     1     -10.025  53.952  48.924  0.00  0.00    +0.000 N 
ATOM      6  C   UNL     1     -11.114  54.362  46.765  0.00  0.00    +0.000 A 
ATOM      7  C   UNL     1     -10.170  53.650  47.526  0.00  0.00    +0.000 A 
ATOM      8  C   UNL     1     -11.298  54.047  45.405  0.00  0.00    +0.000 A 
ATOM      9  C   UNL     1      -9.425  52.638  46.889  0.00  0.00    +0.000 A 
ATOM     10  C   UNL     1     -10.574  53.024  44.801  0.00  0.00    +0.000 A 
ATOM     11  C   UNL     1      -9.639  52.319  45.545  0.00  0.00    +0.000 A 
ENDROOT
BRANCH   1  17
ATOM     12  S   UNL     1     -13.527  59.152  49.441  0.00  0.00    +0.000 S 
ATOM     13  O   UNL     1     -14.665  59.389  48.576  0.00  0.00    +0.000 OA
ATOM     14  O   UNL     1     -12.604  60.225  49.751  0.00  0.00    +0.000 OA
ATOM     15  N   UNL     1     -12.672  57.930  48.805  0.00  0.00    +0.000 N 
ATOM     16  C   UNL     1     -14.186  58.623  50.980  0.00  0.00    +0.000 A 
ATOM     17  C   UNL     1     -12.663  56.754  49.361  0.00  0.00    +0.000 C 
ATOM     18  C   UNL     1     -14.016  57.296  51.335  0.00  0.00    +0.000 A 
ATOM     19  C   UNL     1     -14.848  59.533  51.807  0.00  0.00    +0.000 A 
ATOM     20  N   UNL     1     -13.365  56.397  50.492  0.00  0.00    +0.000 N 
ATOM     21  C   UNL     1     -14.594  56.852  52.529  0.00  0.00    +0.000 A 
ATOM     22  C   UNL     1     -15.387  59.086  53.012  0.00  0.00    +0.000 A 
ATOM     23  C   UNL     1     -15.268  57.743  53.367  0.00  0.00    +0.000 A 
ATOM     24  H   UNL     1     -12.151  58.080  47.983  0.00  0.00    +0.000 HD
ATOM     25  H   UNL     1     -13.409  55.441  50.721  0.00  0.00    +0.000 HD
ENDBRANCH   1  17
BRANCH   3  26
ATOM     26  O   UNL     1     -12.763  56.101  46.528  0.00  0.00    +0.000 OA
ATOM     27  H   UNL     1     -12.838  55.830  45.635  0.00  0.00    +0.000 HD
ENDBRANCH   3  26
BRANCH   5  28
ATOM     28  N   UNL     1      -8.925  53.328  49.648  0.00  0.00    +0.000 N 
ATOM     29  H   UNL     1      -9.018  52.443  50.072  0.00  0.00    +0.000 HD
BRANCH  28  30
ATOM     30  C   UNL     1      -7.664  54.087  49.713  0.00  0.00    +0.000 C 
BRANCH  30  31
ATOM     31  C   UNL     1      -7.397  54.574  51.114  0.00  0.00    +0.000 A 
ATOM     32  S   UNL     1      -7.057  53.438  52.353  0.00  0.00    +0.000 S 
ATOM     33  C   UNL     1      -7.460  55.873  51.602  0.00  0.00    +0.000 A 
ATOM     34  C   UNL     1      -7.031  54.651  53.551  0.00  0.00    +0.000 A 
ATOM     35  C   UNL     1      -7.244  55.902  53.020  0.00  0.00    +0.000 A 
ATOM     36  C   UNL     1      -7.747  57.100  50.796  0.00  0.00    +0.000 C 
ENDBRANCH  30  31
ENDBRANCH  28  30
ENDBRANCH   5  28
TORSDOF 5
ENDMDL
MODEL 3
REMARK VINA RESULT:      -8.4      2.097      2.877
REMARK  Name = 
REMARK  6 active torsions:
REMARK  status: ('A' for Active; 'I' for Inactive)
REMARK    1  A    between atoms: C_6  and  C_10
REMARK    2  A    between atoms: C_14  and  O_18
REMARK    3  A    between atoms: N_17  and  N_20
REMARK    4  A    between atoms: N_20  and  C_23
REMARK    5  A    between atoms: C_23  and  C_26
REMARK    6  A    between atoms: C_29  and  C_32
REMARK                            x       y       z     vdW  Elec       q    Type
REMARK                         _______ _______ _______ _____ _____    ______ ____
ROOT
ATOM      1  C   UNL     1     -11.134  54.626  50.934  0.00  0.00    +0.000 A 
ATOM      2  C   UNL     1      -9.724  55.033  50.650  0.00  0.00    +0.000 A 
ATOM      3  C   UNL     1     -11.410  53.375  51.335  0.00  0.00    +0.000 A 
ATOM      4  O   UNL     1      -9.543  56.225  50.376  0.00  0.00    +0.000 OA
ATOM      5  N   UNL     1      -8.713  54.062  50.739  0.00  0.00    +0.000 N 
ATOM      6  C   UNL     1     -10.333  52.392  51.517  0.00  0.00    +0.000 A 
ATOM      7  C   UNL     1      -9.005  52.731  51.197  0.00  0.00    +0.000 A 
ATOM      8  C   UNL     1     -10.627  51.106  52.008  0.00  0.00    +0.000 A 
ATOM      9  C   UNL     1      -8.006  51.755  51.375  0.00  0.00    +0.000 A 
ATOM     10  C   UNL     1      -9.621  50.166  52.207  0.00  0.00    +0.000 A 
ATOM     11  C   UNL     1      -8.310  50.492  51.891  0.00  0.00    +0.000 A 
ENDROOT
BRANCH   1  17
ATOM     12  S   UNL     1     -13.579  57.292  49.380  0.00  0.00    +0.000 S 
ATOM     13  O   UNL     1     -14.700  56.675  48.701  0.00  0.00    +0.000 OA
ATOM     14  O   UNL     1     -12.912  58.442  48.801  0.00  0.00    +0.000 OA
ATOM     15  N   UNL     1     -12.461  56.143  49.628  0.00  0.00    +0.000 N 
ATOM     16  C   UNL     1     -14.183  57.821  50.940  0.00  0.00    +0.000 A 
ATOM     17  C   UNL     1     -12.235  55.671  50.819  0.00  0.00    +0.000 C 
ATOM     18  C   UNL     1     -13.760  57.134  52.065  0.00  0.00    +0.000 A 
ATOM     19  C   UNL     1     -15.056  58.909  51.020  0.00  0.00    +0.000 A 
ATOM     20  N   UNL     1     -12.899  56.043  51.967  0.00  0.00    +0.000 N 
ATOM     21  C   UNL     1     -14.288  57.508  53.305  0.00  0.00    +0.000 A 
ATOM     22  C   UNL     1     -15.546  59.295  52.265  0.00  0.00    +0.000 A 
ATOM     23  C   UNL     1     -15.170  58.588  53.407  0.00  0.00    +0.000 A 
ATOM     24  H   UNL     1     -11.945  55.797  48.864  0.00  0.00    +0.000 HD
ATOM     25  H   UNL     1     -12.755  55.500  52.776  0.00  0.00    +0.000 HD
ENDBRANCH   1  17
BRANCH   3  26
ATOM     26  O   UNL     1     -12.680  52.914  51.631  0.00  0.00    +0.000 OA
ATOM     27  H   UNL     1     -12.790  52.122  52.118  0.00  0.00    +0.000 HD
ENDBRANCH   3  26
BRANCH   5  28
ATOM     28  N   UNL     1      -7.368  54.336  50.249  0.00  0.00    +0.000 N 
ATOM     29  H   UNL     1      -7.017  53.910  49.433  0.00  0.00    +0.000 HD
BRANCH  28  30
ATOM     30  C   UNL     1      -6.560  55.284  51.036  0.00  0.00    +0.000 C 
BRANCH  30  31
ATOM     31  C   UNL     1      -6.030  54.632  52.288  0.00  0.00    +0.000 A 
ATOM     32  S   UNL     1      -4.620  53.661  52.203  0.00  0.00    +0.000 S 
ATOM     33  C   UNL     1      -6.583  54.637  53.563  0.00  0.00    +0.000 A 
ATOM     34  C   UNL     1      -4.752  53.207  53.841  0.00  0.00    +0.000 A 
ATOM     35  C   UNL     1      -5.828  53.806  54.455  0.00  0.00    +0.000 A 
ATOM     36  C   UNL     1      -7.818  55.370  53.980  0.00  0.00    +0.000 C 
ENDBRANCH  30  31
ENDBRANCH  28  30
ENDBRANCH   5  28
TORSDOF 5
ENDMDL
MODEL 4
REMARK VINA RESULT:      -8.3      2.700      8.144
REMARK  Name = 
REMARK  6 active torsions:
REMARK  status: ('A' for Active; 'I' for Inactive)
REMARK    1  A    between atoms: C_6  and  C_10
REMARK    2  A    between atoms: C_14  and  O_18
REMARK    3  A    between atoms: N_17  and  N_20
REMARK    4  A    between atoms: N_20  and  C_23
REMARK    5  A    between atoms: C_23  and  C_26
REMARK    6  A    between atoms: C_29  and  C_32
REMARK                            x       y       z     vdW  Elec       q    Type
REMARK                         _______ _______ _______ _____ _____    ______ ____
ROOT
ATOM      1  C   UNL     1      -9.173  54.349  50.015  0.00  0.00    +0.000 A 
ATOM      2  C   UNL     1     -10.418  55.143  50.251  0.00  0.00    +0.000 A 
ATOM      3  C   UNL     1      -8.924  53.823  48.805  0.00  0.00    +0.000 A 
ATOM      4  O   UNL     1     -10.529  55.671  51.363  0.00  0.00    +0.000 OA
ATOM      5  N   UNL     1     -11.348  55.261  49.205  0.00  0.00    +0.000 N 
ATOM      6  C   UNL     1      -9.859  54.032  47.691  0.00  0.00    +0.000 A 
ATOM      7  C   UNL     1     -11.066  54.723  47.901  0.00  0.00    +0.000 A 
ATOM      8  C   UNL     1      -9.550  53.538  46.410  0.00  0.00    +0.000 A 
ATOM      9  C   UNL     1     -11.938  54.890  46.808  0.00  0.00    +0.000 A 
ATOM     10  C   UNL     1     -10.410  53.741  45.335  0.00  0.00    +0.000 A 
ATOM     11  C   UNL     1     -11.604  54.418  45.535  0.00  0.00    +0.000 A 
ENDROOT
BRANCH   1  17
ATOM     12  S   UNL     1      -7.694  54.126  53.657  0.00  0.00    +0.000 S 
ATOM     13  O   UNL     1      -7.889  52.817  54.246  0.00  0.00    +0.000 OA
ATOM     14  O   UNL     1      -7.887  55.324  54.450  0.00  0.00    +0.000 OA
ATOM     15  N   UNL     1      -8.661  54.229  52.359  0.00  0.00    +0.000 N 
ATOM     16  C   UNL     1      -6.027  54.172  53.110  0.00  0.00    +0.000 A 
ATOM     17  C   UNL     1      -8.173  54.203  51.153  0.00  0.00    +0.000 C 
ATOM     18  C   UNL     1      -5.793  54.146  51.746  0.00  0.00    +0.000 A 
ATOM     19  C   UNL     1      -4.988  54.243  54.040  0.00  0.00    +0.000 A 
ATOM     20  N   UNL     1      -6.841  54.062  50.831  0.00  0.00    +0.000 N 
ATOM     21  C   UNL     1      -4.465  54.117  51.304  0.00  0.00    +0.000 A 
ATOM     22  C   UNL     1      -3.671  54.251  53.586  0.00  0.00    +0.000 A 
ATOM     23  C   UNL     1      -3.410  54.178  52.218  0.00  0.00    +0.000 A 
ATOM     24  H   UNL     1      -9.633  54.313  52.485  0.00  0.00    +0.000 HD
ATOM     25  H   UNL     1      -6.612  53.890  49.889  0.00  0.00    +0.000 HD
ENDBRANCH   1  17
BRANCH   3  26
ATOM     26  O   UNL     1      -7.796  53.085  48.494  0.00  0.00    +0.000 OA
ATOM     27  H   UNL     1      -7.871  52.313  47.970  0.00  0.00    +0.000 HD
ENDBRANCH   3  26
BRANCH   5  28
ATOM     28  N   UNL     1     -12.675  55.815  49.443  0.00  0.00    +0.000 N 
ATOM     29  H   UNL     1     -13.451  55.239  49.631  0.00  0.00    +0.000 HD
BRANCH  28  30
ATOM     30  C   UNL     1     -12.795  57.283  49.387  0.00  0.00    +0.000 C 
BRANCH  30  31
ATOM     31  C   UNL     1     -13.610  57.803  50.544  0.00  0.00    +0.000 A 
ATOM     32  S   UNL     1     -14.023  56.747  51.829  0.00  0.00    +0.000 S 
ATOM     33  C   UNL     1     -14.174  59.063  50.703  0.00  0.00    +0.000 A 
ATOM     34  C   UNL     1     -14.984  57.934  52.586  0.00  0.00    +0.000 A 
ATOM     35  C   UNL     1     -14.968  59.124  51.895  0.00  0.00    +0.000 A 
ATOM     36  C   UNL     1     -14.025  60.216  49.763  0.00  0.00    +0.000 C 
ENDBRANCH  30  31
ENDBRANCH  28  30
ENDBRANCH   5  28
TORSDOF 5
ENDMDL
MODEL 5
REMARK VINA RESULT:      -8.2      2.547      7.946
REMARK  Name = 
REMARK  6 active torsions:
REMARK  status: ('A' for Active; 'I' for Inactive)
REMARK    1  A    between atoms: C_6  and  C_10
REMARK    2  A    between atoms: C_14  and  O_18
REMARK    3  A    between atoms: N_17  and  N_20
REMARK    4  A    between atoms: N_20  and  C_23
REMARK    5  A    between atoms: C_23  and  C_26
REMARK    6  A    between atoms: C_29  and  C_32
REMARK                            x       y       z     vdW  Elec       q    Type
REMARK                         _______ _______ _______ _____ _____    ______ ____
ROOT
ATOM      1  C   UNL     1      -9.617  54.209  50.178  0.00  0.00    +0.000 A 
ATOM      2  C   UNL     1     -10.856  55.031  50.329  0.00  0.00    +0.000 A 
ATOM      3  C   UNL     1      -9.270  53.720  48.977  0.00  0.00    +0.000 A 
ATOM      4  O   UNL     1     -11.057  55.521  51.446  0.00  0.00    +0.000 OA
ATOM      5  N   UNL     1     -11.682  55.214  49.207  0.00  0.00    +0.000 N 
ATOM      6  C   UNL     1     -10.091  53.998  47.790  0.00  0.00    +0.000 A 
ATOM      7  C   UNL     1     -11.294  54.716  47.915  0.00  0.00    +0.000 A 
ATOM      8  C   UNL     1      -9.677  53.542  46.524  0.00  0.00    +0.000 A 
ATOM      9  C   UNL     1     -12.055  54.949  46.754  0.00  0.00    +0.000 A 
ATOM     10  C   UNL     1     -10.427  53.809  45.384  0.00  0.00    +0.000 A 
ATOM     11  C   UNL     1     -11.616  54.515  45.500  0.00  0.00    +0.000 A 
ENDROOT
BRANCH   1  17
ATOM     12  S   UNL     1      -6.630  54.584  52.716  0.00  0.00    +0.000 S 
ATOM     13  O   UNL     1      -6.795  55.730  53.587  0.00  0.00    +0.000 OA
ATOM     14  O   UNL     1      -5.331  54.269  52.154  0.00  0.00    +0.000 OA
ATOM     15  N   UNL     1      -7.676  54.747  51.487  0.00  0.00    +0.000 N 
ATOM     16  C   UNL     1      -7.101  53.182  53.660  0.00  0.00    +0.000 A 
ATOM     17  C   UNL     1      -8.731  53.991  51.397  0.00  0.00    +0.000 C 
ATOM     18  C   UNL     1      -8.288  52.550  53.332  0.00  0.00    +0.000 A 
ATOM     19  C   UNL     1      -6.282  52.731  54.698  0.00  0.00    +0.000 A 
ATOM     20  N   UNL     1      -9.100  53.020  52.302  0.00  0.00    +0.000 N 
ATOM     21  C   UNL     1      -8.702  51.471  54.121  0.00  0.00    +0.000 A 
ATOM     22  C   UNL     1      -6.688  51.632  55.453  0.00  0.00    +0.000 A 
ATOM     23  C   UNL     1      -7.903  51.009  55.170  0.00  0.00    +0.000 A 
ATOM     24  H   UNL     1      -7.509  55.429  50.797  0.00  0.00    +0.000 HD
ATOM     25  H   UNL     1     -10.000  52.630  52.214  0.00  0.00    +0.000 HD
ENDBRANCH   1  17
BRANCH   3  26
ATOM     26  O   UNL     1      -8.137  52.961  48.742  0.00  0.00    +0.000 OA
ATOM     27  H   UNL     1      -8.000  52.165  49.217  0.00  0.00    +0.000 HD
ENDBRANCH   3  26
BRANCH   5  28
ATOM     28  N   UNL     1     -13.010  55.799  49.343  0.00  0.00    +0.000 N 
ATOM     29  H   UNL     1     -13.811  55.241  49.474  0.00  0.00    +0.000 HD
BRANCH  28  30
ATOM     30  C   UNL     1     -13.092  57.269  49.276  0.00  0.00    +0.000 C 
BRANCH  30  31
ATOM     31  C   UNL     1     -13.817  57.826  50.475  0.00  0.00    +0.000 A 
ATOM     32  S   UNL     1     -14.326  56.765  51.722  0.00  0.00    +0.000 S 
ATOM     33  C   UNL     1     -14.225  59.134  50.704  0.00  0.00    +0.000 A 
ATOM     34  C   UNL     1     -15.125  58.020  52.554  0.00  0.00    +0.000 A 
ATOM     35  C   UNL     1     -14.983  59.231  51.917  0.00  0.00    +0.000 A 
ATOM     36  C   UNL     1     -13.961  60.304  49.811  0.00  0.00    +0.000 C 
ENDBRANCH  30  31
ENDBRANCH  28  30
ENDBRANCH   5  28
TORSDOF 5
ENDMDL
MODEL 6
REMARK VINA RESULT:      -8.2      2.757      8.044
REMARK  Name = 
REMARK  6 active torsions:
REMARK  status: ('A' for Active; 'I' for Inactive)
REMARK    1  A    between atoms: C_6  and  C_10
REMARK    2  A    between atoms: C_14  and  O_18
REMARK    3  A    between atoms: N_17  and  N_20
REMARK    4  A    between atoms: N_20  and  C_23
REMARK    5  A    between atoms: C_23  and  C_26
REMARK    6  A    between atoms: C_29  and  C_32
REMARK                            x       y       z     vdW  Elec       q    Type
REMARK                         _______ _______ _______ _____ _____    ______ ____
ROOT
ATOM      1  C   UNL     1      -9.077  54.329  49.809  0.00  0.00    +0.000 A 
ATOM      2  C   UNL     1     -10.019  55.491  49.806  0.00  0.00    +0.000 A 
ATOM      3  C   UNL     1      -9.040  53.484  48.767  0.00  0.00    +0.000 A 
ATOM      4  O   UNL     1      -9.927  56.273  50.758  0.00  0.00    +0.000 OA
ATOM      5  N   UNL     1     -10.909  55.630  48.728  0.00  0.00    +0.000 N 
ATOM      6  C   UNL     1      -9.910  53.694  47.601  0.00  0.00    +0.000 A 
ATOM      7  C   UNL     1     -10.848  54.742  47.599  0.00  0.00    +0.000 A 
ATOM      8  C   UNL     1      -9.809  52.844  46.484  0.00  0.00    +0.000 A 
ATOM      9  C   UNL     1     -11.670  54.900  46.466  0.00  0.00    +0.000 A 
ATOM     10  C   UNL     1     -10.608  53.035  45.361  0.00  0.00    +0.000 A 
ATOM     11  C   UNL     1     -11.538  54.065  45.353  0.00  0.00    +0.000 A 
ENDROOT
BRANCH   1  17
ATOM     12  S   UNL     1      -7.744  54.090  53.506  0.00  0.00    +0.000 S 
ATOM     13  O   UNL     1      -7.997  52.790  54.094  0.00  0.00    +0.000 OA
ATOM     14  O   UNL     1      -7.934  55.298  54.284  0.00  0.00    +0.000 OA
ATOM     15  N   UNL     1      -8.657  54.211  52.171  0.00  0.00    +0.000 N 
ATOM     16  C   UNL     1      -6.057  54.088  53.022  0.00  0.00    +0.000 A 
ATOM     17  C   UNL     1      -8.125  54.164  50.985  0.00  0.00    +0.000 C 
ATOM     18  C   UNL     1      -5.771  54.046  51.669  0.00  0.00    +0.000 A 
ATOM     19  C   UNL     1      -5.052  54.137  53.992  0.00  0.00    +0.000 A 
ATOM     20  N   UNL     1      -6.786  53.984  50.715  0.00  0.00    +0.000 N 
ATOM     21  C   UNL     1      -4.430  53.978  51.278  0.00  0.00    +0.000 A 
ATOM     22  C   UNL     1      -3.719  54.106  53.588  0.00  0.00    +0.000 A 
ATOM     23  C   UNL     1      -3.408  54.017  52.231  0.00  0.00    +0.000 A 
ATOM     24  H   UNL     1      -9.631  54.322  52.260  0.00  0.00    +0.000 HD
ATOM     25  H   UNL     1      -6.527  53.801  49.783  0.00  0.00    +0.000 HD
ENDBRANCH   1  17
BRANCH   3  26
ATOM     26  O   UNL     1      -8.195  52.392  48.679  0.00  0.00    +0.000 OA
ATOM     27  H   UNL     1      -7.819  52.027  49.455  0.00  0.00    +0.000 HD
ENDBRANCH   3  26
BRANCH   5  28
ATOM     28  N   UNL     1     -12.001  56.595  48.781  0.00  0.00    +0.000 N 
ATOM     29  H   UNL     1     -11.997  57.413  48.232  0.00  0.00    +0.000 HD
BRANCH  28  30
ATOM     30  C   UNL     1     -13.111  56.283  49.697  0.00  0.00    +0.000 C 
BRANCH  30  31
ATOM     31  C   UNL     1     -13.846  57.535  50.103  0.00  0.00    +0.000 A 
ATOM     32  S   UNL     1     -13.747  58.931  49.112  0.00  0.00    +0.000 S 
ATOM     33  C   UNL     1     -14.575  57.770  51.262  0.00  0.00    +0.000 A 
ATOM     34  C   UNL     1     -14.632  59.868  50.228  0.00  0.00    +0.000 A 
ATOM     35  C   UNL     1     -15.026  59.130  51.320  0.00  0.00    +0.000 A 
ATOM     36  C   UNL     1     -14.844  56.775  52.345  0.00  0.00    +0.000 C 
ENDBRANCH  30  31
ENDBRANCH  28  30
ENDBRANCH   5  28
TORSDOF 5
ENDMDL
MODEL 7
REMARK VINA RESULT:      -8.1      3.342      5.178
REMARK  Name = 
REMARK  6 active torsions:
REMARK  status: ('A' for Active; 'I' for Inactive)
REMARK    1  A    between atoms: C_6  and  C_10
REMARK    2  A    between atoms: C_14  and  O_18
REMARK    3  A    between atoms: N_17  and  N_20
REMARK    4  A    between atoms: N_20  and  C_23
REMARK    5  A    between atoms: C_23  and  C_26
REMARK    6  A    between atoms: C_29  and  C_32
REMARK                            x       y       z     vdW  Elec       q    Type
REMARK                         _______ _______ _______ _____ _____    ______ ____
ROOT
ATOM      1  C   UNL     1     -10.665  55.725  48.362  0.00  0.00    +0.000 A 
ATOM      2  C   UNL     1      -9.225  55.720  48.766  0.00  0.00    +0.000 A 
ATOM      3  C   UNL     1     -11.048  55.140  47.216  0.00  0.00    +0.000 A 
ATOM      4  O   UNL     1      -8.966  56.196  49.877  0.00  0.00    +0.000 OA
ATOM      5  N   UNL     1      -8.282  55.160  47.888  0.00  0.00    +0.000 N 
ATOM      6  C   UNL     1     -10.066  54.473  46.351  0.00  0.00    +0.000 A 
ATOM      7  C   UNL     1      -8.698  54.507  46.676  0.00  0.00    +0.000 A 
ATOM      8  C   UNL     1     -10.492  53.800  45.190  0.00  0.00    +0.000 A 
ATOM      9  C   UNL     1      -7.790  53.866  45.812  0.00  0.00    +0.000 A 
ATOM     10  C   UNL     1      -9.582  53.145  44.365  0.00  0.00    +0.000 A 
ATOM     11  C   UNL     1      -8.231  53.177  44.678  0.00  0.00    +0.000 A 
ENDROOT
BRANCH   1  17
ATOM     12  S   UNL     1     -13.209  56.141  51.338  0.00  0.00    +0.000 S 
ATOM     13  O   UNL     1     -12.540  56.411  52.594  0.00  0.00    +0.000 OA
ATOM     14  O   UNL     1     -14.336  55.231  51.286  0.00  0.00    +0.000 OA
ATOM     15  N   UNL     1     -12.091  55.606  50.291  0.00  0.00    +0.000 N 
ATOM     16  C   UNL     1     -13.810  57.686  50.763  0.00  0.00    +0.000 A 
ATOM     17  C   UNL     1     -11.686  56.349  49.302  0.00  0.00    +0.000 C 
ATOM     18  C   UNL     1     -13.190  58.254  49.663  0.00  0.00    +0.000 A 
ATOM     19  C   UNL     1     -14.887  58.300  51.406  0.00  0.00    +0.000 A 
ATOM     20  N   UNL     1     -12.108  57.634  49.041  0.00  0.00    +0.000 N 
ATOM     21  C   UNL     1     -13.621  59.515  49.239  0.00  0.00    +0.000 A 
ATOM     22  C   UNL     1     -15.331  59.540  50.951  0.00  0.00    +0.000 A 
ATOM     23  C   UNL     1     -14.691  60.152  49.873  0.00  0.00    +0.000 A 
ATOM     24  H   UNL     1     -11.713  54.705  50.405  0.00  0.00    +0.000 HD
ATOM     25  H   UNL     1     -11.610  58.151  48.367  0.00  0.00    +0.000 HD
ENDBRANCH   1  17
BRANCH   3  26
ATOM     26  O   UNL     1     -12.356  55.086  46.769  0.00  0.00    +0.000 OA
ATOM     27  H   UNL     1     -12.561  54.638  45.973  0.00  0.00    +0.000 HD
ENDBRANCH   3  26
BRANCH   5  28
ATOM     28  N   UNL     1      -6.853  55.336  48.114  0.00  0.00    +0.000 N 
ATOM     29  H   UNL     1      -6.315  55.956  47.570  0.00  0.00    +0.000 HD
BRANCH  28  30
ATOM     30  C   UNL     1      -6.255  54.538  49.199  0.00  0.00    +0.000 C 
BRANCH  30  31
ATOM     31  C   UNL     1      -5.883  53.160  48.716  0.00  0.00    +0.000 A 
ATOM     32  S   UNL     1      -4.391  52.923  47.905  0.00  0.00    +0.000 S 
ATOM     33  C   UNL     1      -6.640  51.996  48.763  0.00  0.00    +0.000 A 
ATOM     34  C   UNL     1      -4.753  51.290  47.574  0.00  0.00    +0.000 A 
ATOM     35  C   UNL     1      -5.970  50.918  48.097  0.00  0.00    +0.000 A 
ATOM     36  C   UNL     1      -7.993  51.855  49.385  0.00  0.00    +0.000 C 
ENDBRANCH  30  31
ENDBRANCH  28  30
ENDBRANCH   5  28
TORSDOF 5
ENDMDL
MODEL 8
REMARK VINA RESULT:      -7.9      2.992      7.899
REMARK  Name = 
REMARK  6 active torsions:
REMARK  status: ('A' for Active; 'I' for Inactive)
REMARK    1  A    between atoms: C_6  and  C_10
REMARK    2  A    between atoms: C_14  and  O_18
REMARK    3  A    between atoms: N_17  and  N_20
REMARK    4  A    between atoms: N_20  and  C_23
REMARK    5  A    between atoms: C_23  and  C_26
REMARK    6  A    between atoms: C_29  and  C_32
REMARK                            x       y       z     vdW  Elec       q    Type
REMARK                         _______ _______ _______ _____ _____    ______ ____
ROOT
ATOM      1  C   UNL     1      -9.756  53.668  49.841  0.00  0.00    +0.000 A 
ATOM      2  C   UNL     1     -10.889  54.630  50.012  0.00  0.00    +0.000 A 
ATOM      3  C   UNL     1      -9.474  53.165  48.630  0.00  0.00    +0.000 A 
ATOM      4  O   UNL     1     -11.027  55.119  51.139  0.00  0.00    +0.000 OA
ATOM      5  N   UNL     1     -11.689  54.931  48.898  0.00  0.00    +0.000 N 
ATOM      6  C   UNL     1     -10.258  53.560  47.452  0.00  0.00    +0.000 A 
ATOM      7  C   UNL     1     -11.366  54.414  47.595  0.00  0.00    +0.000 A 
ATOM      8  C   UNL     1      -9.904  53.082  46.176  0.00  0.00    +0.000 A 
ATOM      9  C   UNL     1     -12.098  54.758  46.442  0.00  0.00    +0.000 A 
ATOM     10  C   UNL     1     -10.621  53.458  45.044  0.00  0.00    +0.000 A 
ATOM     11  C   UNL     1     -11.717  54.298  45.178  0.00  0.00    +0.000 A 
ENDROOT
BRANCH   1  17
ATOM     12  S   UNL     1      -8.279  51.687  52.905  0.00  0.00    +0.000 S 
ATOM     13  O   UNL     1      -7.324  50.678  52.494  0.00  0.00    +0.000 OA
ATOM     14  O   UNL     1      -9.244  51.402  53.949  0.00  0.00    +0.000 OA
ATOM     15  N   UNL     1      -9.098  52.155  51.586  0.00  0.00    +0.000 N 
ATOM     16  C   UNL     1      -7.333  53.048  53.480  0.00  0.00    +0.000 A 
ATOM     17  C   UNL     1      -8.900  53.324  51.051  0.00  0.00    +0.000 C 
ATOM     18  C   UNL     1      -7.309  54.194  52.705  0.00  0.00    +0.000 A 
ATOM     19  C   UNL     1      -6.642  52.958  54.691  0.00  0.00    +0.000 A 
ATOM     20  N   UNL     1      -7.994  54.263  51.493  0.00  0.00    +0.000 N 
ATOM     21  C   UNL     1      -6.506  55.260  53.124  0.00  0.00    +0.000 A 
ATOM     22  C   UNL     1      -5.874  54.040  55.116  0.00  0.00    +0.000 A 
ATOM     23  C   UNL     1      -5.799  55.188  54.327  0.00  0.00    +0.000 A 
ATOM     24  H   UNL     1      -9.756  51.544  51.183  0.00  0.00    +0.000 HD
ATOM     25  H   UNL     1      -7.818  55.039  50.912  0.00  0.00    +0.000 HD
ENDBRANCH   1  17
BRANCH   3  26
ATOM     26  O   UNL     1      -8.440  52.280  48.376  0.00  0.00    +0.000 OA
ATOM     27  H   UNL     1      -7.611  52.395  48.796  0.00  0.00    +0.000 HD
ENDBRANCH   3  26
BRANCH   5  28
ATOM     28  N   UNL     1     -12.938  55.667  49.051  0.00  0.00    +0.000 N 
ATOM     29  H   UNL     1     -13.811  55.212  49.052  0.00  0.00    +0.000 HD
BRANCH  28  30
ATOM     30  C   UNL     1     -12.826  57.128  49.204  0.00  0.00    +0.000 C 
BRANCH  30  31
ATOM     31  C   UNL     1     -13.663  57.617  50.358  0.00  0.00    +0.000 A 
ATOM     32  S   UNL     1     -14.314  56.485  51.469  0.00  0.00    +0.000 S 
ATOM     33  C   UNL     1     -14.075  58.915  50.636  0.00  0.00    +0.000 A 
ATOM     34  C   UNL     1     -15.179  57.696  52.301  0.00  0.00    +0.000 A 
ATOM     35  C   UNL     1     -14.954  58.945  51.768  0.00  0.00    +0.000 A 
ATOM     36  C   UNL     1     -13.702  60.138  49.860  0.00  0.00    +0.000 C 
ENDBRANCH  30  31
ENDBRANCH  28  30
ENDBRANCH   5  28
TORSDOF 5
ENDMDL
MODEL 9
REMARK VINA RESULT:      -7.8      1.816      2.192
REMARK  Name = 
REMARK  6 active torsions:
REMARK  status: ('A' for Active; 'I' for Inactive)
REMARK    1  A    between atoms: C_6  and  C_10
REMARK    2  A    between atoms: C_14  and  O_18
REMARK    3  A    between atoms: N_17  and  N_20
REMARK    4  A    between atoms: N_20  and  C_23
REMARK    5  A    between atoms: C_23  and  C_26
REMARK    6  A    between atoms: C_29  and  C_32
REMARK                            x       y       z     vdW  Elec       q    Type
REMARK                         _______ _______ _______ _____ _____    ______ ____
ROOT
ATOM      1  C   UNL     1      -9.267  55.274  51.313  0.00  0.00    +0.000 A 
ATOM      2  C   UNL     1      -8.172  55.760  50.419  0.00  0.00    +0.000 A 
ATOM      3  C   UNL     1      -8.977  54.749  52.514  0.00  0.00    +0.000 A 
ATOM      4  O   UNL     1      -8.526  56.314  49.372  0.00  0.00    +0.000 OA
ATOM      5  N   UNL     1      -6.841  55.586  50.831  0.00  0.00    +0.000 N 
ATOM      6  C   UNL     1      -7.585  54.659  52.976  0.00  0.00    +0.000 A 
ATOM      7  C   UNL     1      -6.533  55.052  52.129  0.00  0.00    +0.000 A 
ATOM      8  C   UNL     1      -7.301  54.175  54.267  0.00  0.00    +0.000 A 
ATOM      9  C   UNL     1      -5.213  54.937  52.607  0.00  0.00    +0.000 A 
ATOM     10  C   UNL     1      -5.992  54.098  54.733  0.00  0.00    +0.000 A 
ATOM     11  C   UNL     1      -4.948  54.481  53.902  0.00  0.00    +0.000 A 
ENDROOT
BRANCH   1  17
ATOM     12  S   UNL     1     -12.449  55.359  48.997  0.00  0.00    +0.000 S 
ATOM     13  O   UNL     1     -12.995  54.036  48.771  0.00  0.00    +0.000 OA
ATOM     14  O   UNL     1     -12.367  56.315  47.911  0.00  0.00    +0.000 OA
ATOM     15  N   UNL     1     -10.960  55.177  49.612  0.00  0.00    +0.000 N 
ATOM     16  C   UNL     1     -13.465  56.103  50.219  0.00  0.00    +0.000 A 
ATOM     17  C   UNL     1     -10.710  55.443  50.861  0.00  0.00    +0.000 C 
ATOM     18  C   UNL     1     -12.930  56.282  51.484  0.00  0.00    +0.000 A 
ATOM     19  C   UNL     1     -14.764  56.503  49.900  0.00  0.00    +0.000 A 
ATOM     20  N   UNL     1     -11.636  55.866  51.789  0.00  0.00    +0.000 N 
ATOM     21  C   UNL     1     -13.755  56.816  52.480  0.00  0.00    +0.000 A 
ATOM     22  C   UNL     1     -15.563  57.067  50.892  0.00  0.00    +0.000 A 
ATOM     23  C   UNL     1     -15.061  57.214  52.185  0.00  0.00    +0.000 A 
ATOM     24  H   UNL     1     -10.232  54.860  49.031  0.00  0.00    +0.000 HD
ATOM     25  H   UNL     1     -11.364  55.876  52.736  0.00  0.00    +0.000 HD
ENDBRANCH   1  17
BRANCH   3  26
ATOM     26  O   UNL     1      -9.924  54.285  53.411  0.00  0.00    +0.000 OA
ATOM     27  H   UNL     1     -10.149  54.798  54.161  0.00  0.00    +0.000 HD
ENDBRANCH   3  26
BRANCH   5  28
ATOM     28  N   UNL     1      -5.736  55.820  49.908  0.00  0.00    +0.000 N 
ATOM     29  H   UNL     1      -5.449  56.730  49.664  0.00  0.00    +0.000 HD
BRANCH  28  30
ATOM     30  C   UNL     1      -5.070  54.625  49.361  0.00  0.00    +0.000 C 
BRANCH  30  31
ATOM     31  C   UNL     1      -6.065  53.708  48.696  0.00  0.00    +0.000 A 
ATOM     32  S   UNL     1      -6.689  54.117  47.152  0.00  0.00    +0.000 S 
ATOM     33  C   UNL     1      -6.645  52.553  49.203  0.00  0.00    +0.000 A 
ATOM     34  C   UNL     1      -7.761  52.791  47.160  0.00  0.00    +0.000 A 
ATOM     35  C   UNL     1      -7.627  52.030  48.298  0.00  0.00    +0.000 A 
ATOM     36  C   UNL     1      -6.339  51.925  50.526  0.00  0.00    +0.000 C 
ENDBRANCH  30  31
ENDBRANCH  28  30
ENDBRANCH   5  28
TORSDOF 5
ENDMDL
