MODEL 1
REMARK VINA RESULT:      -8.8      0.000      0.000
REMARK  Name = 
REMARK  5 active torsions:
REMARK  status: ('A' for Active; 'I' for Inactive)
REMARK    1  A    between atoms: C_6  and  C_10
REMARK    2  A    between atoms: C_14  and  O_18
REMARK    3  A    between atoms: N_17  and  N_20
REMARK    4  A    between atoms: N_20  and  C_23
REMARK    5  A    between atoms: C_23  and  C_26
REMARK                            x       y       z     vdW  Elec       q    Type
REMARK                         _______ _______ _______ _____ _____    ______ ____
ROOT
ATOM      1  C   UNL     1      -9.120  54.339  49.892  0.00  0.00    +0.000 A 
ATOM      2  C   UNL     1     -10.166  55.402  49.962  0.00  0.00    +0.000 A 
ATOM      3  C   UNL     1      -9.008  53.567  48.796  0.00  0.00    +0.000 A 
ATOM      4  O   UNL     1     -10.231  56.066  51.001  0.00  0.00    +0.000 OA
ATOM      5  N   UNL     1     -10.987  55.596  48.848  0.00  0.00    +0.000 N 
ATOM      6  C   UNL     1      -9.884  53.783  47.636  0.00  0.00    +0.000 A 
ATOM      7  C   UNL     1     -10.864  54.790  47.676  0.00  0.00    +0.000 A 
ATOM      8  C   UNL     1      -9.745  52.999  46.476  0.00  0.00    +0.000 A 
ATOM      9  C   UNL     1     -11.690  54.983  46.555  0.00  0.00    +0.000 A 
ATOM     10  C   UNL     1     -10.559  53.213  45.366  0.00  0.00    +0.000 A 
ATOM     11  C   UNL     1     -11.535  54.203  45.408  0.00  0.00    +0.000 A 
ENDROOT
BRANCH   1  17
ATOM     12  S   UNL     1      -7.745  54.102  53.566  0.00  0.00    +0.000 S 
ATOM     13  O   UNL     1      -7.971  52.793  54.146  0.00  0.00    +0.000 OA
ATOM     14  O   UNL     1      -7.945  55.302  54.361  0.00  0.00    +0.000 OA
ATOM     15  N   UNL     1      -8.676  54.215  52.243  0.00  0.00    +0.000 N 
ATOM     16  C   UNL     1      -6.065  54.129  53.061  0.00  0.00    +0.000 A 
ATOM     17  C   UNL     1      -8.155  54.188  51.052  0.00  0.00    +0.000 C 
ATOM     18  C   UNL     1      -5.793  54.109  51.702  0.00  0.00    +0.000 A 
ATOM     19  C   UNL     1      -5.050  54.180  54.020  0.00  0.00    +0.000 A 
ATOM     20  N   UNL     1      -6.816  54.042  50.759  0.00  0.00    +0.000 N 
ATOM     21  C   UNL     1      -4.453  54.068  51.298  0.00  0.00    +0.000 A 
ATOM     22  C   UNL     1      -3.721  54.176  53.602  0.00  0.00    +0.000 A 
ATOM     23  C   UNL     1      -3.423  54.111  52.240  0.00  0.00    +0.000 A 
ATOM     24  H   UNL     1      -9.650  54.306  52.343  0.00  0.00    +0.000 HD
ATOM     25  H   UNL     1      -6.565  53.880  49.821  0.00  0.00    +0.000 HD
ENDBRANCH   1  17
BRANCH   3  26
ATOM     26  O   UNL     1      -8.076  52.557  48.645  0.00  0.00    +0.000 OA
ATOM     27  H   UNL     1      -7.425  52.417  49.304  0.00  0.00    +0.000 HD
ENDBRANCH   3  26
BRANCH   5  28
ATOM     28  N   UNL     1     -12.073  56.537  48.897  0.00  0.00    +0.000 N 
ATOM     29  H   UNL     1     -12.018  57.427  48.482  0.00  0.00    +0.000 HD
BRANCH  28  30
ATOM     30  C   UNL     1     -13.272  56.075  49.611  0.00  0.00    +0.000 C 
BRANCH  30  31
ATOM     31  C   UNL     1     -13.702  57.063  50.662  0.00  0.00    +0.000 A 
ATOM     32  C   UNL     1     -14.168  58.329  50.306  0.00  0.00    +0.000 A 
ATOM     33  C   UNL     1     -13.667  56.756  52.023  0.00  0.00    +0.000 A 
ATOM     34  N   UNL     1     -14.566  59.270  51.190  0.00  0.00    +0.000 NA
ATOM     35  C   UNL     1     -14.069  57.701  52.956  0.00  0.00    +0.000 A 
ATOM     36  C   UNL     1     -14.504  58.935  52.496  0.00  0.00    +0.000 A 
ENDBRANCH  30  31
ENDBRANCH  28  30
ENDBRANCH   5  28
TORSDOF 5
ENDMDL
MODEL 2
REMARK VINA RESULT:      -8.8      2.578      7.320
REMARK  Name = 
REMARK  5 active torsions:
REMARK  status: ('A' for Active; 'I' for Inactive)
REMARK    1  A    between atoms: C_6  and  C_10
REMARK    2  A    between atoms: C_14  and  O_18
REMARK    3  A    between atoms: N_17  and  N_20
REMARK    4  A    between atoms: N_20  and  C_23
REMARK    5  A    between atoms: C_23  and  C_26
REMARK                            x       y       z     vdW  Elec       q    Type
REMARK                         _______ _______ _______ _____ _____    ______ ____
ROOT
ATOM      1  C   UNL     1     -11.403  56.003  48.889  0.00  0.00    +0.000 A 
ATOM      2  C   UNL     1     -10.328  55.441  49.760  0.00  0.00    +0.000 A 
ATOM      3  C   UNL     1     -11.504  55.620  47.603  0.00  0.00    +0.000 A 
ATOM      4  O   UNL     1     -10.275  55.845  50.926  0.00  0.00    +0.000 OA
ATOM      5  N   UNL     1      -9.468  54.484  49.216  0.00  0.00    +0.000 N 
ATOM      6  C   UNL     1     -10.587  54.616  47.047  0.00  0.00    +0.000 A 
ATOM      7  C   UNL     1      -9.579  54.063  47.856  0.00  0.00    +0.000 A 
ATOM      8  C   UNL     1     -10.713  54.189  45.713  0.00  0.00    +0.000 A 
ATOM      9  C   UNL     1      -8.713  53.102  47.307  0.00  0.00    +0.000 A 
ATOM     10  C   UNL     1      -9.859  53.222  45.186  0.00  0.00    +0.000 A 
ATOM     11  C   UNL     1      -8.856  52.682  45.983  0.00  0.00    +0.000 A 
ENDROOT
BRANCH   1  17
ATOM     12  S   UNL     1     -13.563  59.234  49.469  0.00  0.00    +0.000 S 
ATOM     13  O   UNL     1     -14.697  59.297  48.568  0.00  0.00    +0.000 OA
ATOM     14  O   UNL     1     -12.789  60.430  49.761  0.00  0.00    +0.000 OA
ATOM     15  N   UNL     1     -12.548  58.107  48.896  0.00  0.00    +0.000 N 
ATOM     16  C   UNL     1     -14.192  58.676  51.009  0.00  0.00    +0.000 A 
ATOM     17  C   UNL     1     -12.407  56.963  49.496  0.00  0.00    +0.000 C 
ATOM     18  C   UNL     1     -13.863  57.395  51.420  0.00  0.00    +0.000 A 
ATOM     19  C   UNL     1     -14.990  59.523  51.783  0.00  0.00    +0.000 A 
ATOM     20  N   UNL     1     -13.080  56.558  50.629  0.00  0.00    +0.000 N 
ATOM     21  C   UNL     1     -14.414  56.925  52.618  0.00  0.00    +0.000 A 
ATOM     22  C   UNL     1     -15.501  59.054  52.992  0.00  0.00    +0.000 A 
ATOM     23  C   UNL     1     -15.220  57.752  53.404  0.00  0.00    +0.000 A 
ATOM     24  H   UNL     1     -12.030  58.292  48.079  0.00  0.00    +0.000 HD
ATOM     25  H   UNL     1     -13.003  55.613  50.897  0.00  0.00    +0.000 HD
ENDBRANCH   1  17
BRANCH   3  26
ATOM     26  O   UNL     1     -12.461  56.090  46.722  0.00  0.00    +0.000 OA
ATOM     27  H   UNL     1     -13.136  55.518  46.415  0.00  0.00    +0.000 HD
ENDBRANCH   3  26
BRANCH   5  28
ATOM     28  N   UNL     1      -8.357  53.984  49.979  0.00  0.00    +0.000 N 
ATOM     29  H   UNL     1      -8.382  53.115  50.438  0.00  0.00    +0.000 HD
BRANCH  28  30
ATOM     30  C   UNL     1      -7.181  54.865  50.025  0.00  0.00    +0.000 C 
BRANCH  30  31
ATOM     31  C   UNL     1      -6.603  54.942  51.413  0.00  0.00    +0.000 A 
ATOM     32  C   UNL     1      -7.233  55.689  52.409  0.00  0.00    +0.000 A 
ATOM     33  C   UNL     1      -5.433  54.268  51.764  0.00  0.00    +0.000 A 
ATOM     34  N   UNL     1      -6.773  55.811  53.674  0.00  0.00    +0.000 NA
ATOM     35  C   UNL     1      -4.935  54.373  53.055  0.00  0.00    +0.000 A 
ATOM     36  C   UNL     1      -5.632  55.152  53.967  0.00  0.00    +0.000 A 
ENDBRANCH  30  31
ENDBRANCH  28  30
ENDBRANCH   5  28
TORSDOF 5
ENDMDL
MODEL 3
REMARK VINA RESULT:      -8.7      3.015      7.625
REMARK  Name = 
REMARK  5 active torsions:
REMARK  status: ('A' for Active; 'I' for Inactive)
REMARK    1  A    between atoms: C_6  and  C_10
REMARK    2  A    between atoms: C_14  and  O_18
REMARK    3  A    between atoms: N_17  and  N_20
REMARK    4  A    between atoms: N_20  and  C_23
REMARK    5  A    between atoms: C_23  and  C_26
REMARK                            x       y       z     vdW  Elec       q    Type
REMARK                         _______ _______ _______ _____ _____    ______ ____
ROOT
ATOM      1  C   UNL     1     -11.166  54.575  50.756  0.00  0.00    +0.000 A 
ATOM      2  C   UNL     1      -9.779  54.939  50.342  0.00  0.00    +0.000 A 
ATOM      3  C   UNL     1     -11.433  53.343  51.225  0.00  0.00    +0.000 A 
ATOM      4  O   UNL     1      -9.600  56.079  49.902  0.00  0.00    +0.000 OA
ATOM      5  N   UNL     1      -8.770  53.984  50.496  0.00  0.00    +0.000 N 
ATOM      6  C   UNL     1     -10.360  52.351  51.376  0.00  0.00    +0.000 A 
ATOM      7  C   UNL     1      -9.045  52.680  51.007  0.00  0.00    +0.000 A 
ATOM      8  C   UNL     1     -10.632  51.073  51.899  0.00  0.00    +0.000 A 
ATOM      9  C   UNL     1      -8.031  51.718  51.161  0.00  0.00    +0.000 A 
ATOM     10  C   UNL     1      -9.615  50.135  52.063  0.00  0.00    +0.000 A 
ATOM     11  C   UNL     1      -8.315  50.458  51.690  0.00  0.00    +0.000 A 
ENDROOT
BRANCH   1  17
ATOM     12  S   UNL     1     -13.614  57.295  49.323  0.00  0.00    +0.000 S 
ATOM     13  O   UNL     1     -14.761  56.700  48.665  0.00  0.00    +0.000 OA
ATOM     14  O   UNL     1     -12.953  58.453  48.743  0.00  0.00    +0.000 OA
ATOM     15  N   UNL     1     -12.505  56.128  49.518  0.00  0.00    +0.000 N 
ATOM     16  C   UNL     1     -14.168  57.798  50.910  0.00  0.00    +0.000 A 
ATOM     17  C   UNL     1     -12.249  55.635  50.692  0.00  0.00    +0.000 C 
ATOM     18  C   UNL     1     -13.714  57.091  52.012  0.00  0.00    +0.000 A 
ATOM     19  C   UNL     1     -15.032  58.890  51.033  0.00  0.00    +0.000 A 
ATOM     20  N   UNL     1     -12.866  55.995  51.872  0.00  0.00    +0.000 N 
ATOM     21  C   UNL     1     -14.203  57.451  53.274  0.00  0.00    +0.000 A 
ATOM     22  C   UNL     1     -15.480  59.260  52.299  0.00  0.00    +0.000 A 
ATOM     23  C   UNL     1     -15.073  58.534  53.418  0.00  0.00    +0.000 A 
ATOM     24  H   UNL     1     -12.017  55.788  48.733  0.00  0.00    +0.000 HD
ATOM     25  H   UNL     1     -12.696  55.441  52.668  0.00  0.00    +0.000 HD
ENDBRANCH   1  17
BRANCH   3  26
ATOM     26  O   UNL     1     -12.686  52.915  51.627  0.00  0.00    +0.000 OA
ATOM     27  H   UNL     1     -13.426  53.482  51.536  0.00  0.00    +0.000 HD
ENDBRANCH   3  26
BRANCH   5  28
ATOM     28  N   UNL     1      -7.439  54.247  50.022  0.00  0.00    +0.000 N 
ATOM     29  H   UNL     1      -7.040  53.753  49.270  0.00  0.00    +0.000 HD
BRANCH  28  30
ATOM     30  C   UNL     1      -6.714  55.304  50.741  0.00  0.00    +0.000 C 
BRANCH  30  31
ATOM     31  C   UNL     1      -6.491  54.937  52.184  0.00  0.00    +0.000 A 
ATOM     32  C   UNL     1      -7.267  55.506  53.195  0.00  0.00    +0.000 A 
ATOM     33  C   UNL     1      -5.517  54.015  52.569  0.00  0.00    +0.000 A 
ATOM     34  N   UNL     1      -7.123  55.232  54.510  0.00  0.00    +0.000 NA
ATOM     35  C   UNL     1      -5.344  53.712  53.912  0.00  0.00    +0.000 A 
ATOM     36  C   UNL     1      -6.161  54.343  54.839  0.00  0.00    +0.000 A 
ENDBRANCH  30  31
ENDBRANCH  28  30
ENDBRANCH   5  28
TORSDOF 5
ENDMDL
MODEL 4
REMARK VINA RESULT:      -8.7      2.302      5.640
REMARK  Name = 
REMARK  5 active torsions:
REMARK  status: ('A' for Active; 'I' for Inactive)
REMARK    1  A    between atoms: C_6  and  C_10
REMARK    2  A    between atoms: C_14  and  O_18
REMARK    3  A    between atoms: N_17  and  N_20
REMARK    4  A    between atoms: N_20  and  C_23
REMARK    5  A    between atoms: C_23  and  C_26
REMARK                            x       y       z     vdW  Elec       q    Type
REMARK                         _______ _______ _______ _____ _____    ______ ____
ROOT
ATOM      1  C   UNL     1     -10.405  55.182  50.923  0.00  0.00    +0.000 A 
ATOM      2  C   UNL     1     -10.098  55.079  49.465  0.00  0.00    +0.000 A 
ATOM      3  C   UNL     1     -11.575  55.702  51.335  0.00  0.00    +0.000 A 
ATOM      4  O   UNL     1      -9.000  54.609  49.149  0.00  0.00    +0.000 OA
ATOM      5  N   UNL     1     -11.071  55.494  48.553  0.00  0.00    +0.000 N 
ATOM      6  C   UNL     1     -12.585  56.138  50.361  0.00  0.00    +0.000 A 
ATOM      7  C   UNL     1     -12.321  56.034  48.984  0.00  0.00    +0.000 A 
ATOM      8  C   UNL     1     -13.823  56.650  50.790  0.00  0.00    +0.000 A 
ATOM      9  C   UNL     1     -13.300  56.454  48.068  0.00  0.00    +0.000 A 
ATOM     10  C   UNL     1     -14.792  57.047  49.871  0.00  0.00    +0.000 A 
ATOM     11  C   UNL     1     -14.528  56.952  48.509  0.00  0.00    +0.000 A 
ENDROOT
BRANCH   1  17
ATOM     12  S   UNL     1      -7.069  54.711  52.946  0.00  0.00    +0.000 S 
ATOM     13  O   UNL     1      -6.929  55.699  53.997  0.00  0.00    +0.000 OA
ATOM     14  O   UNL     1      -5.923  54.332  52.135  0.00  0.00    +0.000 OA
ATOM     15  N   UNL     1      -8.241  55.224  51.949  0.00  0.00    +0.000 N 
ATOM     16  C   UNL     1      -7.617  53.238  53.728  0.00  0.00    +0.000 A 
ATOM     17  C   UNL     1      -9.401  54.638  51.920  0.00  0.00    +0.000 C 
ATOM     18  C   UNL     1      -8.921  52.828  53.503  0.00  0.00    +0.000 A 
ATOM     19  C   UNL     1      -6.740  52.513  54.539  0.00  0.00    +0.000 A 
ATOM     20  N   UNL     1      -9.787  53.571  52.705  0.00  0.00    +0.000 N 
ATOM     21  C   UNL     1      -9.380  51.689  54.175  0.00  0.00    +0.000 A 
ATOM     22  C   UNL     1      -7.199  51.360  55.172  0.00  0.00    +0.000 A 
ATOM     23  C   UNL     1      -8.522  50.953  54.996  0.00  0.00    +0.000 A 
ATOM     24  H   UNL     1      -8.072  55.991  51.358  0.00  0.00    +0.000 HD
ATOM     25  H   UNL     1     -10.739  53.318  52.700  0.00  0.00    +0.000 HD
ENDBRANCH   1  17
BRANCH   3  26
ATOM     26  O   UNL     1     -11.943  55.842  52.661  0.00  0.00    +0.000 OA
ATOM     27  H   UNL     1     -11.321  55.672  53.340  0.00  0.00    +0.000 HD
ENDBRANCH   3  26
BRANCH   5  28
ATOM     28  N   UNL     1     -10.791  55.510  47.143  0.00  0.00    +0.000 N 
ATOM     29  H   UNL     1     -10.201  56.180  46.730  0.00  0.00    +0.000 HD
BRANCH  28  30
ATOM     30  C   UNL     1     -11.449  54.453  46.361  0.00  0.00    +0.000 C 
BRANCH  30  31
ATOM     31  C   UNL     1     -10.502  53.829  45.370  0.00  0.00    +0.000 A 
ATOM     32  C   UNL     1      -9.121  53.972  45.513  0.00  0.00    +0.000 A 
ATOM     33  C   UNL     1     -10.957  53.080  44.285  0.00  0.00    +0.000 A 
ATOM     34  N   UNL     1      -8.210  53.449  44.663  0.00  0.00    +0.000 NA
ATOM     35  C   UNL     1     -10.047  52.529  43.395  0.00  0.00    +0.000 A 
ATOM     36  C   UNL     1      -8.695  52.741  43.621  0.00  0.00    +0.000 A 
ENDBRANCH  30  31
ENDBRANCH  28  30
ENDBRANCH   5  28
TORSDOF 5
ENDMDL
MODEL 5
REMARK VINA RESULT:      -8.6      2.903      8.045
REMARK  Name = 
REMARK  5 active torsions:
REMARK  status: ('A' for Active; 'I' for Inactive)
REMARK    1  A    between atoms: C_6  and  C_10
REMARK    2  A    between atoms: C_14  and  O_18
REMARK    3  A    between atoms: N_17  and  N_20
REMARK    4  A    between atoms: N_20  and  C_23
REMARK    5  A    between atoms: C_23  and  C_26
REMARK                            x       y       z     vdW  Elec       q    Type
REMARK                         _______ _______ _______ _____ _____    ______ ____
ROOT
ATOM      1  C   UNL     1     -10.067  54.554  52.254  0.00  0.00    +0.000 A 
ATOM      2  C   UNL     1      -8.713  55.164  52.104  0.00  0.00    +0.000 A 
ATOM      3  C   UNL     1     -10.230  53.431  52.975  0.00  0.00    +0.000 A 
ATOM      4  O   UNL     1      -8.624  56.186  51.415  0.00  0.00    +0.000 OA
ATOM      5  N   UNL     1      -7.639  54.562  52.766  0.00  0.00    +0.000 N 
ATOM      6  C   UNL     1      -9.089  52.809  53.660  0.00  0.00    +0.000 A 
ATOM      7  C   UNL     1      -7.808  53.377  53.545  0.00  0.00    +0.000 A 
ATOM      8  C   UNL     1      -9.264  51.653  54.442  0.00  0.00    +0.000 A 
ATOM      9  C   UNL     1      -6.729  52.769  54.209  0.00  0.00    +0.000 A 
ATOM     10  C   UNL     1      -8.189  51.071  55.110  0.00  0.00    +0.000 A 
ATOM     11  C   UNL     1      -6.920  51.628  54.990  0.00  0.00    +0.000 A 
ENDROOT
BRANCH   1  17
ATOM     12  S   UNL     1     -12.530  55.975  49.540  0.00  0.00    +0.000 S 
ATOM     13  O   UNL     1     -13.408  54.948  49.015  0.00  0.00    +0.000 OA
ATOM     14  O   UNL     1     -11.940  56.962  48.651  0.00  0.00    +0.000 OA
ATOM     15  N   UNL     1     -11.327  55.228  50.330  0.00  0.00    +0.000 N 
ATOM     16  C   UNL     1     -13.478  56.878  50.708  0.00  0.00    +0.000 A 
ATOM     17  C   UNL     1     -11.257  55.257  51.628  0.00  0.00    +0.000 C 
ATOM     18  C   UNL     1     -13.170  56.731  52.050  0.00  0.00    +0.000 A 
ATOM     19  C   UNL     1     -14.501  57.724  50.270  0.00  0.00    +0.000 A 
ATOM     20  N   UNL     1     -12.158  55.871  52.472  0.00  0.00    +0.000 N 
ATOM     21  C   UNL     1     -13.964  57.402  52.988  0.00  0.00    +0.000 A 
ATOM     22  C   UNL     1     -15.259  58.415  51.213  0.00  0.00    +0.000 A 
ATOM     23  C   UNL     1     -14.996  58.247  52.572  0.00  0.00    +0.000 A 
ATOM     24  H   UNL     1     -10.638  54.745  49.819  0.00  0.00    +0.000 HD
ATOM     25  H   UNL     1     -12.081  55.690  53.437  0.00  0.00    +0.000 HD
ENDBRANCH   1  17
BRANCH   3  26
ATOM     26  O   UNL     1     -11.443  52.793  53.163  0.00  0.00    +0.000 OA
ATOM     27  H   UNL     1     -11.685  52.488  54.015  0.00  0.00    +0.000 HD
ENDBRANCH   3  26
BRANCH   5  28
ATOM     28  N   UNL     1      -6.300  55.049  52.577  0.00  0.00    +0.000 N 
ATOM     29  H   UNL     1      -6.000  55.917  52.929  0.00  0.00    +0.000 HD
BRANCH  28  30
ATOM     30  C   UNL     1      -5.410  54.158  51.819  0.00  0.00    +0.000 C 
BRANCH  30  31
ATOM     31  C   UNL     1      -5.919  53.927  50.421  0.00  0.00    +0.000 A 
ATOM     32  C   UNL     1      -5.992  54.976  49.504  0.00  0.00    +0.000 A 
ATOM     33  C   UNL     1      -6.325  52.666  49.983  0.00  0.00    +0.000 A 
ATOM     34  N   UNL     1      -6.443  54.849  48.237  0.00  0.00    +0.000 NA
ATOM     35  C   UNL     1      -6.793  52.503  48.687  0.00  0.00    +0.000 A 
ATOM     36  C   UNL     1      -6.837  53.614  47.858  0.00  0.00    +0.000 A 
ENDBRANCH  30  31
ENDBRANCH  28  30
ENDBRANCH   5  28
TORSDOF 5
ENDMDL
MODEL 6
REMARK VINA RESULT:      -8.5      1.592      2.133
REMARK  Name = 
REMARK  5 active torsions:
REMARK  status: ('A' for Active; 'I' for Inactive)
REMARK    1  A    between atoms: C_6  and  C_10
REMARK    2  A    between atoms: C_14  and  O_18
REMARK    3  A    between atoms: N_17  and  N_20
REMARK    4  A    between atoms: N_20  and  C_23
REMARK    5  A    between atoms: C_23  and  C_26
REMARK                            x       y       z     vdW  Elec       q    Type
REMARK                         _______ _______ _______ _____ _____    ______ ____
ROOT
ATOM      1  C   UNL     1      -9.643  54.269  50.147  0.00  0.00    +0.000 A 
ATOM      2  C   UNL     1     -10.652  55.370  50.163  0.00  0.00    +0.000 A 
ATOM      3  C   UNL     1      -9.458  53.534  49.036  0.00  0.00    +0.000 A 
ATOM      4  O   UNL     1     -10.790  55.997  51.218  0.00  0.00    +0.000 OA
ATOM      5  N   UNL     1     -11.359  55.637  48.987  0.00  0.00    +0.000 N 
ATOM      6  C   UNL     1     -10.214  53.827  47.810  0.00  0.00    +0.000 A 
ATOM      7  C   UNL     1     -11.156  54.869  47.800  0.00  0.00    +0.000 A 
ATOM      8  C   UNL     1      -9.996  53.081  46.638  0.00  0.00    +0.000 A 
ATOM      9  C   UNL     1     -11.867  55.135  46.618  0.00  0.00    +0.000 A 
ATOM     10  C   UNL     1     -10.695  53.366  45.467  0.00  0.00    +0.000 A 
ATOM     11  C   UNL     1     -11.634  54.392  45.459  0.00  0.00    +0.000 A 
ENDROOT
BRANCH   1  17
ATOM     12  S   UNL     1      -6.799  54.690  52.827  0.00  0.00    +0.000 S 
ATOM     13  O   UNL     1      -7.079  55.774  53.748  0.00  0.00    +0.000 OA
ATOM     14  O   UNL     1      -5.454  54.492  52.312  0.00  0.00    +0.000 OA
ATOM     15  N   UNL     1      -7.801  54.855  51.562  0.00  0.00    +0.000 N 
ATOM     16  C   UNL     1      -7.218  53.210  53.672  0.00  0.00    +0.000 A 
ATOM     17  C   UNL     1      -8.796  54.038  51.384  0.00  0.00    +0.000 C 
ATOM     18  C   UNL     1      -8.342  52.517  53.252  0.00  0.00    +0.000 A 
ATOM     19  C   UNL     1      -6.419  52.760  54.726  0.00  0.00    +0.000 A 
ATOM     20  N   UNL     1      -9.137  52.988  52.209  0.00  0.00    +0.000 N 
ATOM     21  C   UNL     1      -8.714  51.370  53.963  0.00  0.00    +0.000 A 
ATOM     22  C   UNL     1      -6.781  51.596  55.401  0.00  0.00    +0.000 A 
ATOM     23  C   UNL     1      -7.933  50.907  55.025  0.00  0.00    +0.000 A 
ATOM     24  H   UNL     1      -7.654  55.587  50.920  0.00  0.00    +0.000 HD
ATOM     25  H   UNL     1     -10.000  52.541  52.052  0.00  0.00    +0.000 HD
ENDBRANCH   1  17
BRANCH   3  26
ATOM     26  O   UNL     1      -8.552  52.494  48.930  0.00  0.00    +0.000 OA
ATOM     27  H   UNL     1      -8.736  51.669  49.334  0.00  0.00    +0.000 HD
ENDBRANCH   3  26
BRANCH   5  28
ATOM     28  N   UNL     1     -12.410  56.617  48.975  0.00  0.00    +0.000 N 
ATOM     29  H   UNL     1     -12.295  57.507  48.571  0.00  0.00    +0.000 HD
BRANCH  28  30
ATOM     30  C   UNL     1     -13.668  56.197  49.608  0.00  0.00    +0.000 C 
BRANCH  30  31
ATOM     31  C   UNL     1     -14.107  57.175  50.665  0.00  0.00    +0.000 A 
ATOM     32  C   UNL     1     -14.469  58.479  50.326  0.00  0.00    +0.000 A 
ATOM     33  C   UNL     1     -14.182  56.821  52.012  0.00  0.00    +0.000 A 
ATOM     34  N   UNL     1     -14.867  59.414  51.217  0.00  0.00    +0.000 NA
ATOM     35  C   UNL     1     -14.587  57.758  52.952  0.00  0.00    +0.000 A 
ATOM     36  C   UNL     1     -14.914  59.033  52.511  0.00  0.00    +0.000 A 
ENDBRANCH  30  31
ENDBRANCH  28  30
ENDBRANCH   5  28
TORSDOF 5
ENDMDL
MODEL 7
REMARK VINA RESULT:      -8.5      3.652      7.621
REMARK  Name = 
REMARK  5 active torsions:
REMARK  status: ('A' for Active; 'I' for Inactive)
REMARK    1  A    between atoms: C_6  and  C_10
REMARK    2  A    between atoms: C_14  and  O_18
REMARK    3  A    between atoms: N_17  and  N_20
REMARK    4  A    between atoms: N_20  and  C_23
REMARK    5  A    between atoms: C_23  and  C_26
REMARK                            x       y       z     vdW  Elec       q    Type
REMARK                         _______ _______ _______ _____ _____    ______ ____
ROOT
ATOM      1  C   UNL     1     -12.431  54.302  49.768  0.00  0.00    +0.000 A 
ATOM      2  C   UNL     1     -12.023  54.153  48.339  0.00  0.00    +0.000 A 
ATOM      3  C   UNL     1     -12.035  53.401  50.684  0.00  0.00    +0.000 A 
ATOM      4  O   UNL     1     -12.433  55.002  47.541  0.00  0.00    +0.000 OA
ATOM      5  N   UNL     1     -11.191  53.084  47.996  0.00  0.00    +0.000 N 
ATOM      6  C   UNL     1     -11.163  52.280  50.304  0.00  0.00    +0.000 A 
ATOM      7  C   UNL     1     -10.755  52.132  48.967  0.00  0.00    +0.000 A 
ATOM      8  C   UNL     1     -10.721  51.356  51.268  0.00  0.00    +0.000 A 
ATOM      9  C   UNL     1      -9.920  51.055  48.624  0.00  0.00    +0.000 A 
ATOM     10  C   UNL     1      -9.878  50.304  50.918  0.00  0.00    +0.000 A 
ATOM     11  C   UNL     1      -9.481  50.152  49.593  0.00  0.00    +0.000 A 
ENDROOT
BRANCH   1  17
ATOM     12  S   UNL     1     -15.341  56.491  51.246  0.00  0.00    +0.000 S 
ATOM     13  O   UNL     1     -15.252  56.609  52.688  0.00  0.00    +0.000 OA
ATOM     14  O   UNL     1     -16.630  56.290  50.603  0.00  0.00    +0.000 OA
ATOM     15  N   UNL     1     -14.361  55.279  50.795  0.00  0.00    +0.000 N 
ATOM     16  C   UNL     1     -14.702  57.988  50.592  0.00  0.00    +0.000 A 
ATOM     17  C   UNL     1     -13.247  55.515  50.171  0.00  0.00    +0.000 C 
ATOM     18  C   UNL     1     -13.476  57.946  49.947  0.00  0.00    +0.000 A 
ATOM     19  C   UNL     1     -15.432  59.172  50.720  0.00  0.00    +0.000 A 
ATOM     20  N   UNL     1     -12.753  56.760  49.842  0.00  0.00    +0.000 N 
ATOM     21  C   UNL     1     -12.934  59.149  49.480  0.00  0.00    +0.000 A 
ATOM     22  C   UNL     1     -14.898  60.356  50.216  0.00  0.00    +0.000 A 
ATOM     23  C   UNL     1     -13.644  60.346  49.604  0.00  0.00    +0.000 A 
ATOM     24  H   UNL     1     -14.616  54.350  50.998  0.00  0.00    +0.000 HD
ATOM     25  H   UNL     1     -11.827  56.815  49.511  0.00  0.00    +0.000 HD
ENDBRANCH   1  17
BRANCH   3  26
ATOM     26  O   UNL     1     -12.367  53.454  52.026  0.00  0.00    +0.000 OA
ATOM     27  H   UNL     1     -12.726  52.700  52.450  0.00  0.00    +0.000 HD
ENDBRANCH   3  26
BRANCH   5  28
ATOM     28  N   UNL     1     -10.850  52.837  46.622  0.00  0.00    +0.000 N 
ATOM     29  H   UNL     1     -11.167  52.043  46.135  0.00  0.00    +0.000 HD
BRANCH  28  30
ATOM     30  C   UNL     1      -9.992  53.852  45.996  0.00  0.00    +0.000 C 
BRANCH  30  31
ATOM     31  C   UNL     1      -8.640  53.916  46.656  0.00  0.00    +0.000 A 
ATOM     32  C   UNL     1      -8.320  54.954  47.533  0.00  0.00    +0.000 A 
ATOM     33  C   UNL     1      -7.663  52.945  46.432  0.00  0.00    +0.000 A 
ATOM     34  N   UNL     1      -7.128  55.082  48.157  0.00  0.00    +0.000 NA
ATOM     35  C   UNL     1      -6.429  53.048  47.059  0.00  0.00    +0.000 A 
ATOM     36  C   UNL     1      -6.208  54.127  47.903  0.00  0.00    +0.000 A 
ENDBRANCH  30  31
ENDBRANCH  28  30
ENDBRANCH   5  28
TORSDOF 5
ENDMDL
MODEL 8
REMARK VINA RESULT:      -8.5      2.131      5.441
REMARK  Name = 
REMARK  5 active torsions:
REMARK  status: ('A' for Active; 'I' for Inactive)
REMARK    1  A    between atoms: C_6  and  C_10
REMARK    2  A    between atoms: C_14  and  O_18
REMARK    3  A    between atoms: N_17  and  N_20
REMARK    4  A    between atoms: N_20  and  C_23
REMARK    5  A    between atoms: C_23  and  C_26
REMARK                            x       y       z     vdW  Elec       q    Type
REMARK                         _______ _______ _______ _____ _____    ______ ____
ROOT
ATOM      1  C   UNL     1     -10.588  54.987  50.697  0.00  0.00    +0.000 A 
ATOM      2  C   UNL     1     -10.338  54.896  49.228  0.00  0.00    +0.000 A 
ATOM      3  C   UNL     1     -11.650  55.668  51.164  0.00  0.00    +0.000 A 
ATOM      4  O   UNL     1      -9.336  54.273  48.861  0.00  0.00    +0.000 OA
ATOM      5  N   UNL     1     -11.256  55.496  48.362  0.00  0.00    +0.000 N 
ATOM      6  C   UNL     1     -12.602  56.297  50.238  0.00  0.00    +0.000 A 
ATOM      7  C   UNL     1     -12.393  56.208  48.851  0.00  0.00    +0.000 A 
ATOM      8  C   UNL     1     -13.732  56.980  50.725  0.00  0.00    +0.000 A 
ATOM      9  C   UNL     1     -13.316  56.814  47.982  0.00  0.00    +0.000 A 
ATOM     10  C   UNL     1     -14.649  57.560  49.851  0.00  0.00    +0.000 A 
ATOM     11  C   UNL     1     -14.437  57.480  48.479  0.00  0.00    +0.000 A 
ENDROOT
BRANCH   1  17
ATOM     12  S   UNL     1      -9.164  52.211  53.087  0.00  0.00    +0.000 S 
ATOM     13  O   UNL     1      -8.589  51.104  52.349  0.00  0.00    +0.000 OA
ATOM     14  O   UNL     1      -9.972  51.965  54.271  0.00  0.00    +0.000 OA
ATOM     15  N   UNL     1     -10.052  53.081  52.046  0.00  0.00    +0.000 N 
ATOM     16  C   UNL     1      -7.814  53.198  53.618  0.00  0.00    +0.000 A 
ATOM     17  C   UNL     1      -9.657  54.252  51.643  0.00  0.00    +0.000 C 
ATOM     18  C   UNL     1      -7.637  54.435  53.019  0.00  0.00    +0.000 A 
ATOM     19  C   UNL     1      -6.965  52.733  54.626  0.00  0.00    +0.000 A 
ATOM     20  N   UNL     1      -8.483  54.877  52.004  0.00  0.00    +0.000 N 
ATOM     21  C   UNL     1      -6.525  55.198  53.396  0.00  0.00    +0.000 A 
ATOM     22  C   UNL     1      -5.884  53.520  55.018  0.00  0.00    +0.000 A 
ATOM     23  C   UNL     1      -5.660  54.748  54.396  0.00  0.00    +0.000 A 
ATOM     24  H   UNL     1     -10.903  52.716  51.713  0.00  0.00    +0.000 HD
ATOM     25  H   UNL     1      -8.224  55.690  51.512  0.00  0.00    +0.000 HD
ENDBRANCH   1  17
BRANCH   3  26
ATOM     26  O   UNL     1     -11.957  55.810  52.506  0.00  0.00    +0.000 OA
ATOM     27  H   UNL     1     -11.277  55.979  53.127  0.00  0.00    +0.000 HD
ENDBRANCH   3  26
BRANCH   5  28
ATOM     28  N   UNL     1     -11.012  55.524  46.946  0.00  0.00    +0.000 N 
ATOM     29  H   UNL     1     -10.494  56.240  46.514  0.00  0.00    +0.000 HD
BRANCH  28  30
ATOM     30  C   UNL     1     -11.593  54.407  46.187  0.00  0.00    +0.000 C 
BRANCH  30  31
ATOM     31  C   UNL     1     -10.588  53.799  45.245  0.00  0.00    +0.000 A 
ATOM     32  C   UNL     1      -9.222  54.029  45.410  0.00  0.00    +0.000 A 
ATOM     33  C   UNL     1     -10.974  52.978  44.185  0.00  0.00    +0.000 A 
ATOM     34  N   UNL     1      -8.263  53.525  44.603  0.00  0.00    +0.000 NA
ATOM     35  C   UNL     1     -10.013  52.444  43.339  0.00  0.00    +0.000 A 
ATOM     36  C   UNL     1      -8.681  52.745  43.583  0.00  0.00    +0.000 A 
ENDBRANCH  30  31
ENDBRANCH  28  30
ENDBRANCH   5  28
TORSDOF 5
ENDMDL
MODEL 9
REMARK VINA RESULT:      -8.4      2.356      6.960
REMARK  Name = 
REMARK  5 active torsions:
REMARK  status: ('A' for Active; 'I' for Inactive)
REMARK    1  A    between atoms: C_6  and  C_10
REMARK    2  A    between atoms: C_14  and  O_18
REMARK    3  A    between atoms: N_17  and  N_20
REMARK    4  A    between atoms: N_20  and  C_23
REMARK    5  A    between atoms: C_23  and  C_26
REMARK                            x       y       z     vdW  Elec       q    Type
REMARK                         _______ _______ _______ _____ _____    ______ ____
ROOT
ATOM      1  C   UNL     1     -10.365  54.914  47.780  0.00  0.00    +0.000 A 
ATOM      2  C   UNL     1      -8.874  55.004  47.783  0.00  0.00    +0.000 A 
ATOM      3  C   UNL     1     -11.010  54.386  46.725  0.00  0.00    +0.000 A 
ATOM      4  O   UNL     1      -8.340  55.516  48.773  0.00  0.00    +0.000 OA
ATOM      5  N   UNL     1      -8.178  54.488  46.688  0.00  0.00    +0.000 N 
ATOM      6  C   UNL     1     -10.261  53.852  45.579  0.00  0.00    +0.000 A 
ATOM      7  C   UNL     1      -8.856  53.913  45.571  0.00  0.00    +0.000 A 
ATOM      8  C   UNL     1     -10.933  53.268  44.490  0.00  0.00    +0.000 A 
ATOM      9  C   UNL     1      -8.157  53.396  44.468  0.00  0.00    +0.000 A 
ATOM     10  C   UNL     1     -10.227  52.743  43.410  0.00  0.00    +0.000 A 
ATOM     11  C   UNL     1      -8.838  52.810  43.398  0.00  0.00    +0.000 A 
ENDROOT
BRANCH   1  17
ATOM     12  S   UNL     1     -11.820  54.990  51.430  0.00  0.00    +0.000 S 
ATOM     13  O   UNL     1     -10.842  55.454  52.394  0.00  0.00    +0.000 OA
ATOM     14  O   UNL     1     -12.697  53.876  51.750  0.00  0.00    +0.000 OA
ATOM     15  N   UNL     1     -11.024  54.626  50.065  0.00  0.00    +0.000 N 
ATOM     16  C   UNL     1     -12.872  56.356  51.105  0.00  0.00    +0.000 A 
ATOM     17  C   UNL     1     -11.127  55.375  49.008  0.00  0.00    +0.000 C 
ATOM     18  C   UNL     1     -12.782  56.967  49.864  0.00  0.00    +0.000 A 
ATOM     19  C   UNL     1     -13.774  56.789  52.081  0.00  0.00    +0.000 A 
ATOM     20  N   UNL     1     -11.867  56.534  48.908  0.00  0.00    +0.000 N 
ATOM     21  C   UNL     1     -13.575  58.095  49.624  0.00  0.00    +0.000 A 
ATOM     22  C   UNL     1     -14.584  57.890  51.814  0.00  0.00    +0.000 A 
ATOM     23  C   UNL     1     -14.478  58.549  50.589  0.00  0.00    +0.000 A 
ATOM     24  H   UNL     1     -10.453  53.824  50.037  0.00  0.00    +0.000 HD
ATOM     25  H   UNL     1     -11.740  57.093  48.107  0.00  0.00    +0.000 HD
ENDBRANCH   1  17
BRANCH   3  26
ATOM     26  O   UNL     1     -12.385  54.267  46.631  0.00  0.00    +0.000 OA
ATOM     27  H   UNL     1     -12.776  53.969  45.833  0.00  0.00    +0.000 HD
ENDBRANCH   3  26
BRANCH   5  28
ATOM     28  N   UNL     1      -6.751  54.638  46.594  0.00  0.00    +0.000 N 
ATOM     29  H   UNL     1      -6.328  55.466  46.275  0.00  0.00    +0.000 HD
BRANCH  28  30
ATOM     30  C   UNL     1      -5.969  53.464  47.008  0.00  0.00    +0.000 C 
BRANCH  30  31
ATOM     31  C   UNL     1      -5.755  53.441  48.498  0.00  0.00    +0.000 A 
ATOM     32  C   UNL     1      -6.345  52.454  49.290  0.00  0.00    +0.000 A 
ATOM     33  C   UNL     1      -4.958  54.385  49.144  0.00  0.00    +0.000 A 
ATOM     34  N   UNL     1      -6.206  52.371  50.631  0.00  0.00    +0.000 NA
ATOM     35  C   UNL     1      -4.794  54.327  50.521  0.00  0.00    +0.000 A 
ATOM     36  C   UNL     1      -5.435  53.312  51.217  0.00  0.00    +0.000 A 
ENDBRANCH  30  31
ENDBRANCH  28  30
ENDBRANCH   5  28
TORSDOF 5
ENDMDL
