MODEL 1
REMARK VINA RESULT:      -8.9      0.000      0.000
REMARK  Name = 
REMARK  5 active torsions:
REMARK  status: ('A' for Active; 'I' for Inactive)
REMARK    1  A    between atoms: C_6  and  C_10
REMARK    2  A    between atoms: C_14  and  O_18
REMARK    3  A    between atoms: N_17  and  O_20
REMARK    4  A    between atoms: O_20  and  C_23
REMARK    5  A    between atoms: C_23  and  C_26
REMARK                            x       y       z     vdW  Elec       q    Type
REMARK                         _______ _______ _______ _____ _____    ______ ____
ROOT
ATOM      1  C   UNL     1     -10.491  55.134  50.894  0.00  0.00    +0.000 A 
ATOM      2  C   UNL     1     -10.225  54.969  49.435  0.00  0.00    +0.000 A 
ATOM      3  C   UNL     1     -11.659  55.657  51.309  0.00  0.00    +0.000 A 
ATOM      4  O   UNL     1      -9.141  54.471  49.115  0.00  0.00    +0.000 OA
ATOM      5  N   UNL     1     -11.204  55.362  48.557  0.00  0.00    +0.000 N 
ATOM      6  C   UNL     1     -12.658  56.107  50.333  0.00  0.00    +0.000 A 
ATOM      7  C   UNL     1     -12.415  55.976  48.960  0.00  0.00    +0.000 A 
ATOM      8  C   UNL     1     -13.848  56.726  50.739  0.00  0.00    +0.000 A 
ATOM      9  N   UNL     1     -13.286  56.424  48.020  0.00  0.00    +0.000 NA
ATOM     10  C   UNL     1     -14.739  57.205  49.788  0.00  0.00    +0.000 A 
ATOM     11  C   UNL     1     -14.416  57.035  48.454  0.00  0.00    +0.000 A 
ENDROOT
BRANCH   1  17
ATOM     12  S   UNL     1      -7.071  54.979  52.806  0.00  0.00    +0.000 S 
ATOM     13  O   UNL     1      -6.979  55.986  53.843  0.00  0.00    +0.000 OA
ATOM     14  O   UNL     1      -5.929  54.694  51.957  0.00  0.00    +0.000 OA
ATOM     15  N   UNL     1      -8.313  55.376  51.851  0.00  0.00    +0.000 N 
ATOM     16  C   UNL     1      -7.460  53.474  53.619  0.00  0.00    +0.000 A 
ATOM     17  C   UNL     1      -9.426  54.703  51.882  0.00  0.00    +0.000 C 
ATOM     18  C   UNL     1      -8.738  52.965  53.462  0.00  0.00    +0.000 A 
ATOM     19  C   UNL     1      -6.493  52.822  54.385  0.00  0.00    +0.000 A 
ATOM     20  N   UNL     1      -9.700  53.635  52.710  0.00  0.00    +0.000 N 
ATOM     21  C   UNL     1      -9.075  51.795  54.151  0.00  0.00    +0.000 A 
ATOM     22  C   UNL     1      -6.831  51.641  55.039  0.00  0.00    +0.000 A 
ATOM     23  C   UNL     1      -8.124  51.131  54.929  0.00  0.00    +0.000 A 
ATOM     24  H   UNL     1      -8.226  56.138  51.234  0.00  0.00    +0.000 HD
ATOM     25  H   UNL     1     -10.633  53.326  52.771  0.00  0.00    +0.000 HD
ENDBRANCH   1  17
BRANCH   3  26
ATOM     26  O   UNL     1     -12.012  55.836  52.634  0.00  0.00    +0.000 OA
ATOM     27  H   UNL     1     -12.914  55.818  52.884  0.00  0.00    +0.000 HD
ENDBRANCH   3  26
BRANCH   5  28
ATOM     28  O   UNL     1     -10.913  55.438  47.163  0.00  0.00    +0.000 OA
BRANCH  28  29
ATOM     29  C   UNL     1     -11.488  54.352  46.420  0.00  0.00    +0.000 C 
BRANCH  29  30
ATOM     30  C   UNL     1     -10.534  53.825  45.375  0.00  0.00    +0.000 A 
ATOM     31  C   UNL     1      -9.161  54.117  45.474  0.00  0.00    +0.000 A 
ATOM     32  C   UNL     1     -10.976  53.022  44.321  0.00  0.00    +0.000 A 
ATOM     33  C   UNL     1      -8.261  53.650  44.518  0.00  0.00    +0.000 A 
ATOM     34  C   UNL     1     -10.074  52.552  43.366  0.00  0.00    +0.000 A 
ATOM     35  C   UNL     1      -8.719  52.872  43.459  0.00  0.00    +0.000 A 
ENDBRANCH  29  30
ENDBRANCH  28  29
ENDBRANCH   5  28
TORSDOF 5
ENDMDL
MODEL 2
REMARK VINA RESULT:      -8.9      2.074      5.566
REMARK  Name = 
REMARK  5 active torsions:
REMARK  status: ('A' for Active; 'I' for Inactive)
REMARK    1  A    between atoms: C_6  and  C_10
REMARK    2  A    between atoms: C_14  and  O_18
REMARK    3  A    between atoms: N_17  and  O_20
REMARK    4  A    between atoms: O_20  and  C_23
REMARK    5  A    between atoms: C_23  and  C_26
REMARK                            x       y       z     vdW  Elec       q    Type
REMARK                         _______ _______ _______ _____ _____    ______ ____
ROOT
ATOM      1  C   UNL     1      -9.009  54.492  49.769  0.00  0.00    +0.000 A 
ATOM      2  C   UNL     1     -10.045  55.563  49.848  0.00  0.00    +0.000 A 
ATOM      3  C   UNL     1      -8.893  53.750  48.654  0.00  0.00    +0.000 A 
ATOM      4  O   UNL     1     -10.095  56.221  50.893  0.00  0.00    +0.000 OA
ATOM      5  N   UNL     1     -10.853  55.754  48.755  0.00  0.00    +0.000 N 
ATOM      6  C   UNL     1      -9.809  53.957  47.527  0.00  0.00    +0.000 A 
ATOM      7  C   UNL     1     -10.800  54.946  47.593  0.00  0.00    +0.000 A 
ATOM      8  C   UNL     1      -9.760  53.146  46.386  0.00  0.00    +0.000 A 
ATOM      9  N   UNL     1     -11.702  55.141  46.597  0.00  0.00    +0.000 NA
ATOM     10  C   UNL     1     -10.687  53.323  45.369  0.00  0.00    +0.000 A 
ATOM     11  C   UNL     1     -11.631  54.321  45.520  0.00  0.00    +0.000 A 
ENDROOT
BRANCH   1  17
ATOM     12  S   UNL     1      -7.818  54.132  53.489  0.00  0.00    +0.000 S 
ATOM     13  O   UNL     1      -8.093  52.814  54.024  0.00  0.00    +0.000 OA
ATOM     14  O   UNL     1      -8.040  55.314  54.300  0.00  0.00    +0.000 OA
ATOM     15  N   UNL     1      -8.678  54.293  52.129  0.00  0.00    +0.000 N 
ATOM     16  C   UNL     1      -6.116  54.143  53.067  0.00  0.00    +0.000 A 
ATOM     17  C   UNL     1      -8.103  54.266  50.964  0.00  0.00    +0.000 C 
ATOM     18  C   UNL     1      -5.780  54.128  51.725  0.00  0.00    +0.000 A 
ATOM     19  C   UNL     1      -5.147  54.177  54.071  0.00  0.00    +0.000 A 
ATOM     20  N   UNL     1      -6.757  54.076  50.732  0.00  0.00    +0.000 N 
ATOM     21  C   UNL     1      -4.426  54.082  51.379  0.00  0.00    +0.000 A 
ATOM     22  C   UNL     1      -3.802  54.163  53.714  0.00  0.00    +0.000 A 
ATOM     23  C   UNL     1      -3.440  54.108  52.369  0.00  0.00    +0.000 A 
ATOM     24  H   UNL     1      -9.653  54.415  52.185  0.00  0.00    +0.000 HD
ATOM     25  H   UNL     1      -6.468  53.893  49.809  0.00  0.00    +0.000 HD
ENDBRANCH   1  17
BRANCH   3  26
ATOM     26  O   UNL     1      -7.958  52.747  48.471  0.00  0.00    +0.000 OA
ATOM     27  H   UNL     1      -7.909  52.036  49.079  0.00  0.00    +0.000 HD
ENDBRANCH   3  26
BRANCH   5  28
ATOM     28  O   UNL     1     -11.996  56.600  48.861  0.00  0.00    +0.000 OA
BRANCH  28  29
ATOM     29  C   UNL     1     -13.043  56.017  49.652  0.00  0.00    +0.000 C 
BRANCH  29  30
ATOM     30  C   UNL     1     -13.596  57.001  50.655  0.00  0.00    +0.000 A 
ATOM     31  C   UNL     1     -14.168  58.206  50.208  0.00  0.00    +0.000 A 
ATOM     32  C   UNL     1     -13.582  56.730  52.027  0.00  0.00    +0.000 A 
ATOM     33  C   UNL     1     -14.677  59.134  51.114  0.00  0.00    +0.000 A 
ATOM     34  C   UNL     1     -14.094  57.660  52.933  0.00  0.00    +0.000 A 
ATOM     35  C   UNL     1     -14.634  58.863  52.479  0.00  0.00    +0.000 A 
ENDBRANCH  29  30
ENDBRANCH  28  29
ENDBRANCH   5  28
TORSDOF 5
ENDMDL
MODEL 3
REMARK VINA RESULT:      -8.8      2.835      7.483
REMARK  Name = 
REMARK  5 active torsions:
REMARK  status: ('A' for Active; 'I' for Inactive)
REMARK    1  A    between atoms: C_6  and  C_10
REMARK    2  A    between atoms: C_14  and  O_18
REMARK    3  A    between atoms: N_17  and  O_20
REMARK    4  A    between atoms: O_20  and  C_23
REMARK    5  A    between atoms: C_23  and  C_26
REMARK                            x       y       z     vdW  Elec       q    Type
REMARK                         _______ _______ _______ _____ _____    ______ ____
ROOT
ATOM      1  C   UNL     1     -11.377  55.855  49.035  0.00  0.00    +0.000 A 
ATOM      2  C   UNL     1     -10.406  55.242  49.989  0.00  0.00    +0.000 A 
ATOM      3  C   UNL     1     -11.332  55.533  47.730  0.00  0.00    +0.000 A 
ATOM      4  O   UNL     1     -10.506  55.566  51.177  0.00  0.00    +0.000 OA
ATOM      5  N   UNL     1      -9.489  54.354  49.486  0.00  0.00    +0.000 N 
ATOM      6  C   UNL     1     -10.303  54.614  47.229  0.00  0.00    +0.000 A 
ATOM      7  C   UNL     1      -9.372  54.045  48.109  0.00  0.00    +0.000 A 
ATOM      8  C   UNL     1     -10.185  54.324  45.863  0.00  0.00    +0.000 A 
ATOM      9  N   UNL     1      -8.373  53.231  47.684  0.00  0.00    +0.000 NA
ATOM     10  C   UNL     1      -9.157  53.508  45.415  0.00  0.00    +0.000 A 
ATOM     11  C   UNL     1      -8.282  52.993  46.353  0.00  0.00    +0.000 A 
ENDROOT
BRANCH   1  17
ATOM     12  S   UNL     1     -13.500  59.127  49.438  0.00  0.00    +0.000 S 
ATOM     13  O   UNL     1     -14.610  59.175  48.509  0.00  0.00    +0.000 OA
ATOM     14  O   UNL     1     -12.713  60.317  49.702  0.00  0.00    +0.000 OA
ATOM     15  N   UNL     1     -12.494  57.966  48.934  0.00  0.00    +0.000 N 
ATOM     16  C   UNL     1     -14.176  58.638  50.981  0.00  0.00    +0.000 A 
ATOM     17  C   UNL     1     -12.402  56.836  49.569  0.00  0.00    +0.000 C 
ATOM     18  C   UNL     1     -13.897  57.361  51.435  0.00  0.00    +0.000 A 
ATOM     19  C   UNL     1     -14.957  59.530  51.717  0.00  0.00    +0.000 A 
ATOM     20  N   UNL     1     -13.131  56.474  50.682  0.00  0.00    +0.000 N 
ATOM     21  C   UNL     1     -14.476  56.943  52.637  0.00  0.00    +0.000 A 
ATOM     22  C   UNL     1     -15.501  59.114  52.928  0.00  0.00    +0.000 A 
ATOM     23  C   UNL     1     -15.268  57.817  53.386  0.00  0.00    +0.000 A 
ATOM     24  H   UNL     1     -11.941  58.119  48.134  0.00  0.00    +0.000 HD
ATOM     25  H   UNL     1     -13.107  55.530  50.963  0.00  0.00    +0.000 HD
ENDBRANCH   1  17
BRANCH   3  26
ATOM     26  O   UNL     1     -12.193  56.028  46.769  0.00  0.00    +0.000 OA
ATOM     27  H   UNL     1     -12.476  55.478  46.066  0.00  0.00    +0.000 HD
ENDBRANCH   3  26
BRANCH   5  28
ATOM     28  O   UNL     1      -8.405  53.919  50.305  0.00  0.00    +0.000 OA
BRANCH  28  29
ATOM     29  C   UNL     1      -7.433  54.952  50.528  0.00  0.00    +0.000 C 
BRANCH  29  30
ATOM     30  C   UNL     1      -6.861  54.886  51.924  0.00  0.00    +0.000 A 
ATOM     31  C   UNL     1      -7.623  55.348  53.012  0.00  0.00    +0.000 A 
ATOM     32  C   UNL     1      -5.595  54.346  52.169  0.00  0.00    +0.000 A 
ATOM     33  C   UNL     1      -7.115  55.307  54.309  0.00  0.00    +0.000 A 
ATOM     34  C   UNL     1      -5.088  54.303  53.469  0.00  0.00    +0.000 A 
ATOM     35  C   UNL     1      -5.842  54.790  54.536  0.00  0.00    +0.000 A 
ENDBRANCH  29  30
ENDBRANCH  28  29
ENDBRANCH   5  28
TORSDOF 5
ENDMDL
MODEL 4
REMARK VINA RESULT:      -8.7      1.438      5.198
REMARK  Name = 
REMARK  5 active torsions:
REMARK  status: ('A' for Active; 'I' for Inactive)
REMARK    1  A    between atoms: C_6  and  C_10
REMARK    2  A    between atoms: C_14  and  O_18
REMARK    3  A    between atoms: N_17  and  O_20
REMARK    4  A    between atoms: O_20  and  C_23
REMARK    5  A    between atoms: C_23  and  C_26
REMARK                            x       y       z     vdW  Elec       q    Type
REMARK                         _______ _______ _______ _____ _____    ______ ____
ROOT
ATOM      1  C   UNL     1      -9.610  54.388  50.209  0.00  0.00    +0.000 A 
ATOM      2  C   UNL     1     -10.975  54.969  50.376  0.00  0.00    +0.000 A 
ATOM      3  C   UNL     1      -9.155  54.084  48.981  0.00  0.00    +0.000 A 
ATOM      4  O   UNL     1     -11.333  55.240  51.527  0.00  0.00    +0.000 OA
ATOM      5  N   UNL     1     -11.725  55.177  49.246  0.00  0.00    +0.000 N 
ATOM      6  C   UNL     1     -10.009  54.280  47.804  0.00  0.00    +0.000 A 
ATOM      7  C   UNL     1     -11.300  54.807  47.946  0.00  0.00    +0.000 A 
ATOM      8  C   UNL     1      -9.587  53.899  46.523  0.00  0.00    +0.000 A 
ATOM      9  N   UNL     1     -12.144  54.959  46.894  0.00  0.00    +0.000 NA
ATOM     10  C   UNL     1     -10.447  54.033  45.442  0.00  0.00    +0.000 A 
ATOM     11  C   UNL     1     -11.704  54.559  45.676  0.00  0.00    +0.000 A 
ENDROOT
BRANCH   1  17
ATOM     12  S   UNL     1      -6.687  54.716  52.802  0.00  0.00    +0.000 S 
ATOM     13  O   UNL     1      -6.883  55.830  53.707  0.00  0.00    +0.000 OA
ATOM     14  O   UNL     1      -5.373  54.438  52.254  0.00  0.00    +0.000 OA
ATOM     15  N   UNL     1      -7.712  54.906  51.567  0.00  0.00    +0.000 N 
ATOM     16  C   UNL     1      -7.158  53.278  53.690  0.00  0.00    +0.000 A 
ATOM     17  C   UNL     1      -8.763  54.152  51.444  0.00  0.00    +0.000 C 
ATOM     18  C   UNL     1      -8.338  52.652  53.331  0.00  0.00    +0.000 A 
ATOM     19  C   UNL     1      -6.345  52.792  54.716  0.00  0.00    +0.000 A 
ATOM     20  N   UNL     1      -9.150  53.158  52.318  0.00  0.00    +0.000 N 
ATOM     21  C   UNL     1      -8.750  51.538  54.069  0.00  0.00    +0.000 A 
ATOM     22  C   UNL     1      -6.749  51.662  55.421  0.00  0.00    +0.000 A 
ATOM     23  C   UNL     1      -7.955  51.039  55.104  0.00  0.00    +0.000 A 
ATOM     24  H   UNL     1      -7.536  55.604  50.895  0.00  0.00    +0.000 HD
ATOM     25  H   UNL     1     -10.054  52.782  52.219  0.00  0.00    +0.000 HD
ENDBRANCH   1  17
BRANCH   3  26
ATOM     26  O   UNL     1      -7.903  53.560  48.715  0.00  0.00    +0.000 OA
ATOM     27  H   UNL     1      -7.814  52.841  48.122  0.00  0.00    +0.000 HD
ENDBRANCH   3  26
BRANCH   5  28
ATOM     28  O   UNL     1     -13.105  55.512  49.366  0.00  0.00    +0.000 OA
BRANCH  28  29
ATOM     29  C   UNL     1     -13.334  56.929  49.337  0.00  0.00    +0.000 C 
BRANCH  29  30
ATOM     30  C   UNL     1     -14.015  57.409  50.597  0.00  0.00    +0.000 A 
ATOM     31  C   UNL     1     -14.055  58.785  50.887  0.00  0.00    +0.000 A 
ATOM     32  C   UNL     1     -14.638  56.518  51.475  0.00  0.00    +0.000 A 
ATOM     33  C   UNL     1     -14.669  59.253  52.047  0.00  0.00    +0.000 A 
ATOM     34  C   UNL     1     -15.255  56.988  52.635  0.00  0.00    +0.000 A 
ATOM     35  C   UNL     1     -15.264  58.352  52.926  0.00  0.00    +0.000 A 
ENDBRANCH  29  30
ENDBRANCH  28  29
ENDBRANCH   5  28
TORSDOF 5
ENDMDL
MODEL 5
REMARK VINA RESULT:      -8.7      3.760      7.556
REMARK  Name = 
REMARK  5 active torsions:
REMARK  status: ('A' for Active; 'I' for Inactive)
REMARK    1  A    between atoms: C_6  and  C_10
REMARK    2  A    between atoms: C_14  and  O_18
REMARK    3  A    between atoms: N_17  and  O_20
REMARK    4  A    between atoms: O_20  and  C_23
REMARK    5  A    between atoms: C_23  and  C_26
REMARK                            x       y       z     vdW  Elec       q    Type
REMARK                         _______ _______ _______ _____ _____    ______ ____
ROOT
ATOM      1  C   UNL     1     -11.205  54.571  50.872  0.00  0.00    +0.000 A 
ATOM      2  C   UNL     1      -9.813  54.950  50.487  0.00  0.00    +0.000 A 
ATOM      3  C   UNL     1     -11.467  53.325  51.303  0.00  0.00    +0.000 A 
ATOM      4  O   UNL     1      -9.632  56.113  50.111  0.00  0.00    +0.000 OA
ATOM      5  N   UNL     1      -8.836  53.992  50.594  0.00  0.00    +0.000 N 
ATOM      6  C   UNL     1     -10.399  52.319  51.357  0.00  0.00    +0.000 A 
ATOM      7  C   UNL     1      -9.092  52.654  50.981  0.00  0.00    +0.000 A 
ATOM      8  C   UNL     1     -10.662  50.994  51.729  0.00  0.00    +0.000 A 
ATOM      9  N   UNL     1      -8.083  51.746  50.967  0.00  0.00    +0.000 NA
ATOM     10  C   UNL     1      -9.643  50.052  51.701  0.00  0.00    +0.000 A 
ATOM     11  C   UNL     1      -8.384  50.471  51.313  0.00  0.00    +0.000 A 
ENDROOT
BRANCH   1  17
ATOM     12  S   UNL     1     -13.608  57.260  49.332  0.00  0.00    +0.000 S 
ATOM     13  O   UNL     1     -14.745  56.658  48.667  0.00  0.00    +0.000 OA
ATOM     14  O   UNL     1     -12.927  58.395  48.739  0.00  0.00    +0.000 OA
ATOM     15  N   UNL     1     -12.515  56.095  49.576  0.00  0.00    +0.000 N 
ATOM     16  C   UNL     1     -14.190  57.804  50.895  0.00  0.00    +0.000 A 
ATOM     17  C   UNL     1     -12.300  55.613  50.764  0.00  0.00    +0.000 C 
ATOM     18  C   UNL     1     -13.781  57.106  52.018  0.00  0.00    +0.000 A 
ATOM     19  C   UNL     1     -15.028  58.917  50.981  0.00  0.00    +0.000 A 
ATOM     20  N   UNL     1     -12.959  55.986  51.917  0.00  0.00    +0.000 N 
ATOM     21  C   UNL     1     -14.283  57.498  53.263  0.00  0.00    +0.000 A 
ATOM     22  C   UNL     1     -15.495  59.317  52.230  0.00  0.00    +0.000 A 
ATOM     23  C   UNL     1     -15.129  58.604  53.370  0.00  0.00    +0.000 A 
ATOM     24  H   UNL     1     -12.002  55.745  48.812  0.00  0.00    +0.000 HD
ATOM     25  H   UNL     1     -12.839  55.426  52.718  0.00  0.00    +0.000 HD
ENDBRANCH   1  17
BRANCH   3  26
ATOM     26  O   UNL     1     -12.713  52.876  51.700  0.00  0.00    +0.000 OA
ATOM     27  H   UNL     1     -13.486  53.248  51.323  0.00  0.00    +0.000 HD
ENDBRANCH   3  26
BRANCH   5  28
ATOM     28  O   UNL     1      -7.549  54.231  50.029  0.00  0.00    +0.000 OA
BRANCH  28  29
ATOM     29  C   UNL     1      -6.822  55.255  50.725  0.00  0.00    +0.000 C 
BRANCH  29  30
ATOM     30  C   UNL     1      -6.531  54.858  52.153  0.00  0.00    +0.000 A 
ATOM     31  C   UNL     1      -5.548  53.888  52.421  0.00  0.00    +0.000 A 
ATOM     32  C   UNL     1      -7.197  55.456  53.227  0.00  0.00    +0.000 A 
ATOM     33  C   UNL     1      -5.267  53.498  53.729  0.00  0.00    +0.000 A 
ATOM     34  C   UNL     1      -6.913  55.066  54.537  0.00  0.00    +0.000 A 
ATOM     35  C   UNL     1      -5.956  54.083  54.788  0.00  0.00    +0.000 A 
ENDBRANCH  29  30
ENDBRANCH  28  29
ENDBRANCH   5  28
TORSDOF 5
ENDMDL
MODEL 6
REMARK VINA RESULT:      -8.7      1.497      2.210
REMARK  Name = 
REMARK  5 active torsions:
REMARK  status: ('A' for Active; 'I' for Inactive)
REMARK    1  A    between atoms: C_6  and  C_10
REMARK    2  A    between atoms: C_14  and  O_18
REMARK    3  A    between atoms: N_17  and  O_20
REMARK    4  A    between atoms: O_20  and  C_23
REMARK    5  A    between atoms: C_23  and  C_26
REMARK                            x       y       z     vdW  Elec       q    Type
REMARK                         _______ _______ _______ _____ _____    ______ ____
ROOT
ATOM      1  C   UNL     1     -10.660  54.882  50.646  0.00  0.00    +0.000 A 
ATOM      2  C   UNL     1     -10.470  54.723  49.174  0.00  0.00    +0.000 A 
ATOM      3  C   UNL     1     -11.690  55.608  51.116  0.00  0.00    +0.000 A 
ATOM      4  O   UNL     1      -9.514  54.034  48.803  0.00  0.00    +0.000 OA
ATOM      5  N   UNL     1     -11.374  55.334  48.342  0.00  0.00    +0.000 N 
ATOM      6  C   UNL     1     -12.606  56.282  50.188  0.00  0.00    +0.000 A 
ATOM      7  C   UNL     1     -12.429  56.158  48.804  0.00  0.00    +0.000 A 
ATOM      8  C   UNL     1     -13.639  57.107  50.652  0.00  0.00    +0.000 A 
ATOM      9  N   UNL     1     -13.219  56.804  47.908  0.00  0.00    +0.000 NA
ATOM     10  C   UNL     1     -14.442  57.787  49.747  0.00  0.00    +0.000 A 
ATOM     11  C   UNL     1     -14.193  57.608  48.399  0.00  0.00    +0.000 A 
ENDROOT
BRANCH   1  17
ATOM     12  S   UNL     1      -9.094  52.250  53.096  0.00  0.00    +0.000 S 
ATOM     13  O   UNL     1      -8.467  51.153  52.388  0.00  0.00    +0.000 OA
ATOM     14  O   UNL     1      -9.887  51.999  54.284  0.00  0.00    +0.000 OA
ATOM     15  N   UNL     1     -10.022  53.044  52.036  0.00  0.00    +0.000 N 
ATOM     16  C   UNL     1      -7.793  53.316  53.595  0.00  0.00    +0.000 A 
ATOM     17  C   UNL     1      -9.675  54.213  51.584  0.00  0.00    +0.000 C 
ATOM     18  C   UNL     1      -7.665  54.530  52.944  0.00  0.00    +0.000 A 
ATOM     19  C   UNL     1      -6.934  52.936  54.627  0.00  0.00    +0.000 A 
ATOM     20  N   UNL     1      -8.517  54.891  51.903  0.00  0.00    +0.000 N 
ATOM     21  C   UNL     1      -6.598  55.363  53.297  0.00  0.00    +0.000 A 
ATOM     22  C   UNL     1      -5.896  53.787  54.992  0.00  0.00    +0.000 A 
ATOM     23  C   UNL     1      -5.722  54.998  54.323  0.00  0.00    +0.000 A 
ATOM     24  H   UNL     1     -10.863  52.637  51.729  0.00  0.00    +0.000 HD
ATOM     25  H   UNL     1      -8.279  55.678  51.362  0.00  0.00    +0.000 HD
ENDBRANCH   1  17
BRANCH   3  26
ATOM     26  O   UNL     1     -11.966  55.803  52.457  0.00  0.00    +0.000 OA
ATOM     27  H   UNL     1     -12.664  55.331  52.864  0.00  0.00    +0.000 HD
ENDBRANCH   3  26
BRANCH   5  28
ATOM     28  O   UNL     1     -11.110  55.403  46.943  0.00  0.00    +0.000 OA
BRANCH  28  29
ATOM     29  C   UNL     1     -11.577  54.244  46.235  0.00  0.00    +0.000 C 
BRANCH  29  30
ATOM     30  C   UNL     1     -10.558  53.755  45.234  0.00  0.00    +0.000 A 
ATOM     31  C   UNL     1     -10.975  52.985  44.133  0.00  0.00    +0.000 A 
ATOM     32  C   UNL     1      -9.203  54.076  45.356  0.00  0.00    +0.000 A 
ATOM     33  C   UNL     1     -10.053  52.514  43.200  0.00  0.00    +0.000 A 
ATOM     34  C   UNL     1      -8.280  53.605  44.419  0.00  0.00    +0.000 A 
ATOM     35  C   UNL     1      -8.703  52.819  43.348  0.00  0.00    +0.000 A 
ENDBRANCH  29  30
ENDBRANCH  28  29
ENDBRANCH   5  28
TORSDOF 5
ENDMDL
MODEL 7
REMARK VINA RESULT:      -8.4      3.653      7.352
REMARK  Name = 
REMARK  5 active torsions:
REMARK  status: ('A' for Active; 'I' for Inactive)
REMARK    1  A    between atoms: C_6  and  C_10
REMARK    2  A    between atoms: C_14  and  O_18
REMARK    3  A    between atoms: N_17  and  O_20
REMARK    4  A    between atoms: O_20  and  C_23
REMARK    5  A    between atoms: C_23  and  C_26
REMARK                            x       y       z     vdW  Elec       q    Type
REMARK                         _______ _______ _______ _____ _____    ______ ____
ROOT
ATOM      1  C   UNL     1     -10.137  54.615  52.284  0.00  0.00    +0.000 A 
ATOM      2  C   UNL     1      -8.765  55.176  52.112  0.00  0.00    +0.000 A 
ATOM      3  C   UNL     1     -10.326  53.518  53.038  0.00  0.00    +0.000 A 
ATOM      4  O   UNL     1      -8.656  56.194  51.420  0.00  0.00    +0.000 OA
ATOM      5  N   UNL     1      -7.728  54.537  52.745  0.00  0.00    +0.000 N 
ATOM      6  C   UNL     1      -9.181  52.840  53.659  0.00  0.00    +0.000 A 
ATOM      7  C   UNL     1      -7.884  53.343  53.491  0.00  0.00    +0.000 A 
ATOM      8  C   UNL     1      -9.342  51.651  54.383  0.00  0.00    +0.000 A 
ATOM      9  N   UNL     1      -6.791  52.722  54.003  0.00  0.00    +0.000 NA
ATOM     10  C   UNL     1      -8.230  50.998  54.897  0.00  0.00    +0.000 A 
ATOM     11  C   UNL     1      -6.988  51.565  54.680  0.00  0.00    +0.000 A 
ENDROOT
BRANCH   1  17
ATOM     12  S   UNL     1     -12.385  56.118  49.443  0.00  0.00    +0.000 S 
ATOM     13  O   UNL     1     -13.199  55.107  48.800  0.00  0.00    +0.000 OA
ATOM     14  O   UNL     1     -11.735  57.148  48.655  0.00  0.00    +0.000 OA
ATOM     15  N   UNL     1     -11.245  55.353  50.298  0.00  0.00    +0.000 N 
ATOM     16  C   UNL     1     -13.442  56.957  50.563  0.00  0.00    +0.000 A 
ATOM     17  C   UNL     1     -11.298  55.307  51.596  0.00  0.00    +0.000 C 
ATOM     18  C   UNL     1     -13.261  56.732  51.917  0.00  0.00    +0.000 A 
ATOM     19  C   UNL     1     -14.421  57.828  50.083  0.00  0.00    +0.000 A 
ATOM     20  N   UNL     1     -12.292  55.847  52.383  0.00  0.00    +0.000 N 
ATOM     21  C   UNL     1     -14.135  57.353  52.815  0.00  0.00    +0.000 A 
ATOM     22  C   UNL     1     -15.264  58.465  50.988  0.00  0.00    +0.000 A 
ATOM     23  C   UNL     1     -15.127  58.223  52.355  0.00  0.00    +0.000 A 
ATOM     24  H   UNL     1     -10.499  54.917  49.828  0.00  0.00    +0.000 HD
ATOM     25  H   UNL     1     -12.319  55.591  53.334  0.00  0.00    +0.000 HD
ENDBRANCH   1  17
BRANCH   3  26
ATOM     26  O   UNL     1     -11.554  52.929  53.275  0.00  0.00    +0.000 OA
ATOM     27  H   UNL     1     -11.663  52.353  54.005  0.00  0.00    +0.000 HD
ENDBRANCH   3  26
BRANCH   5  28
ATOM     28  O   UNL     1      -6.384  54.892  52.433  0.00  0.00    +0.000 OA
BRANCH  28  29
ATOM     29  C   UNL     1      -6.056  54.658  51.055  0.00  0.00    +0.000 C 
BRANCH  29  30
ATOM     30  C   UNL     1      -5.205  53.422  50.887  0.00  0.00    +0.000 A 
ATOM     31  C   UNL     1      -4.108  53.210  51.741  0.00  0.00    +0.000 A 
ATOM     32  C   UNL     1      -5.499  52.460  49.917  0.00  0.00    +0.000 A 
ATOM     33  C   UNL     1      -3.301  52.082  51.601  0.00  0.00    +0.000 A 
ATOM     34  C   UNL     1      -4.692  51.329  49.779  0.00  0.00    +0.000 A 
ATOM     35  C   UNL     1      -3.590  51.144  50.614  0.00  0.00    +0.000 A 
ENDBRANCH  29  30
ENDBRANCH  28  29
ENDBRANCH   5  28
TORSDOF 5
ENDMDL
MODEL 8
REMARK VINA RESULT:      -8.4      2.041      2.613
REMARK  Name = 
REMARK  5 active torsions:
REMARK  status: ('A' for Active; 'I' for Inactive)
REMARK    1  A    between atoms: C_6  and  C_10
REMARK    2  A    between atoms: C_14  and  O_18
REMARK    3  A    between atoms: N_17  and  O_20
REMARK    4  A    between atoms: O_20  and  C_23
REMARK    5  A    between atoms: C_23  and  C_26
REMARK                            x       y       z     vdW  Elec       q    Type
REMARK                         _______ _______ _______ _____ _____    ______ ____
ROOT
ATOM      1  C   UNL     1     -10.310  54.064  51.129  0.00  0.00    +0.000 A 
ATOM      2  C   UNL     1     -10.761  53.788  49.732  0.00  0.00    +0.000 A 
ATOM      3  C   UNL     1     -11.038  54.867  51.924  0.00  0.00    +0.000 A 
ATOM      4  O   UNL     1     -10.058  53.032  49.054  0.00  0.00    +0.000 OA
ATOM      5  N   UNL     1     -11.925  54.377  49.308  0.00  0.00    +0.000 N 
ATOM      6  C   UNL     1     -12.253  55.513  51.412  0.00  0.00    +0.000 A 
ATOM      7  C   UNL     1     -12.679  55.279  50.098  0.00  0.00    +0.000 A 
ATOM      8  C   UNL     1     -12.986  56.415  52.195  0.00  0.00    +0.000 A 
ATOM      9  N   UNL     1     -13.767  55.892  49.566  0.00  0.00    +0.000 NA
ATOM     10  C   UNL     1     -14.089  57.062  51.656  0.00  0.00    +0.000 A 
ATOM     11  C   UNL     1     -14.435  56.773  50.349  0.00  0.00    +0.000 A 
ENDROOT
BRANCH   1  17
ATOM     12  S   UNL     1      -7.878  51.738  53.142  0.00  0.00    +0.000 S 
ATOM     13  O   UNL     1      -7.779  50.416  52.557  0.00  0.00    +0.000 OA
ATOM     14  O   UNL     1      -7.957  51.899  54.581  0.00  0.00    +0.000 OA
ATOM     15  N   UNL     1      -9.166  52.463  52.488  0.00  0.00    +0.000 N 
ATOM     16  C   UNL     1      -6.440  52.605  52.633  0.00  0.00    +0.000 A 
ATOM     17  C   UNL     1      -9.028  53.422  51.620  0.00  0.00    +0.000 C 
ATOM     18  C   UNL     1      -6.588  53.609  51.693  0.00  0.00    +0.000 A 
ATOM     19  C   UNL     1      -5.198  52.284  53.183  0.00  0.00    +0.000 A 
ATOM     20  N   UNL     1      -7.831  53.908  51.138  0.00  0.00    +0.000 N 
ATOM     21  C   UNL     1      -5.441  54.269  51.240  0.00  0.00    +0.000 A 
ATOM     22  C   UNL     1      -4.068  52.970  52.749  0.00  0.00    +0.000 A 
ATOM     23  C   UNL     1      -4.187  53.958  51.772  0.00  0.00    +0.000 A 
ATOM     24  H   UNL     1     -10.069  52.176  52.751  0.00  0.00    +0.000 HD
ATOM     25  H   UNL     1      -7.856  54.503  50.355  0.00  0.00    +0.000 HD
ENDBRANCH   1  17
BRANCH   3  26
ATOM     26  O   UNL     1     -10.720  55.173  53.234  0.00  0.00    +0.000 OA
ATOM     27  H   UNL     1      -9.848  55.039  53.548  0.00  0.00    +0.000 HD
ENDBRANCH   3  26
BRANCH   5  28
ATOM     28  O   UNL     1     -12.277  54.331  47.927  0.00  0.00    +0.000 OA
BRANCH  28  29
ATOM     29  C   UNL     1     -11.628  55.355  47.158  0.00  0.00    +0.000 C 
BRANCH  29  30
ATOM     30  C   UNL     1     -10.514  54.792  46.309  0.00  0.00    +0.000 A 
ATOM     31  C   UNL     1      -9.198  55.259  46.486  0.00  0.00    +0.000 A 
ATOM     32  C   UNL     1     -10.750  53.790  45.364  0.00  0.00    +0.000 A 
ATOM     33  C   UNL     1      -8.153  54.763  45.710  0.00  0.00    +0.000 A 
ATOM     34  C   UNL     1      -9.703  53.292  44.588  0.00  0.00    +0.000 A 
ATOM     35  C   UNL     1      -8.408  53.783  44.754  0.00  0.00    +0.000 A 
ENDBRANCH  29  30
ENDBRANCH  28  29
ENDBRANCH   5  28
TORSDOF 5
ENDMDL
MODEL 9
REMARK VINA RESULT:      -8.4      3.375      6.470
REMARK  Name = 
REMARK  5 active torsions:
REMARK  status: ('A' for Active; 'I' for Inactive)
REMARK    1  A    between atoms: C_6  and  C_10
REMARK    2  A    between atoms: C_14  and  O_18
REMARK    3  A    between atoms: N_17  and  O_20
REMARK    4  A    between atoms: O_20  and  C_23
REMARK    5  A    between atoms: C_23  and  C_26
REMARK                            x       y       z     vdW  Elec       q    Type
REMARK                         _______ _______ _______ _____ _____    ______ ____
ROOT
ATOM      1  C   UNL     1     -12.306  54.362  50.085  0.00  0.00    +0.000 A 
ATOM      2  C   UNL     1     -12.034  54.070  48.647  0.00  0.00    +0.000 A 
ATOM      3  C   UNL     1     -11.809  53.555  51.040  0.00  0.00    +0.000 A 
ATOM      4  O   UNL     1     -12.506  54.854  47.816  0.00  0.00    +0.000 OA
ATOM      5  N   UNL     1     -11.270  52.970  48.350  0.00  0.00    +0.000 N 
ATOM      6  C   UNL     1     -11.035  52.363  50.674  0.00  0.00    +0.000 A 
ATOM      7  C   UNL     1     -10.788  52.066  49.327  0.00  0.00    +0.000 A 
ATOM      8  C   UNL     1     -10.573  51.465  51.646  0.00  0.00    +0.000 A 
ATOM      9  N   UNL     1     -10.121  50.949  48.939  0.00  0.00    +0.000 NA
ATOM     10  C   UNL     1      -9.906  50.311  51.261  0.00  0.00    +0.000 A 
ATOM     11  C   UNL     1      -9.709  50.097  49.909  0.00  0.00    +0.000 A 
ENDROOT
BRANCH   1  17
ATOM     12  S   UNL     1     -15.300  56.528  51.398  0.00  0.00    +0.000 S 
ATOM     13  O   UNL     1     -15.250  56.713  52.834  0.00  0.00    +0.000 OA
ATOM     14  O   UNL     1     -16.563  56.258  50.737  0.00  0.00    +0.000 OA
ATOM     15  N   UNL     1     -14.279  55.331  51.027  0.00  0.00    +0.000 N 
ATOM     16  C   UNL     1     -14.688  58.012  50.692  0.00  0.00    +0.000 A 
ATOM     17  C   UNL     1     -13.146  55.574  50.437  0.00  0.00    +0.000 C 
ATOM     18  C   UNL     1     -13.437  57.981  50.102  0.00  0.00    +0.000 A 
ATOM     19  C   UNL     1     -15.461  59.174  50.726  0.00  0.00    +0.000 A 
ATOM     20  N   UNL     1     -12.668  56.819  50.090  0.00  0.00    +0.000 N 
ATOM     21  C   UNL     1     -12.917  59.171  49.585  0.00  0.00    +0.000 A 
ATOM     22  C   UNL     1     -14.946  60.345  50.179  0.00  0.00    +0.000 A 
ATOM     23  C   UNL     1     -13.671  60.347  49.615  0.00  0.00    +0.000 A 
ATOM     24  H   UNL     1     -14.519  54.403  51.251  0.00  0.00    +0.000 HD
ATOM     25  H   UNL     1     -11.725  56.892  49.817  0.00  0.00    +0.000 HD
ENDBRANCH   1  17
BRANCH   3  26
ATOM     26  O   UNL     1     -11.986  53.744  52.398  0.00  0.00    +0.000 OA
ATOM     27  H   UNL     1     -11.884  53.024  52.988  0.00  0.00    +0.000 HD
ENDBRANCH   3  26
BRANCH   5  28
ATOM     28  O   UNL     1     -11.172  52.522  47.000  0.00  0.00    +0.000 OA
BRANCH  28  29
ATOM     29  C   UNL     1     -10.300  53.343  46.207  0.00  0.00    +0.000 C 
BRANCH  29  30
ATOM     30  C   UNL     1      -9.785  52.601  44.997  0.00  0.00    +0.000 A 
ATOM     31  C   UNL     1      -8.930  53.254  44.091  0.00  0.00    +0.000 A 
ATOM     32  C   UNL     1     -10.115  51.263  44.766  0.00  0.00    +0.000 A 
ATOM     33  C   UNL     1      -8.449  52.595  42.961  0.00  0.00    +0.000 A 
ATOM     34  C   UNL     1      -9.630  50.603  43.636  0.00  0.00    +0.000 A 
ATOM     35  C   UNL     1      -8.805  51.270  42.730  0.00  0.00    +0.000 A 
ENDBRANCH  29  30
ENDBRANCH  28  29
ENDBRANCH   5  28
TORSDOF 5
ENDMDL
