MODEL 1
REMARK VINA RESULT:      -8.4      0.000      0.000
REMARK  Name = 
REMARK  5 active torsions:
REMARK  status: ('A' for Active; 'I' for Inactive)
REMARK    1  A    between atoms: C_6  and  C_10
REMARK    2  A    between atoms: C_14  and  O_18
REMARK    3  A    between atoms: N_17  and  N_20
REMARK    4  A    between atoms: N_20  and  C_23
REMARK    5  A    between atoms: C_23  and  C_26
REMARK                            x       y       z     vdW  Elec       q    Type
REMARK                         _______ _______ _______ _____ _____    ______ ____
ROOT
ATOM      1  C   UNL     1     -10.124  54.565  52.219  0.00  0.00    +0.000 A 
ATOM      2  C   UNL     1      -8.758  55.135  52.029  0.00  0.00    +0.000 A 
ATOM      3  C   UNL     1     -10.302  53.457  52.959  0.00  0.00    +0.000 A 
ATOM      4  O   UNL     1      -8.656  56.147  51.327  0.00  0.00    +0.000 OA
ATOM      5  N   UNL     1      -7.686  54.511  52.672  0.00  0.00    +0.000 N 
ATOM      6  C   UNL     1      -9.161  52.811  53.624  0.00  0.00    +0.000 A 
ATOM      7  C   UNL     1      -7.868  53.342  53.468  0.00  0.00    +0.000 A 
ATOM      8  C   UNL     1      -9.348  51.672  54.427  0.00  0.00    +0.000 A 
ATOM      9  C   UNL     1      -6.789  52.712  54.112  0.00  0.00    +0.000 A 
ATOM     10  C   UNL     1      -8.271  51.068  55.074  0.00  0.00    +0.000 A 
ATOM     11  C   UNL     1      -6.992  51.585  54.914  0.00  0.00    +0.000 A 
ENDROOT
BRANCH   1  17
ATOM     12  S   UNL     1     -12.563  56.090  49.542  0.00  0.00    +0.000 S 
ATOM     13  O   UNL     1     -13.462  55.098  48.983  0.00  0.00    +0.000 OA
ATOM     14  O   UNL     1     -11.955  57.089  48.689  0.00  0.00    +0.000 OA
ATOM     15  N   UNL     1     -11.377  55.299  50.313  0.00  0.00    +0.000 N 
ATOM     16  C   UNL     1     -13.500  56.978  50.733  0.00  0.00    +0.000 A 
ATOM     17  C   UNL     1     -11.306  55.296  51.609  0.00  0.00    +0.000 C 
ATOM     18  C   UNL     1     -13.198  56.786  52.069  0.00  0.00    +0.000 A 
ATOM     19  C   UNL     1     -14.503  57.856  50.317  0.00  0.00    +0.000 A 
ATOM     20  N   UNL     1     -12.201  55.898  52.469  0.00  0.00    +0.000 N 
ATOM     21  C   UNL     1     -13.979  57.444  53.026  0.00  0.00    +0.000 A 
ATOM     22  C   UNL     1     -15.251  58.534  51.280  0.00  0.00    +0.000 A 
ATOM     23  C   UNL     1     -14.995  58.319  52.631  0.00  0.00    +0.000 A 
ATOM     24  H   UNL     1     -10.700  54.813  49.789  0.00  0.00    +0.000 HD
ATOM     25  H   UNL     1     -12.131  55.687  53.428  0.00  0.00    +0.000 HD
ENDBRANCH   1  17
BRANCH   3  26
ATOM     26  O   UNL     1     -11.529  52.858  53.186  0.00  0.00    +0.000 OA
ATOM     27  H   UNL     1     -11.889  52.274  52.548  0.00  0.00    +0.000 HD
ENDBRANCH   3  26
BRANCH   5  28
ATOM     28  N   UNL     1      -6.340  54.969  52.456  0.00  0.00    +0.000 N 
ATOM     29  H   UNL     1      -5.823  55.438  53.151  0.00  0.00    +0.000 HD
BRANCH  28  30
ATOM     30  C   UNL     1      -5.793  54.687  51.122  0.00  0.00    +0.000 C 
BRANCH  30  31
ATOM     31  C   UNL     1      -5.005  53.409  51.134  0.00  0.00    +0.000 A 
ATOM     32  S   UNL     1      -5.654  51.994  50.408  0.00  0.00    +0.000 S 
ATOM     33  C   UNL     1      -3.740  53.185  51.636  0.00  0.00    +0.000 A 
ATOM     34  C   UNL     1      -4.244  51.093  50.757  0.00  0.00    +0.000 A 
ATOM     35  C   UNL     1      -3.300  51.846  51.418  0.00  0.00    +0.000 A 
ENDBRANCH  30  31
ENDBRANCH  28  30
ENDBRANCH   5  28
TORSDOF 5
ENDMDL
MODEL 2
REMARK VINA RESULT:      -8.4      3.298      4.905
REMARK  Name = 
REMARK  5 active torsions:
REMARK  status: ('A' for Active; 'I' for Inactive)
REMARK    1  A    between atoms: C_6  and  C_10
REMARK    2  A    between atoms: C_14  and  O_18
REMARK    3  A    between atoms: N_17  and  N_20
REMARK    4  A    between atoms: N_20  and  C_23
REMARK    5  A    between atoms: C_23  and  C_26
REMARK                            x       y       z     vdW  Elec       q    Type
REMARK                         _______ _______ _______ _____ _____    ______ ____
ROOT
ATOM      1  C   UNL     1     -11.457  56.027  48.803  0.00  0.00    +0.000 A 
ATOM      2  C   UNL     1     -10.386  55.451  49.669  0.00  0.00    +0.000 A 
ATOM      3  C   UNL     1     -11.561  55.657  47.515  0.00  0.00    +0.000 A 
ATOM      4  O   UNL     1     -10.331  55.842  50.841  0.00  0.00    +0.000 OA
ATOM      5  N   UNL     1      -9.531  54.495  49.116  0.00  0.00    +0.000 N 
ATOM      6  C   UNL     1     -10.649  54.652  46.949  0.00  0.00    +0.000 A 
ATOM      7  C   UNL     1      -9.643  54.088  47.754  0.00  0.00    +0.000 A 
ATOM      8  C   UNL     1     -10.778  54.237  45.612  0.00  0.00    +0.000 A 
ATOM      9  C   UNL     1      -8.780  53.128  47.197  0.00  0.00    +0.000 A 
ATOM     10  C   UNL     1      -9.927  53.270  45.077  0.00  0.00    +0.000 A 
ATOM     11  C   UNL     1      -8.926  52.719  45.868  0.00  0.00    +0.000 A 
ENDROOT
BRANCH   1  17
ATOM     12  S   UNL     1     -13.575  59.274  49.441  0.00  0.00    +0.000 S 
ATOM     13  O   UNL     1     -14.714  59.376  48.547  0.00  0.00    +0.000 OA
ATOM     14  O   UNL     1     -12.784  60.445  49.753  0.00  0.00    +0.000 OA
ATOM     15  N   UNL     1     -12.582  58.142  48.842  0.00  0.00    +0.000 N 
ATOM     16  C   UNL     1     -14.210  58.698  50.973  0.00  0.00    +0.000 A 
ATOM     17  C   UNL     1     -12.453  56.989  49.424  0.00  0.00    +0.000 C 
ATOM     18  C   UNL     1     -13.901  57.405  51.358  0.00  0.00    +0.000 A 
ATOM     19  C   UNL     1     -14.988  59.543  51.767  0.00  0.00    +0.000 A 
ATOM     20  N   UNL     1     -13.132  56.571  50.549  0.00  0.00    +0.000 N 
ATOM     21  C   UNL     1     -14.453  56.918  52.548  0.00  0.00    +0.000 A 
ATOM     22  C   UNL     1     -15.502  59.058  52.970  0.00  0.00    +0.000 A 
ATOM     23  C   UNL     1     -15.242  57.745  53.353  0.00  0.00    +0.000 A 
ATOM     24  H   UNL     1     -12.069  58.332  48.023  0.00  0.00    +0.000 HD
ATOM     25  H   UNL     1     -13.070  55.620  50.797  0.00  0.00    +0.000 HD
ENDBRANCH   1  17
BRANCH   3  26
ATOM     26  O   UNL     1     -12.518  56.139  46.640  0.00  0.00    +0.000 OA
ATOM     27  H   UNL     1     -12.982  56.928  46.842  0.00  0.00    +0.000 HD
ENDBRANCH   3  26
BRANCH   5  28
ATOM     28  N   UNL     1      -8.431  53.971  49.882  0.00  0.00    +0.000 N 
ATOM     29  H   UNL     1      -8.449  53.072  50.284  0.00  0.00    +0.000 HD
BRANCH  28  30
ATOM     30  C   UNL     1      -7.282  54.875  50.021  0.00  0.00    +0.000 C 
BRANCH  30  31
ATOM     31  C   UNL     1      -6.910  55.037  51.467  0.00  0.00    +0.000 A 
ATOM     32  S   UNL     1      -5.753  53.986  52.179  0.00  0.00    +0.000 S 
ATOM     33  C   UNL     1      -7.352  55.986  52.366  0.00  0.00    +0.000 A 
ATOM     34  C   UNL     1      -5.838  54.805  53.677  0.00  0.00    +0.000 A 
ATOM     35  C   UNL     1      -6.732  55.851  53.642  0.00  0.00    +0.000 A 
ENDBRANCH  30  31
ENDBRANCH  28  30
ENDBRANCH   5  28
TORSDOF 5
ENDMDL
MODEL 3
REMARK VINA RESULT:      -8.3      2.161      2.452
REMARK  Name = 
REMARK  5 active torsions:
REMARK  status: ('A' for Active; 'I' for Inactive)
REMARK    1  A    between atoms: C_6  and  C_10
REMARK    2  A    between atoms: C_14  and  O_18
REMARK    3  A    between atoms: N_17  and  N_20
REMARK    4  A    between atoms: N_20  and  C_23
REMARK    5  A    between atoms: C_23  and  C_26
REMARK                            x       y       z     vdW  Elec       q    Type
REMARK                         _______ _______ _______ _____ _____    ______ ____
ROOT
ATOM      1  C   UNL     1     -11.158  54.617  50.870  0.00  0.00    +0.000 A 
ATOM      2  C   UNL     1      -9.760  55.012  50.525  0.00  0.00    +0.000 A 
ATOM      3  C   UNL     1     -11.425  53.375  51.310  0.00  0.00    +0.000 A 
ATOM      4  O   UNL     1      -9.580  56.162  50.112  0.00  0.00    +0.000 OA
ATOM      5  N   UNL     1      -8.743  54.073  50.712  0.00  0.00    +0.000 N 
ATOM      6  C   UNL     1     -10.341  52.399  51.497  0.00  0.00    +0.000 A 
ATOM      7  C   UNL     1      -9.016  52.757  51.191  0.00  0.00    +0.000 A 
ATOM      8  C   UNL     1     -10.612  51.110  51.990  0.00  0.00    +0.000 A 
ATOM      9  C   UNL     1      -7.993  51.811  51.376  0.00  0.00    +0.000 A 
ATOM     10  C   UNL     1      -9.585  50.188  52.186  0.00  0.00    +0.000 A 
ATOM     11  C   UNL     1      -8.277  50.537  51.876  0.00  0.00    +0.000 A 
ENDROOT
BRANCH   1  17
ATOM     12  S   UNL     1     -13.608  57.285  49.348  0.00  0.00    +0.000 S 
ATOM     13  O   UNL     1     -14.746  56.676  48.683  0.00  0.00    +0.000 OA
ATOM     14  O   UNL     1     -12.946  58.431  48.761  0.00  0.00    +0.000 OA
ATOM     15  N   UNL     1     -12.499  56.127  49.579  0.00  0.00    +0.000 N 
ATOM     16  C   UNL     1     -14.190  57.816  50.917  0.00  0.00    +0.000 A 
ATOM     17  C   UNL     1     -12.253  55.663  50.766  0.00  0.00    +0.000 C 
ATOM     18  C   UNL     1     -13.750  57.131  52.036  0.00  0.00    +0.000 A 
ATOM     19  C   UNL     1     -15.058  58.906  51.007  0.00  0.00    +0.000 A 
ATOM     20  N   UNL     1     -12.893  56.038  51.929  0.00  0.00    +0.000 N 
ATOM     21  C   UNL     1     -14.256  57.509  53.285  0.00  0.00    +0.000 A 
ATOM     22  C   UNL     1     -15.526  59.296  52.261  0.00  0.00    +0.000 A 
ATOM     23  C   UNL     1     -15.133  58.592  53.395  0.00  0.00    +0.000 A 
ATOM     24  H   UNL     1     -12.002  55.770  48.807  0.00  0.00    +0.000 HD
ATOM     25  H   UNL     1     -12.733  55.497  52.737  0.00  0.00    +0.000 HD
ENDBRANCH   1  17
BRANCH   3  26
ATOM     26  O   UNL     1     -12.687  52.922  51.648  0.00  0.00    +0.000 OA
ATOM     27  H   UNL     1     -13.203  53.394  52.272  0.00  0.00    +0.000 HD
ENDBRANCH   3  26
BRANCH   5  28
ATOM     28  N   UNL     1      -7.392  54.374  50.319  0.00  0.00    +0.000 N 
ATOM     29  H   UNL     1      -6.938  53.900  49.584  0.00  0.00    +0.000 HD
BRANCH  28  30
ATOM     30  C   UNL     1      -6.740  55.437  51.094  0.00  0.00    +0.000 C 
BRANCH  30  31
ATOM     31  C   UNL     1      -6.339  54.933  52.450  0.00  0.00    +0.000 A 
ATOM     32  S   UNL     1      -7.227  55.408  53.841  0.00  0.00    +0.000 S 
ATOM     33  C   UNL     1      -5.323  54.056  52.774  0.00  0.00    +0.000 A 
ATOM     34  C   UNL     1      -6.262  54.439  54.866  0.00  0.00    +0.000 A 
ATOM     35  C   UNL     1      -5.280  53.771  54.170  0.00  0.00    +0.000 A 
ENDBRANCH  30  31
ENDBRANCH  28  30
ENDBRANCH   5  28
TORSDOF 5
ENDMDL
MODEL 4
REMARK VINA RESULT:      -8.3      3.143      8.378
REMARK  Name = 
REMARK  5 active torsions:
REMARK  status: ('A' for Active; 'I' for Inactive)
REMARK    1  A    between atoms: C_6  and  C_10
REMARK    2  A    between atoms: C_14  and  O_18
REMARK    3  A    between atoms: N_17  and  N_20
REMARK    4  A    between atoms: N_20  and  C_23
REMARK    5  A    between atoms: C_23  and  C_26
REMARK                            x       y       z     vdW  Elec       q    Type
REMARK                         _______ _______ _______ _____ _____    ______ ____
ROOT
ATOM      1  C   UNL     1      -9.097  54.349  49.906  0.00  0.00    +0.000 A 
ATOM      2  C   UNL     1     -10.140  55.413  50.003  0.00  0.00    +0.000 A 
ATOM      3  C   UNL     1      -8.995  53.596  48.798  0.00  0.00    +0.000 A 
ATOM      4  O   UNL     1     -10.195  56.062  51.053  0.00  0.00    +0.000 OA
ATOM      5  N   UNL     1     -10.969  55.628  48.899  0.00  0.00    +0.000 N 
ATOM      6  C   UNL     1      -9.880  53.834  47.648  0.00  0.00    +0.000 A 
ATOM      7  C   UNL     1     -10.858  54.842  47.714  0.00  0.00    +0.000 A 
ATOM      8  C   UNL     1      -9.752  53.072  46.473  0.00  0.00    +0.000 A 
ATOM      9  C   UNL     1     -11.695  55.056  46.605  0.00  0.00    +0.000 A 
ATOM     10  C   UNL     1     -10.577  53.307  45.374  0.00  0.00    +0.000 A 
ATOM     11  C   UNL     1     -11.550  54.296  45.441  0.00  0.00    +0.000 A 
ENDROOT
BRANCH   1  17
ATOM     12  S   UNL     1      -7.698  54.078  53.568  0.00  0.00    +0.000 S 
ATOM     13  O   UNL     1      -7.924  52.769  54.151  0.00  0.00    +0.000 OA
ATOM     14  O   UNL     1      -7.883  55.274  54.363  0.00  0.00    +0.000 OA
ATOM     15  N   UNL     1      -8.638  54.198  52.254  0.00  0.00    +0.000 N 
ATOM     16  C   UNL     1      -6.020  54.098  53.052  0.00  0.00    +0.000 A 
ATOM     17  C   UNL     1      -8.127  54.178  51.061  0.00  0.00    +0.000 C 
ATOM     18  C   UNL     1      -5.760  54.080  51.693  0.00  0.00    +0.000 A 
ATOM     19  C   UNL     1      -4.998  54.144  54.002  0.00  0.00    +0.000 A 
ATOM     20  N   UNL     1      -6.791  54.022  50.757  0.00  0.00    +0.000 N 
ATOM     21  C   UNL     1      -4.426  54.033  51.274  0.00  0.00    +0.000 A 
ATOM     22  C   UNL     1      -3.672  54.135  53.571  0.00  0.00    +0.000 A 
ATOM     23  C   UNL     1      -3.388  54.070  52.210  0.00  0.00    +0.000 A 
ATOM     24  H   UNL     1      -9.613  54.287  52.362  0.00  0.00    +0.000 HD
ATOM     25  H   UNL     1      -6.549  53.858  49.816  0.00  0.00    +0.000 HD
ENDBRANCH   1  17
BRANCH   3  26
ATOM     26  O   UNL     1      -8.064  52.588  48.622  0.00  0.00    +0.000 OA
ATOM     27  H   UNL     1      -8.314  51.693  48.745  0.00  0.00    +0.000 HD
ENDBRANCH   3  26
BRANCH   5  28
ATOM     28  N   UNL     1     -12.042  56.583  48.969  0.00  0.00    +0.000 N 
ATOM     29  H   UNL     1     -11.961  57.497  48.611  0.00  0.00    +0.000 HD
BRANCH  28  30
ATOM     30  C   UNL     1     -13.268  56.096  49.616  0.00  0.00    +0.000 C 
BRANCH  30  31
ATOM     31  C   UNL     1     -13.638  56.974  50.776  0.00  0.00    +0.000 A 
ATOM     32  S   UNL     1     -14.251  58.554  50.497  0.00  0.00    +0.000 S 
ATOM     33  C   UNL     1     -13.595  56.680  52.124  0.00  0.00    +0.000 A 
ATOM     34  C   UNL     1     -14.467  58.834  52.169  0.00  0.00    +0.000 A 
ATOM     35  C   UNL     1     -14.075  57.754  52.928  0.00  0.00    +0.000 A 
ENDBRANCH  30  31
ENDBRANCH  28  30
ENDBRANCH   5  28
TORSDOF 5
ENDMDL
MODEL 5
REMARK VINA RESULT:      -8.1      4.145      5.556
REMARK  Name = 
REMARK  5 active torsions:
REMARK  status: ('A' for Active; 'I' for Inactive)
REMARK    1  A    between atoms: C_6  and  C_10
REMARK    2  A    between atoms: C_14  and  O_18
REMARK    3  A    between atoms: N_17  and  N_20
REMARK    4  A    between atoms: N_20  and  C_23
REMARK    5  A    between atoms: C_23  and  C_26
REMARK                            x       y       z     vdW  Elec       q    Type
REMARK                         _______ _______ _______ _____ _____    ______ ____
ROOT
ATOM      1  C   UNL     1     -10.343  54.885  47.772  0.00  0.00    +0.000 A 
ATOM      2  C   UNL     1      -8.853  54.971  47.776  0.00  0.00    +0.000 A 
ATOM      3  C   UNL     1     -10.992  54.361  46.717  0.00  0.00    +0.000 A 
ATOM      4  O   UNL     1      -8.315  55.476  48.767  0.00  0.00    +0.000 OA
ATOM      5  N   UNL     1      -8.159  54.456  46.678  0.00  0.00    +0.000 N 
ATOM      6  C   UNL     1     -10.243  53.829  45.569  0.00  0.00    +0.000 A 
ATOM      7  C   UNL     1      -8.839  53.887  45.561  0.00  0.00    +0.000 A 
ATOM      8  C   UNL     1     -10.917  53.248  44.479  0.00  0.00    +0.000 A 
ATOM      9  C   UNL     1      -8.140  53.373  44.455  0.00  0.00    +0.000 A 
ATOM     10  C   UNL     1     -10.210  52.725  43.397  0.00  0.00    +0.000 A 
ATOM     11  C   UNL     1      -8.823  52.791  43.383  0.00  0.00    +0.000 A 
ENDROOT
BRANCH   1  17
ATOM     12  S   UNL     1     -11.787  54.968  51.426  0.00  0.00    +0.000 S 
ATOM     13  O   UNL     1     -10.816  55.442  52.394  0.00  0.00    +0.000 OA
ATOM     14  O   UNL     1     -12.653  53.853  51.745  0.00  0.00    +0.000 OA
ATOM     15  N   UNL     1     -10.986  54.607  50.064  0.00  0.00    +0.000 N 
ATOM     16  C   UNL     1     -12.850  56.326  51.098  0.00  0.00    +0.000 A 
ATOM     17  C   UNL     1     -11.100  55.348  49.004  0.00  0.00    +0.000 C 
ATOM     18  C   UNL     1     -12.762  56.934  49.858  0.00  0.00    +0.000 A 
ATOM     19  C   UNL     1     -13.756  56.753  52.071  0.00  0.00    +0.000 A 
ATOM     20  N   UNL     1     -11.844  56.504  48.902  0.00  0.00    +0.000 N 
ATOM     21  C   UNL     1     -13.563  58.055  49.612  0.00  0.00    +0.000 A 
ATOM     22  C   UNL     1     -14.575  57.848  51.799  0.00  0.00    +0.000 A 
ATOM     23  C   UNL     1     -14.470  58.503  50.576  0.00  0.00    +0.000 A 
ATOM     24  H   UNL     1     -10.404  53.813  50.040  0.00  0.00    +0.000 HD
ATOM     25  H   UNL     1     -11.719  57.063  48.101  0.00  0.00    +0.000 HD
ENDBRANCH   1  17
BRANCH   3  26
ATOM     26  O   UNL     1     -12.367  54.245  46.626  0.00  0.00    +0.000 OA
ATOM     27  H   UNL     1     -12.857  54.864  46.120  0.00  0.00    +0.000 HD
ENDBRANCH   3  26
BRANCH   5  28
ATOM     28  N   UNL     1      -6.729  54.588  46.594  0.00  0.00    +0.000 N 
ATOM     29  H   UNL     1      -6.292  55.397  46.241  0.00  0.00    +0.000 HD
BRANCH  28  30
ATOM     30  C   UNL     1      -5.967  53.426  47.072  0.00  0.00    +0.000 C 
BRANCH  30  31
ATOM     31  C   UNL     1      -5.663  53.560  48.536  0.00  0.00    +0.000 A 
ATOM     32  S   UNL     1      -6.307  52.427  49.655  0.00  0.00    +0.000 S 
ATOM     33  C   UNL     1      -4.861  54.491  49.165  0.00  0.00    +0.000 A 
ATOM     34  C   UNL     1      -5.508  53.175  50.968  0.00  0.00    +0.000 A 
ATOM     35  C   UNL     1      -4.772  54.267  50.570  0.00  0.00    +0.000 A 
ENDBRANCH  30  31
ENDBRANCH  28  30
ENDBRANCH   5  28
TORSDOF 5
ENDMDL
MODEL 6
REMARK VINA RESULT:      -8.0      2.871      8.292
REMARK  Name = 
REMARK  5 active torsions:
REMARK  status: ('A' for Active; 'I' for Inactive)
REMARK    1  A    between atoms: C_6  and  C_10
REMARK    2  A    between atoms: C_14  and  O_18
REMARK    3  A    between atoms: N_17  and  N_20
REMARK    4  A    between atoms: N_20  and  C_23
REMARK    5  A    between atoms: C_23  and  C_26
REMARK                            x       y       z     vdW  Elec       q    Type
REMARK                         _______ _______ _______ _____ _____    ______ ____
ROOT
ATOM      1  C   UNL     1      -9.603  54.323  50.326  0.00  0.00    +0.000 A 
ATOM      2  C   UNL     1     -10.669  55.355  50.493  0.00  0.00    +0.000 A 
ATOM      3  C   UNL     1      -9.402  53.741  49.132  0.00  0.00    +0.000 A 
ATOM      4  O   UNL     1     -10.816  55.843  51.618  0.00  0.00    +0.000 OA
ATOM      5  N   UNL     1     -11.415  55.723  49.370  0.00  0.00    +0.000 N 
ATOM      6  C   UNL     1     -10.200  54.138  47.962  0.00  0.00    +0.000 A 
ATOM      7  C   UNL     1     -11.199  55.118  48.097  0.00  0.00    +0.000 A 
ATOM      8  C   UNL     1      -9.969  53.555  46.703  0.00  0.00    +0.000 A 
ATOM      9  C   UNL     1     -11.952  55.486  46.968  0.00  0.00    +0.000 A 
ATOM     10  C   UNL     1     -10.711  53.942  45.588  0.00  0.00    +0.000 A 
ATOM     11  C   UNL     1     -11.704  54.904  45.721  0.00  0.00    +0.000 A 
ENDROOT
BRANCH   1  17
ATOM     12  S   UNL     1      -6.528  54.300  52.772  0.00  0.00    +0.000 S 
ATOM     13  O   UNL     1      -6.509  55.456  53.648  0.00  0.00    +0.000 OA
ATOM     14  O   UNL     1      -5.301  53.814  52.175  0.00  0.00    +0.000 OA
ATOM     15  N   UNL     1      -7.579  54.607  51.578  0.00  0.00    +0.000 N 
ATOM     16  C   UNL     1      -7.155  52.971  53.733  0.00  0.00    +0.000 A 
ATOM     17  C   UNL     1      -8.721  53.993  51.516  0.00  0.00    +0.000 C 
ATOM     18  C   UNL     1      -8.422  52.500  53.437  0.00  0.00    +0.000 A 
ATOM     19  C   UNL     1      -6.375  52.416  54.749  0.00  0.00    +0.000 A 
ATOM     20  N   UNL     1      -9.194  53.072  52.428  0.00  0.00    +0.000 N 
ATOM     21  C   UNL     1      -8.954  51.482  54.238  0.00  0.00    +0.000 A 
ATOM     22  C   UNL     1      -6.901  51.377  55.516  0.00  0.00    +0.000 A 
ATOM     23  C   UNL     1      -8.192  50.919  55.266  0.00  0.00    +0.000 A 
ATOM     24  H   UNL     1      -7.348  55.270  50.887  0.00  0.00    +0.000 HD
ATOM     25  H   UNL     1     -10.138  52.801  52.361  0.00  0.00    +0.000 HD
ENDBRANCH   1  17
BRANCH   3  26
ATOM     26  O   UNL     1      -8.442  52.775  48.886  0.00  0.00    +0.000 OA
ATOM     27  H   UNL     1      -7.572  52.885  49.216  0.00  0.00    +0.000 HD
ENDBRANCH   3  26
BRANCH   5  28
ATOM     28  N   UNL     1     -12.507  56.650  49.493  0.00  0.00    +0.000 N 
ATOM     29  H   UNL     1     -12.458  57.573  49.151  0.00  0.00    +0.000 HD
BRANCH  28  30
ATOM     30  C   UNL     1     -13.700  56.122  50.167  0.00  0.00    +0.000 C 
BRANCH  30  31
ATOM     31  C   UNL     1     -14.225  57.112  51.166  0.00  0.00    +0.000 A 
ATOM     32  S   UNL     1     -14.299  58.780  50.765  0.00  0.00    +0.000 S 
ATOM     33  C   UNL     1     -14.727  56.873  52.430  0.00  0.00    +0.000 A 
ATOM     34  C   UNL     1     -15.008  59.175  52.269  0.00  0.00    +0.000 A 
ATOM     35  C   UNL     1     -15.180  58.065  53.066  0.00  0.00    +0.000 A 
ENDBRANCH  30  31
ENDBRANCH  28  30
ENDBRANCH   5  28
TORSDOF 5
ENDMDL
MODEL 7
REMARK VINA RESULT:      -8.0      2.315      3.242
REMARK  Name = 
REMARK  5 active torsions:
REMARK  status: ('A' for Active; 'I' for Inactive)
REMARK    1  A    between atoms: C_6  and  C_10
REMARK    2  A    between atoms: C_14  and  O_18
REMARK    3  A    between atoms: N_17  and  N_20
REMARK    4  A    between atoms: N_20  and  C_23
REMARK    5  A    between atoms: C_23  and  C_26
REMARK                            x       y       z     vdW  Elec       q    Type
REMARK                         _______ _______ _______ _____ _____    ______ ____
ROOT
ATOM      1  C   UNL     1     -11.708  54.027  51.311  0.00  0.00    +0.000 A 
ATOM      2  C   UNL     1     -10.873  54.040  52.548  0.00  0.00    +0.000 A 
ATOM      3  C   UNL     1     -11.750  52.933  50.531  0.00  0.00    +0.000 A 
ATOM      4  O   UNL     1     -10.863  55.079  53.216  0.00  0.00    +0.000 OA
ATOM      5  N   UNL     1     -10.176  52.878  52.888  0.00  0.00    +0.000 N 
ATOM      6  C   UNL     1     -11.006  51.720  50.903  0.00  0.00    +0.000 A 
ATOM      7  C   UNL     1     -10.225  51.709  52.072  0.00  0.00    +0.000 A 
ATOM      8  C   UNL     1     -11.076  50.563  50.107  0.00  0.00    +0.000 A 
ATOM      9  C   UNL     1      -9.521  50.541  52.412  0.00  0.00    +0.000 A 
ATOM     10  C   UNL     1     -10.387  49.405  50.466  0.00  0.00    +0.000 A 
ATOM     11  C   UNL     1      -9.607  49.395  51.616  0.00  0.00    +0.000 A 
ENDROOT
BRANCH   1  17
ATOM     12  S   UNL     1     -13.290  57.023  49.321  0.00  0.00    +0.000 S 
ATOM     13  O   UNL     1     -14.381  56.602  48.462  0.00  0.00    +0.000 OA
ATOM     14  O   UNL     1     -12.326  57.998  48.855  0.00  0.00    +0.000 OA
ATOM     15  N   UNL     1     -12.480  55.694  49.772  0.00  0.00    +0.000 N 
ATOM     16  C   UNL     1     -14.036  57.726  50.746  0.00  0.00    +0.000 A 
ATOM     17  C   UNL     1     -12.548  55.250  50.990  0.00  0.00    +0.000 C 
ATOM     18  C   UNL     1     -13.946  57.027  51.937  0.00  0.00    +0.000 A 
ATOM     19  C   UNL     1     -14.684  58.960  50.657  0.00  0.00    +0.000 A 
ATOM     20  N   UNL     1     -13.306  55.791  52.007  0.00  0.00    +0.000 N 
ATOM     21  C   UNL     1     -14.590  57.551  53.063  0.00  0.00    +0.000 A 
ATOM     22  C   UNL     1     -15.290  59.490  51.796  0.00  0.00    +0.000 A 
ATOM     23  C   UNL     1     -15.251  58.781  52.992  0.00  0.00    +0.000 A 
ATOM     24  H   UNL     1     -11.928  55.215  49.112  0.00  0.00    +0.000 HD
ATOM     25  H   UNL     1     -13.402  55.270  52.837  0.00  0.00    +0.000 HD
ENDBRANCH   1  17
BRANCH   3  26
ATOM     26  O   UNL     1     -12.492  52.832  49.368  0.00  0.00    +0.000 OA
ATOM     27  H   UNL     1     -12.473  52.040  48.867  0.00  0.00    +0.000 HD
ENDBRANCH   3  26
BRANCH   5  28
ATOM     28  N   UNL     1      -9.292  52.864  54.023  0.00  0.00    +0.000 N 
ATOM     29  H   UNL     1      -9.623  52.815  54.949  0.00  0.00    +0.000 HD
BRANCH  28  30
ATOM     30  C   UNL     1      -7.861  52.928  53.699  0.00  0.00    +0.000 C 
BRANCH  30  31
ATOM     31  C   UNL     1      -7.559  54.151  52.881  0.00  0.00    +0.000 A 
ATOM     32  S   UNL     1      -7.391  55.677  53.649  0.00  0.00    +0.000 S 
ATOM     33  C   UNL     1      -7.344  54.242  51.521  0.00  0.00    +0.000 A 
ATOM     34  C   UNL     1      -7.022  56.451  52.170  0.00  0.00    +0.000 A 
ATOM     35  C   UNL     1      -7.032  55.572  51.111  0.00  0.00    +0.000 A 
ENDBRANCH  30  31
ENDBRANCH  28  30
ENDBRANCH   5  28
TORSDOF 5
ENDMDL
MODEL 8
REMARK VINA RESULT:      -7.9      3.349      7.124
REMARK  Name = 
REMARK  5 active torsions:
REMARK  status: ('A' for Active; 'I' for Inactive)
REMARK    1  A    between atoms: C_6  and  C_10
REMARK    2  A    between atoms: C_14  and  O_18
REMARK    3  A    between atoms: N_17  and  N_20
REMARK    4  A    between atoms: N_20  and  C_23
REMARK    5  A    between atoms: C_23  and  C_26
REMARK                            x       y       z     vdW  Elec       q    Type
REMARK                         _______ _______ _______ _____ _____    ______ ____
ROOT
ATOM      1  C   UNL     1     -10.342  55.211  50.827  0.00  0.00    +0.000 A 
ATOM      2  C   UNL     1      -9.954  55.144  49.387  0.00  0.00    +0.000 A 
ATOM      3  C   UNL     1     -11.541  55.703  51.185  0.00  0.00    +0.000 A 
ATOM      4  O   UNL     1      -8.833  54.696  49.121  0.00  0.00    +0.000 OA
ATOM      5  N   UNL     1     -10.883  55.564  48.432  0.00  0.00    +0.000 N 
ATOM      6  C   UNL     1     -12.504  56.144  50.165  0.00  0.00    +0.000 A 
ATOM      7  C   UNL     1     -12.162  56.074  48.803  0.00  0.00    +0.000 A 
ATOM      8  C   UNL     1     -13.772  56.626  50.536  0.00  0.00    +0.000 A 
ATOM      9  C   UNL     1     -13.095  56.500  47.842  0.00  0.00    +0.000 A 
ATOM     10  C   UNL     1     -14.695  57.027  49.571  0.00  0.00    +0.000 A 
ATOM     11  C   UNL     1     -14.355  56.968  48.225  0.00  0.00    +0.000 A 
ENDROOT
BRANCH   1  17
ATOM     12  S   UNL     1      -7.087  54.712  52.971  0.00  0.00    +0.000 S 
ATOM     13  O   UNL     1      -6.969  55.693  54.034  0.00  0.00    +0.000 OA
ATOM     14  O   UNL     1      -5.925  54.325  52.200  0.00  0.00    +0.000 OA
ATOM     15  N   UNL     1      -8.220  55.241  51.940  0.00  0.00    +0.000 N 
ATOM     16  C   UNL     1      -7.674  53.241  53.730  0.00  0.00    +0.000 A 
ATOM     17  C   UNL     1      -9.379  54.662  51.864  0.00  0.00    +0.000 C 
ATOM     18  C   UNL     1      -8.973  52.847  53.460  0.00  0.00    +0.000 A 
ATOM     19  C   UNL     1      -6.833  52.504  54.565  0.00  0.00    +0.000 A 
ATOM     20  N   UNL     1      -9.804  53.600  52.634  0.00  0.00    +0.000 N 
ATOM     21  C   UNL     1      -9.468  51.710  54.109  0.00  0.00    +0.000 A 
ATOM     22  C   UNL     1      -7.326  51.351  55.176  0.00  0.00    +0.000 A 
ATOM     23  C   UNL     1      -8.644  50.963  54.955  0.00  0.00    +0.000 A 
ATOM     24  H   UNL     1      -8.025  56.014  51.361  0.00  0.00    +0.000 HD
ATOM     25  H   UNL     1     -10.758  53.358  52.597  0.00  0.00    +0.000 HD
ENDBRANCH   1  17
BRANCH   3  26
ATOM     26  O   UNL     1     -11.982  55.806  52.493  0.00  0.00    +0.000 OA
ATOM     27  H   UNL     1     -12.340  55.057  52.927  0.00  0.00    +0.000 HD
ENDBRANCH   3  26
BRANCH   5  28
ATOM     28  N   UNL     1     -10.530  55.597  47.037  0.00  0.00    +0.000 N 
ATOM     29  H   UNL     1      -9.978  56.314  46.649  0.00  0.00    +0.000 HD
BRANCH  28  30
ATOM     30  C   UNL     1     -11.052  54.482  46.236  0.00  0.00    +0.000 C 
BRANCH  30  31
ATOM     31  C   UNL     1      -9.967  53.486  45.945  0.00  0.00    +0.000 A 
ATOM     32  S   UNL     1      -9.903  52.007  46.815  0.00  0.00    +0.000 S 
ATOM     33  C   UNL     1      -8.966  53.559  44.998  0.00  0.00    +0.000 A 
ATOM     34  C   UNL     1      -8.550  51.467  45.921  0.00  0.00    +0.000 A 
ATOM     35  C   UNL     1      -8.148  52.392  44.984  0.00  0.00    +0.000 A 
ENDBRANCH  30  31
ENDBRANCH  28  30
ENDBRANCH   5  28
TORSDOF 5
ENDMDL
MODEL 9
REMARK VINA RESULT:      -7.8      3.441      4.867
REMARK  Name = 
REMARK  5 active torsions:
REMARK  status: ('A' for Active; 'I' for Inactive)
REMARK    1  A    between atoms: C_6  and  C_10
REMARK    2  A    between atoms: C_14  and  O_18
REMARK    3  A    between atoms: N_17  and  N_20
REMARK    4  A    between atoms: N_20  and  C_23
REMARK    5  A    between atoms: C_23  and  C_26
REMARK                            x       y       z     vdW  Elec       q    Type
REMARK                         _______ _______ _______ _____ _____    ______ ____
ROOT
ATOM      1  C   UNL     1     -10.773  55.607  48.647  0.00  0.00    +0.000 A 
ATOM      2  C   UNL     1      -9.443  55.318  49.261  0.00  0.00    +0.000 A 
ATOM      3  C   UNL     1     -11.049  55.193  47.398  0.00  0.00    +0.000 A 
ATOM      4  O   UNL     1      -9.243  55.736  50.406  0.00  0.00    +0.000 OA
ATOM      5  N   UNL     1      -8.520  54.576  48.520  0.00  0.00    +0.000 N 
ATOM      6  C   UNL     1     -10.063  54.417  46.632  0.00  0.00    +0.000 A 
ATOM      7  C   UNL     1      -8.811  54.123  47.199  0.00  0.00    +0.000 A 
ATOM      8  C   UNL     1     -10.362  53.953  45.338  0.00  0.00    +0.000 A 
ATOM      9  C   UNL     1      -7.880  53.379  46.452  0.00  0.00    +0.000 A 
ATOM     10  C   UNL     1      -9.437  53.201  44.616  0.00  0.00    +0.000 A 
ATOM     11  C   UNL     1      -8.196  52.917  45.171  0.00  0.00    +0.000 A 
ENDROOT
BRANCH   1  17
ATOM     12  S   UNL     1     -13.479  56.294  51.412  0.00  0.00    +0.000 S 
ATOM     13  O   UNL     1     -12.888  56.595  52.702  0.00  0.00    +0.000 OA
ATOM     14  O   UNL     1     -14.645  55.440  51.323  0.00  0.00    +0.000 OA
ATOM     15  N   UNL     1     -12.318  55.656  50.478  0.00  0.00    +0.000 N 
ATOM     16  C   UNL     1     -13.957  57.836  50.724  0.00  0.00    +0.000 A 
ATOM     17  C   UNL     1     -11.817  56.323  49.483  0.00  0.00    +0.000 C 
ATOM     18  C   UNL     1     -13.239  58.314  49.641  0.00  0.00    +0.000 A 
ATOM     19  C   UNL     1     -15.041  58.534  51.261  0.00  0.00    +0.000 A 
ATOM     20  N   UNL     1     -12.153  57.611  49.123  0.00  0.00    +0.000 N 
ATOM     21  C   UNL     1     -13.575  59.571  49.126  0.00  0.00    +0.000 A 
ATOM     22  C   UNL     1     -15.389  59.769  50.714  0.00  0.00    +0.000 A 
ATOM     23  C   UNL     1     -14.651  60.289  49.656  0.00  0.00    +0.000 A 
ATOM     24  H   UNL     1     -11.988  54.748  50.668  0.00  0.00    +0.000 HD
ATOM     25  H   UNL     1     -11.587  58.065  48.457  0.00  0.00    +0.000 HD
ENDBRANCH   1  17
BRANCH   3  26
ATOM     26  O   UNL     1     -12.250  55.419  46.750  0.00  0.00    +0.000 OA
ATOM     27  H   UNL     1     -12.479  56.285  46.475  0.00  0.00    +0.000 HD
ENDBRANCH   3  26
BRANCH   5  28
ATOM     28  N   UNL     1      -7.196  54.340  49.031  0.00  0.00    +0.000 N 
ATOM     29  H   UNL     1      -6.419  54.876  48.751  0.00  0.00    +0.000 HD
BRANCH  28  30
ATOM     30  C   UNL     1      -7.089  53.242  50.001  0.00  0.00    +0.000 C 
BRANCH  30  31
ATOM     31  C   UNL     1      -6.078  53.570  51.061  0.00  0.00    +0.000 A 
ATOM     32  S   UNL     1      -6.483  53.387  52.720  0.00  0.00    +0.000 S 
ATOM     33  C   UNL     1      -4.772  53.988  50.902  0.00  0.00    +0.000 A 
ATOM     34  C   UNL     1      -4.917  53.855  53.219  0.00  0.00    +0.000 A 
ATOM     35  C   UNL     1      -4.102  54.152  52.150  0.00  0.00    +0.000 A 
ENDBRANCH  30  31
ENDBRANCH  28  30
ENDBRANCH   5  28
TORSDOF 5
ENDMDL
