MODEL 1
REMARK VINA RESULT:      -9.2      0.000      0.000
REMARK  Name = 
REMARK  5 active torsions:
REMARK  status: ('A' for Active; 'I' for Inactive)
REMARK    1  A    between atoms: C_5  and  C_8
REMARK    2  A    between atoms: C_8  and  N_9
REMARK    3  A    between atoms: N_9  and  N_10
REMARK    4  A    between atoms: C_14  and  C_17
REMARK    5  A    between atoms: C_18  and  O_23
REMARK                            x       y       z     vdW  Elec       q    Type
REMARK                         _______ _______ _______ _____ _____    ______ ____
ROOT
ATOM      1  N   UNL     1      -9.772  54.347  49.904  0.00  0.00    +0.000 N 
ATOM      2  C   UNL     1     -10.685  55.185  50.542  0.00  0.00    +0.000 A 
ATOM      3  C   UNL     1      -9.987  52.943  49.821  0.00  0.00    +0.000 A 
ATOM      4  O   UNL     1     -10.494  56.396  50.653  0.00  0.00    +0.000 OA
ATOM      5  C   UNL     1     -11.952  54.562  51.045  0.00  0.00    +0.000 A 
ATOM      6  C   UNL     1     -11.044  52.367  50.550  0.00  0.00    +0.000 A 
ATOM      7  C   UNL     1      -9.218  52.137  48.974  0.00  0.00    +0.000 A 
ATOM      8  C   UNL     1     -12.008  53.234  51.244  0.00  0.00    +0.000 A 
ATOM      9  C   UNL     1     -11.302  50.992  50.421  0.00  0.00    +0.000 A 
ATOM     10  C   UNL     1      -9.528  50.786  48.806  0.00  0.00    +0.000 A 
ATOM     11  C   UNL     1     -10.565  50.213  49.533  0.00  0.00    +0.000 A 
ENDROOT
BRANCH   5  12
ATOM     12  C   UNL     1     -13.133  55.438  51.340  0.00  0.00    +0.000 C 
ATOM     13  N   UNL     1     -13.050  56.377  52.263  0.00  0.00    +0.000 N 
ATOM     14  N   UNL     1     -14.282  55.296  50.566  0.00  0.00    +0.000 N 
ATOM     15  S   UNL     1     -14.335  57.408  52.347  0.00  0.00    +0.000 S 
ATOM     16  C   UNL     1     -14.476  56.511  49.853  0.00  0.00    +0.000 A 
ATOM     17  O   UNL     1     -13.894  58.659  52.923  0.00  0.00    +0.000 OA
ATOM     18  O   UNL     1     -15.497  56.701  52.849  0.00  0.00    +0.000 OA
ATOM     19  C   UNL     1     -14.631  57.685  50.603  0.00  0.00    +0.000 A 
ATOM     20  C   UNL     1     -14.032  56.595  48.533  0.00  0.00    +0.000 A 
ATOM     21  C   UNL     1     -14.488  58.940  50.040  0.00  0.00    +0.000 A 
ATOM     22  C   UNL     1     -13.790  57.847  47.982  0.00  0.00    +0.000 A 
ATOM     23  C   UNL     1     -14.052  59.012  48.715  0.00  0.00    +0.000 A 
ATOM     24  H   UNL     1     -12.272  56.458  52.862  0.00  0.00    +0.000 HD
ATOM     25  H   UNL     1     -14.856  54.498  50.520  0.00  0.00    +0.000 HD
ENDBRANCH   5  12
BRANCH   1  26
ATOM     26  N   UNL     1      -8.826  54.947  49.010  0.00  0.00    +0.000 N 
ATOM     27  H   UNL     1      -7.856  54.793  49.081  0.00  0.00    +0.000 HD
BRANCH  26  28
ATOM     28  C   UNL     1      -9.415  55.813  47.978  0.00  0.00    +0.000 C 
BRANCH  28  33
ATOM     29 BR   UNL     1      -8.551  52.433  43.859  0.00  0.00    +0.000 Br
ATOM     30  C   UNL     1      -9.686  53.448  44.981  0.00  0.00    +0.000 A 
ATOM     31  C   UNL     1      -9.140  54.217  46.011  0.00  0.00    +0.000 A 
ATOM     32  C   UNL     1     -11.064  53.413  44.773  0.00  0.00    +0.000 A 
ATOM     33  C   UNL     1      -9.981  54.962  46.857  0.00  0.00    +0.000 A 
ATOM     34  C   UNL     1     -11.904  54.158  45.602  0.00  0.00    +0.000 A 
ATOM     35  C   UNL     1     -11.366  54.924  46.636  0.00  0.00    +0.000 A 
ENDBRANCH  28  33
ENDBRANCH  26  28
ENDBRANCH   1  26
BRANCH   8  36
ATOM     36  O   UNL     1     -13.017  52.570  51.917  0.00  0.00    +0.000 OA
ATOM     37  H   UNL     1     -13.874  52.518  51.543  0.00  0.00    +0.000 HD
ENDBRANCH   8  36
TORSDOF 5
ENDMDL
MODEL 2
REMARK VINA RESULT:      -9.0      2.415      5.592
REMARK  Name = 
REMARK  5 active torsions:
REMARK  status: ('A' for Active; 'I' for Inactive)
REMARK    1  A    between atoms: C_5  and  C_8
REMARK    2  A    between atoms: C_8  and  N_9
REMARK    3  A    between atoms: N_9  and  N_10
REMARK    4  A    between atoms: C_14  and  C_17
REMARK    5  A    between atoms: C_18  and  O_23
REMARK                            x       y       z     vdW  Elec       q    Type
REMARK                         _______ _______ _______ _____ _____    ______ ____
ROOT
ATOM      1  N   UNL     1     -13.377  56.066  48.840  0.00  0.00    +0.000 N 
ATOM      2  C   UNL     1     -12.856  55.066  49.660  0.00  0.00    +0.000 A 
ATOM      3  C   UNL     1     -13.785  57.322  49.371  0.00  0.00    +0.000 A 
ATOM      4  O   UNL     1     -12.533  53.962  49.221  0.00  0.00    +0.000 OA
ATOM      5  C   UNL     1     -12.645  55.405  51.105  0.00  0.00    +0.000 A 
ATOM      6  C   UNL     1     -13.834  57.493  50.767  0.00  0.00    +0.000 A 
ATOM      7  C   UNL     1     -14.067  58.409  48.535  0.00  0.00    +0.000 A 
ATOM      8  C   UNL     1     -13.304  56.443  51.648  0.00  0.00    +0.000 A 
ATOM      9  C   UNL     1     -14.173  58.750  51.296  0.00  0.00    +0.000 A 
ATOM     10  C   UNL     1     -14.337  59.667  49.075  0.00  0.00    +0.000 A 
ATOM     11  C   UNL     1     -14.396  59.836  50.454  0.00  0.00    +0.000 A 
ENDROOT
BRANCH   5  12
ATOM     12  C   UNL     1     -11.716  54.562  51.927  0.00  0.00    +0.000 C 
ATOM     13  N   UNL     1     -11.822  53.248  51.913  0.00  0.00    +0.000 N 
ATOM     14  N   UNL     1     -10.693  55.190  52.634  0.00  0.00    +0.000 N 
ATOM     15  S   UNL     1     -10.617  52.428  52.685  0.00  0.00    +0.000 S 
ATOM     16  C   UNL     1      -9.456  54.740  52.095  0.00  0.00    +0.000 A 
ATOM     17  O   UNL     1     -10.517  51.100  52.119  0.00  0.00    +0.000 OA
ATOM     18  O   UNL     1     -10.716  52.646  54.116  0.00  0.00    +0.000 OA
ATOM     19  C   UNL     1      -9.195  53.365  52.132  0.00  0.00    +0.000 A 
ATOM     20  C   UNL     1      -8.805  55.537  51.153  0.00  0.00    +0.000 A 
ATOM     21  C   UNL     1      -8.210  52.783  51.354  0.00  0.00    +0.000 A 
ATOM     22  C   UNL     1      -7.882  54.950  50.297  0.00  0.00    +0.000 A 
ATOM     23  C   UNL     1      -7.558  53.592  50.421  0.00  0.00    +0.000 A 
ATOM     24  H   UNL     1     -12.570  52.786  51.470  0.00  0.00    +0.000 HD
ATOM     25  H   UNL     1     -10.806  55.829  53.374  0.00  0.00    +0.000 HD
ENDBRANCH   5  12
BRANCH   1  26
ATOM     26  N   UNL     1     -13.142  55.964  47.430  0.00  0.00    +0.000 N 
ATOM     27  H   UNL     1     -13.807  55.593  46.806  0.00  0.00    +0.000 HD
BRANCH  26  28
ATOM     28  C   UNL     1     -11.828  56.455  46.987  0.00  0.00    +0.000 C 
BRANCH  28  33
ATOM     29 BR   UNL     1      -7.059  53.959  46.573  0.00  0.00    +0.000 Br
ATOM     30  C   UNL     1      -8.904  54.119  46.185  0.00  0.00    +0.000 A 
ATOM     31  C   UNL     1      -9.636  55.187  46.711  0.00  0.00    +0.000 A 
ATOM     32  C   UNL     1      -9.520  53.161  45.380  0.00  0.00    +0.000 A 
ATOM     33  C   UNL     1     -11.010  55.301  46.437  0.00  0.00    +0.000 A 
ATOM     34  C   UNL     1     -10.881  53.275  45.096  0.00  0.00    +0.000 A 
ATOM     35  C   UNL     1     -11.619  54.335  45.622  0.00  0.00    +0.000 A 
ENDBRANCH  28  33
ENDBRANCH  26  28
ENDBRANCH   1  26
BRANCH   8  36
ATOM     36  O   UNL     1     -13.384  56.716  53.002  0.00  0.00    +0.000 OA
ATOM     37  H   UNL     1     -12.896  56.201  53.614  0.00  0.00    +0.000 HD
ENDBRANCH   8  36
TORSDOF 5
ENDMDL
MODEL 3
REMARK VINA RESULT:      -8.9      3.810      7.103
REMARK  Name = 
REMARK  5 active torsions:
REMARK  status: ('A' for Active; 'I' for Inactive)
REMARK    1  A    between atoms: C_5  and  C_8
REMARK    2  A    between atoms: C_8  and  N_9
REMARK    3  A    between atoms: N_9  and  N_10
REMARK    4  A    between atoms: C_14  and  C_17
REMARK    5  A    between atoms: C_18  and  O_23
REMARK                            x       y       z     vdW  Elec       q    Type
REMARK                         _______ _______ _______ _____ _____    ______ ____
ROOT
ATOM      1  N   UNL     1     -11.202  55.727  47.888  0.00  0.00    +0.000 N 
ATOM      2  C   UNL     1     -10.356  56.140  48.916  0.00  0.00    +0.000 A 
ATOM      3  C   UNL     1     -10.706  55.014  46.761  0.00  0.00    +0.000 A 
ATOM      4  O   UNL     1     -10.765  56.788  49.880  0.00  0.00    +0.000 OA
ATOM      5  C   UNL     1      -8.922  55.711  48.839  0.00  0.00    +0.000 A 
ATOM      6  C   UNL     1      -9.315  54.882  46.592  0.00  0.00    +0.000 A 
ATOM      7  C   UNL     1     -11.571  54.382  45.860  0.00  0.00    +0.000 A 
ATOM      8  C   UNL     1      -8.406  55.326  47.658  0.00  0.00    +0.000 A 
ATOM      9  C   UNL     1      -8.820  54.124  45.517  0.00  0.00    +0.000 A 
ATOM     10  C   UNL     1     -11.064  53.578  44.838  0.00  0.00    +0.000 A 
ATOM     11  C   UNL     1      -9.691  53.453  44.662  0.00  0.00    +0.000 A 
ENDROOT
BRANCH   5  12
ATOM     12  C   UNL     1      -8.079  55.741  50.078  0.00  0.00    +0.000 C 
ATOM     13  N   UNL     1      -8.555  55.277  51.218  0.00  0.00    +0.000 N 
ATOM     14  N   UNL     1      -6.763  56.187  49.982  0.00  0.00    +0.000 N 
ATOM     15  S   UNL     1      -7.467  55.169  52.452  0.00  0.00    +0.000 S 
ATOM     16  C   UNL     1      -5.912  55.095  50.303  0.00  0.00    +0.000 A 
ATOM     17  O   UNL     1      -7.915  54.156  53.383  0.00  0.00    +0.000 OA
ATOM     18  O   UNL     1      -7.090  56.499  52.891  0.00  0.00    +0.000 OA
ATOM     19  C   UNL     1      -6.054  54.512  51.570  0.00  0.00    +0.000 A 
ATOM     20  C   UNL     1      -5.355  54.348  49.265  0.00  0.00    +0.000 A 
ATOM     21  C   UNL     1      -5.539  53.264  51.866  0.00  0.00    +0.000 A 
ATOM     22  C   UNL     1      -4.919  53.054  49.522  0.00  0.00    +0.000 A 
ATOM     23  C   UNL     1      -4.975  52.529  50.820  0.00  0.00    +0.000 A 
ATOM     24  H   UNL     1      -9.498  55.013  51.324  0.00  0.00    +0.000 HD
ATOM     25  H   UNL     1      -6.475  57.095  49.736  0.00  0.00    +0.000 HD
ENDBRANCH   5  12
BRANCH   1  26
ATOM     26  N   UNL     1     -12.609  55.687  48.156  0.00  0.00    +0.000 N 
ATOM     27  H   UNL     1     -13.036  54.945  48.644  0.00  0.00    +0.000 HD
BRANCH  26  28
ATOM     28  C   UNL     1     -13.369  56.838  47.645  0.00  0.00    +0.000 C 
BRANCH  28  33
ATOM     29 BR   UNL     1     -15.445  57.072  52.623  0.00  0.00    +0.000 Br
ATOM     30  C   UNL     1     -14.811  57.880  51.033  0.00  0.00    +0.000 A 
ATOM     31  C   UNL     1     -14.352  57.082  49.983  0.00  0.00    +0.000 A 
ATOM     32  C   UNL     1     -14.803  59.270  50.928  0.00  0.00    +0.000 A 
ATOM     33  C   UNL     1     -13.866  57.679  48.806  0.00  0.00    +0.000 A 
ATOM     34  C   UNL     1     -14.332  59.868  49.759  0.00  0.00    +0.000 A 
ATOM     35  C   UNL     1     -13.866  59.079  48.708  0.00  0.00    +0.000 A 
ENDBRANCH  28  33
ENDBRANCH  26  28
ENDBRANCH   1  26
BRANCH   8  36
ATOM     36  O   UNL     1      -7.060  55.136  47.401  0.00  0.00    +0.000 OA
ATOM     37  H   UNL     1      -6.679  54.286  47.497  0.00  0.00    +0.000 HD
ENDBRANCH   8  36
TORSDOF 5
ENDMDL
MODEL 4
REMARK VINA RESULT:      -8.6      3.425      6.653
REMARK  Name = 
REMARK  5 active torsions:
REMARK  status: ('A' for Active; 'I' for Inactive)
REMARK    1  A    between atoms: C_5  and  C_8
REMARK    2  A    between atoms: C_8  and  N_9
REMARK    3  A    between atoms: N_9  and  N_10
REMARK    4  A    between atoms: C_14  and  C_17
REMARK    5  A    between atoms: C_18  and  O_23
REMARK                            x       y       z     vdW  Elec       q    Type
REMARK                         _______ _______ _______ _____ _____    ______ ____
ROOT
ATOM      1  N   UNL     1     -11.235  55.441  47.877  0.00  0.00    +0.000 N 
ATOM      2  C   UNL     1     -10.318  55.590  48.915  0.00  0.00    +0.000 A 
ATOM      3  C   UNL     1     -10.889  54.767  46.673  0.00  0.00    +0.000 A 
ATOM      4  O   UNL     1     -10.592  56.203  49.948  0.00  0.00    +0.000 OA
ATOM      5  C   UNL     1      -8.987  54.920  48.756  0.00  0.00    +0.000 A 
ATOM      6  C   UNL     1      -9.547  54.403  46.453  0.00  0.00    +0.000 A 
ATOM      7  C   UNL     1     -11.864  54.393  45.741  0.00  0.00    +0.000 A 
ATOM      8  C   UNL     1      -8.561  54.568  47.530  0.00  0.00    +0.000 A 
ATOM      9  C   UNL     1      -9.210  53.680  45.296  0.00  0.00    +0.000 A 
ATOM     10  C   UNL     1     -11.523  53.617  44.631  0.00  0.00    +0.000 A 
ATOM     11  C   UNL     1     -10.197  53.266  44.406  0.00  0.00    +0.000 A 
ENDROOT
BRANCH   5  12
ATOM     12  C   UNL     1      -8.139  54.675  49.969  0.00  0.00    +0.000 C 
ATOM     13  N   UNL     1      -7.821  55.672  50.771  0.00  0.00    +0.000 N 
ATOM     14  N   UNL     1      -7.770  53.367  50.273  0.00  0.00    +0.000 N 
ATOM     15  S   UNL     1      -7.069  55.244  52.175  0.00  0.00    +0.000 S 
ATOM     16  C   UNL     1      -8.370  53.027  51.518  0.00  0.00    +0.000 A 
ATOM     17  O   UNL     1      -7.308  56.273  53.165  0.00  0.00    +0.000 OA
ATOM     18  O   UNL     1      -5.736  54.753  51.887  0.00  0.00    +0.000 OA
ATOM     19  C   UNL     1      -8.044  53.813  52.630  0.00  0.00    +0.000 A 
ATOM     20  C   UNL     1      -9.565  52.307  51.514  0.00  0.00    +0.000 A 
ATOM     21  C   UNL     1      -8.802  53.798  53.787  0.00  0.00    +0.000 A 
ATOM     22  C   UNL     1     -10.387  52.358  52.632  0.00  0.00    +0.000 A 
ATOM     23  C   UNL     1      -9.992  53.067  53.775  0.00  0.00    +0.000 A 
ATOM     24  H   UNL     1      -8.018  56.610  50.546  0.00  0.00    +0.000 HD
ATOM     25  H   UNL     1      -7.198  52.782  49.726  0.00  0.00    +0.000 HD
ENDBRANCH   5  12
BRANCH   1  26
ATOM     26  N   UNL     1     -12.623  55.628  48.179  0.00  0.00    +0.000 N 
ATOM     27  H   UNL     1     -13.148  54.971  48.692  0.00  0.00    +0.000 HD
BRANCH  26  28
ATOM     28  C   UNL     1     -13.206  56.876  47.663  0.00  0.00    +0.000 C 
BRANCH  28  33
ATOM     29 BR   UNL     1     -15.437  56.999  52.578  0.00  0.00    +0.000 Br
ATOM     30  C   UNL     1     -14.790  57.841  51.011  0.00  0.00    +0.000 A 
ATOM     31  C   UNL     1     -14.267  57.068  49.972  0.00  0.00    +0.000 A 
ATOM     32  C   UNL     1     -14.836  59.231  50.912  0.00  0.00    +0.000 A 
ATOM     33  C   UNL     1     -13.772  57.690  48.812  0.00  0.00    +0.000 A 
ATOM     34  C   UNL     1     -14.356  59.853  49.759  0.00  0.00    +0.000 A 
ATOM     35  C   UNL     1     -13.827  59.090  48.720  0.00  0.00    +0.000 A 
ENDBRANCH  28  33
ENDBRANCH  26  28
ENDBRANCH   1  26
BRANCH   8  36
ATOM     36  O   UNL     1      -7.275  54.166  47.218  0.00  0.00    +0.000 OA
ATOM     37  H   UNL     1      -6.864  54.477  46.436  0.00  0.00    +0.000 HD
ENDBRANCH   8  36
TORSDOF 5
ENDMDL
MODEL 5
REMARK VINA RESULT:      -8.6      4.592      7.581
REMARK  Name = 
REMARK  5 active torsions:
REMARK  status: ('A' for Active; 'I' for Inactive)
REMARK    1  A    between atoms: C_5  and  C_8
REMARK    2  A    between atoms: C_8  and  N_9
REMARK    3  A    between atoms: N_9  and  N_10
REMARK    4  A    between atoms: C_14  and  C_17
REMARK    5  A    between atoms: C_18  and  O_23
REMARK                            x       y       z     vdW  Elec       q    Type
REMARK                         _______ _______ _______ _____ _____    ______ ____
ROOT
ATOM      1  N   UNL     1      -8.354  56.018  49.281  0.00  0.00    +0.000 N 
ATOM      2  C   UNL     1      -7.423  55.842  50.303  0.00  0.00    +0.000 A 
ATOM      3  C   UNL     1      -8.213  55.357  48.029  0.00  0.00    +0.000 A 
ATOM      4  O   UNL     1      -7.513  56.436  51.379  0.00  0.00    +0.000 OA
ATOM      5  C   UNL     1      -6.327  54.848  50.070  0.00  0.00    +0.000 A 
ATOM      6  C   UNL     1      -7.023  54.658  47.753  0.00  0.00    +0.000 A 
ATOM      7  C   UNL     1      -9.260  55.325  47.100  0.00  0.00    +0.000 A 
ATOM      8  C   UNL     1      -6.022  54.476  48.814  0.00  0.00    +0.000 A 
ATOM      9  C   UNL     1      -6.905  53.949  46.546  0.00  0.00    +0.000 A 
ATOM     10  C   UNL     1      -9.152  54.562  45.936  0.00  0.00    +0.000 A 
ATOM     11  C   UNL     1      -7.974  53.879  45.656  0.00  0.00    +0.000 A 
ENDROOT
BRANCH   5  12
ATOM     12  C   UNL     1      -5.570  54.301  51.243  0.00  0.00    +0.000 C 
ATOM     13  N   UNL     1      -5.299  55.072  52.278  0.00  0.00    +0.000 N 
ATOM     14  N   UNL     1      -5.237  52.949  51.252  0.00  0.00    +0.000 N 
ATOM     15  S   UNL     1      -4.654  54.306  53.588  0.00  0.00    +0.000 S 
ATOM     16  C   UNL     1      -5.927  52.341  52.338  0.00  0.00    +0.000 A 
ATOM     17  O   UNL     1      -4.951  55.077  54.774  0.00  0.00    +0.000 OA
ATOM     18  O   UNL     1      -3.308  53.861  53.280  0.00  0.00    +0.000 OA
ATOM     19  C   UNL     1      -5.673  52.834  53.624  0.00  0.00    +0.000 A 
ATOM     20  C   UNL     1      -7.126  51.674  52.084  0.00  0.00    +0.000 A 
ATOM     21  C   UNL     1      -6.511  52.567  54.691  0.00  0.00    +0.000 A 
ATOM     22  C   UNL     1      -8.024  51.482  53.125  0.00  0.00    +0.000 A 
ATOM     23  C   UNL     1      -7.704  51.890  54.427  0.00  0.00    +0.000 A 
ATOM     24  H   UNL     1      -5.471  56.042  52.269  0.00  0.00    +0.000 HD
ATOM     25  H   UNL     1      -4.633  52.495  50.622  0.00  0.00    +0.000 HD
ENDBRANCH   5  12
BRANCH   1  26
ATOM     26  N   UNL     1      -9.636  56.555  49.629  0.00  0.00    +0.000 N 
ATOM     27  H   UNL     1      -9.884  57.493  49.458  0.00  0.00    +0.000 HD
BRANCH  26  28
ATOM     28  C   UNL     1     -10.555  55.598  50.265  0.00  0.00    +0.000 C 
BRANCH  28  33
ATOM     29 BR   UNL     1     -15.304  57.032  52.393  0.00  0.00    +0.000 Br
ATOM     30  C   UNL     1     -14.163  56.692  50.923  0.00  0.00    +0.000 A 
ATOM     31  C   UNL     1     -12.844  56.287  51.144  0.00  0.00    +0.000 A 
ATOM     32  C   UNL     1     -14.648  56.856  49.626  0.00  0.00    +0.000 A 
ATOM     33  C   UNL     1     -11.988  56.047  50.055  0.00  0.00    +0.000 A 
ATOM     34  C   UNL     1     -13.807  56.610  48.541  0.00  0.00    +0.000 A 
ATOM     35  C   UNL     1     -12.488  56.210  48.754  0.00  0.00    +0.000 A 
ENDBRANCH  28  33
ENDBRANCH  26  28
ENDBRANCH   1  26
BRANCH   8  36
ATOM     36  O   UNL     1      -4.897  53.761  48.444  0.00  0.00    +0.000 OA
ATOM     37  H   UNL     1      -4.568  53.085  49.002  0.00  0.00    +0.000 HD
ENDBRANCH   8  36
TORSDOF 5
ENDMDL
MODEL 6
REMARK VINA RESULT:      -8.5      4.029      7.016
REMARK  Name = 
REMARK  5 active torsions:
REMARK  status: ('A' for Active; 'I' for Inactive)
REMARK    1  A    between atoms: C_5  and  C_8
REMARK    2  A    between atoms: C_8  and  N_9
REMARK    3  A    between atoms: N_9  and  N_10
REMARK    4  A    between atoms: C_14  and  C_17
REMARK    5  A    between atoms: C_18  and  O_23
REMARK                            x       y       z     vdW  Elec       q    Type
REMARK                         _______ _______ _______ _____ _____    ______ ____
ROOT
ATOM      1  N   UNL     1     -11.336  55.394  49.366  0.00  0.00    +0.000 N 
ATOM      2  C   UNL     1     -10.998  55.095  50.685  0.00  0.00    +0.000 A 
ATOM      3  C   UNL     1     -10.374  55.321  48.320  0.00  0.00    +0.000 A 
ATOM      4  O   UNL     1     -11.810  55.188  51.606  0.00  0.00    +0.000 OA
ATOM      5  C   UNL     1      -9.609  54.593  50.941  0.00  0.00    +0.000 A 
ATOM      6  C   UNL     1      -9.020  55.122  48.647  0.00  0.00    +0.000 A 
ATOM      7  C   UNL     1     -10.756  55.369  46.974  0.00  0.00    +0.000 A 
ATOM      8  C   UNL     1      -8.642  54.822  50.035  0.00  0.00    +0.000 A 
ATOM      9  C   UNL     1      -8.075  54.984  47.616  0.00  0.00    +0.000 A 
ATOM     10  C   UNL     1      -9.816  55.164  45.963  0.00  0.00    +0.000 A 
ATOM     11  C   UNL     1      -8.476  54.978  46.283  0.00  0.00    +0.000 A 
ENDROOT
BRANCH   5  12
ATOM     12  C   UNL     1      -9.316  53.862  52.217  0.00  0.00    +0.000 C 
ATOM     13  N   UNL     1      -8.927  52.602  52.187  0.00  0.00    +0.000 N 
ATOM     14  N   UNL     1      -9.380  54.563  53.419  0.00  0.00    +0.000 N 
ATOM     15  S   UNL     1      -8.434  51.976  53.631  0.00  0.00    +0.000 S 
ATOM     16  C   UNL     1      -8.073  54.582  53.979  0.00  0.00    +0.000 A 
ATOM     17  O   UNL     1      -7.526  50.878  53.378  0.00  0.00    +0.000 OA
ATOM     18  O   UNL     1      -9.571  51.840  54.520  0.00  0.00    +0.000 OA
ATOM     19  C   UNL     1      -7.469  53.349  54.256  0.00  0.00    +0.000 A 
ATOM     20  C   UNL     1      -7.273  55.708  53.781  0.00  0.00    +0.000 A 
ATOM     21  C   UNL     1      -6.109  53.230  54.474  0.00  0.00    +0.000 A 
ATOM     22  C   UNL     1      -5.895  55.585  53.902  0.00  0.00    +0.000 A 
ATOM     23  C   UNL     1      -5.319  54.366  54.283  0.00  0.00    +0.000 A 
ATOM     24  H   UNL     1      -8.932  52.071  51.358  0.00  0.00    +0.000 HD
ATOM     25  H   UNL     1     -10.185  54.972  53.810  0.00  0.00    +0.000 HD
ENDBRANCH   5  12
BRANCH   1  26
ATOM     26  N   UNL     1     -12.726  55.397  49.017  0.00  0.00    +0.000 N 
ATOM     27  H   UNL     1     -13.334  54.659  49.252  0.00  0.00    +0.000 HD
BRANCH  26  28
ATOM     28  C   UNL     1     -13.174  56.586  48.277  0.00  0.00    +0.000 C 
BRANCH  28  33
ATOM     29 BR   UNL     1     -15.193  57.719  53.154  0.00  0.00    +0.000 Br
ATOM     30  C   UNL     1     -14.652  58.214  51.410  0.00  0.00    +0.000 A 
ATOM     31  C   UNL     1     -14.141  57.249  50.539  0.00  0.00    +0.000 A 
ATOM     32  C   UNL     1     -14.764  59.545  51.010  0.00  0.00    +0.000 A 
ATOM     33  C   UNL     1     -13.725  57.615  49.247  0.00  0.00    +0.000 A 
ATOM     34  C   UNL     1     -14.362  59.913  49.726  0.00  0.00    +0.000 A 
ATOM     35  C   UNL     1     -13.846  58.956  48.853  0.00  0.00    +0.000 A 
ENDBRANCH  28  33
ENDBRANCH  26  28
ENDBRANCH   1  26
BRANCH   8  36
ATOM     36  O   UNL     1      -7.288  54.627  50.247  0.00  0.00    +0.000 OA
ATOM     37  H   UNL     1      -6.867  55.025  50.983  0.00  0.00    +0.000 HD
ENDBRANCH   8  36
TORSDOF 5
ENDMDL
MODEL 7
REMARK VINA RESULT:      -8.4      4.247      7.579
REMARK  Name = 
REMARK  5 active torsions:
REMARK  status: ('A' for Active; 'I' for Inactive)
REMARK    1  A    between atoms: C_5  and  C_8
REMARK    2  A    between atoms: C_8  and  N_9
REMARK    3  A    between atoms: N_9  and  N_10
REMARK    4  A    between atoms: C_14  and  C_17
REMARK    5  A    between atoms: C_18  and  O_23
REMARK                            x       y       z     vdW  Elec       q    Type
REMARK                         _______ _______ _______ _____ _____    ______ ____
ROOT
ATOM      1  N   UNL     1     -10.321  55.184  50.363  0.00  0.00    +0.000 N 
ATOM      2  C   UNL     1      -9.228  55.154  51.228  0.00  0.00    +0.000 A 
ATOM      3  C   UNL     1     -10.149  55.201  48.951  0.00  0.00    +0.000 A 
ATOM      4  O   UNL     1      -9.362  55.176  52.452  0.00  0.00    +0.000 OA
ATOM      5  C   UNL     1      -7.868  55.034  50.610  0.00  0.00    +0.000 A 
ATOM      6  C   UNL     1      -8.857  55.374  48.420  0.00  0.00    +0.000 A 
ATOM      7  C   UNL     1     -11.224  54.976  48.083  0.00  0.00    +0.000 A 
ATOM      8  C   UNL     1      -7.693  55.361  49.318  0.00  0.00    +0.000 A 
ATOM      9  C   UNL     1      -8.672  55.326  47.028  0.00  0.00    +0.000 A 
ATOM     10  C   UNL     1     -11.013  54.865  46.708  0.00  0.00    +0.000 A 
ATOM     11  C   UNL     1      -9.740  55.045  46.180  0.00  0.00    +0.000 A 
ENDROOT
BRANCH   5  12
ATOM     12  C   UNL     1      -6.718  54.572  51.453  0.00  0.00    +0.000 C 
ATOM     13  N   UNL     1      -6.289  55.312  52.458  0.00  0.00    +0.000 N 
ATOM     14  N   UNL     1      -6.171  53.314  51.208  0.00  0.00    +0.000 N 
ATOM     15  S   UNL     1      -5.166  54.604  53.435  0.00  0.00    +0.000 S 
ATOM     16  C   UNL     1      -6.397  52.513  52.361  0.00  0.00    +0.000 A 
ATOM     17  O   UNL     1      -5.227  55.222  54.742  0.00  0.00    +0.000 OA
ATOM     18  O   UNL     1      -3.915  54.455  52.716  0.00  0.00    +0.000 OA
ATOM     19  C   UNL     1      -5.862  52.961  53.576  0.00  0.00    +0.000 A 
ATOM     20  C   UNL     1      -7.485  51.640  52.371  0.00  0.00    +0.000 A 
ATOM     21  C   UNL     1      -6.291  52.464  54.794  0.00  0.00    +0.000 A 
ATOM     22  C   UNL     1      -7.991  51.207  53.590  0.00  0.00    +0.000 A 
ATOM     23  C   UNL     1      -7.375  51.584  54.792  0.00  0.00    +0.000 A 
ATOM     24  H   UNL     1      -6.619  56.227  52.613  0.00  0.00    +0.000 HD
ATOM     25  H   UNL     1      -5.712  53.031  50.385  0.00  0.00    +0.000 HD
ENDBRANCH   5  12
BRANCH   1  26
ATOM     26  N   UNL     1     -11.601  54.812  50.891  0.00  0.00    +0.000 N 
ATOM     27  H   UNL     1     -11.702  54.282  51.715  0.00  0.00    +0.000 HD
BRANCH  26  28
ATOM     28  C   UNL     1     -12.753  55.282  50.106  0.00  0.00    +0.000 C 
BRANCH  28  33
ATOM     29 BR   UNL     1     -14.479  60.361  49.498  0.00  0.00    +0.000 Br
ATOM     30  C   UNL     1     -14.099  58.836  50.553  0.00  0.00    +0.000 A 
ATOM     31  C   UNL     1     -13.587  57.684  49.952  0.00  0.00    +0.000 A 
ATOM     32  C   UNL     1     -14.340  58.876  51.926  0.00  0.00    +0.000 A 
ATOM     33  C   UNL     1     -13.317  56.544  50.730  0.00  0.00    +0.000 A 
ATOM     34  C   UNL     1     -14.064  57.752  52.705  0.00  0.00    +0.000 A 
ATOM     35  C   UNL     1     -13.559  56.596  52.111  0.00  0.00    +0.000 A 
ENDBRANCH  28  33
ENDBRANCH  26  28
ENDBRANCH   1  26
BRANCH   8  36
ATOM     36  O   UNL     1      -6.468  55.522  48.695  0.00  0.00    +0.000 OA
ATOM     37  H   UNL     1      -6.430  55.736  47.784  0.00  0.00    +0.000 HD
ENDBRANCH   8  36
TORSDOF 5
ENDMDL
MODEL 8
REMARK VINA RESULT:      -8.3      1.864      2.415
REMARK  Name = 
REMARK  5 active torsions:
REMARK  status: ('A' for Active; 'I' for Inactive)
REMARK    1  A    between atoms: C_5  and  C_8
REMARK    2  A    between atoms: C_8  and  N_9
REMARK    3  A    between atoms: N_9  and  N_10
REMARK    4  A    between atoms: C_14  and  C_17
REMARK    5  A    between atoms: C_18  and  O_23
REMARK                            x       y       z     vdW  Elec       q    Type
REMARK                         _______ _______ _______ _____ _____    ______ ____
ROOT
ATOM      1  N   UNL     1     -10.285  53.686  49.241  0.00  0.00    +0.000 N 
ATOM      2  C   UNL     1     -11.374  54.543  49.094  0.00  0.00    +0.000 A 
ATOM      3  C   UNL     1      -9.766  53.361  50.525  0.00  0.00    +0.000 A 
ATOM      4  O   UNL     1     -11.811  54.862  47.988  0.00  0.00    +0.000 OA
ATOM      5  C   UNL     1     -12.041  55.026  50.346  0.00  0.00    +0.000 A 
ATOM      6  C   UNL     1     -10.241  54.056  51.653  0.00  0.00    +0.000 A 
ATOM      7  C   UNL     1      -8.849  52.317  50.697  0.00  0.00    +0.000 A 
ATOM      8  C   UNL     1     -11.378  54.977  51.515  0.00  0.00    +0.000 A 
ATOM      9  C   UNL     1      -9.779  53.695  52.930  0.00  0.00    +0.000 A 
ATOM     10  C   UNL     1      -8.452  51.927  51.977  0.00  0.00    +0.000 A 
ATOM     11  C   UNL     1      -8.912  52.619  53.092  0.00  0.00    +0.000 A 
ENDROOT
BRANCH   5  12
ATOM     12  C   UNL     1     -13.434  55.577  50.270  0.00  0.00    +0.000 C 
ATOM     13  N   UNL     1     -14.215  55.560  51.333  0.00  0.00    +0.000 N 
ATOM     14  N   UNL     1     -13.851  56.180  49.086  0.00  0.00    +0.000 N 
ATOM     15  S   UNL     1     -15.637  56.382  51.185  0.00  0.00    +0.000 S 
ATOM     16  C   UNL     1     -14.101  57.552  49.364  0.00  0.00    +0.000 A 
ATOM     17  O   UNL     1     -16.086  56.780  52.501  0.00  0.00    +0.000 OA
ATOM     18  O   UNL     1     -16.507  55.689  50.255  0.00  0.00    +0.000 OA
ATOM     19  C   UNL     1     -15.064  57.851  50.337  0.00  0.00    +0.000 A 
ATOM     20  C   UNL     1     -13.110  58.489  49.070  0.00  0.00    +0.000 A 
ATOM     21  C   UNL     1     -15.150  59.100  50.925  0.00  0.00    +0.000 A 
ATOM     22  C   UNL     1     -13.125  59.714  49.724  0.00  0.00    +0.000 A 
ATOM     23  C   UNL     1     -14.158  60.033  50.616  0.00  0.00    +0.000 A 
ATOM     24  H   UNL     1     -13.965  55.088  52.161  0.00  0.00    +0.000 HD
ATOM     25  H   UNL     1     -13.954  55.736  48.214  0.00  0.00    +0.000 HD
ENDBRANCH   5  12
BRANCH   1  26
ATOM     26  N   UNL     1      -9.944  52.843  48.133  0.00  0.00    +0.000 N 
ATOM     27  H   UNL     1     -10.338  51.949  48.004  0.00  0.00    +0.000 HD
BRANCH  26  28
ATOM     28  C   UNL     1      -8.958  53.414  47.203  0.00  0.00    +0.000 C 
BRANCH  28  33
ATOM     29 BR   UNL     1      -7.629  50.209  43.067  0.00  0.00    +0.000 Br
ATOM     30  C   UNL     1      -8.711  51.532  43.880  0.00  0.00    +0.000 A 
ATOM     31  C   UNL     1      -8.432  51.956  45.181  0.00  0.00    +0.000 A 
ATOM     32  C   UNL     1      -9.785  52.068  43.171  0.00  0.00    +0.000 A 
ATOM     33  C   UNL     1      -9.241  52.928  45.794  0.00  0.00    +0.000 A 
ATOM     34  C   UNL     1     -10.586  53.041  43.770  0.00  0.00    +0.000 A 
ATOM     35  C   UNL     1     -10.317  53.465  45.071  0.00  0.00    +0.000 A 
ENDBRANCH  28  33
ENDBRANCH  26  28
ENDBRANCH   1  26
BRANCH   8  36
ATOM     36  O   UNL     1     -11.777  55.598  52.685  0.00  0.00    +0.000 OA
ATOM     37  H   UNL     1     -11.143  55.822  53.336  0.00  0.00    +0.000 HD
ENDBRANCH   8  36
TORSDOF 5
ENDMDL
MODEL 9
REMARK VINA RESULT:      -8.3      4.141      7.523
REMARK  Name = 
REMARK  5 active torsions:
REMARK  status: ('A' for Active; 'I' for Inactive)
REMARK    1  A    between atoms: C_5  and  C_8
REMARK    2  A    between atoms: C_8  and  N_9
REMARK    3  A    between atoms: N_9  and  N_10
REMARK    4  A    between atoms: C_14  and  C_17
REMARK    5  A    between atoms: C_18  and  O_23
REMARK                            x       y       z     vdW  Elec       q    Type
REMARK                         _______ _______ _______ _____ _____    ______ ____
ROOT
ATOM      1  N   UNL     1     -11.128  55.144  50.896  0.00  0.00    +0.000 N 
ATOM      2  C   UNL     1     -10.149  55.229  51.886  0.00  0.00    +0.000 A 
ATOM      3  C   UNL     1     -10.796  55.240  49.516  0.00  0.00    +0.000 A 
ATOM      4  O   UNL     1     -10.426  55.184  53.085  0.00  0.00    +0.000 OA
ATOM      5  C   UNL     1      -8.723  55.321  51.434  0.00  0.00    +0.000 A 
ATOM      6  C   UNL     1      -9.489  55.609  49.149  0.00  0.00    +0.000 A 
ATOM      7  C   UNL     1     -11.721  54.905  48.520  0.00  0.00    +0.000 A 
ATOM      8  C   UNL     1      -8.447  55.720  50.180  0.00  0.00    +0.000 A 
ATOM      9  C   UNL     1      -9.138  55.642  47.789  0.00  0.00    +0.000 A 
ATOM     10  C   UNL     1     -11.338  54.879  47.178  0.00  0.00    +0.000 A 
ATOM     11  C   UNL     1     -10.050  55.253  46.812  0.00  0.00    +0.000 A 
ENDROOT
BRANCH   5  12
ATOM     12  C   UNL     1      -7.625  54.987  52.399  0.00  0.00    +0.000 C 
ATOM     13  N   UNL     1      -7.855  54.176  53.414  0.00  0.00    +0.000 N 
ATOM     14  N   UNL     1      -6.346  55.480  52.153  0.00  0.00    +0.000 N 
ATOM     15  S   UNL     1      -6.525  53.720  54.276  0.00  0.00    +0.000 S 
ATOM     16  C   UNL     1      -5.492  54.367  51.918  0.00  0.00    +0.000 A 
ATOM     17  O   UNL     1      -6.798  52.454  54.920  0.00  0.00    +0.000 OA
ATOM     18  O   UNL     1      -6.004  54.856  55.009  0.00  0.00    +0.000 OA
ATOM     19  C   UNL     1      -5.373  53.414  52.939  0.00  0.00    +0.000 A 
ATOM     20  C   UNL     1      -5.212  53.999  50.602  0.00  0.00    +0.000 A 
ATOM     21  C   UNL     1      -4.859  52.151  52.708  0.00  0.00    +0.000 A 
ATOM     22  C   UNL     1      -4.786  52.703  50.340  0.00  0.00    +0.000 A 
ATOM     23  C   UNL     1      -4.574  51.797  51.387  0.00  0.00    +0.000 A 
ATOM     24  H   UNL     1      -8.761  53.864  53.641  0.00  0.00    +0.000 HD
ATOM     25  H   UNL     1      -6.080  56.427  52.143  0.00  0.00    +0.000 HD
ENDBRANCH   5  12
BRANCH   1  26
ATOM     26  N   UNL     1     -12.395  54.579  51.257  0.00  0.00    +0.000 N 
ATOM     27  H   UNL     1     -12.487  53.874  51.938  0.00  0.00    +0.000 HD
BRANCH  26  28
ATOM     28  C   UNL     1     -13.547  55.132  50.529  0.00  0.00    +0.000 C 
BRANCH  28  33
ATOM     29 BR   UNL     1     -14.346  60.364  49.465  0.00  0.00    +0.000 Br
ATOM     30  C   UNL     1     -14.212  58.899  50.655  0.00  0.00    +0.000 A 
ATOM     31  C   UNL     1     -13.938  57.622  50.159  0.00  0.00    +0.000 A 
ATOM     32  C   UNL     1     -14.395  59.108  52.022  0.00  0.00    +0.000 A 
ATOM     33  C   UNL     1     -13.852  56.529  51.038  0.00  0.00    +0.000 A 
ATOM     34  C   UNL     1     -14.301  58.028  52.900  0.00  0.00    +0.000 A 
ATOM     35  C   UNL     1     -14.033  56.750  52.412  0.00  0.00    +0.000 A 
ENDBRANCH  28  33
ENDBRANCH  26  28
ENDBRANCH   1  26
BRANCH   8  36
ATOM     36  O   UNL     1      -7.193  56.072  49.713  0.00  0.00    +0.000 OA
ATOM     37  H   UNL     1      -6.808  55.599  49.002  0.00  0.00    +0.000 HD
ENDBRANCH   8  36
TORSDOF 5
ENDMDL
