MODEL 1
REMARK VINA RESULT:      -8.1      0.000      0.000
REMARK  Name = 
REMARK  10 active torsions:
REMARK  status: ('A' for Active; 'I' for Inactive)
REMARK    1  A    between atoms: C_6  and  C_10
REMARK    2  A    between atoms: C_14  and  O_18
REMARK    3  A    between atoms: N_17  and  N_20
REMARK    4  A    between atoms: N_20  and  C_23
REMARK    5  A    between atoms: C_23  and  C_26
REMARK    6  A    between atoms: C_23  and  C_27
REMARK    7  A    between atoms: C_26  and  C_29
REMARK    8  A    between atoms: C_26  and  C_30
REMARK    9  A    between atoms: C_27  and  C_31
REMARK   10  A    between atoms: C_31  and  C_32
REMARK                            x       y       z     vdW  Elec       q    Type
REMARK                         _______ _______ _______ _____ _____    ______ ____
ROOT
ATOM      1  C   UNL     1     -10.150  55.371  50.742  0.00  0.00    +0.000 A 
ATOM      2  C   UNL     1      -9.696  55.583  49.333  0.00  0.00    +0.000 A 
ATOM      3  C   UNL     1     -11.415  55.706  51.077  0.00  0.00    +0.000 A 
ATOM      4  O   UNL     1      -8.490  55.529  49.067  0.00  0.00    +0.000 OA
ATOM      5  N   UNL     1     -10.696  55.751  48.372  0.00  0.00    +0.000 N 
ATOM      6  C   UNL     1     -12.369  56.195  50.070  0.00  0.00    +0.000 A 
ATOM      7  C   UNL     1     -12.008  56.171  48.717  0.00  0.00    +0.000 A 
ATOM      8  C   UNL     1     -13.670  56.588  50.427  0.00  0.00    +0.000 A 
ATOM      9  C   UNL     1     -12.946  56.559  47.747  0.00  0.00    +0.000 A 
ATOM     10  C   UNL     1     -14.604  56.944  49.454  0.00  0.00    +0.000 A 
ATOM     11  C   UNL     1     -14.241  56.929  48.113  0.00  0.00    +0.000 A 
ENDROOT
BRANCH   1  17
ATOM     12  S   UNL     1      -7.041  54.799  53.067  0.00  0.00    +0.000 S 
ATOM     13  O   UNL     1      -7.079  55.749  54.157  0.00  0.00    +0.000 OA
ATOM     14  O   UNL     1      -5.784  54.500  52.402  0.00  0.00    +0.000 OA
ATOM     15  N   UNL     1      -8.085  55.294  51.939  0.00  0.00    +0.000 N 
ATOM     16  C   UNL     1      -7.621  53.285  53.719  0.00  0.00    +0.000 A 
ATOM     17  C   UNL     1      -9.220  54.687  51.737  0.00  0.00    +0.000 C 
ATOM     18  C   UNL     1      -8.868  52.833  53.314  0.00  0.00    +0.000 A 
ATOM     19  C   UNL     1      -6.823  52.591  54.634  0.00  0.00    +0.000 A 
ATOM     20  N   UNL     1      -9.627  53.536  52.380  0.00  0.00    +0.000 N 
ATOM     21  C   UNL     1      -9.339  51.647  53.885  0.00  0.00    +0.000 A 
ATOM     22  C   UNL     1      -7.299  51.407  55.180  0.00  0.00    +0.000 A 
ATOM     23  C   UNL     1      -8.560  50.939  54.812  0.00  0.00    +0.000 A 
ATOM     24  H   UNL     1      -7.857  56.077  51.388  0.00  0.00    +0.000 HD
ATOM     25  H   UNL     1     -10.520  53.185  52.162  0.00  0.00    +0.000 HD
ENDBRANCH   1  17
BRANCH   3  26
ATOM     26  O   UNL     1     -11.962  55.559  52.339  0.00  0.00    +0.000 OA
ATOM     27  H   UNL     1     -11.431  55.692  53.099  0.00  0.00    +0.000 HD
ENDBRANCH   3  26
BRANCH   5  28
ATOM     28  N   UNL     1     -10.374  55.596  46.995  0.00  0.00    +0.000 N 
ATOM     29  H   UNL     1     -10.232  56.355  46.384  0.00  0.00    +0.000 HD
BRANCH  28  30
ATOM     30  C   UNL     1     -10.271  54.172  46.565  0.00  0.00    +0.000 C 
BRANCH  30  31
ATOM     31  C   UNL     1     -11.656  53.509  46.239  0.00  0.00    +0.000 C 
ATOM     32  C   UNL     1     -11.711  52.757  44.906  0.00  0.00    +0.000 C 
ATOM     33  C   UNL     1     -12.143  52.574  47.355  0.00  0.00    +0.000 C 
ENDBRANCH  30  31
BRANCH  30  34
ATOM     34  C   UNL     1      -9.266  54.093  45.384  0.00  0.00    +0.000 C 
BRANCH  34  35
ATOM     35  C   UNL     1      -7.942  54.833  45.633  0.00  0.00    +0.000 C 
ATOM     36  C   UNL     1      -6.959  53.982  46.427  0.00  0.00    +0.000 C 
ENDBRANCH  34  35
ENDBRANCH  30  34
ENDBRANCH  28  30
ENDBRANCH   5  28
TORSDOF 7
ENDMDL
MODEL 2
REMARK VINA RESULT:      -8.0      2.234      4.915
REMARK  Name = 
REMARK  10 active torsions:
REMARK  status: ('A' for Active; 'I' for Inactive)
REMARK    1  A    between atoms: C_6  and  C_10
REMARK    2  A    between atoms: C_14  and  O_18
REMARK    3  A    between atoms: N_17  and  N_20
REMARK    4  A    between atoms: N_20  and  C_23
REMARK    5  A    between atoms: C_23  and  C_26
REMARK    6  A    between atoms: C_23  and  C_27
REMARK    7  A    between atoms: C_26  and  C_29
REMARK    8  A    between atoms: C_26  and  C_30
REMARK    9  A    between atoms: C_27  and  C_31
REMARK   10  A    between atoms: C_31  and  C_32
REMARK                            x       y       z     vdW  Elec       q    Type
REMARK                         _______ _______ _______ _____ _____    ______ ____
ROOT
ATOM      1  C   UNL     1      -8.854  54.332  50.079  0.00  0.00    +0.000 A 
ATOM      2  C   UNL     1     -10.296  54.275  50.473  0.00  0.00    +0.000 A 
ATOM      3  C   UNL     1      -8.530  54.228  48.772  0.00  0.00    +0.000 A 
ATOM      4  O   UNL     1     -10.597  54.110  51.660  0.00  0.00    +0.000 OA
ATOM      5  N   UNL     1     -11.230  54.500  49.459  0.00  0.00    +0.000 N 
ATOM      6  C   UNL     1      -9.566  54.143  47.732  0.00  0.00    +0.000 A 
ATOM      7  C   UNL     1     -10.908  54.323  48.087  0.00  0.00    +0.000 A 
ATOM      8  C   UNL     1      -9.229  53.988  46.377  0.00  0.00    +0.000 A 
ATOM      9  C   UNL     1     -11.892  54.325  47.084  0.00  0.00    +0.000 A 
ATOM     10  C   UNL     1     -10.210  54.020  45.386  0.00  0.00    +0.000 A 
ATOM     11  C   UNL     1     -11.542  54.189  45.741  0.00  0.00    +0.000 A 
ENDROOT
BRANCH   1  17
ATOM     12  S   UNL     1      -7.220  55.765  53.347  0.00  0.00    +0.000 S 
ATOM     13  O   UNL     1      -7.834  55.141  54.500  0.00  0.00    +0.000 OA
ATOM     14  O   UNL     1      -6.930  57.188  53.354  0.00  0.00    +0.000 OA
ATOM     15  N   UNL     1      -8.151  55.461  52.063  0.00  0.00    +0.000 N 
ATOM     16  C   UNL     1      -5.688  54.956  53.113  0.00  0.00    +0.000 A 
ATOM     17  C   UNL     1      -7.796  54.613  51.140  0.00  0.00    +0.000 C 
ATOM     18  C   UNL     1      -5.553  54.116  52.018  0.00  0.00    +0.000 A 
ATOM     19  C   UNL     1      -4.663  55.165  54.040  0.00  0.00    +0.000 A 
ATOM     20  N   UNL     1      -6.587  53.949  51.098  0.00  0.00    +0.000 N 
ATOM     21  C   UNL     1      -4.339  53.436  51.875  0.00  0.00    +0.000 A 
ATOM     22  C   UNL     1      -3.459  54.494  53.875  0.00  0.00    +0.000 A 
ATOM     23  C   UNL     1      -3.300  53.624  52.797  0.00  0.00    +0.000 A 
ATOM     24  H   UNL     1      -9.011  55.930  51.976  0.00  0.00    +0.000 HD
ATOM     25  H   UNL     1      -6.444  53.310  50.363  0.00  0.00    +0.000 HD
ENDBRANCH   1  17
BRANCH   3  26
ATOM     26  O   UNL     1      -7.241  54.269  48.273  0.00  0.00    +0.000 OA
ATOM     27  H   UNL     1      -7.096  54.427  47.361  0.00  0.00    +0.000 HD
ENDBRANCH   3  26
BRANCH   5  28
ATOM     28  N   UNL     1     -12.573  54.819  49.806  0.00  0.00    +0.000 N 
ATOM     29  H   UNL     1     -13.311  54.170  49.759  0.00  0.00    +0.000 HD
BRANCH  28  30
ATOM     30  C   UNL     1     -12.753  56.231  50.247  0.00  0.00    +0.000 C 
BRANCH  30  31
ATOM     31  C   UNL     1     -12.971  57.240  49.064  0.00  0.00    +0.000 C 
ATOM     32  C   UNL     1     -14.139  56.898  48.133  0.00  0.00    +0.000 C 
ATOM     33  C   UNL     1     -13.128  58.690  49.543  0.00  0.00    +0.000 C 
ENDBRANCH  30  31
BRANCH  30  34
ATOM     34  C   UNL     1     -13.898  56.269  51.296  0.00  0.00    +0.000 C 
BRANCH  34  35
ATOM     35  C   UNL     1     -13.533  56.999  52.599  0.00  0.00    +0.000 C 
ATOM     36  C   UNL     1     -14.659  57.908  53.072  0.00  0.00    +0.000 C 
ENDBRANCH  34  35
ENDBRANCH  30  34
ENDBRANCH  28  30
ENDBRANCH   5  28
TORSDOF 7
ENDMDL
MODEL 3
REMARK VINA RESULT:      -7.9      1.456      2.040
REMARK  Name = 
REMARK  10 active torsions:
REMARK  status: ('A' for Active; 'I' for Inactive)
REMARK    1  A    between atoms: C_6  and  C_10
REMARK    2  A    between atoms: C_14  and  O_18
REMARK    3  A    between atoms: N_17  and  N_20
REMARK    4  A    between atoms: N_20  and  C_23
REMARK    5  A    between atoms: C_23  and  C_26
REMARK    6  A    between atoms: C_23  and  C_27
REMARK    7  A    between atoms: C_26  and  C_29
REMARK    8  A    between atoms: C_26  and  C_30
REMARK    9  A    between atoms: C_27  and  C_31
REMARK   10  A    between atoms: C_31  and  C_32
REMARK                            x       y       z     vdW  Elec       q    Type
REMARK                         _______ _______ _______ _____ _____    ______ ____
ROOT
ATOM      1  C   UNL     1     -10.367  55.326  50.610  0.00  0.00    +0.000 A 
ATOM      2  C   UNL     1      -9.795  55.571  49.250  0.00  0.00    +0.000 A 
ATOM      3  C   UNL     1     -11.653  55.665  50.847  0.00  0.00    +0.000 A 
ATOM      4  O   UNL     1      -8.572  55.513  49.084  0.00  0.00    +0.000 OA
ATOM      5  N   UNL     1     -10.710  55.774  48.214  0.00  0.00    +0.000 N 
ATOM      6  C   UNL     1     -12.516  56.189  49.778  0.00  0.00    +0.000 A 
ATOM      7  C   UNL     1     -12.043  56.198  48.460  0.00  0.00    +0.000 A 
ATOM      8  C   UNL     1     -13.839  56.585  50.036  0.00  0.00    +0.000 A 
ATOM      9  C   UNL     1     -12.894  56.621  47.425  0.00  0.00    +0.000 A 
ATOM     10  C   UNL     1     -14.685  56.976  48.998  0.00  0.00    +0.000 A 
ATOM     11  C   UNL     1     -14.211  56.994  47.692  0.00  0.00    +0.000 A 
ENDROOT
BRANCH   1  17
ATOM     12  S   UNL     1      -9.107  52.448  52.961  0.00  0.00    +0.000 S 
ATOM     13  O   UNL     1      -8.530  51.393  52.156  0.00  0.00    +0.000 OA
ATOM     14  O   UNL     1      -9.955  52.122  54.095  0.00  0.00    +0.000 OA
ATOM     15  N   UNL     1      -9.950  53.416  51.982  0.00  0.00    +0.000 N 
ATOM     16  C   UNL     1      -7.763  53.361  53.605  0.00  0.00    +0.000 A 
ATOM     17  C   UNL     1      -9.528  54.606  51.660  0.00  0.00    +0.000 C 
ATOM     18  C   UNL     1      -7.543  54.638  53.111  0.00  0.00    +0.000 A 
ATOM     19  C   UNL     1      -6.948  52.773  54.576  0.00  0.00    +0.000 A 
ATOM     20  N   UNL     1      -8.390  55.204  52.160  0.00  0.00    +0.000 N 
ATOM     21  C   UNL     1      -6.432  55.334  53.598  0.00  0.00    +0.000 A 
ATOM     22  C   UNL     1      -5.858  53.484  55.061  0.00  0.00    +0.000 A 
ATOM     23  C   UNL     1      -5.596  54.760  54.566  0.00  0.00    +0.000 A 
ATOM     24  H   UNL     1     -10.807  53.098  51.618  0.00  0.00    +0.000 HD
ATOM     25  H   UNL     1      -8.159  56.099  51.819  0.00  0.00    +0.000 HD
ENDBRANCH   1  17
BRANCH   3  26
ATOM     26  O   UNL     1     -12.305  55.489  52.054  0.00  0.00    +0.000 OA
ATOM     27  H   UNL     1     -11.812  55.420  52.848  0.00  0.00    +0.000 HD
ENDBRANCH   3  26
BRANCH   5  28
ATOM     28  N   UNL     1     -10.274  55.653  46.865  0.00  0.00    +0.000 N 
ATOM     29  H   UNL     1     -10.108  56.427  46.279  0.00  0.00    +0.000 HD
BRANCH  28  30
ATOM     30  C   UNL     1     -10.094  54.241  46.423  0.00  0.00    +0.000 C 
BRANCH  30  31
ATOM     31  C   UNL     1     -11.419  53.560  45.928  0.00  0.00    +0.000 C 
ATOM     32  C   UNL     1     -11.297  52.806  44.600  0.00  0.00    +0.000 C 
ATOM     33  C   UNL     1     -12.030  52.620  46.977  0.00  0.00    +0.000 C 
ENDBRANCH  30  31
BRANCH  30  34
ATOM     34  C   UNL     1      -8.959  54.205  45.364  0.00  0.00    +0.000 C 
BRANCH  34  35
ATOM     35  C   UNL     1      -7.542  54.253  45.957  0.00  0.00    +0.000 C 
ATOM     36  C   UNL     1      -7.262  53.051  46.850  0.00  0.00    +0.000 C 
ENDBRANCH  34  35
ENDBRANCH  30  34
ENDBRANCH  28  30
ENDBRANCH   5  28
TORSDOF 7
ENDMDL
MODEL 4
REMARK VINA RESULT:      -7.8      2.860      6.568
REMARK  Name = 
REMARK  10 active torsions:
REMARK  status: ('A' for Active; 'I' for Inactive)
REMARK    1  A    between atoms: C_6  and  C_10
REMARK    2  A    between atoms: C_14  and  O_18
REMARK    3  A    between atoms: N_17  and  N_20
REMARK    4  A    between atoms: N_20  and  C_23
REMARK    5  A    between atoms: C_23  and  C_26
REMARK    6  A    between atoms: C_23  and  C_27
REMARK    7  A    between atoms: C_26  and  C_29
REMARK    8  A    between atoms: C_26  and  C_30
REMARK    9  A    between atoms: C_27  and  C_31
REMARK   10  A    between atoms: C_31  and  C_32
REMARK                            x       y       z     vdW  Elec       q    Type
REMARK                         _______ _______ _______ _____ _____    ______ ____
ROOT
ATOM      1  C   UNL     1     -11.896  54.607  50.588  0.00  0.00    +0.000 A 
ATOM      2  C   UNL     1     -11.757  54.020  49.219  0.00  0.00    +0.000 A 
ATOM      3  C   UNL     1     -11.132  54.118  51.588  0.00  0.00    +0.000 A 
ATOM      4  O   UNL     1     -12.612  54.267  48.361  0.00  0.00    +0.000 OA
ATOM      5  N   UNL     1     -10.599  53.279  48.971  0.00  0.00    +0.000 N 
ATOM      6  C   UNL     1     -10.118  53.083  51.339  0.00  0.00    +0.000 A 
ATOM      7  C   UNL     1      -9.834  52.705  50.021  0.00  0.00    +0.000 A 
ATOM      8  C   UNL     1      -9.356  52.540  52.388  0.00  0.00    +0.000 A 
ATOM      9  C   UNL     1      -8.808  51.778  49.775  0.00  0.00    +0.000 A 
ATOM     10  C   UNL     1      -8.320  51.642  52.131  0.00  0.00    +0.000 A 
ATOM     11  C   UNL     1      -8.047  51.261  50.823  0.00  0.00    +0.000 A 
ENDROOT
BRANCH   1  17
ATOM     12  S   UNL     1     -14.438  57.020  52.355  0.00  0.00    +0.000 S 
ATOM     13  O   UNL     1     -13.795  57.638  53.494  0.00  0.00    +0.000 OA
ATOM     14  O   UNL     1     -15.809  56.552  52.455  0.00  0.00    +0.000 OA
ATOM     15  N   UNL     1     -13.527  55.770  51.888  0.00  0.00    +0.000 N 
ATOM     16  C   UNL     1     -14.421  58.213  51.078  0.00  0.00    +0.000 A 
ATOM     17  C   UNL     1     -12.810  55.809  50.801  0.00  0.00    +0.000 C 
ATOM     18  C   UNL     1     -13.579  58.001  49.996  0.00  0.00    +0.000 A 
ATOM     19  C   UNL     1     -15.236  59.342  51.196  0.00  0.00    +0.000 A 
ATOM     20  N   UNL     1     -12.798  56.851  49.898  0.00  0.00    +0.000 N 
ATOM     21  C   UNL     1     -13.539  58.991  49.009  0.00  0.00    +0.000 A 
ATOM     22  C   UNL     1     -15.195  60.308  50.200  0.00  0.00    +0.000 A 
ATOM     23  C   UNL     1     -14.341  60.137  49.111  0.00  0.00    +0.000 A 
ATOM     24  H   UNL     1     -13.515  54.956  52.441  0.00  0.00    +0.000 HD
ATOM     25  H   UNL     1     -12.192  56.777  49.125  0.00  0.00    +0.000 HD
ENDBRANCH   1  17
BRANCH   3  26
ATOM     26  O   UNL     1     -11.158  54.571  52.894  0.00  0.00    +0.000 OA
ATOM     27  H   UNL     1     -10.490  54.304  53.496  0.00  0.00    +0.000 HD
ENDBRANCH   3  26
BRANCH   5  28
ATOM     28  N   UNL     1     -10.223  53.002  47.627  0.00  0.00    +0.000 N 
ATOM     29  H   UNL     1     -10.318  52.115  47.211  0.00  0.00    +0.000 HD
BRANCH  28  30
ATOM     30  C   UNL     1      -9.670  54.185  46.908  0.00  0.00    +0.000 C 
BRANCH  30  31
ATOM     31  C   UNL     1      -8.143  54.060  46.566  0.00  0.00    +0.000 C 
ATOM     32  C   UNL     1      -7.716  54.751  45.267  0.00  0.00    +0.000 C 
ATOM     33  C   UNL     1      -7.238  54.548  47.707  0.00  0.00    +0.000 C 
ENDBRANCH  30  31
BRANCH  30  34
ATOM     34  C   UNL     1     -10.553  54.451  45.659  0.00  0.00    +0.000 C 
BRANCH  34  35
ATOM     35  C   UNL     1     -11.262  53.201  45.112  0.00  0.00    +0.000 C 
ATOM     36  C   UNL     1     -10.538  52.624  43.903  0.00  0.00    +0.000 C 
ENDBRANCH  34  35
ENDBRANCH  30  34
ENDBRANCH  28  30
ENDBRANCH   5  28
TORSDOF 7
ENDMDL
MODEL 5
REMARK VINA RESULT:      -7.7      3.213      6.586
REMARK  Name = 
REMARK  10 active torsions:
REMARK  status: ('A' for Active; 'I' for Inactive)
REMARK    1  A    between atoms: C_6  and  C_10
REMARK    2  A    between atoms: C_14  and  O_18
REMARK    3  A    between atoms: N_17  and  N_20
REMARK    4  A    between atoms: N_20  and  C_23
REMARK    5  A    between atoms: C_23  and  C_26
REMARK    6  A    between atoms: C_23  and  C_27
REMARK    7  A    between atoms: C_26  and  C_29
REMARK    8  A    between atoms: C_26  and  C_30
REMARK    9  A    between atoms: C_27  and  C_31
REMARK   10  A    between atoms: C_31  and  C_32
REMARK                            x       y       z     vdW  Elec       q    Type
REMARK                         _______ _______ _______ _____ _____    ______ ____
ROOT
ATOM      1  C   UNL     1     -11.558  56.187  48.618  0.00  0.00    +0.000 A 
ATOM      2  C   UNL     1     -10.295  55.659  49.220  0.00  0.00    +0.000 A 
ATOM      3  C   UNL     1     -11.939  55.736  47.403  0.00  0.00    +0.000 A 
ATOM      4  O   UNL     1      -9.797  56.236  50.194  0.00  0.00    +0.000 OA
ATOM      5  N   UNL     1      -9.793  54.472  48.681  0.00  0.00    +0.000 N 
ATOM      6  C   UNL     1     -11.185  54.684  46.706  0.00  0.00    +0.000 A 
ATOM      7  C   UNL     1     -10.141  54.033  47.375  0.00  0.00    +0.000 A 
ATOM      8  C   UNL     1     -11.554  54.248  45.422  0.00  0.00    +0.000 A 
ATOM      9  C   UNL     1      -9.472  52.972  46.744  0.00  0.00    +0.000 A 
ATOM     10  C   UNL     1     -10.903  53.175  44.815  0.00  0.00    +0.000 A 
ATOM     11  C   UNL     1      -9.861  52.537  45.476  0.00  0.00    +0.000 A 
ENDROOT
BRANCH   1  17
ATOM     12  S   UNL     1     -13.635  59.389  49.531  0.00  0.00    +0.000 S 
ATOM     13  O   UNL     1     -14.796  59.466  48.670  0.00  0.00    +0.000 OA
ATOM     14  O   UNL     1     -12.873  60.587  49.839  0.00  0.00    +0.000 OA
ATOM     15  N   UNL     1     -12.615  58.311  48.895  0.00  0.00    +0.000 N 
ATOM     16  C   UNL     1     -14.204  58.765  51.061  0.00  0.00    +0.000 A 
ATOM     17  C   UNL     1     -12.438  57.134  49.426  0.00  0.00    +0.000 C 
ATOM     18  C   UNL     1     -13.843  57.474  51.415  0.00  0.00    +0.000 A 
ATOM     19  C   UNL     1     -15.012  59.574  51.864  0.00  0.00    +0.000 A 
ATOM     20  N   UNL     1     -13.014  56.702  50.602  0.00  0.00    +0.000 N 
ATOM     21  C   UNL     1     -14.350  56.971  52.618  0.00  0.00    +0.000 A 
ATOM     22  C   UNL     1     -15.494  59.066  53.063  0.00  0.00    +0.000 A 
ATOM     23  C   UNL     1     -15.170  57.762  53.435  0.00  0.00    +0.000 A 
ATOM     24  H   UNL     1     -12.113  58.550  48.083  0.00  0.00    +0.000 HD
ATOM     25  H   UNL     1     -12.826  55.779  50.889  0.00  0.00    +0.000 HD
ENDBRANCH   1  17
BRANCH   3  26
ATOM     26  O   UNL     1     -13.083  56.137  46.736  0.00  0.00    +0.000 OA
ATOM     27  H   UNL     1     -13.022  56.740  46.022  0.00  0.00    +0.000 HD
ENDBRANCH   3  26
BRANCH   5  28
ATOM     28  N   UNL     1      -8.829  53.726  49.414  0.00  0.00    +0.000 N 
ATOM     29  H   UNL     1      -7.866  53.739  49.208  0.00  0.00    +0.000 HD
BRANCH  28  30
ATOM     30  C   UNL     1      -9.416  52.922  50.523  0.00  0.00    +0.000 C 
BRANCH  30  31
ATOM     31  C   UNL     1      -9.438  51.378  50.240  0.00  0.00    +0.000 C 
ATOM     32  C   UNL     1     -10.705  50.868  49.546  0.00  0.00    +0.000 C 
ATOM     33  C   UNL     1      -8.213  50.904  49.445  0.00  0.00    +0.000 C 
ENDBRANCH  30  31
BRANCH  30  34
ATOM     34  C   UNL     1      -8.672  53.289  51.836  0.00  0.00    +0.000 C 
BRANCH  34  35
ATOM     35  C   UNL     1      -9.568  53.931  52.908  0.00  0.00    +0.000 C 
ATOM     36  C   UNL     1     -11.030  53.953  52.484  0.00  0.00    +0.000 C 
ENDBRANCH  34  35
ENDBRANCH  30  34
ENDBRANCH  28  30
ENDBRANCH   5  28
TORSDOF 7
ENDMDL
MODEL 6
REMARK VINA RESULT:      -7.6      3.030      6.070
REMARK  Name = 
REMARK  10 active torsions:
REMARK  status: ('A' for Active; 'I' for Inactive)
REMARK    1  A    between atoms: C_6  and  C_10
REMARK    2  A    between atoms: C_14  and  O_18
REMARK    3  A    between atoms: N_17  and  N_20
REMARK    4  A    between atoms: N_20  and  C_23
REMARK    5  A    between atoms: C_23  and  C_26
REMARK    6  A    between atoms: C_23  and  C_27
REMARK    7  A    between atoms: C_26  and  C_29
REMARK    8  A    between atoms: C_26  and  C_30
REMARK    9  A    between atoms: C_27  and  C_31
REMARK   10  A    between atoms: C_31  and  C_32
REMARK                            x       y       z     vdW  Elec       q    Type
REMARK                         _______ _______ _______ _____ _____    ______ ____
ROOT
ATOM      1  C   UNL     1     -10.396  54.955  47.507  0.00  0.00    +0.000 A 
ATOM      2  C   UNL     1      -8.923  55.207  47.451  0.00  0.00    +0.000 A 
ATOM      3  C   UNL     1     -10.988  54.317  46.475  0.00  0.00    +0.000 A 
ATOM      4  O   UNL     1      -8.411  56.003  48.246  0.00  0.00    +0.000 OA
ATOM      5  N   UNL     1      -8.193  54.447  46.535  0.00  0.00    +0.000 N 
ATOM      6  C   UNL     1     -10.204  53.798  45.344  0.00  0.00    +0.000 A 
ATOM      7  C   UNL     1      -8.805  53.833  45.409  0.00  0.00    +0.000 A 
ATOM      8  C   UNL     1     -10.824  53.176  44.248  0.00  0.00    +0.000 A 
ATOM      9  C   UNL     1      -8.052  53.264  44.369  0.00  0.00    +0.000 A 
ATOM     10  C   UNL     1     -10.068  52.588  43.235  0.00  0.00    +0.000 A 
ATOM     11  C   UNL     1      -8.681  52.633  43.296  0.00  0.00    +0.000 A 
ENDROOT
BRANCH   1  17
ATOM     12  S   UNL     1     -11.509  54.947  51.270  0.00  0.00    +0.000 S 
ATOM     13  O   UNL     1     -10.447  55.499  52.083  0.00  0.00    +0.000 OA
ATOM     14  O   UNL     1     -12.244  53.778  51.724  0.00  0.00    +0.000 OA
ATOM     15  N   UNL     1     -10.897  54.605  49.816  0.00  0.00    +0.000 N 
ATOM     16  C   UNL     1     -12.689  56.221  51.078  0.00  0.00    +0.000 A 
ATOM     17  C   UNL     1     -11.175  55.323  48.765  0.00  0.00    +0.000 C 
ATOM     18  C   UNL     1     -12.816  56.812  49.830  0.00  0.00    +0.000 A 
ATOM     19  C   UNL     1     -13.449  56.614  52.184  0.00  0.00    +0.000 A 
ATOM     20  N   UNL     1     -12.061  56.380  48.741  0.00  0.00    +0.000 N 
ATOM     21  C   UNL     1     -13.727  57.866  49.707  0.00  0.00    +0.000 A 
ATOM     22  C   UNL     1     -14.360  57.651  52.041  0.00  0.00    +0.000 A 
ATOM     23  C   UNL     1     -14.493  58.283  50.805  0.00  0.00    +0.000 A 
ATOM     24  H   UNL     1     -10.295  53.832  49.721  0.00  0.00    +0.000 HD
ATOM     25  H   UNL     1     -12.168  56.865  47.891  0.00  0.00    +0.000 HD
ENDBRANCH   1  17
BRANCH   3  26
ATOM     26  O   UNL     1     -12.337  54.017  46.401  0.00  0.00    +0.000 OA
ATOM     27  H   UNL     1     -12.730  53.464  47.046  0.00  0.00    +0.000 HD
ENDBRANCH   3  26
BRANCH   5  28
ATOM     28  N   UNL     1      -6.779  54.362  46.668  0.00  0.00    +0.000 N 
ATOM     29  H   UNL     1      -6.152  54.868  46.102  0.00  0.00    +0.000 HD
BRANCH  28  30
ATOM     30  C   UNL     1      -6.338  53.435  47.748  0.00  0.00    +0.000 C 
BRANCH  30  31
ATOM     31  C   UNL     1      -6.258  51.933  47.297  0.00  0.00    +0.000 C 
ATOM     32  C   UNL     1      -5.000  51.190  47.757  0.00  0.00    +0.000 C 
ATOM     33  C   UNL     1      -7.493  51.122  47.715  0.00  0.00    +0.000 C 
ENDBRANCH  30  31
BRANCH  30  34
ATOM     34  C   UNL     1      -5.001  53.967  48.330  0.00  0.00    +0.000 C 
BRANCH  34  35
ATOM     35  C   UNL     1      -5.171  54.984  49.471  0.00  0.00    +0.000 C 
ATOM     36  C   UNL     1      -6.165  54.499  50.517  0.00  0.00    +0.000 C 
ENDBRANCH  34  35
ENDBRANCH  30  34
ENDBRANCH  28  30
ENDBRANCH   5  28
TORSDOF 7
ENDMDL
MODEL 7
REMARK VINA RESULT:      -7.6      2.963      6.369
REMARK  Name = 
REMARK  10 active torsions:
REMARK  status: ('A' for Active; 'I' for Inactive)
REMARK    1  A    between atoms: C_6  and  C_10
REMARK    2  A    between atoms: C_14  and  O_18
REMARK    3  A    between atoms: N_17  and  N_20
REMARK    4  A    between atoms: N_20  and  C_23
REMARK    5  A    between atoms: C_23  and  C_26
REMARK    6  A    between atoms: C_23  and  C_27
REMARK    7  A    between atoms: C_26  and  C_29
REMARK    8  A    between atoms: C_26  and  C_30
REMARK    9  A    between atoms: C_27  and  C_31
REMARK   10  A    between atoms: C_31  and  C_32
REMARK                            x       y       z     vdW  Elec       q    Type
REMARK                         _______ _______ _______ _____ _____    ______ ____
ROOT
ATOM      1  C   UNL     1     -11.435  54.369  50.802  0.00  0.00    +0.000 A 
ATOM      2  C   UNL     1     -11.430  53.442  49.628  0.00  0.00    +0.000 A 
ATOM      3  C   UNL     1     -10.561  54.153  51.808  0.00  0.00    +0.000 A 
ATOM      4  O   UNL     1     -12.375  53.462  48.832  0.00  0.00    +0.000 OA
ATOM      5  N   UNL     1     -10.290  52.651  49.461  0.00  0.00    +0.000 N 
ATOM      6  C   UNL     1      -9.558  53.080  51.733  0.00  0.00    +0.000 A 
ATOM      7  C   UNL     1      -9.408  52.366  50.537  0.00  0.00    +0.000 A 
ATOM      8  C   UNL     1      -8.680  52.825  52.799  0.00  0.00    +0.000 A 
ATOM      9  C   UNL     1      -8.396  51.398  50.434  0.00  0.00    +0.000 A 
ATOM     10  C   UNL     1      -7.660  51.882  52.678  0.00  0.00    +0.000 A 
ATOM     11  C   UNL     1      -7.519  51.167  51.494  0.00  0.00    +0.000 A 
ENDROOT
BRANCH   1  17
ATOM     12  S   UNL     1     -13.543  57.363  49.389  0.00  0.00    +0.000 S 
ATOM     13  O   UNL     1     -14.670  56.843  48.645  0.00  0.00    +0.000 OA
ATOM     14  O   UNL     1     -12.793  58.498  48.880  0.00  0.00    +0.000 OA
ATOM     15  N   UNL     1     -12.501  56.152  49.622  0.00  0.00    +0.000 N 
ATOM     16  C   UNL     1     -14.170  57.850  50.946  0.00  0.00    +0.000 A 
ATOM     17  C   UNL     1     -12.345  55.593  50.789  0.00  0.00    +0.000 C 
ATOM     18  C   UNL     1     -13.824  57.094  52.056  0.00  0.00    +0.000 A 
ATOM     19  C   UNL     1     -15.007  58.967  51.019  0.00  0.00    +0.000 A 
ATOM     20  N   UNL     1     -12.966  56.001  51.951  0.00  0.00    +0.000 N 
ATOM     21  C   UNL     1     -14.377  57.466  53.285  0.00  0.00    +0.000 A 
ATOM     22  C   UNL     1     -15.535  59.332  52.251  0.00  0.00    +0.000 A 
ATOM     23  C   UNL     1     -15.226  58.577  53.381  0.00  0.00    +0.000 A 
ATOM     24  H   UNL     1     -11.968  55.827  48.861  0.00  0.00    +0.000 HD
ATOM     25  H   UNL     1     -12.789  55.480  52.768  0.00  0.00    +0.000 HD
ENDBRANCH   1  17
BRANCH   3  26
ATOM     26  O   UNL     1     -10.457  54.934  52.945  0.00  0.00    +0.000 OA
ATOM     27  H   UNL     1     -11.217  55.358  53.293  0.00  0.00    +0.000 HD
ENDBRANCH   3  26
BRANCH   5  28
ATOM     28  N   UNL     1     -10.052  52.027  48.204  0.00  0.00    +0.000 N 
ATOM     29  H   UNL     1     -10.098  51.054  48.068  0.00  0.00    +0.000 HD
BRANCH  28  30
ATOM     30  C   UNL     1      -9.727  52.991  47.115  0.00  0.00    +0.000 C 
BRANCH  30  31
ATOM     31  C   UNL     1      -8.409  53.806  47.364  0.00  0.00    +0.000 C 
ATOM     32  C   UNL     1      -7.342  53.653  46.276  0.00  0.00    +0.000 C 
ATOM     33  C   UNL     1      -8.672  55.302  47.592  0.00  0.00    +0.000 C 
ENDBRANCH  30  31
BRANCH  30  34
ATOM     34  C   UNL     1      -9.717  52.215  45.769  0.00  0.00    +0.000 C 
BRANCH  34  35
ATOM     35  C   UNL     1     -10.766  52.700  44.755  0.00  0.00    +0.000 C 
ATOM     36  C   UNL     1     -11.508  53.932  45.254  0.00  0.00    +0.000 C 
ENDBRANCH  34  35
ENDBRANCH  30  34
ENDBRANCH  28  30
ENDBRANCH   5  28
TORSDOF 7
ENDMDL
MODEL 8
REMARK VINA RESULT:      -7.5      2.154      4.888
REMARK  Name = 
REMARK  10 active torsions:
REMARK  status: ('A' for Active; 'I' for Inactive)
REMARK    1  A    between atoms: C_6  and  C_10
REMARK    2  A    between atoms: C_14  and  O_18
REMARK    3  A    between atoms: N_17  and  N_20
REMARK    4  A    between atoms: N_20  and  C_23
REMARK    5  A    between atoms: C_23  and  C_26
REMARK    6  A    between atoms: C_23  and  C_27
REMARK    7  A    between atoms: C_26  and  C_29
REMARK    8  A    between atoms: C_26  and  C_30
REMARK    9  A    between atoms: C_27  and  C_31
REMARK   10  A    between atoms: C_31  and  C_32
REMARK                            x       y       z     vdW  Elec       q    Type
REMARK                         _______ _______ _______ _____ _____    ______ ____
ROOT
ATOM      1  C   UNL     1      -9.956  53.303  50.020  0.00  0.00    +0.000 A 
ATOM      2  C   UNL     1     -11.400  53.678  50.123  0.00  0.00    +0.000 A 
ATOM      3  C   UNL     1      -9.408  53.152  48.795  0.00  0.00    +0.000 A 
ATOM      4  O   UNL     1     -11.981  53.570  51.209  0.00  0.00    +0.000 OA
ATOM      5  N   UNL     1     -11.991  54.216  48.977  0.00  0.00    +0.000 N 
ATOM      6  C   UNL     1     -10.178  53.427  47.573  0.00  0.00    +0.000 A 
ATOM      7  C   UNL     1     -11.452  53.998  47.681  0.00  0.00    +0.000 A 
ATOM      8  C   UNL     1      -9.622  53.225  46.298  0.00  0.00    +0.000 A 
ATOM      9  C   UNL     1     -12.156  54.339  46.514  0.00  0.00    +0.000 A 
ATOM     10  C   UNL     1     -10.317  53.593  45.146  0.00  0.00    +0.000 A 
ATOM     11  C   UNL     1     -11.585  54.150  45.255  0.00  0.00    +0.000 A 
ENDROOT
BRANCH   1  17
ATOM     12  S   UNL     1      -8.397  51.786  53.286  0.00  0.00    +0.000 S 
ATOM     13  O   UNL     1      -7.520  50.691  52.932  0.00  0.00    +0.000 OA
ATOM     14  O   UNL     1      -9.284  51.671  54.431  0.00  0.00    +0.000 OA
ATOM     15  N   UNL     1      -9.306  52.132  51.997  0.00  0.00    +0.000 N 
ATOM     16  C   UNL     1      -7.362  53.157  53.606  0.00  0.00    +0.000 A 
ATOM     17  C   UNL     1      -9.112  53.205  51.286  0.00  0.00    +0.000 C 
ATOM     18  C   UNL     1      -7.362  54.203  52.696  0.00  0.00    +0.000 A 
ATOM     19  C   UNL     1      -6.560  53.147  54.751  0.00  0.00    +0.000 A 
ATOM     20  N   UNL     1      -8.193  54.192  51.577  0.00  0.00    +0.000 N 
ATOM     21  C   UNL     1      -6.489  55.268  52.939  0.00  0.00    +0.000 A 
ATOM     22  C   UNL     1      -5.710  54.219  54.986  0.00  0.00    +0.000 A 
ATOM     23  C   UNL     1      -5.669  55.275  54.077  0.00  0.00    +0.000 A 
ATOM     24  H   UNL     1     -10.028  51.513  51.742  0.00  0.00    +0.000 HD
ATOM     25  H   UNL     1      -8.119  54.945  50.947  0.00  0.00    +0.000 HD
ENDBRANCH   1  17
BRANCH   3  26
ATOM     26  O   UNL     1      -8.088  52.812  48.558  0.00  0.00    +0.000 OA
ATOM     27  H   UNL     1      -7.479  52.773  49.268  0.00  0.00    +0.000 HD
ENDBRANCH   3  26
BRANCH   5  28
ATOM     28  N   UNL     1     -13.222  54.919  49.091  0.00  0.00    +0.000 N 
ATOM     29  H   UNL     1     -14.084  54.550  48.791  0.00  0.00    +0.000 HD
BRANCH  28  30
ATOM     30  C   UNL     1     -13.081  56.268  49.708  0.00  0.00    +0.000 C 
BRANCH  30  31
ATOM     31  C   UNL     1     -13.168  57.447  48.674  0.00  0.00    +0.000 C 
ATOM     32  C   UNL     1     -14.124  57.206  47.502  0.00  0.00    +0.000 C 
ATOM     33  C   UNL     1     -13.522  58.788  49.334  0.00  0.00    +0.000 C 
ENDBRANCH  30  31
BRANCH  30  34
ATOM     34  C   UNL     1     -14.120  56.389  50.856  0.00  0.00    +0.000 C 
BRANCH  34  35
ATOM     35  C   UNL     1     -13.503  56.650  52.239  0.00  0.00    +0.000 C 
ATOM     36  C   UNL     1     -14.230  57.762  52.982  0.00  0.00    +0.000 C 
ENDBRANCH  34  35
ENDBRANCH  30  34
ENDBRANCH  28  30
ENDBRANCH   5  28
TORSDOF 7
ENDMDL
MODEL 9
REMARK VINA RESULT:      -7.5      2.277      3.078
REMARK  Name = 
REMARK  10 active torsions:
REMARK  status: ('A' for Active; 'I' for Inactive)
REMARK    1  A    between atoms: C_6  and  C_10
REMARK    2  A    between atoms: C_14  and  O_18
REMARK    3  A    between atoms: N_17  and  N_20
REMARK    4  A    between atoms: N_20  and  C_23
REMARK    5  A    between atoms: C_23  and  C_26
REMARK    6  A    between atoms: C_23  and  C_27
REMARK    7  A    between atoms: C_26  and  C_29
REMARK    8  A    between atoms: C_26  and  C_30
REMARK    9  A    between atoms: C_27  and  C_31
REMARK   10  A    between atoms: C_31  and  C_32
REMARK                            x       y       z     vdW  Elec       q    Type
REMARK                         _______ _______ _______ _____ _____    ______ ____
ROOT
ATOM      1  C   UNL     1      -9.431  55.466  50.541  0.00  0.00    +0.000 A 
ATOM      2  C   UNL     1      -9.704  55.769  49.102  0.00  0.00    +0.000 A 
ATOM      3  C   UNL     1     -10.447  55.539  51.427  0.00  0.00    +0.000 A 
ATOM      4  O   UNL     1      -8.758  55.959  48.329  0.00  0.00    +0.000 OA
ATOM      5  N   UNL     1     -11.041  55.735  48.698  0.00  0.00    +0.000 N 
ATOM      6  C   UNL     1     -11.822  55.830  50.993  0.00  0.00    +0.000 A 
ATOM      7  C   UNL     1     -12.110  55.883  49.623  0.00  0.00    +0.000 A 
ATOM      8  C   UNL     1     -12.871  55.952  51.920  0.00  0.00    +0.000 A 
ATOM      9  C   UNL     1     -13.436  56.077  49.204  0.00  0.00    +0.000 A 
ATOM     10  C   UNL     1     -14.188  56.116  51.494  0.00  0.00    +0.000 A 
ATOM     11  C   UNL     1     -14.471  56.179  50.135  0.00  0.00    +0.000 A 
ENDROOT
BRANCH   1  17
ATOM     12  S   UNL     1      -5.902  53.771  50.276  0.00  0.00    +0.000 S 
ATOM     13  O   UNL     1      -5.072  54.535  49.370  0.00  0.00    +0.000 OA
ATOM     14  O   UNL     1      -5.884  52.319  50.233  0.00  0.00    +0.000 OA
ATOM     15  N   UNL     1      -7.431  54.248  50.073  0.00  0.00    +0.000 N 
ATOM     16  C   UNL     1      -5.402  54.218  51.890  0.00  0.00    +0.000 A 
ATOM     17  C   UNL     1      -8.047  54.979  50.957  0.00  0.00    +0.000 C 
ATOM     18  C   UNL     1      -6.267  54.986  52.654  0.00  0.00    +0.000 A 
ATOM     19  C   UNL     1      -4.148  53.805  52.349  0.00  0.00    +0.000 A 
ATOM     20  N   UNL     1      -7.522  55.359  52.174  0.00  0.00    +0.000 N 
ATOM     21  C   UNL     1      -5.830  55.379  53.922  0.00  0.00    +0.000 A 
ATOM     22  C   UNL     1      -3.735  54.191  53.617  0.00  0.00    +0.000 A 
ATOM     23  C   UNL     1      -4.572  54.984  54.400  0.00  0.00    +0.000 A 
ATOM     24  H   UNL     1      -7.911  53.978  49.257  0.00  0.00    +0.000 HD
ATOM     25  H   UNL     1      -8.075  55.938  52.748  0.00  0.00    +0.000 HD
ENDBRANCH   1  17
BRANCH   3  26
ATOM     26  O   UNL     1     -10.333  55.282  52.781  0.00  0.00    +0.000 OA
ATOM     27  H   UNL     1      -9.607  54.786  53.105  0.00  0.00    +0.000 HD
ENDBRANCH   3  26
BRANCH   5  28
ATOM     28  N   UNL     1     -11.350  55.652  47.312  0.00  0.00    +0.000 N 
ATOM     29  H   UNL     1     -11.389  56.437  46.719  0.00  0.00    +0.000 HD
BRANCH  28  30
ATOM     30  C   UNL     1     -11.609  54.261  46.843  0.00  0.00    +0.000 C 
BRANCH  30  31
ATOM     31  C   UNL     1     -11.056  53.967  45.404  0.00  0.00    +0.000 C 
ATOM     32  C   UNL     1      -9.533  53.828  45.316  0.00  0.00    +0.000 C 
ATOM     33  C   UNL     1     -11.703  52.730  44.762  0.00  0.00    +0.000 C 
ENDBRANCH  30  31
BRANCH  30  34
ATOM     34  C   UNL     1     -11.067  53.278  47.916  0.00  0.00    +0.000 C 
BRANCH  34  35
ATOM     35  C   UNL     1     -12.143  52.383  48.552  0.00  0.00    +0.000 C 
ATOM     36  C   UNL     1     -11.890  52.164  50.037  0.00  0.00    +0.000 C 
ENDBRANCH  34  35
ENDBRANCH  30  34
ENDBRANCH  28  30
ENDBRANCH   5  28
TORSDOF 7
ENDMDL
