MODEL 1
REMARK VINA RESULT:      -8.4      0.000      0.000
REMARK  Name = 
REMARK  5 active torsions:
REMARK  status: ('A' for Active; 'I' for Inactive)
REMARK    1  A    between atoms: C_6  and  C_10
REMARK    2  A    between atoms: C_14  and  O_18
REMARK    3  A    between atoms: N_17  and  N_20
REMARK    4  A    between atoms: N_20  and  C_23
REMARK    5  A    between atoms: C_23  and  C_26
REMARK                            x       y       z     vdW  Elec       q    Type
REMARK                         _______ _______ _______ _____ _____    ______ ____
ROOT
ATOM      1  C   UNL     1     -10.127  54.548  52.235  0.00  0.00    +0.000 A 
ATOM      2  C   UNL     1      -8.759  55.116  52.051  0.00  0.00    +0.000 A 
ATOM      3  C   UNL     1     -10.308  53.441  52.975  0.00  0.00    +0.000 A 
ATOM      4  O   UNL     1      -8.650  56.126  51.347  0.00  0.00    +0.000 OA
ATOM      5  N   UNL     1      -7.690  54.491  52.700  0.00  0.00    +0.000 N 
ATOM      6  C   UNL     1      -9.172  52.792  53.644  0.00  0.00    +0.000 A 
ATOM      7  C   UNL     1      -7.877  53.321  53.496  0.00  0.00    +0.000 A 
ATOM      8  C   UNL     1      -9.363  51.650  54.443  0.00  0.00    +0.000 A 
ATOM      9  C   UNL     1      -6.803  52.688  54.142  0.00  0.00    +0.000 A 
ATOM     10  C   UNL     1      -8.290  51.040  55.093  0.00  0.00    +0.000 A 
ATOM     11  C   UNL     1      -7.009  51.558  54.938  0.00  0.00    +0.000 A 
ENDROOT
BRANCH   1  17
ATOM     12  S   UNL     1     -12.549  56.064  49.538  0.00  0.00    +0.000 S 
ATOM     13  O   UNL     1     -13.449  55.077  48.977  0.00  0.00    +0.000 OA
ATOM     14  O   UNL     1     -11.930  57.059  48.684  0.00  0.00    +0.000 OA
ATOM     15  N   UNL     1     -11.368  55.274  50.319  0.00  0.00    +0.000 N 
ATOM     16  C   UNL     1     -13.492  56.960  50.718  0.00  0.00    +0.000 A 
ATOM     17  C   UNL     1     -11.302  55.281  51.617  0.00  0.00    +0.000 C 
ATOM     18  C   UNL     1     -13.192  56.778  52.058  0.00  0.00    +0.000 A 
ATOM     19  C   UNL     1     -14.497  57.832  50.294  0.00  0.00    +0.000 A 
ATOM     20  N   UNL     1     -12.198  55.895  52.467  0.00  0.00    +0.000 N 
ATOM     21  C   UNL     1     -13.980  57.444  53.006  0.00  0.00    +0.000 A 
ATOM     22  C   UNL     1     -15.249  58.516  51.247  0.00  0.00    +0.000 A 
ATOM     23  C   UNL     1     -14.996  58.315  52.604  0.00  0.00    +0.000 A 
ATOM     24  H   UNL     1     -10.690  54.782  49.802  0.00  0.00    +0.000 HD
ATOM     25  H   UNL     1     -12.131  55.693  53.428  0.00  0.00    +0.000 HD
ENDBRANCH   1  17
BRANCH   3  26
ATOM     26  O   UNL     1     -11.537  52.843  53.194  0.00  0.00    +0.000 OA
ATOM     27  H   UNL     1     -11.719  52.437  54.018  0.00  0.00    +0.000 HD
ENDBRANCH   3  26
BRANCH   5  28
ATOM     28  N   UNL     1      -6.344  54.949  52.491  0.00  0.00    +0.000 N 
ATOM     29  H   UNL     1      -5.829  55.416  53.187  0.00  0.00    +0.000 HD
BRANCH  28  30
ATOM     30  C   UNL     1      -5.793  54.667  51.157  0.00  0.00    +0.000 C 
BRANCH  30  31
ATOM     31  C   UNL     1      -5.007  53.389  51.170  0.00  0.00    +0.000 A 
ATOM     32  S   UNL     1      -5.655  51.975  50.444  0.00  0.00    +0.000 S 
ATOM     33  C   UNL     1      -3.739  53.165  51.670  0.00  0.00    +0.000 A 
ATOM     34  C   UNL     1      -4.244  51.075  50.790  0.00  0.00    +0.000 A 
ATOM     35  C   UNL     1      -3.300  51.828  51.452  0.00  0.00    +0.000 A 
ENDBRANCH  30  31
ENDBRANCH  28  30
ENDBRANCH   5  28
TORSDOF 5
ENDMDL
MODEL 2
REMARK VINA RESULT:      -8.4      3.311      4.928
REMARK  Name = 
REMARK  5 active torsions:
REMARK  status: ('A' for Active; 'I' for Inactive)
REMARK    1  A    between atoms: C_6  and  C_10
REMARK    2  A    between atoms: C_14  and  O_18
REMARK    3  A    between atoms: N_17  and  N_20
REMARK    4  A    between atoms: N_20  and  C_23
REMARK    5  A    between atoms: C_23  and  C_26
REMARK                            x       y       z     vdW  Elec       q    Type
REMARK                         _______ _______ _______ _____ _____    ______ ____
ROOT
ATOM      1  C   UNL     1     -11.474  56.047  48.812  0.00  0.00    +0.000 A 
ATOM      2  C   UNL     1     -10.402  55.464  49.673  0.00  0.00    +0.000 A 
ATOM      3  C   UNL     1     -11.584  55.679  47.523  0.00  0.00    +0.000 A 
ATOM      4  O   UNL     1     -10.338  55.850  50.844  0.00  0.00    +0.000 OA
ATOM      5  N   UNL     1      -9.554  54.503  49.114  0.00  0.00    +0.000 N 
ATOM      6  C   UNL     1     -10.679  54.673  46.950  0.00  0.00    +0.000 A 
ATOM      7  C   UNL     1      -9.673  54.100  47.749  0.00  0.00    +0.000 A 
ATOM      8  C   UNL     1     -10.811  54.266  45.611  0.00  0.00    +0.000 A 
ATOM      9  C   UNL     1      -8.816  53.141  47.185  0.00  0.00    +0.000 A 
ATOM     10  C   UNL     1      -9.963  53.300  45.066  0.00  0.00    +0.000 A 
ATOM     11  C   UNL     1      -8.963  52.741  45.854  0.00  0.00    +0.000 A 
ENDROOT
BRANCH   1  17
ATOM     12  S   UNL     1     -13.566  59.306  49.467  0.00  0.00    +0.000 S 
ATOM     13  O   UNL     1     -14.704  59.428  48.580  0.00  0.00    +0.000 OA
ATOM     14  O   UNL     1     -12.761  60.468  49.788  0.00  0.00    +0.000 OA
ATOM     15  N   UNL     1     -12.582  58.169  48.862  0.00  0.00    +0.000 N 
ATOM     16  C   UNL     1     -14.208  58.727  50.996  0.00  0.00    +0.000 A 
ATOM     17  C   UNL     1     -12.460  57.012  49.440  0.00  0.00    +0.000 C 
ATOM     18  C   UNL     1     -13.904  57.431  51.376  0.00  0.00    +0.000 A 
ATOM     19  C   UNL     1     -14.988  59.570  51.792  0.00  0.00    +0.000 A 
ATOM     20  N   UNL     1     -13.140  56.597  50.566  0.00  0.00    +0.000 N 
ATOM     21  C   UNL     1     -14.462  56.944  52.565  0.00  0.00    +0.000 A 
ATOM     22  C   UNL     1     -15.505  59.084  52.991  0.00  0.00    +0.000 A 
ATOM     23  C   UNL     1     -15.251  57.768  53.373  0.00  0.00    +0.000 A 
ATOM     24  H   UNL     1     -12.069  58.359  48.043  0.00  0.00    +0.000 HD
ATOM     25  H   UNL     1     -13.082  55.645  50.813  0.00  0.00    +0.000 HD
ENDBRANCH   1  17
BRANCH   3  26
ATOM     26  O   UNL     1     -12.541  56.170  46.653  0.00  0.00    +0.000 OA
ATOM     27  H   UNL     1     -13.434  55.904  46.741  0.00  0.00    +0.000 HD
ENDBRANCH   3  26
BRANCH   5  28
ATOM     28  N   UNL     1      -8.457  53.971  49.875  0.00  0.00    +0.000 N 
ATOM     29  H   UNL     1      -8.480  53.076  50.284  0.00  0.00    +0.000 HD
BRANCH  28  30
ATOM     30  C   UNL     1      -7.295  54.864  49.996  0.00  0.00    +0.000 C 
BRANCH  30  31
ATOM     31  C   UNL     1      -6.900  55.024  51.434  0.00  0.00    +0.000 A 
ATOM     32  S   UNL     1      -5.668  54.033  52.103  0.00  0.00    +0.000 S 
ATOM     33  C   UNL     1      -7.374  55.935  52.358  0.00  0.00    +0.000 A 
ATOM     34  C   UNL     1      -5.764  54.825  53.614  0.00  0.00    +0.000 A 
ATOM     35  C   UNL     1      -6.718  55.818  53.617  0.00  0.00    +0.000 A 
ENDBRANCH  30  31
ENDBRANCH  28  30
ENDBRANCH   5  28
TORSDOF 5
ENDMDL
MODEL 3
REMARK VINA RESULT:      -8.3      3.148      8.377
REMARK  Name = 
REMARK  5 active torsions:
REMARK  status: ('A' for Active; 'I' for Inactive)
REMARK    1  A    between atoms: C_6  and  C_10
REMARK    2  A    between atoms: C_14  and  O_18
REMARK    3  A    between atoms: N_17  and  N_20
REMARK    4  A    between atoms: N_20  and  C_23
REMARK    5  A    between atoms: C_23  and  C_26
REMARK                            x       y       z     vdW  Elec       q    Type
REMARK                         _______ _______ _______ _____ _____    ______ ____
ROOT
ATOM      1  C   UNL     1      -9.117  54.359  49.887  0.00  0.00    +0.000 A 
ATOM      2  C   UNL     1     -10.165  55.419  49.982  0.00  0.00    +0.000 A 
ATOM      3  C   UNL     1      -9.010  53.609  48.777  0.00  0.00    +0.000 A 
ATOM      4  O   UNL     1     -10.228  56.067  51.032  0.00  0.00    +0.000 OA
ATOM      5  N   UNL     1     -10.992  55.633  48.876  0.00  0.00    +0.000 N 
ATOM      6  C   UNL     1      -9.894  53.841  47.626  0.00  0.00    +0.000 A 
ATOM      7  C   UNL     1     -10.876  54.846  47.690  0.00  0.00    +0.000 A 
ATOM      8  C   UNL     1      -9.764  53.077  46.453  0.00  0.00    +0.000 A 
ATOM      9  C   UNL     1     -11.713  55.054  46.581  0.00  0.00    +0.000 A 
ATOM     10  C   UNL     1     -10.591  53.304  45.352  0.00  0.00    +0.000 A 
ATOM     11  C   UNL     1     -11.568  54.291  45.419  0.00  0.00    +0.000 A 
ENDROOT
BRANCH   1  17
ATOM     12  S   UNL     1      -7.738  54.085  53.555  0.00  0.00    +0.000 S 
ATOM     13  O   UNL     1      -7.955  52.777  54.138  0.00  0.00    +0.000 OA
ATOM     14  O   UNL     1      -7.935  55.281  54.350  0.00  0.00    +0.000 OA
ATOM     15  N   UNL     1      -8.671  54.203  52.236  0.00  0.00    +0.000 N 
ATOM     16  C   UNL     1      -6.056  54.113  53.050  0.00  0.00    +0.000 A 
ATOM     17  C   UNL     1      -8.152  54.193  51.044  0.00  0.00    +0.000 C 
ATOM     18  C   UNL     1      -5.789  54.107  51.691  0.00  0.00    +0.000 A 
ATOM     19  C   UNL     1      -5.038  54.154  54.006  0.00  0.00    +0.000 A 
ATOM     20  N   UNL     1      -6.812  54.050  50.750  0.00  0.00    +0.000 N 
ATOM     21  C   UNL     1      -4.450  54.069  51.283  0.00  0.00    +0.000 A 
ATOM     22  C   UNL     1      -3.710  54.153  53.585  0.00  0.00    +0.000 A 
ATOM     23  C   UNL     1      -3.416  54.101  52.223  0.00  0.00    +0.000 A 
ATOM     24  H   UNL     1      -9.647  54.285  52.338  0.00  0.00    +0.000 HD
ATOM     25  H   UNL     1      -6.562  53.897  49.810  0.00  0.00    +0.000 HD
ENDBRANCH   1  17
BRANCH   3  26
ATOM     26  O   UNL     1      -8.076  52.603  48.605  0.00  0.00    +0.000 OA
ATOM     27  H   UNL     1      -7.851  52.316  47.743  0.00  0.00    +0.000 HD
ENDBRANCH   3  26
BRANCH   5  28
ATOM     28  N   UNL     1     -12.068  56.583  48.944  0.00  0.00    +0.000 N 
ATOM     29  H   UNL     1     -11.994  57.493  48.577  0.00  0.00    +0.000 HD
BRANCH  28  30
ATOM     30  C   UNL     1     -13.287  56.095  49.605  0.00  0.00    +0.000 C 
BRANCH  30  31
ATOM     31  C   UNL     1     -13.644  56.971  50.769  0.00  0.00    +0.000 A 
ATOM     32  S   UNL     1     -14.254  58.553  50.500  0.00  0.00    +0.000 S 
ATOM     33  C   UNL     1     -13.595  56.671  52.117  0.00  0.00    +0.000 A 
ATOM     34  C   UNL     1     -14.460  58.827  52.174  0.00  0.00    +0.000 A 
ATOM     35  C   UNL     1     -14.065  57.744  52.927  0.00  0.00    +0.000 A 
ENDBRANCH  30  31
ENDBRANCH  28  30
ENDBRANCH   5  28
TORSDOF 5
ENDMDL
MODEL 4
REMARK VINA RESULT:      -8.2      3.898      4.708
REMARK  Name = 
REMARK  5 active torsions:
REMARK  status: ('A' for Active; 'I' for Inactive)
REMARK    1  A    between atoms: C_6  and  C_10
REMARK    2  A    between atoms: C_14  and  O_18
REMARK    3  A    between atoms: N_17  and  N_20
REMARK    4  A    between atoms: N_20  and  C_23
REMARK    5  A    between atoms: C_23  and  C_26
REMARK                            x       y       z     vdW  Elec       q    Type
REMARK                         _______ _______ _______ _____ _____    ______ ____
ROOT
ATOM      1  C   UNL     1     -12.521  54.276  49.585  0.00  0.00    +0.000 A 
ATOM      2  C   UNL     1     -12.028  54.236  48.176  0.00  0.00    +0.000 A 
ATOM      3  C   UNL     1     -12.220  53.282  50.437  0.00  0.00    +0.000 A 
ATOM      4  O   UNL     1     -12.349  55.168  47.432  0.00  0.00    +0.000 OA
ATOM      5  N   UNL     1     -11.218  53.165  47.789  0.00  0.00    +0.000 N 
ATOM      6  C   UNL     1     -11.373  52.159  50.012  0.00  0.00    +0.000 A 
ATOM      7  C   UNL     1     -10.885  52.111  48.694  0.00  0.00    +0.000 A 
ATOM      8  C   UNL     1     -11.033  51.133  50.911  0.00  0.00    +0.000 A 
ATOM      9  C   UNL     1     -10.078  51.030  48.303  0.00  0.00    +0.000 A 
ATOM     10  C   UNL     1     -10.216  50.072  50.516  0.00  0.00    +0.000 A 
ATOM     11  C   UNL     1      -9.742  50.021  49.210  0.00  0.00    +0.000 A 
ENDROOT
BRANCH   1  17
ATOM     12  S   UNL     1     -15.372  56.453  51.187  0.00  0.00    +0.000 S 
ATOM     13  O   UNL     1     -15.257  56.553  52.628  0.00  0.00    +0.000 OA
ATOM     14  O   UNL     1     -16.671  56.270  50.569  0.00  0.00    +0.000 OA
ATOM     15  N   UNL     1     -14.411  55.245  50.693  0.00  0.00    +0.000 N 
ATOM     16  C   UNL     1     -14.741  57.962  50.547  0.00  0.00    +0.000 A 
ATOM     17  C   UNL     1     -13.315  55.486  50.037  0.00  0.00    +0.000 C 
ATOM     18  C   UNL     1     -13.535  57.922  49.868  0.00  0.00    +0.000 A 
ATOM     19  C   UNL     1     -15.458  59.149  50.718  0.00  0.00    +0.000 A 
ATOM     20  N   UNL     1     -12.824  56.735  49.719  0.00  0.00    +0.000 N 
ATOM     21  C   UNL     1     -12.997  59.130  49.408  0.00  0.00    +0.000 A 
ATOM     22  C   UNL     1     -14.929  60.338  50.222  0.00  0.00    +0.000 A 
ATOM     23  C   UNL     1     -13.694  60.331  49.575  0.00  0.00    +0.000 A 
ATOM     24  H   UNL     1     -14.661  54.314  50.894  0.00  0.00    +0.000 HD
ATOM     25  H   UNL     1     -11.908  56.791  49.363  0.00  0.00    +0.000 HD
ENDBRANCH   1  17
BRANCH   3  26
ATOM     26  O   UNL     1     -12.638  53.234  51.756  0.00  0.00    +0.000 OA
ATOM     27  H   UNL     1     -12.018  53.353  52.448  0.00  0.00    +0.000 HD
ENDBRANCH   3  26
BRANCH   5  28
ATOM     28  N   UNL     1     -10.784  53.036  46.425  0.00  0.00    +0.000 N 
ATOM     29  H   UNL     1     -11.043  52.276  45.856  0.00  0.00    +0.000 HD
BRANCH  28  30
ATOM     30  C   UNL     1      -9.926  54.127  45.941  0.00  0.00    +0.000 C 
BRANCH  30  31
ATOM     31  C   UNL     1      -8.631  54.155  46.698  0.00  0.00    +0.000 A 
ATOM     32  S   UNL     1      -7.412  52.994  46.360  0.00  0.00    +0.000 S 
ATOM     33  C   UNL     1      -8.218  55.056  47.660  0.00  0.00    +0.000 A 
ATOM     34  C   UNL     1      -6.340  53.699  47.487  0.00  0.00    +0.000 A 
ATOM     35  C   UNL     1      -6.895  54.791  48.117  0.00  0.00    +0.000 A 
ENDBRANCH  30  31
ENDBRANCH  28  30
ENDBRANCH   5  28
TORSDOF 5
ENDMDL
MODEL 5
REMARK VINA RESULT:      -8.2      2.196      2.515
REMARK  Name = 
REMARK  5 active torsions:
REMARK  status: ('A' for Active; 'I' for Inactive)
REMARK    1  A    between atoms: C_6  and  C_10
REMARK    2  A    between atoms: C_14  and  O_18
REMARK    3  A    between atoms: N_17  and  N_20
REMARK    4  A    between atoms: N_20  and  C_23
REMARK    5  A    between atoms: C_23  and  C_26
REMARK                            x       y       z     vdW  Elec       q    Type
REMARK                         _______ _______ _______ _____ _____    ______ ____
ROOT
ATOM      1  C   UNL     1     -11.178  54.617  50.859  0.00  0.00    +0.000 A 
ATOM      2  C   UNL     1      -9.781  55.010  50.506  0.00  0.00    +0.000 A 
ATOM      3  C   UNL     1     -11.443  53.374  51.297  0.00  0.00    +0.000 A 
ATOM      4  O   UNL     1      -9.599  56.159  50.093  0.00  0.00    +0.000 OA
ATOM      5  N   UNL     1      -8.764  54.068  50.684  0.00  0.00    +0.000 N 
ATOM      6  C   UNL     1     -10.362  52.394  51.472  0.00  0.00    +0.000 A 
ATOM      7  C   UNL     1      -9.038  52.749  51.160  0.00  0.00    +0.000 A 
ATOM      8  C   UNL     1     -10.634  51.102  51.958  0.00  0.00    +0.000 A 
ATOM      9  C   UNL     1      -8.017  51.800  51.331  0.00  0.00    +0.000 A 
ATOM     10  C   UNL     1      -9.609  50.173  52.139  0.00  0.00    +0.000 A 
ATOM     11  C   UNL     1      -8.301  50.522  51.822  0.00  0.00    +0.000 A 
ENDROOT
BRANCH   1  17
ATOM     12  S   UNL     1     -13.629  57.293  49.353  0.00  0.00    +0.000 S 
ATOM     13  O   UNL     1     -14.771  56.695  48.692  0.00  0.00    +0.000 OA
ATOM     14  O   UNL     1     -12.961  58.438  48.767  0.00  0.00    +0.000 OA
ATOM     15  N   UNL     1     -12.520  56.132  49.578  0.00  0.00    +0.000 N 
ATOM     16  C   UNL     1     -14.205  57.822  50.925  0.00  0.00    +0.000 A 
ATOM     17  C   UNL     1     -12.269  55.666  50.764  0.00  0.00    +0.000 C 
ATOM     18  C   UNL     1     -13.757  57.137  52.042  0.00  0.00    +0.000 A 
ATOM     19  C   UNL     1     -15.077  58.909  51.021  0.00  0.00    +0.000 A 
ATOM     20  N   UNL     1     -12.900  56.046  51.930  0.00  0.00    +0.000 N 
ATOM     21  C   UNL     1     -14.259  57.516  53.294  0.00  0.00    +0.000 A 
ATOM     22  C   UNL     1     -15.540  59.299  52.277  0.00  0.00    +0.000 A 
ATOM     23  C   UNL     1     -15.138  58.596  53.412  0.00  0.00    +0.000 A 
ATOM     24  H   UNL     1     -12.030  55.774  48.803  0.00  0.00    +0.000 HD
ATOM     25  H   UNL     1     -12.735  55.508  52.739  0.00  0.00    +0.000 HD
ENDBRANCH   1  17
BRANCH   3  26
ATOM     26  O   UNL     1     -12.705  52.923  51.641  0.00  0.00    +0.000 OA
ATOM     27  H   UNL     1     -13.447  53.171  51.127  0.00  0.00    +0.000 HD
ENDBRANCH   3  26
BRANCH   5  28
ATOM     28  N   UNL     1      -7.417  54.367  50.284  0.00  0.00    +0.000 N 
ATOM     29  H   UNL     1      -6.961  53.885  49.557  0.00  0.00    +0.000 HD
BRANCH  28  30
ATOM     30  C   UNL     1      -6.771  55.449  51.040  0.00  0.00    +0.000 C 
BRANCH  30  31
ATOM     31  C   UNL     1      -6.462  55.005  52.439  0.00  0.00    +0.000 A 
ATOM     32  S   UNL     1      -5.101  54.002  52.742  0.00  0.00    +0.000 S 
ATOM     33  C   UNL     1      -7.120  55.330  53.609  0.00  0.00    +0.000 A 
ATOM     34  C   UNL     1      -5.388  54.014  54.426  0.00  0.00    +0.000 A 
ATOM     35  C   UNL     1      -6.500  54.757  54.756  0.00  0.00    +0.000 A 
ENDBRANCH  30  31
ENDBRANCH  28  30
ENDBRANCH   5  28
TORSDOF 5
ENDMDL
MODEL 6
REMARK VINA RESULT:      -8.2      4.306      5.251
REMARK  Name = 
REMARK  5 active torsions:
REMARK  status: ('A' for Active; 'I' for Inactive)
REMARK    1  A    between atoms: C_6  and  C_10
REMARK    2  A    between atoms: C_14  and  O_18
REMARK    3  A    between atoms: N_17  and  N_20
REMARK    4  A    between atoms: N_20  and  C_23
REMARK    5  A    between atoms: C_23  and  C_26
REMARK                            x       y       z     vdW  Elec       q    Type
REMARK                         _______ _______ _______ _____ _____    ______ ____
ROOT
ATOM      1  C   UNL     1     -12.267  54.299  50.080  0.00  0.00    +0.000 A 
ATOM      2  C   UNL     1     -11.946  53.989  48.654  0.00  0.00    +0.000 A 
ATOM      3  C   UNL     1     -11.754  53.546  51.069  0.00  0.00    +0.000 A 
ATOM      4  O   UNL     1     -12.458  54.704  47.787  0.00  0.00    +0.000 OA
ATOM      5  N   UNL     1     -11.073  52.931  48.387  0.00  0.00    +0.000 N 
ATOM      6  C   UNL     1     -10.843  52.433  50.769  0.00  0.00    +0.000 A 
ATOM      7  C   UNL     1     -10.517  52.135  49.434  0.00  0.00    +0.000 A 
ATOM      8  C   UNL     1     -10.283  51.663  51.804  0.00  0.00    +0.000 A 
ATOM      9  C   UNL     1      -9.646  51.067  49.166  0.00  0.00    +0.000 A 
ATOM     10  C   UNL     1      -9.406  50.614  51.526  0.00  0.00    +0.000 A 
ATOM     11  C   UNL     1      -9.091  50.314  50.205  0.00  0.00    +0.000 A 
ENDROOT
BRANCH   1  17
ATOM     12  S   UNL     1     -15.307  56.477  51.284  0.00  0.00    +0.000 S 
ATOM     13  O   UNL     1     -15.318  56.677  52.718  0.00  0.00    +0.000 OA
ATOM     14  O   UNL     1     -16.541  56.207  50.574  0.00  0.00    +0.000 OA
ATOM     15  N   UNL     1     -14.272  55.273  50.957  0.00  0.00    +0.000 N 
ATOM     16  C   UNL     1     -14.667  57.960  50.595  0.00  0.00    +0.000 A 
ATOM     17  C   UNL     1     -13.131  55.508  50.379  0.00  0.00    +0.000 C 
ATOM     18  C   UNL     1     -13.407  57.918  50.024  0.00  0.00    +0.000 A 
ATOM     19  C   UNL     1     -15.430  59.130  50.623  0.00  0.00    +0.000 A 
ATOM     20  N   UNL     1     -12.651  56.749  50.017  0.00  0.00    +0.000 N 
ATOM     21  C   UNL     1     -12.867  59.111  49.527  0.00  0.00    +0.000 A 
ATOM     22  C   UNL     1     -14.895  60.302  50.091  0.00  0.00    +0.000 A 
ATOM     23  C   UNL     1     -13.610  60.295  49.552  0.00  0.00    +0.000 A 
ATOM     24  H   UNL     1     -14.511  54.349  51.200  0.00  0.00    +0.000 HD
ATOM     25  H   UNL     1     -11.710  56.814  49.736  0.00  0.00    +0.000 HD
ENDBRANCH   1  17
BRANCH   3  26
ATOM     26  O   UNL     1     -12.001  53.757  52.414  0.00  0.00    +0.000 OA
ATOM     27  H   UNL     1     -12.150  53.027  52.982  0.00  0.00    +0.000 HD
ENDBRANCH   3  26
BRANCH   5  28
ATOM     28  N   UNL     1     -10.796  52.541  47.032  0.00  0.00    +0.000 N 
ATOM     29  H   UNL     1     -11.272  51.805  46.585  0.00  0.00    +0.000 HD
BRANCH  28  30
ATOM     30  C   UNL     1      -9.750  53.326  46.361  0.00  0.00    +0.000 C 
BRANCH  30  31
ATOM     31  C   UNL     1      -9.590  52.884  44.937  0.00  0.00    +0.000 A 
ATOM     32  S   UNL     1     -10.697  51.762  44.255  0.00  0.00    +0.000 S 
ATOM     33  C   UNL     1      -8.654  53.297  44.009  0.00  0.00    +0.000 A 
ATOM     34  C   UNL     1      -9.932  51.838  42.729  0.00  0.00    +0.000 A 
ATOM     35  C   UNL     1      -8.851  52.691  42.735  0.00  0.00    +0.000 A 
ENDBRANCH  30  31
ENDBRANCH  28  30
ENDBRANCH   5  28
TORSDOF 5
ENDMDL
MODEL 7
REMARK VINA RESULT:      -8.1      2.027      2.705
REMARK  Name = 
REMARK  5 active torsions:
REMARK  status: ('A' for Active; 'I' for Inactive)
REMARK    1  A    between atoms: C_6  and  C_10
REMARK    2  A    between atoms: C_14  and  O_18
REMARK    3  A    between atoms: N_17  and  N_20
REMARK    4  A    between atoms: N_20  and  C_23
REMARK    5  A    between atoms: C_23  and  C_26
REMARK                            x       y       z     vdW  Elec       q    Type
REMARK                         _______ _______ _______ _____ _____    ______ ____
ROOT
ATOM      1  C   UNL     1     -11.671  54.096  51.329  0.00  0.00    +0.000 A 
ATOM      2  C   UNL     1     -10.767  54.166  52.516  0.00  0.00    +0.000 A 
ATOM      3  C   UNL     1     -11.747  52.969  50.600  0.00  0.00    +0.000 A 
ATOM      4  O   UNL     1     -10.726  55.232  53.139  0.00  0.00    +0.000 OA
ATOM      5  N   UNL     1     -10.044  53.022  52.866  0.00  0.00    +0.000 N 
ATOM      6  C   UNL     1     -10.973  51.778  50.978  0.00  0.00    +0.000 A 
ATOM      7  C   UNL     1     -10.129  51.819  52.102  0.00  0.00    +0.000 A 
ATOM      8  C   UNL     1     -11.074  50.589  50.234  0.00  0.00    +0.000 A 
ATOM      9  C   UNL     1      -9.396  50.672  52.448  0.00  0.00    +0.000 A 
ATOM     10  C   UNL     1     -10.353  49.451  50.597  0.00  0.00    +0.000 A 
ATOM     11  C   UNL     1      -9.511  49.495  51.703  0.00  0.00    +0.000 A 
ENDROOT
BRANCH   1  17
ATOM     12  S   UNL     1     -13.347  57.024  49.316  0.00  0.00    +0.000 S 
ATOM     13  O   UNL     1     -14.454  56.577  48.496  0.00  0.00    +0.000 OA
ATOM     14  O   UNL     1     -12.406  58.001  48.805  0.00  0.00    +0.000 OA
ATOM     15  N   UNL     1     -12.507  55.716  49.775  0.00  0.00    +0.000 N 
ATOM     16  C   UNL     1     -14.068  57.749  50.744  0.00  0.00    +0.000 A 
ATOM     17  C   UNL     1     -12.534  55.300  51.006  0.00  0.00    +0.000 C 
ATOM     18  C   UNL     1     -13.930  57.081  51.949  0.00  0.00    +0.000 A 
ATOM     19  C   UNL     1     -14.743  58.969  50.645  0.00  0.00    +0.000 A 
ATOM     20  N   UNL     1     -13.269  55.859  52.030  0.00  0.00    +0.000 N 
ATOM     21  C   UNL     1     -14.554  57.623  53.080  0.00  0.00    +0.000 A 
ATOM     22  C   UNL     1     -15.327  59.516  51.786  0.00  0.00    +0.000 A 
ATOM     23  C   UNL     1     -15.241  58.839  53.001  0.00  0.00    +0.000 A 
ATOM     24  H   UNL     1     -11.968  55.229  49.111  0.00  0.00    +0.000 HD
ATOM     25  H   UNL     1     -13.332  55.360  52.877  0.00  0.00    +0.000 HD
ENDBRANCH   1  17
BRANCH   3  26
ATOM     26  O   UNL     1     -12.551  52.817  49.485  0.00  0.00    +0.000 OA
ATOM     27  H   UNL     1     -12.436  53.379  48.745  0.00  0.00    +0.000 HD
ENDBRANCH   3  26
BRANCH   5  28
ATOM     28  N   UNL     1      -9.101  53.062  53.949  0.00  0.00    +0.000 N 
ATOM     29  H   UNL     1      -9.260  52.608  54.807  0.00  0.00    +0.000 HD
BRANCH  28  30
ATOM     30  C   UNL     1      -7.877  53.830  53.679  0.00  0.00    +0.000 C 
BRANCH  30  31
ATOM     31  C   UNL     1      -6.725  52.910  53.403  0.00  0.00    +0.000 A 
ATOM     32  S   UNL     1      -6.166  52.690  51.795  0.00  0.00    +0.000 S 
ATOM     33  C   UNL     1      -5.963  52.194  54.305  0.00  0.00    +0.000 A 
ATOM     34  C   UNL     1      -4.908  51.653  52.307  0.00  0.00    +0.000 A 
ATOM     35  C   UNL     1      -4.915  51.467  53.671  0.00  0.00    +0.000 A 
ENDBRANCH  30  31
ENDBRANCH  28  30
ENDBRANCH   5  28
TORSDOF 5
ENDMDL
MODEL 8
REMARK VINA RESULT:      -8.1      3.618      7.392
REMARK  Name = 
REMARK  5 active torsions:
REMARK  status: ('A' for Active; 'I' for Inactive)
REMARK    1  A    between atoms: C_6  and  C_10
REMARK    2  A    between atoms: C_14  and  O_18
REMARK    3  A    between atoms: N_17  and  N_20
REMARK    4  A    between atoms: N_20  and  C_23
REMARK    5  A    between atoms: C_23  and  C_26
REMARK                            x       y       z     vdW  Elec       q    Type
REMARK                         _______ _______ _______ _____ _____    ______ ____
ROOT
ATOM      1  C   UNL     1     -10.366  55.178  50.871  0.00  0.00    +0.000 A 
ATOM      2  C   UNL     1     -10.017  55.083  49.422  0.00  0.00    +0.000 A 
ATOM      3  C   UNL     1     -11.548  55.692  51.251  0.00  0.00    +0.000 A 
ATOM      4  O   UNL     1      -8.910  54.617  49.131  0.00  0.00    +0.000 OA
ATOM      5  N   UNL     1     -10.965  55.500  48.484  0.00  0.00    +0.000 N 
ATOM      6  C   UNL     1     -12.531  56.133  50.252  0.00  0.00    +0.000 A 
ATOM      7  C   UNL     1     -12.227  56.036  48.882  0.00  0.00    +0.000 A 
ATOM      8  C   UNL     1     -13.780  56.643  50.647  0.00  0.00    +0.000 A 
ATOM      9  C   UNL     1     -13.178  56.463  47.940  0.00  0.00    +0.000 A 
ATOM     10  C   UNL     1     -14.723  57.049  49.701  0.00  0.00    +0.000 A 
ATOM     11  C   UNL     1     -14.418  56.962  48.347  0.00  0.00    +0.000 A 
ENDROOT
BRANCH   1  17
ATOM     12  S   UNL     1      -7.067  54.693  52.949  0.00  0.00    +0.000 S 
ATOM     13  O   UNL     1      -6.922  55.673  54.005  0.00  0.00    +0.000 OA
ATOM     14  O   UNL     1      -5.921  54.302  52.152  0.00  0.00    +0.000 OA
ATOM     15  N   UNL     1      -8.222  55.215  51.939  0.00  0.00    +0.000 N 
ATOM     16  C   UNL     1      -7.636  53.225  53.729  0.00  0.00    +0.000 A 
ATOM     17  C   UNL     1      -9.382  54.632  51.888  0.00  0.00    +0.000 C 
ATOM     18  C   UNL     1      -8.938  52.825  53.483  0.00  0.00    +0.000 A 
ATOM     19  C   UNL     1      -6.779  52.496  54.557  0.00  0.00    +0.000 A 
ATOM     20  N   UNL     1      -9.786  53.570  52.669  0.00  0.00    +0.000 N 
ATOM     21  C   UNL     1      -9.416  51.689  54.149  0.00  0.00    +0.000 A 
ATOM     22  C   UNL     1      -7.256  51.347  55.184  0.00  0.00    +0.000 A 
ATOM     23  C   UNL     1      -8.578  50.949  54.988  0.00  0.00    +0.000 A 
ATOM     24  H   UNL     1      -8.041  55.987  51.354  0.00  0.00    +0.000 HD
ATOM     25  H   UNL     1     -10.738  53.321  52.650  0.00  0.00    +0.000 HD
ENDBRANCH   1  17
BRANCH   3  26
ATOM     26  O   UNL     1     -11.952  55.823  52.568  0.00  0.00    +0.000 OA
ATOM     27  H   UNL     1     -11.610  55.247  53.222  0.00  0.00    +0.000 HD
ENDBRANCH   3  26
BRANCH   5  28
ATOM     28  N   UNL     1     -10.649  55.505  47.082  0.00  0.00    +0.000 N 
ATOM     29  H   UNL     1      -9.979  56.112  46.692  0.00  0.00    +0.000 HD
BRANCH  28  30
ATOM     30  C   UNL     1     -11.399  54.534  46.273  0.00  0.00    +0.000 C 
BRANCH  30  31
ATOM     31  C   UNL     1     -10.485  53.819  45.323  0.00  0.00    +0.000 A 
ATOM     32  S   UNL     1      -8.782  53.958  45.500  0.00  0.00    +0.000 S 
ATOM     33  C   UNL     1     -10.817  52.974  44.282  0.00  0.00    +0.000 A 
ATOM     34  C   UNL     1      -8.496  52.888  44.199  0.00  0.00    +0.000 A 
ATOM     35  C   UNL     1      -9.668  52.438  43.633  0.00  0.00    +0.000 A 
ENDBRANCH  30  31
ENDBRANCH  28  30
ENDBRANCH   5  28
TORSDOF 5
ENDMDL
MODEL 9
REMARK VINA RESULT:      -8.0      4.531      7.362
REMARK  Name = 
REMARK  5 active torsions:
REMARK  status: ('A' for Active; 'I' for Inactive)
REMARK    1  A    between atoms: C_6  and  C_10
REMARK    2  A    between atoms: C_14  and  O_18
REMARK    3  A    between atoms: N_17  and  N_20
REMARK    4  A    between atoms: N_20  and  C_23
REMARK    5  A    between atoms: C_23  and  C_26
REMARK                            x       y       z     vdW  Elec       q    Type
REMARK                         _______ _______ _______ _____ _____    ______ ____
ROOT
ATOM      1  C   UNL     1     -11.272  54.719  48.352  0.00  0.00    +0.000 A 
ATOM      2  C   UNL     1     -11.088  54.220  49.747  0.00  0.00    +0.000 A 
ATOM      3  C   UNL     1     -12.134  55.719  48.097  0.00  0.00    +0.000 A 
ATOM      4  O   UNL     1     -10.296  53.289  49.920  0.00  0.00    +0.000 OA
ATOM      5  N   UNL     1     -11.801  54.847  50.773  0.00  0.00    +0.000 N 
ATOM      6  C   UNL     1     -12.881  56.362  49.187  0.00  0.00    +0.000 A 
ATOM      7  C   UNL     1     -12.709  55.917  50.510  0.00  0.00    +0.000 A 
ATOM      8  C   UNL     1     -13.761  57.427  48.927  0.00  0.00    +0.000 A 
ATOM      9  C   UNL     1     -13.432  56.542  51.540  0.00  0.00    +0.000 A 
ATOM     10  C   UNL     1     -14.461  58.051  49.960  0.00  0.00    +0.000 A 
ATOM     11  C   UNL     1     -14.298  57.604  51.267  0.00  0.00    +0.000 A 
ENDROOT
BRANCH   1  17
ATOM     12  S   UNL     1      -8.189  53.945  46.043  0.00  0.00    +0.000 S 
ATOM     13  O   UNL     1      -7.251  53.024  46.653  0.00  0.00    +0.000 OA
ATOM     14  O   UNL     1      -7.708  55.092  45.299  0.00  0.00    +0.000 OA
ATOM     15  N   UNL     1      -9.182  54.485  47.204  0.00  0.00    +0.000 N 
ATOM     16  C   UNL     1      -9.130  52.992  44.907  0.00  0.00    +0.000 A 
ATOM     17  C   UNL     1     -10.426  54.112  47.250  0.00  0.00    +0.000 C 
ATOM     18  C   UNL     1     -10.460  52.753  45.210  0.00  0.00    +0.000 A 
ATOM     19  C   UNL     1      -8.538  52.513  43.736  0.00  0.00    +0.000 A 
ATOM     20  N   UNL     1     -11.033  53.223  46.388  0.00  0.00    +0.000 N 
ATOM     21  C   UNL     1     -11.200  51.944  44.338  0.00  0.00    +0.000 A 
ATOM     22  C   UNL     1      -9.296  51.741  42.859  0.00  0.00    +0.000 A 
ATOM     23  C   UNL     1     -10.625  51.448  43.165  0.00  0.00    +0.000 A 
ATOM     24  H   UNL     1      -8.838  55.107  47.886  0.00  0.00    +0.000 HD
ATOM     25  H   UNL     1     -11.933  52.897  46.621  0.00  0.00    +0.000 HD
ENDBRANCH   1  17
BRANCH   3  26
ATOM     26  O   UNL     1     -12.371  56.240  46.837  0.00  0.00    +0.000 OA
ATOM     27  H   UNL     1     -13.237  56.226  46.481  0.00  0.00    +0.000 HD
ENDBRANCH   3  26
BRANCH   5  28
ATOM     28  N   UNL     1     -11.722  54.353  52.120  0.00  0.00    +0.000 N 
ATOM     29  H   UNL     1     -12.417  53.780  52.516  0.00  0.00    +0.000 HD
BRANCH  28  30
ATOM     30  C   UNL     1     -10.524  54.768  52.864  0.00  0.00    +0.000 C 
BRANCH  30  31
ATOM     31  C   UNL     1      -9.783  53.570  53.382  0.00  0.00    +0.000 A 
ATOM     32  S   UNL     1      -8.068  53.523  53.309  0.00  0.00    +0.000 S 
ATOM     33  C   UNL     1     -10.294  52.440  53.988  0.00  0.00    +0.000 A 
ATOM     34  C   UNL     1      -8.013  52.005  54.092  0.00  0.00    +0.000 A 
ATOM     35  C   UNL     1      -9.271  51.536  54.397  0.00  0.00    +0.000 A 
ENDBRANCH  30  31
ENDBRANCH  28  30
ENDBRANCH   5  28
TORSDOF 5
ENDMDL
