MODEL 1
REMARK VINA RESULT:      -9.0      0.000      0.000
REMARK  Name = 
REMARK  5 active torsions:
REMARK  status: ('A' for Active; 'I' for Inactive)
REMARK    1  A    between atoms: C_5  and  C_7
REMARK    2  A    between atoms: C_7  and  N_8
REMARK    3  A    between atoms: N_8  and  N_9
REMARK    4  A    between atoms: C_13  and  C_16
REMARK    5  A    between atoms: C_17  and  O_22
REMARK                            x       y       z     vdW  Elec       q    Type
REMARK                         _______ _______ _______ _____ _____    ______ ____
ROOT
ATOM      1  N   UNL     1     -10.224  54.343  49.157  0.00  0.00    +0.000 N 
ATOM      2  C   UNL     1     -11.018  55.217  49.901  0.00  0.00    +0.000 A 
ATOM      3  C   UNL     1     -10.299  52.932  49.360  0.00  0.00    +0.000 A 
ATOM      4  O   UNL     1     -10.862  56.437  49.914  0.00  0.00    +0.000 OA
ATOM      5  C   UNL     1     -12.130  54.611  50.702  0.00  0.00    +0.000 A 
ATOM      6  C   UNL     1     -11.121  52.427  50.382  0.00  0.00    +0.000 A 
ATOM      7  C   UNL     1      -9.608  52.036  48.530  0.00  0.00    +0.000 A 
ATOM      8  C   UNL     1     -12.032  53.331  51.098  0.00  0.00    +0.000 A 
ATOM      9  C   UNL     1     -11.222  51.038  50.566  0.00  0.00    +0.000 A 
ATOM     10  C   UNL     1      -9.771  50.659  48.681  0.00  0.00    +0.000 A 
ATOM     11  C   UNL     1     -10.571  50.160  49.703  0.00  0.00    +0.000 A 
ENDROOT
BRANCH   5  12
ATOM     12  C   UNL     1     -13.294  55.470  51.113  0.00  0.00    +0.000 C 
ATOM     13  N   UNL     1     -13.184  56.285  52.140  0.00  0.00    +0.000 N 
ATOM     14  N   UNL     1     -14.450  55.451  50.340  0.00  0.00    +0.000 N 
ATOM     15  S   UNL     1     -14.446  57.323  52.353  0.00  0.00    +0.000 S 
ATOM     16  C   UNL     1     -14.615  56.748  49.777  0.00  0.00    +0.000 A 
ATOM     17  O   UNL     1     -13.969  58.488  53.070  0.00  0.00    +0.000 OA
ATOM     18  O   UNL     1     -15.611  56.579  52.792  0.00  0.00    +0.000 OA
ATOM     19  C   UNL     1     -14.748  57.820  50.668  0.00  0.00    +0.000 A 
ATOM     20  C   UNL     1     -14.190  56.983  48.473  0.00  0.00    +0.000 A 
ATOM     21  C   UNL     1     -14.594  59.135  50.253  0.00  0.00    +0.000 A 
ATOM     22  C   UNL     1     -13.946  58.291  48.065  0.00  0.00    +0.000 A 
ATOM     23  C   UNL     1     -14.179  59.362  48.939  0.00  0.00    +0.000 A 
ATOM     24  H   UNL     1     -12.402  56.276  52.739  0.00  0.00    +0.000 HD
ATOM     25  H   UNL     1     -15.046  54.680  50.206  0.00  0.00    +0.000 HD
ENDBRANCH   5  12
BRANCH   1  26
ATOM     26  N   UNL     1      -9.480  54.800  48.016  0.00  0.00    +0.000 N 
ATOM     27  H   UNL     1      -8.496  54.785  48.013  0.00  0.00    +0.000 HD
BRANCH  26  28
ATOM     28  C   UNL     1     -10.234  55.291  46.856  0.00  0.00    +0.000 C 
BRANCH  28  33
ATOM     29 CL   UNL     1      -8.319  51.835  42.981  0.00  0.00    +0.000 Cl
ATOM     30  C   UNL     1      -9.318  52.732  44.049  0.00  0.00    +0.000 A 
ATOM     31  S   UNL     1      -8.612  53.765  45.181  0.00  0.00    +0.000 S 
ATOM     32  C   UNL     1     -10.688  52.720  44.100  0.00  0.00    +0.000 A 
ATOM     33  C   UNL     1     -10.154  54.255  45.770  0.00  0.00    +0.000 A 
ATOM     34  C   UNL     1     -11.178  53.603  45.108  0.00  0.00    +0.000 A 
ENDBRANCH  28  33
ENDBRANCH  26  28
ENDBRANCH   1  26
BRANCH   8  35
ATOM     35  O   UNL     1     -12.842  52.729  52.042  0.00  0.00    +0.000 OA
ATOM     36  H   UNL     1     -13.275  53.250  52.689  0.00  0.00    +0.000 HD
ENDBRANCH   8  35
TORSDOF 5
ENDMDL
MODEL 2
REMARK VINA RESULT:      -8.7      2.501      5.599
REMARK  Name = 
REMARK  5 active torsions:
REMARK  status: ('A' for Active; 'I' for Inactive)
REMARK    1  A    between atoms: C_5  and  C_7
REMARK    2  A    between atoms: C_7  and  N_8
REMARK    3  A    between atoms: N_8  and  N_9
REMARK    4  A    between atoms: C_13  and  C_16
REMARK    5  A    between atoms: C_17  and  O_22
REMARK                            x       y       z     vdW  Elec       q    Type
REMARK                         _______ _______ _______ _____ _____    ______ ____
ROOT
ATOM      1  N   UNL     1     -12.967  55.861  48.773  0.00  0.00    +0.000 N 
ATOM      2  C   UNL     1     -12.555  54.873  49.668  0.00  0.00    +0.000 A 
ATOM      3  C   UNL     1     -13.504  57.097  49.242  0.00  0.00    +0.000 A 
ATOM      4  O   UNL     1     -12.270  53.724  49.333  0.00  0.00    +0.000 OA
ATOM      5  C   UNL     1     -12.439  55.266  51.109  0.00  0.00    +0.000 A 
ATOM      6  C   UNL     1     -13.698  57.283  50.622  0.00  0.00    +0.000 A 
ATOM      7  C   UNL     1     -13.797  58.148  48.361  0.00  0.00    +0.000 A 
ATOM      8  C   UNL     1     -13.175  56.291  51.571  0.00  0.00    +0.000 A 
ATOM      9  C   UNL     1     -14.198  58.509  51.091  0.00  0.00    +0.000 A 
ATOM     10  C   UNL     1     -14.228  59.383  48.847  0.00  0.00    +0.000 A 
ATOM     11  C   UNL     1     -14.436  59.561  50.210  0.00  0.00    +0.000 A 
ENDROOT
BRANCH   5  12
ATOM     12  C   UNL     1     -11.563  54.457  52.025  0.00  0.00    +0.000 C 
ATOM     13  N   UNL     1     -11.614  53.143  51.999  0.00  0.00    +0.000 N 
ATOM     14  N   UNL     1     -10.641  55.117  52.831  0.00  0.00    +0.000 N 
ATOM     15  S   UNL     1     -10.457  52.375  52.888  0.00  0.00    +0.000 S 
ATOM     16  C   UNL     1      -9.339  54.724  52.412  0.00  0.00    +0.000 A 
ATOM     17  O   UNL     1     -10.247  51.056  52.328  0.00  0.00    +0.000 OA
ATOM     18  O   UNL     1     -10.726  52.574  54.299  0.00  0.00    +0.000 OA
ATOM     19  C   UNL     1      -9.028  53.361  52.484  0.00  0.00    +0.000 A 
ATOM     20  C   UNL     1      -8.623  55.551  51.551  0.00  0.00    +0.000 A 
ATOM     21  C   UNL     1      -7.935  52.827  51.817  0.00  0.00    +0.000 A 
ATOM     22  C   UNL     1      -7.577  55.012  50.808  0.00  0.00    +0.000 A 
ATOM     23  C   UNL     1      -7.214  53.667  50.966  0.00  0.00    +0.000 A 
ATOM     24  H   UNL     1     -12.295  52.652  51.485  0.00  0.00    +0.000 HD
ATOM     25  H   UNL     1     -10.851  55.744  53.560  0.00  0.00    +0.000 HD
ENDBRANCH   5  12
BRANCH   1  26
ATOM     26  N   UNL     1     -12.660  55.771  47.372  0.00  0.00    +0.000 N 
ATOM     27  H   UNL     1     -13.373  55.660  46.703  0.00  0.00    +0.000 HD
BRANCH  26  28
ATOM     28  C   UNL     1     -11.250  55.851  46.971  0.00  0.00    +0.000 C 
BRANCH  28  33
ATOM     29 CL   UNL     1      -8.546  51.948  44.128  0.00  0.00    +0.000 Cl
ATOM     30  C   UNL     1      -9.753  52.939  44.840  0.00  0.00    +0.000 A 
ATOM     31  S   UNL     1      -9.299  54.184  45.885  0.00  0.00    +0.000 S 
ATOM     32  C   UNL     1     -11.108  52.846  44.655  0.00  0.00    +0.000 A 
ATOM     33  C   UNL     1     -10.939  54.661  46.107  0.00  0.00    +0.000 A 
ATOM     34  C   UNL     1     -11.802  53.847  45.398  0.00  0.00    +0.000 A 
ENDBRANCH  28  33
ENDBRANCH  26  28
ENDBRANCH   1  26
BRANCH   8  35
ATOM     35  O   UNL     1     -13.363  56.593  52.907  0.00  0.00    +0.000 OA
ATOM     36  H   UNL     1     -13.282  55.922  53.555  0.00  0.00    +0.000 HD
ENDBRANCH   8  35
TORSDOF 5
ENDMDL
MODEL 3
REMARK VINA RESULT:      -8.7      4.740      7.776
REMARK  Name = 
REMARK  5 active torsions:
REMARK  status: ('A' for Active; 'I' for Inactive)
REMARK    1  A    between atoms: C_5  and  C_7
REMARK    2  A    between atoms: C_7  and  N_8
REMARK    3  A    between atoms: N_8  and  N_9
REMARK    4  A    between atoms: C_13  and  C_16
REMARK    5  A    between atoms: C_17  and  O_22
REMARK                            x       y       z     vdW  Elec       q    Type
REMARK                         _______ _______ _______ _____ _____    ______ ____
ROOT
ATOM      1  N   UNL     1     -11.527  55.645  49.992  0.00  0.00    +0.000 N 
ATOM      2  C   UNL     1     -10.978  55.328  51.235  0.00  0.00    +0.000 A 
ATOM      3  C   UNL     1     -10.755  55.528  48.798  0.00  0.00    +0.000 A 
ATOM      4  O   UNL     1     -11.520  55.592  52.308  0.00  0.00    +0.000 OA
ATOM      5  C   UNL     1      -9.667  54.606  51.235  0.00  0.00    +0.000 A 
ATOM      6  C   UNL     1      -9.399  55.169  48.889  0.00  0.00    +0.000 A 
ATOM      7  C   UNL     1     -11.331  55.714  47.533  0.00  0.00    +0.000 A 
ATOM      8  C   UNL     1      -8.844  54.738  50.180  0.00  0.00    +0.000 A 
ATOM      9  C   UNL     1      -8.642  55.022  47.715  0.00  0.00    +0.000 A 
ATOM     10  C   UNL     1     -10.585  55.498  46.374  0.00  0.00    +0.000 A 
ATOM     11  C   UNL     1      -9.240  55.160  46.464  0.00  0.00    +0.000 A 
ENDROOT
BRANCH   5  12
ATOM     12  C   UNL     1      -9.261  53.813  52.446  0.00  0.00    +0.000 C 
ATOM     13  N   UNL     1      -8.887  52.558  52.321  0.00  0.00    +0.000 N 
ATOM     14  N   UNL     1      -9.205  54.452  53.681  0.00  0.00    +0.000 N 
ATOM     15  S   UNL     1      -8.262  51.869  53.682  0.00  0.00    +0.000 S 
ATOM     16  C   UNL     1      -7.848  54.446  54.110  0.00  0.00    +0.000 A 
ATOM     17  O   UNL     1      -7.385  50.786  53.290  0.00  0.00    +0.000 OA
ATOM     18  O   UNL     1      -9.322  51.682  54.655  0.00  0.00    +0.000 OA
ATOM     19  C   UNL     1      -7.235  53.199  54.279  0.00  0.00    +0.000 A 
ATOM     20  C   UNL     1      -7.065  55.578  53.903  0.00  0.00    +0.000 A 
ATOM     21  C   UNL     1      -5.857  53.072  54.377  0.00  0.00    +0.000 A 
ATOM     22  C   UNL     1      -5.678  55.454  53.913  0.00  0.00    +0.000 A 
ATOM     23  C   UNL     1      -5.080  54.216  54.181  0.00  0.00    +0.000 A 
ATOM     24  H   UNL     1      -8.973  52.065  51.473  0.00  0.00    +0.000 HD
ATOM     25  H   UNL     1      -9.967  54.838  54.170  0.00  0.00    +0.000 HD
ENDBRANCH   5  12
BRANCH   1  26
ATOM     26  N   UNL     1     -12.937  55.879  49.838  0.00  0.00    +0.000 N 
ATOM     27  H   UNL     1     -13.573  55.129  49.784  0.00  0.00    +0.000 HD
BRANCH  26  28
ATOM     28  C   UNL     1     -13.399  57.270  49.761  0.00  0.00    +0.000 C 
BRANCH  28  33
ATOM     29 CL   UNL     1     -15.938  59.948  53.885  0.00  0.00    +0.000 Cl
ATOM     30  C   UNL     1     -15.303  58.748  52.837  0.00  0.00    +0.000 A 
ATOM     31  S   UNL     1     -14.511  59.213  51.421  0.00  0.00    +0.000 S 
ATOM     32  C   UNL     1     -15.354  57.389  53.013  0.00  0.00    +0.000 A 
ATOM     33  C   UNL     1     -14.186  57.574  51.005  0.00  0.00    +0.000 A 
ATOM     34  C   UNL     1     -14.708  56.702  51.942  0.00  0.00    +0.000 A 
ENDBRANCH  28  33
ENDBRANCH  26  28
ENDBRANCH   1  26
BRANCH   8  35
ATOM     35  O   UNL     1      -7.519  54.348  50.154  0.00  0.00    +0.000 OA
ATOM     36  H   UNL     1      -6.920  54.682  50.792  0.00  0.00    +0.000 HD
ENDBRANCH   8  35
TORSDOF 5
ENDMDL
MODEL 4
REMARK VINA RESULT:      -8.7      4.095      7.390
REMARK  Name = 
REMARK  5 active torsions:
REMARK  status: ('A' for Active; 'I' for Inactive)
REMARK    1  A    between atoms: C_5  and  C_7
REMARK    2  A    between atoms: C_7  and  N_8
REMARK    3  A    between atoms: N_8  and  N_9
REMARK    4  A    between atoms: C_13  and  C_16
REMARK    5  A    between atoms: C_17  and  O_22
REMARK                            x       y       z     vdW  Elec       q    Type
REMARK                         _______ _______ _______ _____ _____    ______ ____
ROOT
ATOM      1  N   UNL     1     -11.136  55.608  47.959  0.00  0.00    +0.000 N 
ATOM      2  C   UNL     1     -10.275  56.103  48.940  0.00  0.00    +0.000 A 
ATOM      3  C   UNL     1     -10.627  54.927  46.814  0.00  0.00    +0.000 A 
ATOM      4  O   UNL     1     -10.630  56.861  49.841  0.00  0.00    +0.000 OA
ATOM      5  C   UNL     1      -8.848  55.651  48.883  0.00  0.00    +0.000 A 
ATOM      6  C   UNL     1      -9.236  54.829  46.632  0.00  0.00    +0.000 A 
ATOM      7  C   UNL     1     -11.483  54.309  45.890  0.00  0.00    +0.000 A 
ATOM      8  C   UNL     1      -8.330  55.257  47.707  0.00  0.00    +0.000 A 
ATOM      9  C   UNL     1      -8.730  54.133  45.522  0.00  0.00    +0.000 A 
ATOM     10  C   UNL     1     -10.966  53.563  44.830  0.00  0.00    +0.000 A 
ATOM     11  C   UNL     1      -9.591  53.482  44.642  0.00  0.00    +0.000 A 
ENDROOT
BRANCH   5  12
ATOM     12  C   UNL     1      -8.003  55.722  50.124  0.00  0.00    +0.000 C 
ATOM     13  N   UNL     1      -8.488  55.318  51.279  0.00  0.00    +0.000 N 
ATOM     14  N   UNL     1      -6.679  56.135  50.015  0.00  0.00    +0.000 N 
ATOM     15  S   UNL     1      -7.398  55.242  52.513  0.00  0.00    +0.000 S 
ATOM     16  C   UNL     1      -5.850  55.037  50.378  0.00  0.00    +0.000 A 
ATOM     17  O   UNL     1      -7.866  54.274  53.483  0.00  0.00    +0.000 OA
ATOM     18  O   UNL     1      -7.014  56.587  52.899  0.00  0.00    +0.000 OA
ATOM     19  C   UNL     1      -6.001  54.522  51.672  0.00  0.00    +0.000 A 
ATOM     20  C   UNL     1      -5.298  54.241  49.379  0.00  0.00    +0.000 A 
ATOM     21  C   UNL     1      -5.494  53.279  52.024  0.00  0.00    +0.000 A 
ATOM     22  C   UNL     1      -4.863  52.958  49.697  0.00  0.00    +0.000 A 
ATOM     23  C   UNL     1      -4.930  52.494  51.017  0.00  0.00    +0.000 A 
ATOM     24  H   UNL     1      -9.435  55.077  51.397  0.00  0.00    +0.000 HD
ATOM     25  H   UNL     1      -6.371  57.027  49.736  0.00  0.00    +0.000 HD
ENDBRANCH   5  12
BRANCH   1  26
ATOM     26  N   UNL     1     -12.557  55.561  48.170  0.00  0.00    +0.000 N 
ATOM     27  H   UNL     1     -12.983  54.774  48.579  0.00  0.00    +0.000 HD
BRANCH  26  28
ATOM     28  C   UNL     1     -13.351  56.724  47.755  0.00  0.00    +0.000 C 
BRANCH  28  33
ATOM     29 CL   UNL     1     -15.273  57.880  52.814  0.00  0.00    +0.000 Cl
ATOM     30  C   UNL     1     -14.647  57.982  51.220  0.00  0.00    +0.000 A 
ATOM     31  S   UNL     1     -14.283  56.566  50.376  0.00  0.00    +0.000 S 
ATOM     32  C   UNL     1     -14.395  59.124  50.505  0.00  0.00    +0.000 A 
ATOM     33  C   UNL     1     -13.790  57.460  48.990  0.00  0.00    +0.000 A 
ATOM     34  C   UNL     1     -13.889  58.822  49.205  0.00  0.00    +0.000 A 
ENDBRANCH  28  33
ENDBRANCH  26  28
ENDBRANCH   1  26
BRANCH   8  35
ATOM     35  O   UNL     1      -6.984  55.066  47.457  0.00  0.00    +0.000 OA
ATOM     36  H   UNL     1      -6.458  54.585  48.065  0.00  0.00    +0.000 HD
ENDBRANCH   8  35
TORSDOF 5
ENDMDL
MODEL 5
REMARK VINA RESULT:      -8.6      4.969      7.893
REMARK  Name = 
REMARK  5 active torsions:
REMARK  status: ('A' for Active; 'I' for Inactive)
REMARK    1  A    between atoms: C_5  and  C_7
REMARK    2  A    between atoms: C_7  and  N_8
REMARK    3  A    between atoms: N_8  and  N_9
REMARK    4  A    between atoms: C_13  and  C_16
REMARK    5  A    between atoms: C_17  and  O_22
REMARK                            x       y       z     vdW  Elec       q    Type
REMARK                         _______ _______ _______ _____ _____    ______ ____
ROOT
ATOM      1  N   UNL     1      -8.474  55.946  49.346  0.00  0.00    +0.000 N 
ATOM      2  C   UNL     1      -7.495  55.836  50.334  0.00  0.00    +0.000 A 
ATOM      3  C   UNL     1      -8.290  55.351  48.062  0.00  0.00    +0.000 A 
ATOM      4  O   UNL     1      -7.506  56.482  51.381  0.00  0.00    +0.000 OA
ATOM      5  C   UNL     1      -6.393  54.851  50.093  0.00  0.00    +0.000 A 
ATOM      6  C   UNL     1      -7.069  54.720  47.765  0.00  0.00    +0.000 A 
ATOM      7  C   UNL     1      -9.318  55.339  47.107  0.00  0.00    +0.000 A 
ATOM      8  C   UNL     1      -6.078  54.514  48.830  0.00  0.00    +0.000 A 
ATOM      9  C   UNL     1      -6.894  54.106  46.514  0.00  0.00    +0.000 A 
ATOM     10  C   UNL     1      -9.153  54.667  45.895  0.00  0.00    +0.000 A 
ATOM     11  C   UNL     1      -7.940  54.058  45.595  0.00  0.00    +0.000 A 
ENDROOT
BRANCH   5  12
ATOM     12  C   UNL     1      -5.610  54.320  51.261  0.00  0.00    +0.000 C 
ATOM     13  N   UNL     1      -5.352  55.096  52.292  0.00  0.00    +0.000 N 
ATOM     14  N   UNL     1      -5.242  52.978  51.272  0.00  0.00    +0.000 N 
ATOM     15  S   UNL     1      -4.681  54.339  53.593  0.00  0.00    +0.000 S 
ATOM     16  C   UNL     1      -5.916  52.353  52.358  0.00  0.00    +0.000 A 
ATOM     17  O   UNL     1      -4.997  55.102  54.784  0.00  0.00    +0.000 OA
ATOM     18  O   UNL     1      -3.322  53.948  53.273  0.00  0.00    +0.000 OA
ATOM     19  C   UNL     1      -5.656  52.847  53.642  0.00  0.00    +0.000 A 
ATOM     20  C   UNL     1      -7.090  51.647  52.115  0.00  0.00    +0.000 A 
ATOM     21  C   UNL     1      -6.476  52.543  54.719  0.00  0.00    +0.000 A 
ATOM     22  C   UNL     1      -7.968  51.407  53.168  0.00  0.00    +0.000 A 
ATOM     23  C   UNL     1      -7.646  51.823  54.467  0.00  0.00    +0.000 A 
ATOM     24  H   UNL     1      -5.548  56.061  52.287  0.00  0.00    +0.000 HD
ATOM     25  H   UNL     1      -4.627  52.541  50.641  0.00  0.00    +0.000 HD
ENDBRANCH   5  12
BRANCH   1  26
ATOM     26  N   UNL     1      -9.784  56.455  49.648  0.00  0.00    +0.000 N 
ATOM     27  H   UNL     1     -10.050  57.363  49.377  0.00  0.00    +0.000 HD
BRANCH  26  28
ATOM     28  C   UNL     1     -10.711  55.579  50.374  0.00  0.00    +0.000 C 
BRANCH  28  33
ATOM     29 CL   UNL     1     -16.196  56.300  50.530  0.00  0.00    +0.000 Cl
ATOM     30  C   UNL     1     -14.539  56.304  50.082  0.00  0.00    +0.000 A 
ATOM     31  S   UNL     1     -13.390  55.657  51.136  0.00  0.00    +0.000 S 
ATOM     32  C   UNL     1     -14.002  56.785  48.916  0.00  0.00    +0.000 A 
ATOM     33  C   UNL     1     -12.115  55.988  50.028  0.00  0.00    +0.000 A 
ATOM     34  C   UNL     1     -12.587  56.607  48.885  0.00  0.00    +0.000 A 
ENDBRANCH  28  33
ENDBRANCH  26  28
ENDBRANCH   1  26
BRANCH   8  35
ATOM     35  O   UNL     1      -4.937  53.832  48.452  0.00  0.00    +0.000 OA
ATOM     36  H   UNL     1      -4.680  53.811  47.552  0.00  0.00    +0.000 HD
ENDBRANCH   8  35
TORSDOF 5
ENDMDL
MODEL 6
REMARK VINA RESULT:      -8.5      3.674      6.850
REMARK  Name = 
REMARK  5 active torsions:
REMARK  status: ('A' for Active; 'I' for Inactive)
REMARK    1  A    between atoms: C_5  and  C_7
REMARK    2  A    between atoms: C_7  and  N_8
REMARK    3  A    between atoms: N_8  and  N_9
REMARK    4  A    between atoms: C_13  and  C_16
REMARK    5  A    between atoms: C_17  and  O_22
REMARK                            x       y       z     vdW  Elec       q    Type
REMARK                         _______ _______ _______ _____ _____    ______ ____
ROOT
ATOM      1  N   UNL     1     -11.045  55.108  47.596  0.00  0.00    +0.000 N 
ATOM      2  C   UNL     1     -10.130  55.361  48.619  0.00  0.00    +0.000 A 
ATOM      3  C   UNL     1     -10.646  54.426  46.408  0.00  0.00    +0.000 A 
ATOM      4  O   UNL     1     -10.359  56.107  49.570  0.00  0.00    +0.000 OA
ATOM      5  C   UNL     1      -8.812  54.654  48.543  0.00  0.00    +0.000 A 
ATOM      6  C   UNL     1      -9.294  54.082  46.234  0.00  0.00    +0.000 A 
ATOM      7  C   UNL     1     -11.580  54.047  45.433  0.00  0.00    +0.000 A 
ATOM      8  C   UNL     1      -8.349  54.255  47.346  0.00  0.00    +0.000 A 
ATOM      9  C   UNL     1      -8.901  53.383  45.080  0.00  0.00    +0.000 A 
ATOM     10  C   UNL     1     -11.186  53.295  44.326  0.00  0.00    +0.000 A 
ATOM     11  C   UNL     1      -9.847  52.970  44.145  0.00  0.00    +0.000 A 
ENDROOT
BRANCH   5  12
ATOM     12  C   UNL     1      -7.997  54.477  49.794  0.00  0.00    +0.000 C 
ATOM     13  N   UNL     1      -7.659  55.523  50.517  0.00  0.00    +0.000 N 
ATOM     14  N   UNL     1      -7.686  53.189  50.218  0.00  0.00    +0.000 N 
ATOM     15  S   UNL     1      -6.960  55.179  51.969  0.00  0.00    +0.000 S 
ATOM     16  C   UNL     1      -8.333  52.976  51.467  0.00  0.00    +0.000 A 
ATOM     17  O   UNL     1      -7.186  56.294  52.866  0.00  0.00    +0.000 OA
ATOM     18  O   UNL     1      -5.634  54.633  51.747  0.00  0.00    +0.000 OA
ATOM     19  C   UNL     1      -7.993  53.834  52.519  0.00  0.00    +0.000 A 
ATOM     20  C   UNL     1      -9.547  52.294  51.497  0.00  0.00    +0.000 A 
ATOM     21  C   UNL     1      -8.773  53.930  53.663  0.00  0.00    +0.000 A 
ATOM     22  C   UNL     1     -10.383  52.447  52.600  0.00  0.00    +0.000 A 
ATOM     23  C   UNL     1      -9.983  53.232  53.689  0.00  0.00    +0.000 A 
ATOM     24  H   UNL     1      -7.814  56.446  50.212  0.00  0.00    +0.000 HD
ATOM     25  H   UNL     1      -7.120  52.541  49.739  0.00  0.00    +0.000 HD
ENDBRANCH   5  12
BRANCH   1  26
ATOM     26  N   UNL     1     -12.454  55.314  47.789  0.00  0.00    +0.000 N 
ATOM     27  H   UNL     1     -13.034  54.586  48.109  0.00  0.00    +0.000 HD
BRANCH  26  28
ATOM     28  C   UNL     1     -13.001  56.644  47.493  0.00  0.00    +0.000 C 
BRANCH  28  33
ATOM     29 CL   UNL     1     -15.381  57.053  52.472  0.00  0.00    +0.000 Cl
ATOM     30  C   UNL     1     -14.666  57.387  50.949  0.00  0.00    +0.000 A 
ATOM     31  S   UNL     1     -14.081  56.114  50.006  0.00  0.00    +0.000 S 
ATOM     32  C   UNL     1     -14.505  58.617  50.367  0.00  0.00    +0.000 A 
ATOM     33  C   UNL     1     -13.606  57.195  48.754  0.00  0.00    +0.000 A 
ATOM     34  C   UNL     1     -13.881  58.508  49.088  0.00  0.00    +0.000 A 
ENDBRANCH  28  33
ENDBRANCH  26  28
ENDBRANCH   1  26
BRANCH   8  35
ATOM     35  O   UNL     1      -7.057  53.833  47.096  0.00  0.00    +0.000 OA
ATOM     36  H   UNL     1      -6.337  54.413  47.247  0.00  0.00    +0.000 HD
ENDBRANCH   8  35
TORSDOF 5
ENDMDL
MODEL 7
REMARK VINA RESULT:      -8.1      3.888      5.204
REMARK  Name = 
REMARK  5 active torsions:
REMARK  status: ('A' for Active; 'I' for Inactive)
REMARK    1  A    between atoms: C_5  and  C_7
REMARK    2  A    between atoms: C_7  and  N_8
REMARK    3  A    between atoms: N_8  and  N_9
REMARK    4  A    between atoms: C_13  and  C_16
REMARK    5  A    between atoms: C_17  and  O_22
REMARK                            x       y       z     vdW  Elec       q    Type
REMARK                         _______ _______ _______ _____ _____    ______ ____
ROOT
ATOM      1  N   UNL     1      -9.512  55.190  51.257  0.00  0.00    +0.000 N 
ATOM      2  C   UNL     1     -10.838  55.258  51.688  0.00  0.00    +0.000 A 
ATOM      3  C   UNL     1      -9.198  55.055  49.872  0.00  0.00    +0.000 A 
ATOM      4  O   UNL     1     -11.177  55.178  52.868  0.00  0.00    +0.000 OA
ATOM      5  C   UNL     1     -11.885  55.464  50.638  0.00  0.00    +0.000 A 
ATOM      6  C   UNL     1     -10.241  54.903  48.942  0.00  0.00    +0.000 A 
ATOM      7  C   UNL     1      -7.874  55.119  49.412  0.00  0.00    +0.000 A 
ATOM      8  C   UNL     1     -11.635  55.074  49.376  0.00  0.00    +0.000 A 
ATOM      9  C   UNL     1      -9.939  54.800  47.574  0.00  0.00    +0.000 A 
ATOM     10  C   UNL     1      -7.594  55.084  48.046  0.00  0.00    +0.000 A 
ATOM     11  C   UNL     1      -8.625  54.917  47.128  0.00  0.00    +0.000 A 
ENDROOT
BRANCH   5  12
ATOM     12  C   UNL     1     -13.222  56.028  51.030  0.00  0.00    +0.000 C 
ATOM     13  N   UNL     1     -13.398  56.541  52.229  0.00  0.00    +0.000 N 
ATOM     14  N   UNL     1     -14.237  56.078  50.080  0.00  0.00    +0.000 N 
ATOM     15  S   UNL     1     -14.832  57.318  52.460  0.00  0.00    +0.000 S 
ATOM     16  C   UNL     1     -14.534  57.448  49.835  0.00  0.00    +0.000 A 
ATOM     17  O   UNL     1     -14.663  58.295  53.517  0.00  0.00    +0.000 OA
ATOM     18  O   UNL     1     -15.908  56.345  52.482  0.00  0.00    +0.000 OA
ATOM     19  C   UNL     1     -14.970  58.213  50.924  0.00  0.00    +0.000 A 
ATOM     20  C   UNL     1     -13.972  58.078  48.729  0.00  0.00    +0.000 A 
ATOM     21  C   UNL     1     -14.979  59.600  50.882  0.00  0.00    +0.000 A 
ATOM     22  C   UNL     1     -13.895  59.468  48.708  0.00  0.00    +0.000 A 
ATOM     23  C   UNL     1     -14.425  60.223  49.762  0.00  0.00    +0.000 A 
ATOM     24  H   UNL     1     -12.719  56.466  52.939  0.00  0.00    +0.000 HD
ATOM     25  H   UNL     1     -14.671  55.304  49.654  0.00  0.00    +0.000 HD
ENDBRANCH   5  12
BRANCH   1  26
ATOM     26  N   UNL     1      -8.423  55.480  52.149  0.00  0.00    +0.000 N 
ATOM     27  H   UNL     1      -7.828  56.247  51.991  0.00  0.00    +0.000 HD
BRANCH  26  28
ATOM     28  C   UNL     1      -8.226  54.593  53.303  0.00  0.00    +0.000 C 
BRANCH  28  33
ATOM     29 CL   UNL     1      -3.300  52.084  53.563  0.00  0.00    +0.000 Cl
ATOM     30  C   UNL     1      -4.572  53.235  53.578  0.00  0.00    +0.000 A 
ATOM     31  S   UNL     1      -6.142  52.747  53.191  0.00  0.00    +0.000 S 
ATOM     32  C   UNL     1      -4.474  54.567  53.885  0.00  0.00    +0.000 A 
ATOM     33  C   UNL     1      -6.752  54.336  53.451  0.00  0.00    +0.000 A 
ATOM     34  C   UNL     1      -5.744  55.213  53.806  0.00  0.00    +0.000 A 
ENDBRANCH  28  33
ENDBRANCH  26  28
ENDBRANCH   1  26
BRANCH   8  35
ATOM     35  O   UNL     1     -12.583  54.965  48.377  0.00  0.00    +0.000 OA
ATOM     36  H   UNL     1     -13.455  55.274  48.522  0.00  0.00    +0.000 HD
ENDBRANCH   8  35
TORSDOF 5
ENDMDL
MODEL 8
REMARK VINA RESULT:      -8.0      4.145      7.455
REMARK  Name = 
REMARK  5 active torsions:
REMARK  status: ('A' for Active; 'I' for Inactive)
REMARK    1  A    between atoms: C_5  and  C_7
REMARK    2  A    between atoms: C_7  and  N_8
REMARK    3  A    between atoms: N_8  and  N_9
REMARK    4  A    between atoms: C_13  and  C_16
REMARK    5  A    between atoms: C_17  and  O_22
REMARK                            x       y       z     vdW  Elec       q    Type
REMARK                         _______ _______ _______ _____ _____    ______ ____
ROOT
ATOM      1  N   UNL     1     -11.432  55.228  48.559  0.00  0.00    +0.000 N 
ATOM      2  C   UNL     1     -10.617  55.161  49.690  0.00  0.00    +0.000 A 
ATOM      3  C   UNL     1     -11.028  54.630  47.328  0.00  0.00    +0.000 A 
ATOM      4  O   UNL     1     -10.815  55.815  50.713  0.00  0.00    +0.000 OA
ATOM      5  C   UNL     1      -9.458  54.214  49.638  0.00  0.00    +0.000 A 
ATOM      6  C   UNL     1      -9.755  54.040  47.235  0.00  0.00    +0.000 A 
ATOM      7  C   UNL     1     -11.891  54.573  46.223  0.00  0.00    +0.000 A 
ATOM      8  C   UNL     1      -8.937  53.878  48.445  0.00  0.00    +0.000 A 
ATOM      9  C   UNL     1      -9.364  53.423  46.035  0.00  0.00    +0.000 A 
ATOM     10  C   UNL     1     -11.515  53.898  45.062  0.00  0.00    +0.000 A 
ATOM     11  C   UNL     1     -10.250  53.330  44.965  0.00  0.00    +0.000 A 
ENDROOT
BRANCH   5  12
ATOM     12  C   UNL     1      -8.851  53.721  50.922  0.00  0.00    +0.000 C 
ATOM     13  N   UNL     1      -8.927  52.447  51.243  0.00  0.00    +0.000 N 
ATOM     14  N   UNL     1      -8.138  54.614  51.716  0.00  0.00    +0.000 N 
ATOM     15  S   UNL     1      -8.039  51.999  52.558  0.00  0.00    +0.000 S 
ATOM     16  C   UNL     1      -6.783  54.179  51.745  0.00  0.00    +0.000 A 
ATOM     17  O   UNL     1      -7.730  50.588  52.446  0.00  0.00    +0.000 OA
ATOM     18  O   UNL     1      -8.638  52.558  53.755  0.00  0.00    +0.000 OA
ATOM     19  C   UNL     1      -6.531  52.901  52.258  0.00  0.00    +0.000 A 
ATOM     20  C   UNL     1      -5.859  54.774  50.890  0.00  0.00    +0.000 A 
ATOM     21  C   UNL     1      -5.322  52.255  52.044  0.00  0.00    +0.000 A 
ATOM     22  C   UNL     1      -4.677  54.101  50.596  0.00  0.00    +0.000 A 
ATOM     23  C   UNL     1      -4.396  52.866  51.195  0.00  0.00    +0.000 A 
ATOM     24  H   UNL     1      -9.473  51.806  50.733  0.00  0.00    +0.000 HD
ATOM     25  H   UNL     1      -8.504  55.403  52.174  0.00  0.00    +0.000 HD
ENDBRANCH   5  12
BRANCH   1  26
ATOM     26  N   UNL     1     -12.789  55.693  48.644  0.00  0.00    +0.000 N 
ATOM     27  H   UNL     1     -13.512  55.096  48.943  0.00  0.00    +0.000 HD
BRANCH  26  28
ATOM     28  C   UNL     1     -13.063  57.086  48.270  0.00  0.00    +0.000 C 
BRANCH  28  33
ATOM     29 CL   UNL     1     -15.313  58.123  53.219  0.00  0.00    +0.000 Cl
ATOM     30  C   UNL     1     -14.629  58.262  51.651  0.00  0.00    +0.000 A 
ATOM     31  S   UNL     1     -14.091  56.876  50.851  0.00  0.00    +0.000 S 
ATOM     32  C   UNL     1     -14.459  59.413  50.926  0.00  0.00    +0.000 A 
ATOM     33  C   UNL     1     -13.626  57.794  49.471  0.00  0.00    +0.000 A 
ATOM     34  C   UNL     1     -13.868  59.142  49.656  0.00  0.00    +0.000 A 
ENDBRANCH  28  33
ENDBRANCH  26  28
ENDBRANCH   1  26
BRANCH   8  35
ATOM     35  O   UNL     1      -7.728  53.234  48.261  0.00  0.00    +0.000 OA
ATOM     36  H   UNL     1      -6.980  53.489  48.764  0.00  0.00    +0.000 HD
ENDBRANCH   8  35
TORSDOF 5
ENDMDL
MODEL 9
REMARK VINA RESULT:      -8.0      4.673      7.506
REMARK  Name = 
REMARK  5 active torsions:
REMARK  status: ('A' for Active; 'I' for Inactive)
REMARK    1  A    between atoms: C_5  and  C_7
REMARK    2  A    between atoms: C_7  and  N_8
REMARK    3  A    between atoms: N_8  and  N_9
REMARK    4  A    between atoms: C_13  and  C_16
REMARK    5  A    between atoms: C_17  and  O_22
REMARK                            x       y       z     vdW  Elec       q    Type
REMARK                         _______ _______ _______ _____ _____    ______ ____
ROOT
ATOM      1  N   UNL     1      -8.822  55.726  49.441  0.00  0.00    +0.000 N 
ATOM      2  C   UNL     1      -7.832  55.673  50.423  0.00  0.00    +0.000 A 
ATOM      3  C   UNL     1      -8.558  55.284  48.110  0.00  0.00    +0.000 A 
ATOM      4  O   UNL     1      -7.934  56.214  51.524  0.00  0.00    +0.000 OA
ATOM      5  C   UNL     1      -6.597  54.889  50.103  0.00  0.00    +0.000 A 
ATOM      6  C   UNL     1      -7.258  54.871  47.768  0.00  0.00    +0.000 A 
ATOM      7  C   UNL     1      -9.577  55.205  47.149  0.00  0.00    +0.000 A 
ATOM      8  C   UNL     1      -6.242  54.719  48.818  0.00  0.00    +0.000 A 
ATOM      9  C   UNL     1      -7.000  54.406  46.467  0.00  0.00    +0.000 A 
ATOM     10  C   UNL     1      -9.321  54.678  45.883  0.00  0.00    +0.000 A 
ATOM     11  C   UNL     1      -8.032  54.286  45.540  0.00  0.00    +0.000 A 
ENDROOT
BRANCH   5  12
ATOM     12  C   UNL     1      -5.738  54.377  51.225  0.00  0.00    +0.000 C 
ATOM     13  N   UNL     1      -5.478  55.144  52.262  0.00  0.00    +0.000 N 
ATOM     14  N   UNL     1      -5.298  53.058  51.189  0.00  0.00    +0.000 N 
ATOM     15  S   UNL     1      -4.712  54.398  53.517  0.00  0.00    +0.000 S 
ATOM     16  C   UNL     1      -5.890  52.374  52.288  0.00  0.00    +0.000 A 
ATOM     17  O   UNL     1      -5.017  55.117  54.737  0.00  0.00    +0.000 OA
ATOM     18  O   UNL     1      -3.349  54.088  53.131  0.00  0.00    +0.000 OA
ATOM     19  C   UNL     1      -5.603  52.854  53.571  0.00  0.00    +0.000 A 
ATOM     20  C   UNL     1      -7.035  51.611  52.077  0.00  0.00    +0.000 A 
ATOM     21  C   UNL     1      -6.359  52.483  54.674  0.00  0.00    +0.000 A 
ATOM     22  C   UNL     1      -7.853  51.301  53.160  0.00  0.00    +0.000 A 
ATOM     23  C   UNL     1      -7.498  51.706  54.454  0.00  0.00    +0.000 A 
ATOM     24  H   UNL     1      -5.725  56.098  52.288  0.00  0.00    +0.000 HD
ATOM     25  H   UNL     1      -4.688  52.668  50.523  0.00  0.00    +0.000 HD
ENDBRANCH   5  12
BRANCH   1  26
ATOM     26  N   UNL     1     -10.191  56.005  49.777  0.00  0.00    +0.000 N 
ATOM     27  H   UNL     1     -10.685  56.730  49.331  0.00  0.00    +0.000 HD
BRANCH  26  28
ATOM     28  C   UNL     1     -10.829  55.176  50.808  0.00  0.00    +0.000 C 
BRANCH  28  33
ATOM     29 CL   UNL     1     -12.599  50.723  48.040  0.00  0.00    +0.000 Cl
ATOM     30  C   UNL     1     -11.741  51.802  49.061  0.00  0.00    +0.000 A 
ATOM     31  S   UNL     1     -12.160  53.437  49.085  0.00  0.00    +0.000 S 
ATOM     32  C   UNL     1     -10.708  51.490  49.908  0.00  0.00    +0.000 A 
ATOM     33  C   UNL     1     -10.960  53.778  50.272  0.00  0.00    +0.000 A 
ATOM     34  C   UNL     1     -10.247  52.643  50.611  0.00  0.00    +0.000 A 
ENDBRANCH  28  33
ENDBRANCH  26  28
ENDBRANCH   1  26
BRANCH   8  35
ATOM     35  O   UNL     1      -5.014  54.251  48.390  0.00  0.00    +0.000 OA
ATOM     36  H   UNL     1      -4.924  53.363  48.104  0.00  0.00    +0.000 HD
ENDBRANCH   8  35
TORSDOF 5
ENDMDL
