MODEL 1
REMARK VINA RESULT:      -8.5      0.000      0.000
REMARK  Name = 
REMARK  5 active torsions:
REMARK  status: ('A' for Active; 'I' for Inactive)
REMARK    1  A    between atoms: C_6  and  C_10
REMARK    2  A    between atoms: C_14  and  O_18
REMARK    3  A    between atoms: N_17  and  N_20
REMARK    4  A    between atoms: N_20  and  C_23
REMARK    5  A    between atoms: C_23  and  C_26
REMARK                            x       y       z     vdW  Elec       q    Type
REMARK                         _______ _______ _______ _____ _____    ______ ____
ROOT
ATOM      1  C   UNL     1     -10.095  54.656  52.187  0.00  0.00    +0.000 A 
ATOM      2  C   UNL     1      -8.708  55.190  51.952  0.00  0.00    +0.000 A 
ATOM      3  C   UNL     1     -10.247  53.528  52.911  0.00  0.00    +0.000 A 
ATOM      4  O   UNL     1      -8.557  56.226  51.290  0.00  0.00    +0.000 OA
ATOM      5  N   UNL     1      -7.626  54.482  52.488  0.00  0.00    +0.000 N 
ATOM      6  C   UNL     1      -9.099  52.865  53.545  0.00  0.00    +0.000 A 
ATOM      7  C   UNL     1      -7.809  53.380  53.372  0.00  0.00    +0.000 A 
ATOM      8  C   UNL     1      -9.278  51.729  54.356  0.00  0.00    +0.000 A 
ATOM      9  C   UNL     1      -6.738  52.798  54.062  0.00  0.00    +0.000 A 
ATOM     10  C   UNL     1      -8.198  51.128  54.997  0.00  0.00    +0.000 A 
ATOM     11  C   UNL     1      -6.927  51.668  54.858  0.00  0.00    +0.000 A 
ENDROOT
BRANCH   1  17
ATOM     12  S   UNL     1     -12.638  56.125  49.544  0.00  0.00    +0.000 S 
ATOM     13  O   UNL     1     -13.500  55.086  49.019  0.00  0.00    +0.000 OA
ATOM     14  O   UNL     1     -12.086  57.134  48.661  0.00  0.00    +0.000 OA
ATOM     15  N   UNL     1     -11.398  55.414  50.303  0.00  0.00    +0.000 N 
ATOM     16  C   UNL     1     -13.582  56.989  50.737  0.00  0.00    +0.000 A 
ATOM     17  C   UNL     1     -11.308  55.386  51.604  0.00  0.00    +0.000 C 
ATOM     18  C   UNL     1     -13.269  56.795  52.071  0.00  0.00    +0.000 A 
ATOM     19  C   UNL     1     -14.614  57.838  50.329  0.00  0.00    +0.000 A 
ATOM     20  N   UNL     1     -12.218  55.965  52.461  0.00  0.00    +0.000 N 
ATOM     21  C   UNL     1     -14.044  57.455  53.032  0.00  0.00    +0.000 A 
ATOM     22  C   UNL     1     -15.366  58.503  51.291  0.00  0.00    +0.000 A 
ATOM     23  C   UNL     1     -15.085  58.307  52.643  0.00  0.00    +0.000 A 
ATOM     24  H   UNL     1     -10.690  54.990  49.766  0.00  0.00    +0.000 HD
ATOM     25  H   UNL     1     -12.118  55.778  53.422  0.00  0.00    +0.000 HD
ENDBRANCH   1  17
BRANCH   3  26
ATOM     26  O   UNL     1     -11.459  52.911  53.167  0.00  0.00    +0.000 OA
ATOM     27  H   UNL     1     -11.655  52.605  54.031  0.00  0.00    +0.000 HD
ENDBRANCH   3  26
BRANCH   5  28
ATOM     28  N   UNL     1      -6.303  55.002  52.250  0.00  0.00    +0.000 N 
ATOM     29  H   UNL     1      -5.797  55.528  52.911  0.00  0.00    +0.000 HD
BRANCH  28  30
ATOM     30  C   UNL     1      -5.788  54.664  50.909  0.00  0.00    +0.000 C 
BRANCH  30  31
ATOM     31  C   UNL     1      -4.455  53.925  51.031  0.00  0.00    +0.000 C 
ATOM     32  C   UNL     1      -4.564  52.385  51.226  0.00  0.00    +0.000 C 
ATOM     33  C   UNL     1      -3.701  53.940  52.395  0.00  0.00    +0.000 C 
ATOM     34  C   UNL     1      -3.301  52.477  52.107  0.00  0.00    +0.000 C 
ENDBRANCH  30  31
ENDBRANCH  28  30
ENDBRANCH   5  28
TORSDOF 5
ENDMDL
MODEL 2
REMARK VINA RESULT:      -8.2      2.898      8.123
REMARK  Name = 
REMARK  5 active torsions:
REMARK  status: ('A' for Active; 'I' for Inactive)
REMARK    1  A    between atoms: C_6  and  C_10
REMARK    2  A    between atoms: C_14  and  O_18
REMARK    3  A    between atoms: N_17  and  N_20
REMARK    4  A    between atoms: N_20  and  C_23
REMARK    5  A    between atoms: C_23  and  C_26
REMARK                            x       y       z     vdW  Elec       q    Type
REMARK                         _______ _______ _______ _____ _____    ______ ____
ROOT
ATOM      1  C   UNL     1      -9.865  54.170  50.959  0.00  0.00    +0.000 A 
ATOM      2  C   UNL     1     -10.967  55.141  51.284  0.00  0.00    +0.000 A 
ATOM      3  C   UNL     1      -9.681  53.794  49.677  0.00  0.00    +0.000 A 
ATOM      4  O   UNL     1     -11.143  55.494  52.458  0.00  0.00    +0.000 OA
ATOM      5  N   UNL     1     -11.770  55.607  50.236  0.00  0.00    +0.000 N 
ATOM      6  C   UNL     1     -10.475  54.379  48.587  0.00  0.00    +0.000 A 
ATOM      7  C   UNL     1     -11.472  55.319  48.873  0.00  0.00    +0.000 A 
ATOM      8  C   UNL     1     -10.228  54.033  47.246  0.00  0.00    +0.000 A 
ATOM      9  C   UNL     1     -12.152  55.943  47.819  0.00  0.00    +0.000 A 
ATOM     10  C   UNL     1     -10.945  54.622  46.208  0.00  0.00    +0.000 A 
ATOM     11  C   UNL     1     -11.902  55.586  46.494  0.00  0.00    +0.000 A 
ENDROOT
BRANCH   1  17
ATOM     12  S   UNL     1      -6.658  53.471  53.158  0.00  0.00    +0.000 S 
ATOM     13  O   UNL     1      -6.351  54.605  54.006  0.00  0.00    +0.000 OA
ATOM     14  O   UNL     1      -5.594  52.758  52.478  0.00  0.00    +0.000 OA
ATOM     15  N   UNL     1      -7.714  53.956  52.032  0.00  0.00    +0.000 N 
ATOM     16  C   UNL     1      -7.454  52.295  54.181  0.00  0.00    +0.000 A 
ATOM     17  C   UNL     1      -8.973  53.618  52.076  0.00  0.00    +0.000 C 
ATOM     18  C   UNL     1      -8.815  52.111  54.013  0.00  0.00    +0.000 A 
ATOM     19  C   UNL     1      -6.716  51.583  55.129  0.00  0.00    +0.000 A 
ATOM     20  N   UNL     1      -9.532  52.811  53.042  0.00  0.00    +0.000 N 
ATOM     21  C   UNL     1      -9.464  51.198  54.852  0.00  0.00    +0.000 A 
ATOM     22  C   UNL     1      -7.367  50.666  55.946  0.00  0.00    +0.000 A 
ATOM     23  C   UNL     1      -8.743  50.477  55.811  0.00  0.00    +0.000 A 
ATOM     24  H   UNL     1      -7.397  54.522  51.292  0.00  0.00    +0.000 HD
ATOM     25  H   UNL     1     -10.512  52.721  53.048  0.00  0.00    +0.000 HD
ENDBRANCH   1  17
BRANCH   3  26
ATOM     26  O   UNL     1      -8.733  52.881  49.249  0.00  0.00    +0.000 OA
ATOM     27  H   UNL     1      -7.871  53.173  49.024  0.00  0.00    +0.000 HD
ENDBRANCH   3  26
BRANCH   5  28
ATOM     28  N   UNL     1     -12.826  56.532  50.563  0.00  0.00    +0.000 N 
ATOM     29  H   UNL     1     -12.740  57.509  50.478  0.00  0.00    +0.000 HD
BRANCH  28  30
ATOM     30  C   UNL     1     -14.049  55.858  51.040  0.00  0.00    +0.000 C 
BRANCH  30  31
ATOM     31  C   UNL     1     -14.835  56.790  51.962  0.00  0.00    +0.000 C 
ATOM     32  C   UNL     1     -15.257  58.148  51.332  0.00  0.00    +0.000 C 
ATOM     33  C   UNL     1     -14.064  57.639  53.018  0.00  0.00    +0.000 C 
ATOM     34  C   UNL     1     -15.066  58.777  52.727  0.00  0.00    +0.000 C 
ENDBRANCH  30  31
ENDBRANCH  28  30
ENDBRANCH   5  28
TORSDOF 5
ENDMDL
MODEL 3
REMARK VINA RESULT:      -8.1      4.366      5.493
REMARK  Name = 
REMARK  5 active torsions:
REMARK  status: ('A' for Active; 'I' for Inactive)
REMARK    1  A    between atoms: C_6  and  C_10
REMARK    2  A    between atoms: C_14  and  O_18
REMARK    3  A    between atoms: N_17  and  N_20
REMARK    4  A    between atoms: N_20  and  C_23
REMARK    5  A    between atoms: C_23  and  C_26
REMARK                            x       y       z     vdW  Elec       q    Type
REMARK                         _______ _______ _______ _____ _____    ______ ____
ROOT
ATOM      1  C   UNL     1     -12.351  54.308  49.660  0.00  0.00    +0.000 A 
ATOM      2  C   UNL     1     -11.681  54.268  48.314  0.00  0.00    +0.000 A 
ATOM      3  C   UNL     1     -12.196  53.263  50.499  0.00  0.00    +0.000 A 
ATOM      4  O   UNL     1     -11.816  55.223  47.537  0.00  0.00    +0.000 OA
ATOM      5  N   UNL     1     -10.930  53.135  47.981  0.00  0.00    +0.000 N 
ATOM      6  C   UNL     1     -11.318  52.133  50.160  0.00  0.00    +0.000 A 
ATOM      7  C   UNL     1     -10.652  52.108  48.929  0.00  0.00    +0.000 A 
ATOM      8  C   UNL     1     -11.108  51.083  51.072  0.00  0.00    +0.000 A 
ATOM      9  C   UNL     1      -9.742  51.078  48.660  0.00  0.00    +0.000 A 
ATOM     10  C   UNL     1     -10.239  50.036  50.773  0.00  0.00    +0.000 A 
ATOM     11  C   UNL     1      -9.548  50.038  49.569  0.00  0.00    +0.000 A 
ENDROOT
BRANCH   1  17
ATOM     12  S   UNL     1     -15.314  56.439  51.173  0.00  0.00    +0.000 S 
ATOM     13  O   UNL     1     -15.208  56.526  52.615  0.00  0.00    +0.000 OA
ATOM     14  O   UNL     1     -16.603  56.225  50.545  0.00  0.00    +0.000 OA
ATOM     15  N   UNL     1     -14.326  55.262  50.666  0.00  0.00    +0.000 N 
ATOM     16  C   UNL     1     -14.715  57.959  50.545  0.00  0.00    +0.000 A 
ATOM     17  C   UNL     1     -13.199  55.518  50.061  0.00  0.00    +0.000 C 
ATOM     18  C   UNL     1     -13.480  57.958  49.922  0.00  0.00    +0.000 A 
ATOM     19  C   UNL     1     -15.479  59.121  50.685  0.00  0.00    +0.000 A 
ATOM     20  N   UNL     1     -12.742  56.784  49.767  0.00  0.00    +0.000 N 
ATOM     21  C   UNL     1     -12.979  59.177  49.450  0.00  0.00    +0.000 A 
ATOM     22  C   UNL     1     -14.981  60.323  50.197  0.00  0.00    +0.000 A 
ATOM     23  C   UNL     1     -13.728  60.352  49.584  0.00  0.00    +0.000 A 
ATOM     24  H   UNL     1     -14.583  54.324  50.819  0.00  0.00    +0.000 HD
ATOM     25  H   UNL     1     -11.825  56.866  49.419  0.00  0.00    +0.000 HD
ENDBRANCH   1  17
BRANCH   3  26
ATOM     26  O   UNL     1     -12.787  53.155  51.745  0.00  0.00    +0.000 OA
ATOM     27  H   UNL     1     -12.771  52.337  52.202  0.00  0.00    +0.000 HD
ENDBRANCH   3  26
BRANCH   5  28
ATOM     28  N   UNL     1     -10.299  53.108  46.685  0.00  0.00    +0.000 N 
ATOM     29  H   UNL     1      -9.379  53.417  46.521  0.00  0.00    +0.000 HD
BRANCH  28  30
ATOM     30  C   UNL     1     -11.180  52.569  45.631  0.00  0.00    +0.000 C 
BRANCH  30  31
ATOM     31  C   UNL     1     -10.606  52.895  44.252  0.00  0.00    +0.000 C 
ATOM     32  C   UNL     1     -10.347  51.668  43.332  0.00  0.00    +0.000 C 
ATOM     33  C   UNL     1      -9.081  53.188  44.115  0.00  0.00    +0.000 C 
ATOM     34  C   UNL     1      -9.131  52.432  42.770  0.00  0.00    +0.000 C 
ENDBRANCH  30  31
ENDBRANCH  28  30
ENDBRANCH   5  28
TORSDOF 5
ENDMDL
MODEL 4
REMARK VINA RESULT:      -8.1      3.132      8.317
REMARK  Name = 
REMARK  5 active torsions:
REMARK  status: ('A' for Active; 'I' for Inactive)
REMARK    1  A    between atoms: C_6  and  C_10
REMARK    2  A    between atoms: C_14  and  O_18
REMARK    3  A    between atoms: N_17  and  N_20
REMARK    4  A    between atoms: N_20  and  C_23
REMARK    5  A    between atoms: C_23  and  C_26
REMARK                            x       y       z     vdW  Elec       q    Type
REMARK                         _______ _______ _______ _____ _____    ______ ____
ROOT
ATOM      1  C   UNL     1      -8.957  54.463  50.222  0.00  0.00    +0.000 A 
ATOM      2  C   UNL     1     -10.415  54.493  50.593  0.00  0.00    +0.000 A 
ATOM      3  C   UNL     1      -8.614  54.293  48.929  0.00  0.00    +0.000 A 
ATOM      4  O   UNL     1     -10.740  54.651  51.777  0.00  0.00    +0.000 OA
ATOM      5  N   UNL     1     -11.361  54.329  49.574  0.00  0.00    +0.000 N 
ATOM      6  C   UNL     1      -9.632  54.225  47.870  0.00  0.00    +0.000 A 
ATOM      7  C   UNL     1     -10.991  54.300  48.199  0.00  0.00    +0.000 A 
ATOM      8  C   UNL     1      -9.261  54.118  46.517  0.00  0.00    +0.000 A 
ATOM      9  C   UNL     1     -11.945  54.335  47.173  0.00  0.00    +0.000 A 
ATOM     10  C   UNL     1     -10.222  54.103  45.509  0.00  0.00    +0.000 A 
ATOM     11  C   UNL     1     -11.565  54.221  45.836  0.00  0.00    +0.000 A 
ENDROOT
BRANCH   1  17
ATOM     12  S   UNL     1      -7.092  55.768  53.451  0.00  0.00    +0.000 S 
ATOM     13  O   UNL     1      -7.668  55.196  54.651  0.00  0.00    +0.000 OA
ATOM     14  O   UNL     1      -6.716  57.168  53.415  0.00  0.00    +0.000 OA
ATOM     15  N   UNL     1      -8.119  55.511  52.228  0.00  0.00    +0.000 N 
ATOM     16  C   UNL     1      -5.628  54.865  53.131  0.00  0.00    +0.000 A 
ATOM     17  C   UNL     1      -7.885  54.619  51.305  0.00  0.00    +0.000 C 
ATOM     18  C   UNL     1      -5.636  53.981  52.066  0.00  0.00    +0.000 A 
ATOM     19  C   UNL     1      -4.505  55.046  53.942  0.00  0.00    +0.000 A 
ATOM     20  N   UNL     1      -6.757  53.832  51.250  0.00  0.00    +0.000 N 
ATOM     21  C   UNL     1      -4.479  53.229  51.827  0.00  0.00    +0.000 A 
ATOM     22  C   UNL     1      -3.356  54.308  53.685  0.00  0.00    +0.000 A 
ATOM     23  C   UNL     1      -3.345  53.394  52.630  0.00  0.00    +0.000 A 
ATOM     24  H   UNL     1      -8.946  56.043  52.178  0.00  0.00    +0.000 HD
ATOM     25  H   UNL     1      -6.740  53.108  50.582  0.00  0.00    +0.000 HD
ENDBRANCH   1  17
BRANCH   3  26
ATOM     26  O   UNL     1      -7.315  54.207  48.460  0.00  0.00    +0.000 OA
ATOM     27  H   UNL     1      -7.017  54.798  47.796  0.00  0.00    +0.000 HD
ENDBRANCH   3  26
BRANCH   5  28
ATOM     28  N   UNL     1     -12.754  54.355  49.944  0.00  0.00    +0.000 N 
ATOM     29  H   UNL     1     -13.285  53.545  50.121  0.00  0.00    +0.000 HD
BRANCH  28  30
ATOM     30  C   UNL     1     -13.298  55.723  50.029  0.00  0.00    +0.000 C 
BRANCH  30  31
ATOM     31  C   UNL     1     -14.137  55.875  51.298  0.00  0.00    +0.000 C 
ATOM     32  C   UNL     1     -15.482  56.636  51.120  0.00  0.00    +0.000 C 
ATOM     33  C   UNL     1     -13.764  56.985  52.327  0.00  0.00    +0.000 C 
ATOM     34  C   UNL     1     -15.279  57.188  52.545  0.00  0.00    +0.000 C 
ENDBRANCH  30  31
ENDBRANCH  28  30
ENDBRANCH   5  28
TORSDOF 5
ENDMDL
MODEL 5
REMARK VINA RESULT:      -8.0      1.895      2.584
REMARK  Name = 
REMARK  5 active torsions:
REMARK  status: ('A' for Active; 'I' for Inactive)
REMARK    1  A    between atoms: C_6  and  C_10
REMARK    2  A    between atoms: C_14  and  O_18
REMARK    3  A    between atoms: N_17  and  N_20
REMARK    4  A    between atoms: N_20  and  C_23
REMARK    5  A    between atoms: C_23  and  C_26
REMARK                            x       y       z     vdW  Elec       q    Type
REMARK                         _______ _______ _______ _____ _____    ______ ____
ROOT
ATOM      1  C   UNL     1     -11.442  54.074  51.579  0.00  0.00    +0.000 A 
ATOM      2  C   UNL     1     -10.445  54.200  52.698  0.00  0.00    +0.000 A 
ATOM      3  C   UNL     1     -11.542  52.901  50.922  0.00  0.00    +0.000 A 
ATOM      4  O   UNL     1     -10.346  55.272  53.311  0.00  0.00    +0.000 OA
ATOM      5  N   UNL     1      -9.648  53.090  53.004  0.00  0.00    +0.000 N 
ATOM      6  C   UNL     1     -10.762  51.724  51.333  0.00  0.00    +0.000 A 
ATOM      7  C   UNL     1      -9.866  51.817  52.404  0.00  0.00    +0.000 A 
ATOM      8  C   UNL     1     -10.926  50.486  50.685  0.00  0.00    +0.000 A 
ATOM      9  C   UNL     1      -9.204  50.665  52.849  0.00  0.00    +0.000 A 
ATOM     10  C   UNL     1     -10.225  49.358  51.104  0.00  0.00    +0.000 A 
ATOM     11  C   UNL     1      -9.370  49.445  52.194  0.00  0.00    +0.000 A 
ENDROOT
BRANCH   1  17
ATOM     12  S   UNL     1     -13.143  56.896  49.400  0.00  0.00    +0.000 S 
ATOM     13  O   UNL     1     -14.200  56.349  48.573  0.00  0.00    +0.000 OA
ATOM     14  O   UNL     1     -12.229  57.884  48.860  0.00  0.00    +0.000 OA
ATOM     15  N   UNL     1     -12.252  55.666  49.957  0.00  0.00    +0.000 N 
ATOM     16  C   UNL     1     -13.931  57.658  50.764  0.00  0.00    +0.000 A 
ATOM     17  C   UNL     1     -12.323  55.267  51.197  0.00  0.00    +0.000 C 
ATOM     18  C   UNL     1     -13.841  57.030  51.993  0.00  0.00    +0.000 A 
ATOM     19  C   UNL     1     -14.625  58.858  50.588  0.00  0.00    +0.000 A 
ATOM     20  N   UNL     1     -13.121  55.846  52.158  0.00  0.00    +0.000 N 
ATOM     21  C   UNL     1     -14.499  57.615  53.082  0.00  0.00    +0.000 A 
ATOM     22  C   UNL     1     -15.261  59.440  51.678  0.00  0.00    +0.000 A 
ATOM     23  C   UNL     1     -15.203  58.816  52.924  0.00  0.00    +0.000 A 
ATOM     24  H   UNL     1     -11.637  55.204  49.341  0.00  0.00    +0.000 HD
ATOM     25  H   UNL     1     -13.189  55.390  53.027  0.00  0.00    +0.000 HD
ENDBRANCH   1  17
BRANCH   3  26
ATOM     26  O   UNL     1     -12.387  52.664  49.852  0.00  0.00    +0.000 OA
ATOM     27  H   UNL     1     -12.306  51.871  49.358  0.00  0.00    +0.000 HD
ENDBRANCH   3  26
BRANCH   5  28
ATOM     28  N   UNL     1      -8.692  53.228  54.075  0.00  0.00    +0.000 N 
ATOM     29  H   UNL     1      -8.812  52.827  54.966  0.00  0.00    +0.000 HD
BRANCH  28  30
ATOM     30  C   UNL     1      -7.517  54.035  53.693  0.00  0.00    +0.000 C 
BRANCH  30  31
ATOM     31  C   UNL     1      -6.232  53.276  54.024  0.00  0.00    +0.000 C 
ATOM     32  C   UNL     1      -5.582  52.517  52.832  0.00  0.00    +0.000 C 
ATOM     33  C   UNL     1      -6.329  51.886  54.721  0.00  0.00    +0.000 C 
ATOM     34  C   UNL     1      -5.135  51.446  53.847  0.00  0.00    +0.000 C 
ENDBRANCH  30  31
ENDBRANCH  28  30
ENDBRANCH   5  28
TORSDOF 5
ENDMDL
MODEL 6
REMARK VINA RESULT:      -7.9      2.771      8.498
REMARK  Name = 
REMARK  5 active torsions:
REMARK  status: ('A' for Active; 'I' for Inactive)
REMARK    1  A    between atoms: C_6  and  C_10
REMARK    2  A    between atoms: C_14  and  O_18
REMARK    3  A    between atoms: N_17  and  N_20
REMARK    4  A    between atoms: N_20  and  C_23
REMARK    5  A    between atoms: C_23  and  C_26
REMARK                            x       y       z     vdW  Elec       q    Type
REMARK                         _______ _______ _______ _____ _____    ______ ____
ROOT
ATOM      1  C   UNL     1      -9.651  54.002  50.659  0.00  0.00    +0.000 A 
ATOM      2  C   UNL     1     -10.899  54.345  51.426  0.00  0.00    +0.000 A 
ATOM      3  C   UNL     1      -9.616  54.233  49.330  0.00  0.00    +0.000 A 
ATOM      4  O   UNL     1     -10.942  54.139  52.646  0.00  0.00    +0.000 OA
ATOM      5  N   UNL     1     -11.983  54.882  50.721  0.00  0.00    +0.000 N 
ATOM      6  C   UNL     1     -10.733  54.891  48.638  0.00  0.00    +0.000 A 
ATOM      7  C   UNL     1     -11.880  55.258  49.351  0.00  0.00    +0.000 A 
ATOM      8  C   UNL     1     -10.657  55.190  47.265  0.00  0.00    +0.000 A 
ATOM      9  C   UNL     1     -12.894  55.973  48.701  0.00  0.00    +0.000 A 
ATOM     10  C   UNL     1     -11.693  55.858  46.618  0.00  0.00    +0.000 A 
ATOM     11  C   UNL     1     -12.810  56.259  47.338  0.00  0.00    +0.000 A 
ENDROOT
BRANCH   1  17
ATOM     12  S   UNL     1      -7.524  51.651  53.016  0.00  0.00    +0.000 S 
ATOM     13  O   UNL     1      -7.320  50.352  52.409  0.00  0.00    +0.000 OA
ATOM     14  O   UNL     1      -7.837  51.757  54.428  0.00  0.00    +0.000 OA
ATOM     15  N   UNL     1      -8.698  52.409  52.201  0.00  0.00    +0.000 N 
ATOM     16  C   UNL     1      -6.036  52.541  52.781  0.00  0.00    +0.000 A 
ATOM     17  C   UNL     1      -8.446  53.394  51.384  0.00  0.00    +0.000 C 
ATOM     18  C   UNL     1      -6.038  53.567  51.852  0.00  0.00    +0.000 A 
ATOM     19  C   UNL     1      -4.897  52.204  53.517  0.00  0.00    +0.000 A 
ATOM     20  N   UNL     1      -7.191  53.908  51.144  0.00  0.00    +0.000 N 
ATOM     21  C   UNL     1      -4.842  54.260  51.632  0.00  0.00    +0.000 A 
ATOM     22  C   UNL     1      -3.719  52.909  53.305  0.00  0.00    +0.000 A 
ATOM     23  C   UNL     1      -3.689  53.934  52.358  0.00  0.00    +0.000 A 
ATOM     24  H   UNL     1      -9.631  52.118  52.326  0.00  0.00    +0.000 HD
ATOM     25  H   UNL     1      -7.101  54.567  50.419  0.00  0.00    +0.000 HD
ENDBRANCH   1  17
BRANCH   3  26
ATOM     26  O   UNL     1      -8.549  53.927  48.503  0.00  0.00    +0.000 OA
ATOM     27  H   UNL     1      -8.510  53.093  48.078  0.00  0.00    +0.000 HD
ENDBRANCH   3  26
BRANCH   5  28
ATOM     28  N   UNL     1     -13.174  55.201  51.468  0.00  0.00    +0.000 N 
ATOM     29  H   UNL     1     -13.972  54.624  51.493  0.00  0.00    +0.000 HD
BRANCH  28  30
ATOM     30  C   UNL     1     -13.071  56.484  52.190  0.00  0.00    +0.000 C 
BRANCH  30  31
ATOM     31  C   UNL     1     -14.366  57.279  52.031  0.00  0.00    +0.000 C 
ATOM     32  C   UNL     1     -14.217  58.660  51.331  0.00  0.00    +0.000 C 
ATOM     33  C   UNL     1     -14.923  58.074  53.251  0.00  0.00    +0.000 C 
ATOM     34  C   UNL     1     -15.346  59.171  52.250  0.00  0.00    +0.000 C 
ENDBRANCH  30  31
ENDBRANCH  28  30
ENDBRANCH   5  28
TORSDOF 5
ENDMDL
MODEL 7
REMARK VINA RESULT:      -7.8      3.594      7.413
REMARK  Name = 
REMARK  5 active torsions:
REMARK  status: ('A' for Active; 'I' for Inactive)
REMARK    1  A    between atoms: C_6  and  C_10
REMARK    2  A    between atoms: C_14  and  O_18
REMARK    3  A    between atoms: N_17  and  N_20
REMARK    4  A    between atoms: N_20  and  C_23
REMARK    5  A    between atoms: C_23  and  C_26
REMARK                            x       y       z     vdW  Elec       q    Type
REMARK                         _______ _______ _______ _____ _____    ______ ____
ROOT
ATOM      1  C   UNL     1     -10.226  55.139  50.644  0.00  0.00    +0.000 A 
ATOM      2  C   UNL     1      -9.854  55.048  49.189  0.00  0.00    +0.000 A 
ATOM      3  C   UNL     1     -11.389  55.731  50.986  0.00  0.00    +0.000 A 
ATOM      4  O   UNL     1      -8.789  54.505  48.864  0.00  0.00    +0.000 OA
ATOM      5  N   UNL     1     -10.730  55.597  48.245  0.00  0.00    +0.000 N 
ATOM      6  C   UNL     1     -12.334  56.207  49.965  0.00  0.00    +0.000 A 
ATOM      7  C   UNL     1     -12.019  56.084  48.607  0.00  0.00    +0.000 A 
ATOM      8  C   UNL     1     -13.575  56.759  50.331  0.00  0.00    +0.000 A 
ATOM      9  C   UNL     1     -12.970  56.449  47.645  0.00  0.00    +0.000 A 
ATOM     10  C   UNL     1     -14.492  57.165  49.366  0.00  0.00    +0.000 A 
ATOM     11  C   UNL     1     -14.194  57.001  48.021  0.00  0.00    +0.000 A 
ENDROOT
BRANCH   1  17
ATOM     12  S   UNL     1      -7.013  54.623  52.884  0.00  0.00    +0.000 S 
ATOM     13  O   UNL     1      -6.919  55.648  53.904  0.00  0.00    +0.000 OA
ATOM     14  O   UNL     1      -5.829  54.197  52.165  0.00  0.00    +0.000 OA
ATOM     15  N   UNL     1      -8.101  55.102  51.787  0.00  0.00    +0.000 N 
ATOM     16  C   UNL     1      -7.636  53.195  53.681  0.00  0.00    +0.000 A 
ATOM     17  C   UNL     1      -9.289  54.569  51.714  0.00  0.00    +0.000 C 
ATOM     18  C   UNL     1      -8.944  52.829  53.416  0.00  0.00    +0.000 A 
ATOM     19  C   UNL     1      -6.821  52.471  54.553  0.00  0.00    +0.000 A 
ATOM     20  N   UNL     1      -9.737  53.548  52.521  0.00  0.00    +0.000 N 
ATOM     21  C   UNL     1      -9.461  51.708  54.078  0.00  0.00    +0.000 A 
ATOM     22  C   UNL     1      -7.337  51.349  55.192  0.00  0.00    +0.000 A 
ATOM     23  C   UNL     1      -8.660  50.971  54.958  0.00  0.00    +0.000 A 
ATOM     24  H   UNL     1      -7.859  55.818  51.155  0.00  0.00    +0.000 HD
ATOM     25  H   UNL     1     -10.689  53.306  52.462  0.00  0.00    +0.000 HD
ENDBRANCH   1  17
BRANCH   3  26
ATOM     26  O   UNL     1     -11.830  55.915  52.284  0.00  0.00    +0.000 OA
ATOM     27  H   UNL     1     -12.531  56.512  52.460  0.00  0.00    +0.000 HD
ENDBRANCH   3  26
BRANCH   5  28
ATOM     28  N   UNL     1     -10.357  55.508  46.856  0.00  0.00    +0.000 N 
ATOM     29  H   UNL     1      -9.726  56.126  46.420  0.00  0.00    +0.000 HD
BRANCH  28  30
ATOM     30  C   UNL     1     -11.024  54.394  46.155  0.00  0.00    +0.000 C 
BRANCH  30  31
ATOM     31  C   UNL     1      -9.980  53.426  45.598  0.00  0.00    +0.000 C 
ATOM     32  C   UNL     1      -8.654  54.081  45.119  0.00  0.00    +0.000 C 
ATOM     33  C   UNL     1     -10.130  52.906  44.137  0.00  0.00    +0.000 C 
ATOM     34  C   UNL     1      -8.593  52.997  44.025  0.00  0.00    +0.000 C 
ENDBRANCH  30  31
ENDBRANCH  28  30
ENDBRANCH   5  28
TORSDOF 5
ENDMDL
MODEL 8
REMARK VINA RESULT:      -7.8      3.260      4.813
REMARK  Name = 
REMARK  5 active torsions:
REMARK  status: ('A' for Active; 'I' for Inactive)
REMARK    1  A    between atoms: C_6  and  C_10
REMARK    2  A    between atoms: C_14  and  O_18
REMARK    3  A    between atoms: N_17  and  N_20
REMARK    4  A    between atoms: N_20  and  C_23
REMARK    5  A    between atoms: C_23  and  C_26
REMARK                            x       y       z     vdW  Elec       q    Type
REMARK                         _______ _______ _______ _____ _____    ______ ____
ROOT
ATOM      1  C   UNL     1     -11.470  55.826  48.850  0.00  0.00    +0.000 A 
ATOM      2  C   UNL     1     -10.410  55.172  49.693  0.00  0.00    +0.000 A 
ATOM      3  C   UNL     1     -11.547  55.515  47.540  0.00  0.00    +0.000 A 
ATOM      4  O   UNL     1     -10.331  55.449  50.898  0.00  0.00    +0.000 OA
ATOM      5  N   UNL     1      -9.534  54.271  49.076  0.00  0.00    +0.000 N 
ATOM      6  C   UNL     1     -10.678  54.489  46.944  0.00  0.00    +0.000 A 
ATOM      7  C   UNL     1      -9.720  53.840  47.731  0.00  0.00    +0.000 A 
ATOM      8  C   UNL     1     -10.815  54.122  45.593  0.00  0.00    +0.000 A 
ATOM      9  C   UNL     1      -8.968  52.796  47.177  0.00  0.00    +0.000 A 
ATOM     10  C   UNL     1     -10.027  53.116  45.039  0.00  0.00    +0.000 A 
ATOM     11  C   UNL     1      -9.108  52.445  45.834  0.00  0.00    +0.000 A 
ENDROOT
BRANCH   1  17
ATOM     12  S   UNL     1     -13.515  59.156  49.432  0.00  0.00    +0.000 S 
ATOM     13  O   UNL     1     -14.627  59.252  48.509  0.00  0.00    +0.000 OA
ATOM     14  O   UNL     1     -12.708  60.323  49.730  0.00  0.00    +0.000 OA
ATOM     15  N   UNL     1     -12.516  58.000  48.899  0.00  0.00    +0.000 N 
ATOM     16  C   UNL     1     -14.189  58.630  50.959  0.00  0.00    +0.000 A 
ATOM     17  C   UNL     1     -12.438  56.833  49.477  0.00  0.00    +0.000 C 
ATOM     18  C   UNL     1     -13.942  57.328  51.358  0.00  0.00    +0.000 A 
ATOM     19  C   UNL     1     -14.951  59.514  51.727  0.00  0.00    +0.000 A 
ATOM     20  N   UNL     1     -13.157  56.466  50.593  0.00  0.00    +0.000 N 
ATOM     21  C   UNL     1     -14.509  56.890  52.561  0.00  0.00    +0.000 A 
ATOM     22  C   UNL     1     -15.495  59.075  52.928  0.00  0.00    +0.000 A 
ATOM     23  C   UNL     1     -15.278  57.760  53.343  0.00  0.00    +0.000 A 
ATOM     24  H   UNL     1     -11.949  58.183  48.115  0.00  0.00    +0.000 HD
ATOM     25  H   UNL     1     -13.113  55.523  50.872  0.00  0.00    +0.000 HD
ENDBRANCH   1  17
BRANCH   3  26
ATOM     26  O   UNL     1     -12.446  56.071  46.647  0.00  0.00    +0.000 OA
ATOM     27  H   UNL     1     -12.203  56.827  46.148  0.00  0.00    +0.000 HD
ENDBRANCH   3  26
BRANCH   5  28
ATOM     28  N   UNL     1      -8.519  53.657  49.896  0.00  0.00    +0.000 N 
ATOM     29  H   UNL     1      -8.645  52.804  50.371  0.00  0.00    +0.000 HD
BRANCH  28  30
ATOM     30  C   UNL     1      -7.272  54.444  49.948  0.00  0.00    +0.000 C 
BRANCH  30  31
ATOM     31  C   UNL     1      -6.790  54.564  51.394  0.00  0.00    +0.000 C 
ATOM     32  C   UNL     1      -7.629  53.779  52.443  0.00  0.00    +0.000 C 
ATOM     33  C   UNL     1      -7.153  55.840  52.212  0.00  0.00    +0.000 C 
ATOM     34  C   UNL     1      -7.323  54.917  53.438  0.00  0.00    +0.000 C 
ENDBRANCH  30  31
ENDBRANCH  28  30
ENDBRANCH   5  28
TORSDOF 5
ENDMDL
MODEL 9
REMARK VINA RESULT:      -7.6      2.275      2.878
REMARK  Name = 
REMARK  5 active torsions:
REMARK  status: ('A' for Active; 'I' for Inactive)
REMARK    1  A    between atoms: C_6  and  C_10
REMARK    2  A    between atoms: C_14  and  O_18
REMARK    3  A    between atoms: N_17  and  N_20
REMARK    4  A    between atoms: N_20  and  C_23
REMARK    5  A    between atoms: C_23  and  C_26
REMARK                            x       y       z     vdW  Elec       q    Type
REMARK                         _______ _______ _______ _____ _____    ______ ____
ROOT
ATOM      1  C   UNL     1     -10.878  54.796  51.108  0.00  0.00    +0.000 A 
ATOM      2  C   UNL     1      -9.528  55.125  50.532  0.00  0.00    +0.000 A 
ATOM      3  C   UNL     1     -11.048  53.618  51.744  0.00  0.00    +0.000 A 
ATOM      4  O   UNL     1      -9.361  56.205  49.949  0.00  0.00    +0.000 OA
ATOM      5  N   UNL     1      -8.501  54.184  50.669  0.00  0.00    +0.000 N 
ATOM      6  C   UNL     1      -9.924  52.696  51.960  0.00  0.00    +0.000 A 
ATOM      7  C   UNL     1      -8.652  53.015  51.469  0.00  0.00    +0.000 A 
ATOM      8  C   UNL     1     -10.097  51.503  52.685  0.00  0.00    +0.000 A 
ATOM      9  C   UNL     1      -7.570  52.177  51.767  0.00  0.00    +0.000 A 
ATOM     10  C   UNL     1      -9.023  50.652  52.933  0.00  0.00    +0.000 A 
ATOM     11  C   UNL     1      -7.756  50.993  52.482  0.00  0.00    +0.000 A 
ENDROOT
BRANCH   1  17
ATOM     12  S   UNL     1     -13.497  57.245  49.451  0.00  0.00    +0.000 S 
ATOM     13  O   UNL     1     -14.561  56.507  48.800  0.00  0.00    +0.000 OA
ATOM     14  O   UNL     1     -12.922  58.414  48.813  0.00  0.00    +0.000 OA
ATOM     15  N   UNL     1     -12.287  56.217  49.760  0.00  0.00    +0.000 N 
ATOM     16  C   UNL     1     -14.147  57.797  50.979  0.00  0.00    +0.000 A 
ATOM     17  C   UNL     1     -12.038  55.787  50.966  0.00  0.00    +0.000 C 
ATOM     18  C   UNL     1     -13.698  57.176  52.131  0.00  0.00    +0.000 A 
ATOM     19  C   UNL     1     -15.088  58.829  51.005  0.00  0.00    +0.000 A 
ATOM     20  N   UNL     1     -12.737  56.166  52.090  0.00  0.00    +0.000 N 
ATOM     21  C   UNL     1     -14.240  57.588  53.355  0.00  0.00    +0.000 A 
ATOM     22  C   UNL     1     -15.608  59.242  52.227  0.00  0.00    +0.000 A 
ATOM     23  C   UNL     1     -15.188  58.618  53.402  0.00  0.00    +0.000 A 
ATOM     24  H   UNL     1     -11.722  55.907  49.016  0.00  0.00    +0.000 HD
ATOM     25  H   UNL     1     -12.544  55.687  52.928  0.00  0.00    +0.000 HD
ENDBRANCH   1  17
BRANCH   3  26
ATOM     26  O   UNL     1     -12.244  53.176  52.283  0.00  0.00    +0.000 OA
ATOM     27  H   UNL     1     -13.018  53.163  51.755  0.00  0.00    +0.000 HD
ENDBRANCH   3  26
BRANCH   5  28
ATOM     28  N   UNL     1      -7.215  54.511  50.107  0.00  0.00    +0.000 N 
ATOM     29  H   UNL     1      -6.586  55.148  50.518  0.00  0.00    +0.000 HD
BRANCH  28  30
ATOM     30  C   UNL     1      -6.941  53.791  48.848  0.00  0.00    +0.000 C 
BRANCH  30  31
ATOM     31  C   UNL     1      -7.300  54.674  47.652  0.00  0.00    +0.000 C 
ATOM     32  C   UNL     1      -8.721  54.447  47.061  0.00  0.00    +0.000 C 
ATOM     33  C   UNL     1      -6.764  54.291  46.239  0.00  0.00    +0.000 C 
ATOM     34  C   UNL     1      -8.121  54.767  45.677  0.00  0.00    +0.000 C 
ENDBRANCH  30  31
ENDBRANCH  28  30
ENDBRANCH   5  28
TORSDOF 5
ENDMDL
