MODEL 1
REMARK VINA RESULT:      -8.4      0.000      0.000
REMARK  Name = 
REMARK  6 active torsions:
REMARK  status: ('A' for Active; 'I' for Inactive)
REMARK    1  A    between atoms: C_6  and  C_10
REMARK    2  A    between atoms: C_14  and  O_18
REMARK    3  A    between atoms: N_17  and  N_20
REMARK    4  A    between atoms: N_20  and  C_23
REMARK    5  A    between atoms: C_23  and  C_26
REMARK    6  A    between atoms: C_29  and  C_32
REMARK                            x       y       z     vdW  Elec       q    Type
REMARK                         _______ _______ _______ _____ _____    ______ ____
ROOT
ATOM      1  C   UNL     1     -10.031  54.326  52.377  0.00  0.00    +0.000 A 
ATOM      2  C   UNL     1      -8.651  54.892  52.313  0.00  0.00    +0.000 A 
ATOM      3  C   UNL     1     -10.280  53.216  53.087  0.00  0.00    +0.000 A 
ATOM      4  O   UNL     1      -8.528  55.969  51.718  0.00  0.00    +0.000 OA
ATOM      5  N   UNL     1      -7.610  54.197  52.950  0.00  0.00    +0.000 N 
ATOM      6  C   UNL     1      -9.202  52.547  53.826  0.00  0.00    +0.000 A 
ATOM      7  C   UNL     1      -7.882  53.030  53.744  0.00  0.00    +0.000 A 
ATOM      8  C   UNL     1      -9.491  51.425  54.625  0.00  0.00    +0.000 A 
ATOM      9  C   UNL     1      -6.884  52.367  54.483  0.00  0.00    +0.000 A 
ATOM     10  C   UNL     1      -8.496  50.806  55.374  0.00  0.00    +0.000 A 
ATOM     11  C   UNL     1      -7.195  51.282  55.308  0.00  0.00    +0.000 A 
ENDROOT
BRANCH   1  17
ATOM     12  S   UNL     1     -12.256  55.830  49.513  0.00  0.00    +0.000 S 
ATOM     13  O   UNL     1     -13.133  54.833  48.935  0.00  0.00    +0.000 OA
ATOM     14  O   UNL     1     -11.583  56.795  48.660  0.00  0.00    +0.000 OA
ATOM     15  N   UNL     1     -11.129  55.057  50.376  0.00  0.00    +0.000 N 
ATOM     16  C   UNL     1     -13.246  56.771  50.616  0.00  0.00    +0.000 A 
ATOM     17  C   UNL     1     -11.157  55.065  51.675  0.00  0.00    +0.000 C 
ATOM     18  C   UNL     1     -13.045  56.596  51.974  0.00  0.00    +0.000 A 
ATOM     19  C   UNL     1     -14.189  57.669  50.114  0.00  0.00    +0.000 A 
ATOM     20  N   UNL     1     -12.108  55.684  52.457  0.00  0.00    +0.000 N 
ATOM     21  C   UNL     1     -13.867  57.299  52.860  0.00  0.00    +0.000 A 
ATOM     22  C   UNL     1     -14.980  58.387  51.008  0.00  0.00    +0.000 A 
ATOM     23  C   UNL     1     -14.824  58.196  52.380  0.00  0.00    +0.000 A 
ATOM     24  H   UNL     1     -10.410  54.572  49.910  0.00  0.00    +0.000 HD
ATOM     25  H   UNL     1     -12.128  55.469  53.417  0.00  0.00    +0.000 HD
ENDBRANCH   1  17
BRANCH   3  26
ATOM     26  O   UNL     1     -11.530  52.639  53.220  0.00  0.00    +0.000 OA
ATOM     27  H   UNL     1     -12.086  52.548  52.471  0.00  0.00    +0.000 HD
ENDBRANCH   3  26
BRANCH   5  28
ATOM     28  N   UNL     1      -6.219  54.561  52.712  0.00  0.00    +0.000 N 
ATOM     29  H   UNL     1      -5.804  55.338  53.151  0.00  0.00    +0.000 HD
BRANCH  28  30
ATOM     30  C   UNL     1      -5.472  53.702  51.778  0.00  0.00    +0.000 C 
BRANCH  30  31
ATOM     31  C   UNL     1      -6.042  53.784  50.387  0.00  0.00    +0.000 A 
ATOM     32  S   UNL     1      -5.711  55.162  49.420  0.00  0.00    +0.000 S 
ATOM     33  C   UNL     1      -6.915  52.904  49.759  0.00  0.00    +0.000 A 
ATOM     34  C   UNL     1      -6.731  54.612  48.170  0.00  0.00    +0.000 A 
ATOM     35  C   UNL     1      -7.300  53.395  48.469  0.00  0.00    +0.000 A 
ATOM     36  C   UNL     1      -7.430  51.622  50.334  0.00  0.00    +0.000 C 
ENDBRANCH  30  31
ENDBRANCH  28  30
ENDBRANCH   5  28
TORSDOF 5
ENDMDL
MODEL 2
REMARK VINA RESULT:      -8.4      2.801      5.205
REMARK  Name = 
REMARK  6 active torsions:
REMARK  status: ('A' for Active; 'I' for Inactive)
REMARK    1  A    between atoms: C_6  and  C_10
REMARK    2  A    between atoms: C_14  and  O_18
REMARK    3  A    between atoms: N_17  and  N_20
REMARK    4  A    between atoms: N_20  and  C_23
REMARK    5  A    between atoms: C_23  and  C_26
REMARK    6  A    between atoms: C_29  and  C_32
REMARK                            x       y       z     vdW  Elec       q    Type
REMARK                         _______ _______ _______ _____ _____    ______ ____
ROOT
ATOM      1  C   UNL     1     -11.709  55.652  48.727  0.00  0.00    +0.000 A 
ATOM      2  C   UNL     1     -10.793  54.862  49.601  0.00  0.00    +0.000 A 
ATOM      3  C   UNL     1     -11.778  55.402  47.411  0.00  0.00    +0.000 A 
ATOM      4  O   UNL     1     -10.862  55.090  50.814  0.00  0.00    +0.000 OA
ATOM      5  N   UNL     1      -9.955  53.905  49.005  0.00  0.00    +0.000 N 
ATOM      6  C   UNL     1     -10.966  54.337  46.811  0.00  0.00    +0.000 A 
ATOM      7  C   UNL     1     -10.057  53.609  47.602  0.00  0.00    +0.000 A 
ATOM      8  C   UNL     1     -11.101  54.038  45.442  0.00  0.00    +0.000 A 
ATOM      9  C   UNL     1      -9.312  52.586  46.988  0.00  0.00    +0.000 A 
ATOM     10  C   UNL     1     -10.380  53.000  44.862  0.00  0.00    +0.000 A 
ATOM     11  C   UNL     1      -9.491  52.270  45.637  0.00  0.00    +0.000 A 
ENDROOT
BRANCH   1  17
ATOM     12  S   UNL     1     -13.487  59.085  49.412  0.00  0.00    +0.000 S 
ATOM     13  O   UNL     1     -14.608  59.296  48.521  0.00  0.00    +0.000 OA
ATOM     14  O   UNL     1     -12.591  60.183  49.734  0.00  0.00    +0.000 OA
ATOM     15  N   UNL     1     -12.598  57.876  48.811  0.00  0.00    +0.000 N 
ATOM     16  C   UNL     1     -14.171  58.559  50.941  0.00  0.00    +0.000 A 
ATOM     17  C   UNL     1     -12.604  56.700  49.364  0.00  0.00    +0.000 C 
ATOM     18  C   UNL     1     -14.005  57.233  51.301  0.00  0.00    +0.000 A 
ATOM     19  C   UNL     1     -14.844  59.471  51.755  0.00  0.00    +0.000 A 
ATOM     20  N   UNL     1     -13.342  56.333  50.469  0.00  0.00    +0.000 N 
ATOM     21  C   UNL     1     -14.595  56.792  52.489  0.00  0.00    +0.000 A 
ATOM     22  C   UNL     1     -15.400  59.026  52.952  0.00  0.00    +0.000 A 
ATOM     23  C   UNL     1     -15.282  57.685  53.315  0.00  0.00    +0.000 A 
ATOM     24  H   UNL     1     -12.042  58.033  48.014  0.00  0.00    +0.000 HD
ATOM     25  H   UNL     1     -13.405  55.375  50.684  0.00  0.00    +0.000 HD
ENDBRANCH   1  17
BRANCH   3  26
ATOM     26  O   UNL     1     -12.616  56.069  46.533  0.00  0.00    +0.000 OA
ATOM     27  H   UNL     1     -13.468  55.726  46.348  0.00  0.00    +0.000 HD
ENDBRANCH   3  26
BRANCH   5  28
ATOM     28  N   UNL     1      -8.874  53.289  49.764  0.00  0.00    +0.000 N 
ATOM     29  H   UNL     1      -8.983  52.417  50.208  0.00  0.00    +0.000 HD
BRANCH  28  30
ATOM     30  C   UNL     1      -7.611  54.045  49.829  0.00  0.00    +0.000 C 
BRANCH  30  31
ATOM     31  C   UNL     1      -7.354  54.555  51.222  0.00  0.00    +0.000 A 
ATOM     32  S   UNL     1      -7.038  53.438  52.484  0.00  0.00    +0.000 S 
ATOM     33  C   UNL     1      -7.419  55.863  51.687  0.00  0.00    +0.000 A 
ATOM     34  C   UNL     1      -7.000  54.674  53.658  0.00  0.00    +0.000 A 
ATOM     35  C   UNL     1      -7.203  55.917  53.103  0.00  0.00    +0.000 A 
ATOM     36  C   UNL     1      -7.704  57.074  50.857  0.00  0.00    +0.000 C 
ENDBRANCH  30  31
ENDBRANCH  28  30
ENDBRANCH   5  28
TORSDOF 5
ENDMDL
MODEL 3
REMARK VINA RESULT:      -8.4      2.088      2.861
REMARK  Name = 
REMARK  6 active torsions:
REMARK  status: ('A' for Active; 'I' for Inactive)
REMARK    1  A    between atoms: C_6  and  C_10
REMARK    2  A    between atoms: C_14  and  O_18
REMARK    3  A    between atoms: N_17  and  N_20
REMARK    4  A    between atoms: N_20  and  C_23
REMARK    5  A    between atoms: C_23  and  C_26
REMARK    6  A    between atoms: C_29  and  C_32
REMARK                            x       y       z     vdW  Elec       q    Type
REMARK                         _______ _______ _______ _____ _____    ______ ____
ROOT
ATOM      1  C   UNL     1     -11.136  54.629  50.919  0.00  0.00    +0.000 A 
ATOM      2  C   UNL     1      -9.729  55.042  50.638  0.00  0.00    +0.000 A 
ATOM      3  C   UNL     1     -11.411  53.379  51.322  0.00  0.00    +0.000 A 
ATOM      4  O   UNL     1      -9.554  56.235  50.367  0.00  0.00    +0.000 OA
ATOM      5  N   UNL     1      -8.714  54.076  50.732  0.00  0.00    +0.000 N 
ATOM      6  C   UNL     1     -10.332  52.401  51.506  0.00  0.00    +0.000 A 
ATOM      7  C   UNL     1      -9.002  52.748  51.202  0.00  0.00    +0.000 A 
ATOM      8  C   UNL     1     -10.627  51.115  51.997  0.00  0.00    +0.000 A 
ATOM      9  C   UNL     1      -7.999  51.784  51.411  0.00  0.00    +0.000 A 
ATOM     10  C   UNL     1      -9.616  50.189  52.229  0.00  0.00    +0.000 A 
ATOM     11  C   UNL     1      -8.302  50.527  51.942  0.00  0.00    +0.000 A 
ENDROOT
BRANCH   1  17
ATOM     12  S   UNL     1     -13.593  57.264  49.360  0.00  0.00    +0.000 S 
ATOM     13  O   UNL     1     -14.714  56.629  48.701  0.00  0.00    +0.000 OA
ATOM     14  O   UNL     1     -12.947  58.417  48.756  0.00  0.00    +0.000 OA
ATOM     15  N   UNL     1     -12.463  56.136  49.612  0.00  0.00    +0.000 N 
ATOM     16  C   UNL     1     -14.186  57.808  50.920  0.00  0.00    +0.000 A 
ATOM     17  C   UNL     1     -12.240  55.665  50.802  0.00  0.00    +0.000 C 
ATOM     18  C   UNL     1     -13.760  57.126  52.047  0.00  0.00    +0.000 A 
ATOM     19  C   UNL     1     -15.049  58.903  50.996  0.00  0.00    +0.000 A 
ATOM     20  N   UNL     1     -12.910  56.027  51.951  0.00  0.00    +0.000 N 
ATOM     21  C   UNL     1     -14.272  57.517  53.288  0.00  0.00    +0.000 A 
ATOM     22  C   UNL     1     -15.526  59.301  52.242  0.00  0.00    +0.000 A 
ATOM     23  C   UNL     1     -15.144  58.603  53.386  0.00  0.00    +0.000 A 
ATOM     24  H   UNL     1     -11.934  55.801  48.852  0.00  0.00    +0.000 HD
ATOM     25  H   UNL     1     -12.780  55.474  52.755  0.00  0.00    +0.000 HD
ENDBRANCH   1  17
BRANCH   3  26
ATOM     26  O   UNL     1     -12.680  52.919  51.627  0.00  0.00    +0.000 OA
ATOM     27  H   UNL     1     -12.864  52.001  51.601  0.00  0.00    +0.000 HD
ENDBRANCH   3  26
BRANCH   5  28
ATOM     28  N   UNL     1      -7.375  54.356  50.231  0.00  0.00    +0.000 N 
ATOM     29  H   UNL     1      -7.028  53.933  49.412  0.00  0.00    +0.000 HD
BRANCH  28  30
ATOM     30  C   UNL     1      -6.569  55.304  51.020  0.00  0.00    +0.000 C 
BRANCH  30  31
ATOM     31  C   UNL     1      -6.023  54.653  52.263  0.00  0.00    +0.000 A 
ATOM     32  S   UNL     1      -4.609  53.689  52.157  0.00  0.00    +0.000 S 
ATOM     33  C   UNL     1      -6.567  54.644  53.541  0.00  0.00    +0.000 A 
ATOM     34  C   UNL     1      -4.712  53.239  53.798  0.00  0.00    +0.000 A 
ATOM     35  C   UNL     1      -5.789  53.824  54.424  0.00  0.00    +0.000 A 
ATOM     36  C   UNL     1      -7.810  55.355  53.970  0.00  0.00    +0.000 C 
ENDBRANCH  30  31
ENDBRANCH  28  30
ENDBRANCH   5  28
TORSDOF 5
ENDMDL
MODEL 4
REMARK VINA RESULT:      -8.2      2.524      7.935
REMARK  Name = 
REMARK  6 active torsions:
REMARK  status: ('A' for Active; 'I' for Inactive)
REMARK    1  A    between atoms: C_6  and  C_10
REMARK    2  A    between atoms: C_14  and  O_18
REMARK    3  A    between atoms: N_17  and  N_20
REMARK    4  A    between atoms: N_20  and  C_23
REMARK    5  A    between atoms: C_23  and  C_26
REMARK    6  A    between atoms: C_29  and  C_32
REMARK                            x       y       z     vdW  Elec       q    Type
REMARK                         _______ _______ _______ _____ _____    ______ ____
ROOT
ATOM      1  C   UNL     1      -9.630  54.237  50.237  0.00  0.00    +0.000 A 
ATOM      2  C   UNL     1     -10.893  55.017  50.393  0.00  0.00    +0.000 A 
ATOM      3  C   UNL     1      -9.260  53.775  49.034  0.00  0.00    +0.000 A 
ATOM      4  O   UNL     1     -11.109  55.489  51.516  0.00  0.00    +0.000 OA
ATOM      5  N   UNL     1     -11.718  55.191  49.271  0.00  0.00    +0.000 N 
ATOM      6  C   UNL     1     -10.083  54.040  47.848  0.00  0.00    +0.000 A 
ATOM      7  C   UNL     1     -11.303  54.730  47.973  0.00  0.00    +0.000 A 
ATOM      8  C   UNL     1      -9.646  53.610  46.580  0.00  0.00    +0.000 A 
ATOM      9  C   UNL     1     -12.051  54.977  46.807  0.00  0.00    +0.000 A 
ATOM     10  C   UNL     1     -10.383  53.895  45.436  0.00  0.00    +0.000 A 
ATOM     11  C   UNL     1     -11.581  54.584  45.550  0.00  0.00    +0.000 A 
ENDROOT
BRANCH   1  17
ATOM     12  S   UNL     1      -6.660  54.658  52.770  0.00  0.00    +0.000 S 
ATOM     13  O   UNL     1      -6.860  55.791  53.648  0.00  0.00    +0.000 OA
ATOM     14  O   UNL     1      -5.344  54.384  52.217  0.00  0.00    +0.000 OA
ATOM     15  N   UNL     1      -7.697  54.798  51.538  0.00  0.00    +0.000 N 
ATOM     16  C   UNL     1      -7.096  53.235  53.700  0.00  0.00    +0.000 A 
ATOM     17  C   UNL     1      -8.743  54.032  51.452  0.00  0.00    +0.000 C 
ATOM     18  C   UNL     1      -8.274  52.586  53.373  0.00  0.00    +0.000 A 
ATOM     19  C   UNL     1      -6.259  52.786  54.722  0.00  0.00    +0.000 A 
ATOM     20  N   UNL     1      -9.104  53.057  52.358  0.00  0.00    +0.000 N 
ATOM     21  C   UNL     1      -8.659  51.485  54.144  0.00  0.00    +0.000 A 
ATOM     22  C   UNL     1      -6.638  51.669  55.463  0.00  0.00    +0.000 A 
ATOM     23  C   UNL     1      -7.841  51.024  55.179  0.00  0.00    +0.000 A 
ATOM     24  H   UNL     1      -7.534  55.474  50.841  0.00  0.00    +0.000 HD
ATOM     25  H   UNL     1     -10.006  52.670  52.283  0.00  0.00    +0.000 HD
ENDBRANCH   1  17
BRANCH   3  26
ATOM     26  O   UNL     1      -8.095  53.066  48.795  0.00  0.00    +0.000 OA
ATOM     27  H   UNL     1      -8.140  52.175  48.506  0.00  0.00    +0.000 HD
ENDBRANCH   3  26
BRANCH   5  28
ATOM     28  N   UNL     1     -13.068  55.719  49.416  0.00  0.00    +0.000 N 
ATOM     29  H   UNL     1     -13.841  55.133  49.587  0.00  0.00    +0.000 HD
BRANCH  28  30
ATOM     30  C   UNL     1     -13.212  57.180  49.291  0.00  0.00    +0.000 C 
BRANCH  30  31
ATOM     31  C   UNL     1     -13.883  57.767  50.505  0.00  0.00    +0.000 A 
ATOM     32  S   UNL     1     -14.421  56.725  51.756  0.00  0.00    +0.000 S 
ATOM     33  C   UNL     1     -14.227  59.092  50.744  0.00  0.00    +0.000 A 
ATOM     34  C   UNL     1     -15.128  58.016  52.617  0.00  0.00    +0.000 A 
ATOM     35  C   UNL     1     -14.943  59.221  51.980  0.00  0.00    +0.000 A 
ATOM     36  C   UNL     1     -13.935  60.249  49.844  0.00  0.00    +0.000 C 
ENDBRANCH  30  31
ENDBRANCH  28  30
ENDBRANCH   5  28
TORSDOF 5
ENDMDL
MODEL 5
REMARK VINA RESULT:      -8.2      2.754      8.038
REMARK  Name = 
REMARK  6 active torsions:
REMARK  status: ('A' for Active; 'I' for Inactive)
REMARK    1  A    between atoms: C_6  and  C_10
REMARK    2  A    between atoms: C_14  and  O_18
REMARK    3  A    between atoms: N_17  and  N_20
REMARK    4  A    between atoms: N_20  and  C_23
REMARK    5  A    between atoms: C_23  and  C_26
REMARK    6  A    between atoms: C_29  and  C_32
REMARK                            x       y       z     vdW  Elec       q    Type
REMARK                         _______ _______ _______ _____ _____    ______ ____
ROOT
ATOM      1  C   UNL     1      -9.062  54.320  49.842  0.00  0.00    +0.000 A 
ATOM      2  C   UNL     1      -9.975  55.501  49.841  0.00  0.00    +0.000 A 
ATOM      3  C   UNL     1      -9.055  53.463  48.810  0.00  0.00    +0.000 A 
ATOM      4  O   UNL     1      -9.847  56.291  50.783  0.00  0.00    +0.000 OA
ATOM      5  N   UNL     1     -10.875  55.653  48.774  0.00  0.00    +0.000 N 
ATOM      6  C   UNL     1      -9.935  53.681  47.655  0.00  0.00    +0.000 A 
ATOM      7  C   UNL     1     -10.841  54.758  47.649  0.00  0.00    +0.000 A 
ATOM      8  C   UNL     1      -9.867  52.814  46.548  0.00  0.00    +0.000 A 
ATOM      9  C   UNL     1     -11.653  54.938  46.513  0.00  0.00    +0.000 A 
ATOM     10  C   UNL     1     -10.653  53.030  45.422  0.00  0.00    +0.000 A 
ATOM     11  C   UNL     1     -11.541  54.096  45.403  0.00  0.00    +0.000 A 
ENDROOT
BRANCH   1  17
ATOM     12  S   UNL     1      -7.689  54.056  53.510  0.00  0.00    +0.000 S 
ATOM     13  O   UNL     1      -7.941  52.751  54.086  0.00  0.00    +0.000 OA
ATOM     14  O   UNL     1      -7.860  55.255  54.313  0.00  0.00    +0.000 OA
ATOM     15  N   UNL     1      -8.613  54.203  52.193  0.00  0.00    +0.000 N 
ATOM     16  C   UNL     1      -6.007  54.051  53.006  0.00  0.00    +0.000 A 
ATOM     17  C   UNL     1      -8.098  54.141  51.002  0.00  0.00    +0.000 C 
ATOM     18  C   UNL     1      -5.740  54.004  51.649  0.00  0.00    +0.000 A 
ATOM     19  C   UNL     1      -4.992  54.106  53.962  0.00  0.00    +0.000 A 
ATOM     20  N   UNL     1      -6.767  53.936  50.710  0.00  0.00    +0.000 N 
ATOM     21  C   UNL     1      -4.404  53.943  51.240  0.00  0.00    +0.000 A 
ATOM     22  C   UNL     1      -3.665  54.076  53.539  0.00  0.00    +0.000 A 
ATOM     23  C   UNL     1      -3.372  53.987  52.179  0.00  0.00    +0.000 A 
ATOM     24  H   UNL     1      -9.583  54.342  52.294  0.00  0.00    +0.000 HD
ATOM     25  H   UNL     1      -6.526  53.726  49.778  0.00  0.00    +0.000 HD
ENDBRANCH   1  17
BRANCH   3  26
ATOM     26  O   UNL     1      -8.226  52.359  48.717  0.00  0.00    +0.000 OA
ATOM     27  H   UNL     1      -8.437  51.575  49.185  0.00  0.00    +0.000 HD
ENDBRANCH   3  26
BRANCH   5  28
ATOM     28  N   UNL     1     -11.949  56.635  48.843  0.00  0.00    +0.000 N 
ATOM     29  H   UNL     1     -11.932  57.463  48.310  0.00  0.00    +0.000 HD
BRANCH  28  30
ATOM     30  C   UNL     1     -13.062  56.318  49.755  0.00  0.00    +0.000 C 
BRANCH  30  31
ATOM     31  C   UNL     1     -13.823  57.561  50.137  0.00  0.00    +0.000 A 
ATOM     32  S   UNL     1     -13.735  58.946  49.130  0.00  0.00    +0.000 S 
ATOM     33  C   UNL     1     -14.560  57.800  51.291  0.00  0.00    +0.000 A 
ATOM     34  C   UNL     1     -14.659  59.878  50.218  0.00  0.00    +0.000 A 
ATOM     35  C   UNL     1     -15.046  59.148  51.319  0.00  0.00    +0.000 A 
ATOM     36  C   UNL     1     -14.809  56.817  52.390  0.00  0.00    +0.000 C 
ENDBRANCH  30  31
ENDBRANCH  28  30
ENDBRANCH   5  28
TORSDOF 5
ENDMDL
MODEL 6
REMARK VINA RESULT:      -8.0      3.171      4.278
REMARK  Name = 
REMARK  6 active torsions:
REMARK  status: ('A' for Active; 'I' for Inactive)
REMARK    1  A    between atoms: C_6  and  C_10
REMARK    2  A    between atoms: C_14  and  O_18
REMARK    3  A    between atoms: N_17  and  N_20
REMARK    4  A    between atoms: N_20  and  C_23
REMARK    5  A    between atoms: C_23  and  C_26
REMARK    6  A    between atoms: C_29  and  C_32
REMARK                            x       y       z     vdW  Elec       q    Type
REMARK                         _______ _______ _______ _____ _____    ______ ____
ROOT
ATOM      1  C   UNL     1     -12.294  54.277  50.126  0.00  0.00    +0.000 A 
ATOM      2  C   UNL     1     -12.012  53.936  48.700  0.00  0.00    +0.000 A 
ATOM      3  C   UNL     1     -11.760  53.549  51.118  0.00  0.00    +0.000 A 
ATOM      4  O   UNL     1     -12.463  54.714  47.852  0.00  0.00    +0.000 OA
ATOM      5  N   UNL     1     -11.239  52.797  48.422  0.00  0.00    +0.000 N 
ATOM      6  C   UNL     1     -10.878  52.415  50.819  0.00  0.00    +0.000 A 
ATOM      7  C   UNL     1     -10.634  52.040  49.485  0.00  0.00    +0.000 A 
ATOM      8  C   UNL     1     -10.267  51.705  51.871  0.00  0.00    +0.000 A 
ATOM      9  C   UNL     1      -9.768  50.957  49.245  0.00  0.00    +0.000 A 
ATOM     10  C   UNL     1      -9.388  50.660  51.611  0.00  0.00    +0.000 A 
ATOM     11  C   UNL     1      -9.133  50.291  50.298  0.00  0.00    +0.000 A 
ENDROOT
BRANCH   1  17
ATOM     12  S   UNL     1     -15.297  56.487  51.355  0.00  0.00    +0.000 S 
ATOM     13  O   UNL     1     -15.262  56.691  52.788  0.00  0.00    +0.000 OA
ATOM     14  O   UNL     1     -16.559  56.229  50.683  0.00  0.00    +0.000 OA
ATOM     15  N   UNL     1     -14.288  55.274  51.003  0.00  0.00    +0.000 N 
ATOM     16  C   UNL     1     -14.661  57.957  50.637  0.00  0.00    +0.000 A 
ATOM     17  C   UNL     1     -13.144  55.497  50.431  0.00  0.00    +0.000 C 
ATOM     18  C   UNL     1     -13.402  57.905  50.065  0.00  0.00    +0.000 A 
ATOM     19  C   UNL     1     -15.426  59.125  50.644  0.00  0.00    +0.000 A 
ATOM     20  N   UNL     1     -12.647  56.734  50.079  0.00  0.00    +0.000 N 
ATOM     21  C   UNL     1     -12.865  59.085  49.541  0.00  0.00    +0.000 A 
ATOM     22  C   UNL     1     -14.892  60.285  50.090  0.00  0.00    +0.000 A 
ATOM     23  C   UNL     1     -13.609  60.267  49.546  0.00  0.00    +0.000 A 
ATOM     24  H   UNL     1     -14.546  54.349  51.226  0.00  0.00    +0.000 HD
ATOM     25  H   UNL     1     -11.699  56.794  49.822  0.00  0.00    +0.000 HD
ENDBRANCH   1  17
BRANCH   3  26
ATOM     26  O   UNL     1     -11.948  53.809  52.465  0.00  0.00    +0.000 OA
ATOM     27  H   UNL     1     -11.223  54.071  52.997  0.00  0.00    +0.000 HD
ENDBRANCH   3  26
BRANCH   5  28
ATOM     28  N   UNL     1     -11.143  52.278  47.064  0.00  0.00    +0.000 N 
ATOM     29  H   UNL     1     -11.556  51.422  46.804  0.00  0.00    +0.000 HD
BRANCH  28  30
ATOM     30  C   UNL     1     -10.392  53.104  46.103  0.00  0.00    +0.000 C 
BRANCH  30  31
ATOM     31  C   UNL     1      -8.934  53.181  46.474  0.00  0.00    +0.000 A 
ATOM     32  S   UNL     1      -7.909  51.847  46.142  0.00  0.00    +0.000 S 
ATOM     33  C   UNL     1      -8.271  54.192  47.159  0.00  0.00    +0.000 A 
ATOM     34  C   UNL     1      -6.583  52.589  46.914  0.00  0.00    +0.000 A 
ATOM     35  C   UNL     1      -6.903  53.836  47.400  0.00  0.00    +0.000 A 
ATOM     36  C   UNL     1      -8.876  55.477  47.624  0.00  0.00    +0.000 C 
ENDBRANCH  30  31
ENDBRANCH  28  30
ENDBRANCH   5  28
TORSDOF 5
ENDMDL
MODEL 7
REMARK VINA RESULT:      -7.9      3.432      5.186
REMARK  Name = 
REMARK  6 active torsions:
REMARK  status: ('A' for Active; 'I' for Inactive)
REMARK    1  A    between atoms: C_6  and  C_10
REMARK    2  A    between atoms: C_14  and  O_18
REMARK    3  A    between atoms: N_17  and  N_20
REMARK    4  A    between atoms: N_20  and  C_23
REMARK    5  A    between atoms: C_23  and  C_26
REMARK    6  A    between atoms: C_29  and  C_32
REMARK                            x       y       z     vdW  Elec       q    Type
REMARK                         _______ _______ _______ _____ _____    ______ ____
ROOT
ATOM      1  C   UNL     1     -10.616  55.782  48.433  0.00  0.00    +0.000 A 
ATOM      2  C   UNL     1      -9.188  55.781  48.867  0.00  0.00    +0.000 A 
ATOM      3  C   UNL     1     -10.979  55.200  47.280  0.00  0.00    +0.000 A 
ATOM      4  O   UNL     1      -8.956  56.251  49.987  0.00  0.00    +0.000 OA
ATOM      5  N   UNL     1      -8.226  55.225  48.008  0.00  0.00    +0.000 N 
ATOM      6  C   UNL     1      -9.979  54.540  46.433  0.00  0.00    +0.000 A 
ATOM      7  C   UNL     1      -8.618  54.567  46.791  0.00  0.00    +0.000 A 
ATOM      8  C   UNL     1     -10.383  53.872  45.261  0.00  0.00    +0.000 A 
ATOM      9  C   UNL     1      -7.697  53.906  45.958  0.00  0.00    +0.000 A 
ATOM     10  C   UNL     1      -9.461  53.197  44.469  0.00  0.00    +0.000 A 
ATOM     11  C   UNL     1      -8.120  53.208  44.822  0.00  0.00    +0.000 A 
ENDROOT
BRANCH   1  17
ATOM     12  S   UNL     1     -13.227  56.173  51.340  0.00  0.00    +0.000 S 
ATOM     13  O   UNL     1     -12.582  56.442  52.608  0.00  0.00    +0.000 OA
ATOM     14  O   UNL     1     -14.355  55.260  51.273  0.00  0.00    +0.000 OA
ATOM     15  N   UNL     1     -12.096  55.643  50.313  0.00  0.00    +0.000 N 
ATOM     16  C   UNL     1     -13.822  57.717  50.756  0.00  0.00    +0.000 A 
ATOM     17  C   UNL     1     -11.658  56.397  49.351  0.00  0.00    +0.000 C 
ATOM     18  C   UNL     1     -13.170  58.296  49.681  0.00  0.00    +0.000 A 
ATOM     19  C   UNL     1     -14.926  58.315  51.365  0.00  0.00    +0.000 A 
ATOM     20  N   UNL     1     -12.061  57.691  49.094  0.00  0.00    +0.000 N 
ATOM     21  C   UNL     1     -13.601  59.552  49.245  0.00  0.00    +0.000 A 
ATOM     22  C   UNL     1     -15.366  59.552  50.901  0.00  0.00    +0.000 A 
ATOM     23  C   UNL     1     -14.698  60.174  49.846  0.00  0.00    +0.000 A 
ATOM     24  H   UNL     1     -11.734  54.733  50.418  0.00  0.00    +0.000 HD
ATOM     25  H   UNL     1     -11.530  58.221  48.457  0.00  0.00    +0.000 HD
ENDBRANCH   1  17
BRANCH   3  26
ATOM     26  O   UNL     1     -12.281  55.134  46.815  0.00  0.00    +0.000 OA
ATOM     27  H   UNL     1     -12.537  54.439  46.241  0.00  0.00    +0.000 HD
ENDBRANCH   3  26
BRANCH   5  28
ATOM     28  N   UNL     1      -6.804  55.419  48.261  0.00  0.00    +0.000 N 
ATOM     29  H   UNL     1      -6.247  55.991  47.684  0.00  0.00    +0.000 HD
BRANCH  28  30
ATOM     30  C   UNL     1      -6.248  54.711  49.427  0.00  0.00    +0.000 C 
BRANCH  30  31
ATOM     31  C   UNL     1      -6.217  53.223  49.197  0.00  0.00    +0.000 A 
ATOM     32  S   UNL     1      -7.311  52.216  50.051  0.00  0.00    +0.000 S 
ATOM     33  C   UNL     1      -5.332  52.490  48.417  0.00  0.00    +0.000 A 
ATOM     34  C   UNL     1      -6.613  50.800  49.408  0.00  0.00    +0.000 A 
ATOM     35  C   UNL     1      -5.580  51.083  48.544  0.00  0.00    +0.000 A 
ATOM     36  C   UNL     1      -4.235  53.054  47.571  0.00  0.00    +0.000 C 
ENDBRANCH  30  31
ENDBRANCH  28  30
ENDBRANCH   5  28
TORSDOF 5
ENDMDL
MODEL 8
REMARK VINA RESULT:      -7.9      2.540      6.797
REMARK  Name = 
REMARK  6 active torsions:
REMARK  status: ('A' for Active; 'I' for Inactive)
REMARK    1  A    between atoms: C_6  and  C_10
REMARK    2  A    between atoms: C_14  and  O_18
REMARK    3  A    between atoms: N_17  and  N_20
REMARK    4  A    between atoms: N_20  and  C_23
REMARK    5  A    between atoms: C_23  and  C_26
REMARK    6  A    between atoms: C_29  and  C_32
REMARK                            x       y       z     vdW  Elec       q    Type
REMARK                         _______ _______ _______ _____ _____    ______ ____
ROOT
ATOM      1  C   UNL     1     -10.311  55.107  50.862  0.00  0.00    +0.000 A 
ATOM      2  C   UNL     1      -9.934  54.974  49.423  0.00  0.00    +0.000 A 
ATOM      3  C   UNL     1     -11.490  55.641  51.210  0.00  0.00    +0.000 A 
ATOM      4  O   UNL     1      -8.874  54.383  49.188  0.00  0.00    +0.000 OA
ATOM      5  N   UNL     1     -10.807  55.487  48.450  0.00  0.00    +0.000 N 
ATOM      6  C   UNL     1     -12.437  56.090  50.183  0.00  0.00    +0.000 A 
ATOM      7  C   UNL     1     -12.089  56.023  48.821  0.00  0.00    +0.000 A 
ATOM      8  C   UNL     1     -13.701  56.583  50.561  0.00  0.00    +0.000 A 
ATOM      9  C   UNL     1     -13.035  56.449  47.870  0.00  0.00    +0.000 A 
ATOM     10  C   UNL     1     -14.634  56.967  49.603  0.00  0.00    +0.000 A 
ATOM     11  C   UNL     1     -14.302  56.893  48.259  0.00  0.00    +0.000 A 
ENDROOT
BRANCH   1  17
ATOM     12  S   UNL     1      -7.090  54.646  53.060  0.00  0.00    +0.000 S 
ATOM     13  O   UNL     1      -7.015  55.633  54.116  0.00  0.00    +0.000 OA
ATOM     14  O   UNL     1      -5.896  54.273  52.320  0.00  0.00    +0.000 OA
ATOM     15  N   UNL     1      -8.199  55.144  51.994  0.00  0.00    +0.000 N 
ATOM     16  C   UNL     1      -7.671  53.169  53.810  0.00  0.00    +0.000 A 
ATOM     17  C   UNL     1      -9.362  54.569  51.918  0.00  0.00    +0.000 C 
ATOM     18  C   UNL     1      -8.967  52.769  53.531  0.00  0.00    +0.000 A 
ATOM     19  C   UNL     1      -6.831  52.435  54.648  0.00  0.00    +0.000 A 
ATOM     20  N   UNL     1      -9.796  53.523  52.704  0.00  0.00    +0.000 N 
ATOM     21  C   UNL     1      -9.457  51.626  54.169  0.00  0.00    +0.000 A 
ATOM     22  C   UNL     1      -7.321  51.279  55.252  0.00  0.00    +0.000 A 
ATOM     23  C   UNL     1      -8.636  50.880  55.018  0.00  0.00    +0.000 A 
ATOM     24  H   UNL     1      -7.990  55.895  51.393  0.00  0.00    +0.000 HD
ATOM     25  H   UNL     1     -10.753  53.294  52.680  0.00  0.00    +0.000 HD
ENDBRANCH   1  17
BRANCH   3  26
ATOM     26  O   UNL     1     -11.929  55.779  52.516  0.00  0.00    +0.000 OA
ATOM     27  H   UNL     1     -12.848  55.780  52.703  0.00  0.00    +0.000 HD
ENDBRANCH   3  26
BRANCH   5  28
ATOM     28  N   UNL     1     -10.382  55.611  47.062  0.00  0.00    +0.000 N 
ATOM     29  H   UNL     1      -9.840  56.372  46.751  0.00  0.00    +0.000 HD
BRANCH  28  30
ATOM     30  C   UNL     1     -10.810  54.535  46.152  0.00  0.00    +0.000 C 
BRANCH  30  31
ATOM     31  C   UNL     1      -9.780  53.438  46.084  0.00  0.00    +0.000 A 
ATOM     32  S   UNL     1     -10.184  51.866  46.637  0.00  0.00    +0.000 S 
ATOM     33  C   UNL     1      -8.448  53.529  45.696  0.00  0.00    +0.000 A 
ATOM     34  C   UNL     1      -8.598  51.296  46.383  0.00  0.00    +0.000 A 
ATOM     35  C   UNL     1      -7.777  52.274  45.868  0.00  0.00    +0.000 A 
ATOM     36  C   UNL     1      -7.765  54.759  45.192  0.00  0.00    +0.000 C 
ENDBRANCH  30  31
ENDBRANCH  28  30
ENDBRANCH   5  28
TORSDOF 5
ENDMDL
MODEL 9
REMARK VINA RESULT:      -7.8      1.722      2.131
REMARK  Name = 
REMARK  6 active torsions:
REMARK  status: ('A' for Active; 'I' for Inactive)
REMARK    1  A    between atoms: C_6  and  C_10
REMARK    2  A    between atoms: C_14  and  O_18
REMARK    3  A    between atoms: N_17  and  N_20
REMARK    4  A    between atoms: N_20  and  C_23
REMARK    5  A    between atoms: C_23  and  C_26
REMARK    6  A    between atoms: C_29  and  C_32
REMARK                            x       y       z     vdW  Elec       q    Type
REMARK                         _______ _______ _______ _____ _____    ______ ____
ROOT
ATOM      1  C   UNL     1      -9.260  55.152  51.272  0.00  0.00    +0.000 A 
ATOM      2  C   UNL     1      -8.165  55.671  50.400  0.00  0.00    +0.000 A 
ATOM      3  C   UNL     1      -8.977  54.562  52.442  0.00  0.00    +0.000 A 
ATOM      4  O   UNL     1      -8.517  56.287  49.388  0.00  0.00    +0.000 OA
ATOM      5  N   UNL     1      -6.834  55.461  50.797  0.00  0.00    +0.000 N 
ATOM      6  C   UNL     1      -7.587  54.429  52.893  0.00  0.00    +0.000 A 
ATOM      7  C   UNL     1      -6.531  54.864  52.070  0.00  0.00    +0.000 A 
ATOM      8  C   UNL     1      -7.309  53.871  54.155  0.00  0.00    +0.000 A 
ATOM      9  C   UNL     1      -5.215  54.733  52.550  0.00  0.00    +0.000 A 
ATOM     10  C   UNL     1      -6.003  53.782  54.625  0.00  0.00    +0.000 A 
ATOM     11  C   UNL     1      -4.958  54.219  53.825  0.00  0.00    +0.000 A 
ENDROOT
BRANCH   1  17
ATOM     12  S   UNL     1     -12.461  55.312  49.003  0.00  0.00    +0.000 S 
ATOM     13  O   UNL     1     -13.049  54.004  48.812  0.00  0.00    +0.000 OA
ATOM     14  O   UNL     1     -12.374  56.244  47.892  0.00  0.00    +0.000 OA
ATOM     15  N   UNL     1     -10.971  55.103  49.594  0.00  0.00    +0.000 N 
ATOM     16  C   UNL     1     -13.432  56.112  50.227  0.00  0.00    +0.000 A 
ATOM     17  C   UNL     1     -10.700  55.361  50.838  0.00  0.00    +0.000 C 
ATOM     18  C   UNL     1     -12.877  56.280  51.484  0.00  0.00    +0.000 A 
ATOM     19  C   UNL     1     -14.714  56.565  49.915  0.00  0.00    +0.000 A 
ATOM     20  N   UNL     1     -11.600  55.809  51.782  0.00  0.00    +0.000 N 
ATOM     21  C   UNL     1     -13.663  56.865  52.481  0.00  0.00    +0.000 A 
ATOM     22  C   UNL     1     -15.476  57.174  50.909  0.00  0.00    +0.000 A 
ATOM     23  C   UNL     1     -14.953  57.317  52.193  0.00  0.00    +0.000 A 
ATOM     24  H   UNL     1     -10.256  54.775  49.001  0.00  0.00    +0.000 HD
ATOM     25  H   UNL     1     -11.323  55.794  52.726  0.00  0.00    +0.000 HD
ENDBRANCH   1  17
BRANCH   3  26
ATOM     26  O   UNL     1      -9.930  54.076  53.321  0.00  0.00    +0.000 OA
ATOM     27  H   UNL     1     -10.580  53.472  53.019  0.00  0.00    +0.000 HD
ENDBRANCH   3  26
BRANCH   5  28
ATOM     28  N   UNL     1      -5.735  55.718  49.876  0.00  0.00    +0.000 N 
ATOM     29  H   UNL     1      -5.435  56.633  49.667  0.00  0.00    +0.000 HD
BRANCH  28  30
ATOM     30  C   UNL     1      -5.098  54.533  49.275  0.00  0.00    +0.000 C 
BRANCH  30  31
ATOM     31  C   UNL     1      -6.108  53.681  48.552  0.00  0.00    +0.000 A 
ATOM     32  S   UNL     1      -6.716  54.198  47.034  0.00  0.00    +0.000 S 
ATOM     33  C   UNL     1      -6.722  52.513  48.990  0.00  0.00    +0.000 A 
ATOM     34  C   UNL     1      -7.806  52.890  46.950  0.00  0.00    +0.000 A 
ATOM     35  C   UNL     1      -7.700  52.062  48.044  0.00  0.00    +0.000 A 
ATOM     36  C   UNL     1      -6.447  51.810  50.280  0.00  0.00    +0.000 C 
ENDBRANCH  30  31
ENDBRANCH  28  30
ENDBRANCH   5  28
TORSDOF 5
ENDMDL
