MODEL 1
REMARK VINA RESULT:      -8.4      0.000      0.000
REMARK  Name = 
REMARK  5 active torsions:
REMARK  status: ('A' for Active; 'I' for Inactive)
REMARK    1  A    between atoms: C_6  and  C_10
REMARK    2  A    between atoms: C_14  and  O_18
REMARK    3  A    between atoms: N_17  and  N_20
REMARK    4  A    between atoms: N_20  and  C_23
REMARK    5  A    between atoms: C_23  and  C_26
REMARK                            x       y       z     vdW  Elec       q    Type
REMARK                         _______ _______ _______ _____ _____    ______ ____
ROOT
ATOM      1  C   UNL     1     -10.116  54.553  52.219  0.00  0.00    +0.000 A 
ATOM      2  C   UNL     1      -8.747  55.124  52.041  0.00  0.00    +0.000 A 
ATOM      3  C   UNL     1     -10.297  53.445  52.959  0.00  0.00    +0.000 A 
ATOM      4  O   UNL     1      -8.638  56.136  51.341  0.00  0.00    +0.000 OA
ATOM      5  N   UNL     1      -7.683  54.503  52.697  0.00  0.00    +0.000 N 
ATOM      6  C   UNL     1      -9.162  52.799  53.632  0.00  0.00    +0.000 A 
ATOM      7  C   UNL     1      -7.869  53.333  53.491  0.00  0.00    +0.000 A 
ATOM      8  C   UNL     1      -9.354  51.658  54.429  0.00  0.00    +0.000 A 
ATOM      9  C   UNL     1      -6.795  52.706  54.144  0.00  0.00    +0.000 A 
ATOM     10  C   UNL     1      -8.283  51.054  55.085  0.00  0.00    +0.000 A 
ATOM     11  C   UNL     1      -7.003  51.576  54.940  0.00  0.00    +0.000 A 
ENDROOT
BRANCH   1  17
ATOM     12  S   UNL     1     -12.548  56.067  49.529  0.00  0.00    +0.000 S 
ATOM     13  O   UNL     1     -13.437  55.067  48.969  0.00  0.00    +0.000 OA
ATOM     14  O   UNL     1     -11.934  57.065  48.675  0.00  0.00    +0.000 OA
ATOM     15  N   UNL     1     -11.360  55.282  50.306  0.00  0.00    +0.000 N 
ATOM     16  C   UNL     1     -13.493  56.953  50.713  0.00  0.00    +0.000 A 
ATOM     17  C   UNL     1     -11.293  55.285  51.605  0.00  0.00    +0.000 C 
ATOM     18  C   UNL     1     -13.191  56.769  52.052  0.00  0.00    +0.000 A 
ATOM     19  C   UNL     1     -14.502  57.822  50.294  0.00  0.00    +0.000 A 
ATOM     20  N   UNL     1     -12.190  55.891  52.458  0.00  0.00    +0.000 N 
ATOM     21  C   UNL     1     -13.980  57.425  53.004  0.00  0.00    +0.000 A 
ATOM     22  C   UNL     1     -15.257  58.496  51.250  0.00  0.00    +0.000 A 
ATOM     23  C   UNL     1     -15.003  58.290  52.605  0.00  0.00    +0.000 A 
ATOM     24  H   UNL     1     -10.680  54.795  49.786  0.00  0.00    +0.000 HD
ATOM     25  H   UNL     1     -12.119  55.688  53.419  0.00  0.00    +0.000 HD
ENDBRANCH   1  17
BRANCH   3  26
ATOM     26  O   UNL     1     -11.526  52.849  53.179  0.00  0.00    +0.000 OA
ATOM     27  H   UNL     1     -11.570  51.984  53.537  0.00  0.00    +0.000 HD
ENDBRANCH   3  26
BRANCH   5  28
ATOM     28  N   UNL     1      -6.339  54.971  52.505  0.00  0.00    +0.000 N 
ATOM     29  H   UNL     1      -5.844  55.465  53.199  0.00  0.00    +0.000 HD
BRANCH  28  30
ATOM     30  C   UNL     1      -5.756  54.659  51.192  0.00  0.00    +0.000 C 
BRANCH  30  31
ATOM     31  C   UNL     1      -4.876  53.465  51.289  0.00  0.00    +0.000 A 
ATOM     32  O   UNL     1      -5.401  52.286  50.843  0.00  0.00    +0.000 OA
ATOM     33  C   UNL     1      -3.581  53.269  51.722  0.00  0.00    +0.000 A 
ATOM     34  C   UNL     1      -4.437  51.341  50.990  0.00  0.00    +0.000 A 
ATOM     35  C   UNL     1      -3.300  51.895  51.530  0.00  0.00    +0.000 A 
ENDBRANCH  30  31
ENDBRANCH  28  30
ENDBRANCH   5  28
TORSDOF 5
ENDMDL
MODEL 2
REMARK VINA RESULT:      -8.3      2.087      2.406
REMARK  Name = 
REMARK  5 active torsions:
REMARK  status: ('A' for Active; 'I' for Inactive)
REMARK    1  A    between atoms: C_6  and  C_10
REMARK    2  A    between atoms: C_14  and  O_18
REMARK    3  A    between atoms: N_17  and  N_20
REMARK    4  A    between atoms: N_20  and  C_23
REMARK    5  A    between atoms: C_23  and  C_26
REMARK                            x       y       z     vdW  Elec       q    Type
REMARK                         _______ _______ _______ _____ _____    ______ ____
ROOT
ATOM      1  C   UNL     1     -11.139  54.651  50.933  0.00  0.00    +0.000 A 
ATOM      2  C   UNL     1      -9.732  55.061  50.643  0.00  0.00    +0.000 A 
ATOM      3  C   UNL     1     -11.409  53.401  51.349  0.00  0.00    +0.000 A 
ATOM      4  O   UNL     1      -9.545  56.217  50.251  0.00  0.00    +0.000 OA
ATOM      5  N   UNL     1      -8.716  54.128  50.858  0.00  0.00    +0.000 N 
ATOM      6  C   UNL     1     -10.326  52.430  51.559  0.00  0.00    +0.000 A 
ATOM      7  C   UNL     1      -8.994  52.804  51.308  0.00  0.00    +0.000 A 
ATOM      8  C   UNL     1     -10.603  51.133  52.021  0.00  0.00    +0.000 A 
ATOM      9  C   UNL     1      -7.969  51.865  51.517  0.00  0.00    +0.000 A 
ATOM     10  C   UNL     1      -9.576  50.216  52.240  0.00  0.00    +0.000 A 
ATOM     11  C   UNL     1      -8.261  50.582  51.985  0.00  0.00    +0.000 A 
ENDROOT
BRANCH   1  17
ATOM     12  S   UNL     1     -13.597  57.284  49.362  0.00  0.00    +0.000 S 
ATOM     13  O   UNL     1     -14.717  56.655  48.688  0.00  0.00    +0.000 OA
ATOM     14  O   UNL     1     -12.934  58.429  48.770  0.00  0.00    +0.000 OA
ATOM     15  N   UNL     1     -12.476  56.138  49.615  0.00  0.00    +0.000 N 
ATOM     16  C   UNL     1     -14.201  57.821  50.918  0.00  0.00    +0.000 A 
ATOM     17  C   UNL     1     -12.237  55.689  50.812  0.00  0.00    +0.000 C 
ATOM     18  C   UNL     1     -13.762  57.154  52.050  0.00  0.00    +0.000 A 
ATOM     19  C   UNL     1     -15.085  58.900  50.991  0.00  0.00    +0.000 A 
ATOM     20  N   UNL     1     -12.890  56.073  51.964  0.00  0.00    +0.000 N 
ATOM     21  C   UNL     1     -14.287  57.538  53.289  0.00  0.00    +0.000 A 
ATOM     22  C   UNL     1     -15.573  59.295  52.234  0.00  0.00    +0.000 A 
ATOM     23  C   UNL     1     -15.182  58.607  53.382  0.00  0.00    +0.000 A 
ATOM     24  H   UNL     1     -11.970  55.778  48.851  0.00  0.00    +0.000 HD
ATOM     25  H   UNL     1     -12.728  55.547  52.780  0.00  0.00    +0.000 HD
ENDBRANCH   1  17
BRANCH   3  26
ATOM     26  O   UNL     1     -12.678  52.935  51.643  0.00  0.00    +0.000 OA
ATOM     27  H   UNL     1     -13.318  52.858  50.963  0.00  0.00    +0.000 HD
ENDBRANCH   3  26
BRANCH   5  28
ATOM     28  N   UNL     1      -7.355  54.449  50.530  0.00  0.00    +0.000 N 
ATOM     29  H   UNL     1      -6.861  53.990  49.813  0.00  0.00    +0.000 HD
BRANCH  28  30
ATOM     30  C   UNL     1      -6.755  55.515  51.345  0.00  0.00    +0.000 C 
BRANCH  30  31
ATOM     31  C   UNL     1      -6.490  55.024  52.722  0.00  0.00    +0.000 A 
ATOM     32  O   UNL     1      -5.394  54.225  52.881  0.00  0.00    +0.000 OA
ATOM     33  C   UNL     1      -7.109  55.220  53.939  0.00  0.00    +0.000 A 
ATOM     34  C   UNL     1      -5.316  53.916  54.200  0.00  0.00    +0.000 A 
ATOM     35  C   UNL     1      -6.350  54.501  54.893  0.00  0.00    +0.000 A 
ENDBRANCH  30  31
ENDBRANCH  28  30
ENDBRANCH   5  28
TORSDOF 5
ENDMDL
MODEL 3
REMARK VINA RESULT:      -8.2      4.236      5.236
REMARK  Name = 
REMARK  5 active torsions:
REMARK  status: ('A' for Active; 'I' for Inactive)
REMARK    1  A    between atoms: C_6  and  C_10
REMARK    2  A    between atoms: C_14  and  O_18
REMARK    3  A    between atoms: N_17  and  N_20
REMARK    4  A    between atoms: N_20  and  C_23
REMARK    5  A    between atoms: C_23  and  C_26
REMARK                            x       y       z     vdW  Elec       q    Type
REMARK                         _______ _______ _______ _____ _____    ______ ____
ROOT
ATOM      1  C   UNL     1     -12.232  54.310  50.144  0.00  0.00    +0.000 A 
ATOM      2  C   UNL     1     -11.918  53.982  48.721  0.00  0.00    +0.000 A 
ATOM      3  C   UNL     1     -11.701  53.580  51.141  0.00  0.00    +0.000 A 
ATOM      4  O   UNL     1     -12.444  54.678  47.847  0.00  0.00    +0.000 OA
ATOM      5  N   UNL     1     -11.029  52.936  48.466  0.00  0.00    +0.000 N 
ATOM      6  C   UNL     1     -10.777  52.474  50.851  0.00  0.00    +0.000 A 
ATOM      7  C   UNL     1     -10.455  52.164  49.518  0.00  0.00    +0.000 A 
ATOM      8  C   UNL     1     -10.199  51.729  51.892  0.00  0.00    +0.000 A 
ATOM      9  C   UNL     1      -9.568  51.106  49.258  0.00  0.00    +0.000 A 
ATOM     10  C   UNL     1      -9.307  50.694  51.622  0.00  0.00    +0.000 A 
ATOM     11  C   UNL     1      -8.994  50.380  50.305  0.00  0.00    +0.000 A 
ENDROOT
BRANCH   1  17
ATOM     12  S   UNL     1     -15.276  56.479  51.360  0.00  0.00    +0.000 S 
ATOM     13  O   UNL     1     -15.262  56.687  52.795  0.00  0.00    +0.000 OA
ATOM     14  O   UNL     1     -16.518  56.188  50.672  0.00  0.00    +0.000 OA
ATOM     15  N   UNL     1     -14.236  55.277  51.032  0.00  0.00    +0.000 N 
ATOM     16  C   UNL     1     -14.657  57.956  50.645  0.00  0.00    +0.000 A 
ATOM     17  C   UNL     1     -13.104  55.515  50.436  0.00  0.00    +0.000 C 
ATOM     18  C   UNL     1     -13.403  57.917  50.057  0.00  0.00    +0.000 A 
ATOM     19  C   UNL     1     -15.429  59.120  50.666  0.00  0.00    +0.000 A 
ATOM     20  N   UNL     1     -12.639  56.754  50.053  0.00  0.00    +0.000 N 
ATOM     21  C   UNL     1     -12.878  59.107  49.540  0.00  0.00    +0.000 A 
ATOM     22  C   UNL     1     -14.910  60.289  50.116  0.00  0.00    +0.000 A 
ATOM     23  C   UNL     1     -13.630  60.285  49.562  0.00  0.00    +0.000 A 
ATOM     24  H   UNL     1     -14.465  54.355  51.290  0.00  0.00    +0.000 HD
ATOM     25  H   UNL     1     -11.703  56.821  49.756  0.00  0.00    +0.000 HD
ENDBRANCH   1  17
BRANCH   3  26
ATOM     26  O   UNL     1     -11.935  53.811  52.485  0.00  0.00    +0.000 OA
ATOM     27  H   UNL     1     -12.662  53.402  52.912  0.00  0.00    +0.000 HD
ENDBRANCH   3  26
BRANCH   5  28
ATOM     28  N   UNL     1     -10.747  52.537  47.116  0.00  0.00    +0.000 N 
ATOM     29  H   UNL     1     -11.173  51.756  46.693  0.00  0.00    +0.000 HD
BRANCH  28  30
ATOM     30  C   UNL     1      -9.774  53.383  46.410  0.00  0.00    +0.000 C 
BRANCH  30  31
ATOM     31  C   UNL     1      -9.665  52.967  44.987  0.00  0.00    +0.000 A 
ATOM     32  O   UNL     1      -8.425  52.585  44.560  0.00  0.00    +0.000 OA
ATOM     33  C   UNL     1     -10.575  52.847  43.958  0.00  0.00    +0.000 A 
ATOM     34  C   UNL     1      -8.549  52.219  43.259  0.00  0.00    +0.000 A 
ATOM     35  C   UNL     1      -9.851  52.365  42.841  0.00  0.00    +0.000 A 
ENDBRANCH  30  31
ENDBRANCH  28  30
ENDBRANCH   5  28
TORSDOF 5
ENDMDL
MODEL 4
REMARK VINA RESULT:      -8.2      3.207      8.361
REMARK  Name = 
REMARK  5 active torsions:
REMARK  status: ('A' for Active; 'I' for Inactive)
REMARK    1  A    between atoms: C_6  and  C_10
REMARK    2  A    between atoms: C_14  and  O_18
REMARK    3  A    between atoms: N_17  and  N_20
REMARK    4  A    between atoms: N_20  and  C_23
REMARK    5  A    between atoms: C_23  and  C_26
REMARK                            x       y       z     vdW  Elec       q    Type
REMARK                         _______ _______ _______ _____ _____    ______ ____
ROOT
ATOM      1  C   UNL     1      -9.096  54.347  49.925  0.00  0.00    +0.000 A 
ATOM      2  C   UNL     1     -10.133  55.417  50.038  0.00  0.00    +0.000 A 
ATOM      3  C   UNL     1      -9.005  53.604  48.808  0.00  0.00    +0.000 A 
ATOM      4  O   UNL     1     -10.177  56.059  51.092  0.00  0.00    +0.000 OA
ATOM      5  N   UNL     1     -10.965  55.646  48.940  0.00  0.00    +0.000 N 
ATOM      6  C   UNL     1      -9.899  53.854  47.668  0.00  0.00    +0.000 A 
ATOM      7  C   UNL     1     -10.869  54.868  47.749  0.00  0.00    +0.000 A 
ATOM      8  C   UNL     1      -9.787  53.098  46.489  0.00  0.00    +0.000 A 
ATOM      9  C   UNL     1     -11.713  55.097  46.649  0.00  0.00    +0.000 A 
ATOM     10  C   UNL     1     -10.619  53.345  45.399  0.00  0.00    +0.000 A 
ATOM     11  C   UNL     1     -11.583  54.342  45.480  0.00  0.00    +0.000 A 
ENDROOT
BRANCH   1  17
ATOM     12  S   UNL     1      -7.662  54.038  53.571  0.00  0.00    +0.000 S 
ATOM     13  O   UNL     1      -7.899  52.727  54.145  0.00  0.00    +0.000 OA
ATOM     14  O   UNL     1      -7.833  55.232  54.375  0.00  0.00    +0.000 OA
ATOM     15  N   UNL     1      -8.616  54.178  52.266  0.00  0.00    +0.000 N 
ATOM     16  C   UNL     1      -5.990  54.045  53.039  0.00  0.00    +0.000 A 
ATOM     17  C   UNL     1      -8.114  54.167  51.066  0.00  0.00    +0.000 C 
ATOM     18  C   UNL     1      -5.744  54.041  51.676  0.00  0.00    +0.000 A 
ATOM     19  C   UNL     1      -4.957  54.068  53.978  0.00  0.00    +0.000 A 
ATOM     20  N   UNL     1      -6.782  54.006  50.749  0.00  0.00    +0.000 N 
ATOM     21  C   UNL     1      -4.413  53.984  51.245  0.00  0.00    +0.000 A 
ATOM     22  C   UNL     1      -3.637  54.048  53.536  0.00  0.00    +0.000 A 
ATOM     23  C   UNL     1      -3.365  53.995  52.169  0.00  0.00    +0.000 A 
ATOM     24  H   UNL     1      -9.588  54.273  52.385  0.00  0.00    +0.000 HD
ATOM     25  H   UNL     1      -6.550  53.855  49.805  0.00  0.00    +0.000 HD
ENDBRANCH   1  17
BRANCH   3  26
ATOM     26  O   UNL     1      -8.078  52.597  48.616  0.00  0.00    +0.000 OA
ATOM     27  H   UNL     1      -7.599  52.547  47.812  0.00  0.00    +0.000 HD
ENDBRANCH   3  26
BRANCH   5  28
ATOM     28  N   UNL     1     -12.021  56.615  49.021  0.00  0.00    +0.000 N 
ATOM     29  H   UNL     1     -11.916  57.543  48.709  0.00  0.00    +0.000 HD
BRANCH  28  30
ATOM     30  C   UNL     1     -13.275  56.117  49.606  0.00  0.00    +0.000 C 
BRANCH  30  31
ATOM     31  C   UNL     1     -13.626  56.903  50.818  0.00  0.00    +0.000 A 
ATOM     32  O   UNL     1     -14.202  58.122  50.605  0.00  0.00    +0.000 OA
ATOM     33  C   UNL     1     -13.524  56.661  52.172  0.00  0.00    +0.000 A 
ATOM     34  C   UNL     1     -14.469  58.654  51.825  0.00  0.00    +0.000 A 
ATOM     35  C   UNL     1     -14.067  57.795  52.821  0.00  0.00    +0.000 A 
ENDBRANCH  30  31
ENDBRANCH  28  30
ENDBRANCH   5  28
TORSDOF 5
ENDMDL
MODEL 5
REMARK VINA RESULT:      -8.1      3.657      7.396
REMARK  Name = 
REMARK  5 active torsions:
REMARK  status: ('A' for Active; 'I' for Inactive)
REMARK    1  A    between atoms: C_6  and  C_10
REMARK    2  A    between atoms: C_14  and  O_18
REMARK    3  A    between atoms: N_17  and  N_20
REMARK    4  A    between atoms: N_20  and  C_23
REMARK    5  A    between atoms: C_23  and  C_26
REMARK                            x       y       z     vdW  Elec       q    Type
REMARK                         _______ _______ _______ _____ _____    ______ ____
ROOT
ATOM      1  C   UNL     1     -10.369  55.179  50.863  0.00  0.00    +0.000 A 
ATOM      2  C   UNL     1     -10.024  55.065  49.414  0.00  0.00    +0.000 A 
ATOM      3  C   UNL     1     -11.545  55.711  51.240  0.00  0.00    +0.000 A 
ATOM      4  O   UNL     1      -8.925  54.581  49.126  0.00  0.00    +0.000 OA
ATOM      5  N   UNL     1     -10.970  55.482  48.476  0.00  0.00    +0.000 N 
ATOM      6  C   UNL     1     -12.523  56.155  50.237  0.00  0.00    +0.000 A 
ATOM      7  C   UNL     1     -12.223  56.039  48.868  0.00  0.00    +0.000 A 
ATOM      8  C   UNL     1     -13.764  56.684  50.628  0.00  0.00    +0.000 A 
ATOM      9  C   UNL     1     -13.170  56.465  47.922  0.00  0.00    +0.000 A 
ATOM     10  C   UNL     1     -14.702  57.088  49.680  0.00  0.00    +0.000 A 
ATOM     11  C   UNL     1     -14.403  56.981  48.327  0.00  0.00    +0.000 A 
ENDROOT
BRANCH   1  17
ATOM     12  S   UNL     1      -7.095  54.678  52.978  0.00  0.00    +0.000 S 
ATOM     13  O   UNL     1      -6.969  55.663  54.035  0.00  0.00    +0.000 OA
ATOM     14  O   UNL     1      -5.939  54.292  52.192  0.00  0.00    +0.000 OA
ATOM     15  N   UNL     1      -8.236  55.207  51.953  0.00  0.00    +0.000 N 
ATOM     16  C   UNL     1      -7.675  53.210  53.743  0.00  0.00    +0.000 A 
ATOM     17  C   UNL     1      -9.398  54.624  51.886  0.00  0.00    +0.000 C 
ATOM     18  C   UNL     1      -8.976  52.811  53.479  0.00  0.00    +0.000 A 
ATOM     19  C   UNL     1      -6.830  52.474  54.576  0.00  0.00    +0.000 A 
ATOM     20  N   UNL     1      -9.812  53.560  52.656  0.00  0.00    +0.000 N 
ATOM     21  C   UNL     1      -9.465  51.676  54.134  0.00  0.00    +0.000 A 
ATOM     22  C   UNL     1      -7.317  51.325  55.194  0.00  0.00    +0.000 A 
ATOM     23  C   UNL     1      -8.638  50.932  54.981  0.00  0.00    +0.000 A 
ATOM     24  H   UNL     1      -8.047  55.981  51.375  0.00  0.00    +0.000 HD
ATOM     25  H   UNL     1     -10.765  53.312  52.623  0.00  0.00    +0.000 HD
ENDBRANCH   1  17
BRANCH   3  26
ATOM     26  O   UNL     1     -11.949  55.854  52.555  0.00  0.00    +0.000 OA
ATOM     27  H   UNL     1     -12.825  56.124  52.750  0.00  0.00    +0.000 HD
ENDBRANCH   3  26
BRANCH   5  28
ATOM     28  N   UNL     1     -10.661  55.458  47.074  0.00  0.00    +0.000 N 
ATOM     29  H   UNL     1     -10.097  56.141  46.643  0.00  0.00    +0.000 HD
BRANCH  28  30
ATOM     30  C   UNL     1     -11.251  54.337  46.328  0.00  0.00    +0.000 C 
BRANCH  30  31
ATOM     31  C   UNL     1     -10.271  53.795  45.350  0.00  0.00    +0.000 A 
ATOM     32  O   UNL     1     -10.789  53.112  44.287  0.00  0.00    +0.000 OA
ATOM     33  C   UNL     1      -8.897  53.849  45.250  0.00  0.00    +0.000 A 
ATOM     34  C   UNL     1      -9.742  52.735  43.510  0.00  0.00    +0.000 A 
ATOM     35  C   UNL     1      -8.557  53.161  44.061  0.00  0.00    +0.000 A 
ENDBRANCH  30  31
ENDBRANCH  28  30
ENDBRANCH   5  28
TORSDOF 5
ENDMDL
MODEL 6
REMARK VINA RESULT:      -8.0      3.883      7.509
REMARK  Name = 
REMARK  5 active torsions:
REMARK  status: ('A' for Active; 'I' for Inactive)
REMARK    1  A    between atoms: C_6  and  C_10
REMARK    2  A    between atoms: C_14  and  O_18
REMARK    3  A    between atoms: N_17  and  N_20
REMARK    4  A    between atoms: N_20  and  C_23
REMARK    5  A    between atoms: C_23  and  C_26
REMARK                            x       y       z     vdW  Elec       q    Type
REMARK                         _______ _______ _______ _____ _____    ______ ____
ROOT
ATOM      1  C   UNL     1     -10.387  54.948  50.339  0.00  0.00    +0.000 A 
ATOM      2  C   UNL     1     -10.178  54.814  48.866  0.00  0.00    +0.000 A 
ATOM      3  C   UNL     1     -11.409  55.680  50.815  0.00  0.00    +0.000 A 
ATOM      4  O   UNL     1      -9.215  54.140  48.486  0.00  0.00    +0.000 OA
ATOM      5  N   UNL     1     -11.094  55.430  48.011  0.00  0.00    +0.000 N 
ATOM      6  C   UNL     1     -12.356  56.331  49.898  0.00  0.00    +0.000 A 
ATOM      7  C   UNL     1     -12.185  56.201  48.508  0.00  0.00    +0.000 A 
ATOM      8  C   UNL     1     -13.442  57.072  50.393  0.00  0.00    +0.000 A 
ATOM      9  C   UNL     1     -13.101  56.825  47.645  0.00  0.00    +0.000 A 
ATOM     10  C   UNL     1     -14.353  57.674  49.527  0.00  0.00    +0.000 A 
ATOM     11  C   UNL     1     -14.181  57.553  48.154  0.00  0.00    +0.000 A 
ENDROOT
BRANCH   1  17
ATOM     12  S   UNL     1      -8.769  51.992  52.361  0.00  0.00    +0.000 S 
ATOM     13  O   UNL     1      -7.886  51.185  51.541  0.00  0.00    +0.000 OA
ATOM     14  O   UNL     1      -9.670  51.363  53.307  0.00  0.00    +0.000 OA
ATOM     15  N   UNL     1      -9.662  52.906  51.361  0.00  0.00    +0.000 N 
ATOM     16  C   UNL     1      -7.733  53.049  53.302  0.00  0.00    +0.000 A 
ATOM     17  C   UNL     1      -9.466  54.190  51.274  0.00  0.00    +0.000 C 
ATOM     18  C   UNL     1      -7.732  54.399  52.993  0.00  0.00    +0.000 A 
ATOM     19  C   UNL     1      -6.954  52.525  54.336  0.00  0.00    +0.000 A 
ATOM     20  N   UNL     1      -8.505  54.907  51.952  0.00  0.00    +0.000 N 
ATOM     21  C   UNL     1      -6.863  55.238  53.699  0.00  0.00    +0.000 A 
ATOM     22  C   UNL     1      -6.119  53.377  55.055  0.00  0.00    +0.000 A 
ATOM     23  C   UNL     1      -6.066  54.732  54.729  0.00  0.00    +0.000 A 
ATOM     24  H   UNL     1     -10.361  52.483  50.811  0.00  0.00    +0.000 HD
ATOM     25  H   UNL     1      -8.354  55.842  51.682  0.00  0.00    +0.000 HD
ENDBRANCH   1  17
BRANCH   3  26
ATOM     26  O   UNL     1     -11.680  55.857  52.160  0.00  0.00    +0.000 OA
ATOM     27  H   UNL     1     -12.482  56.262  52.427  0.00  0.00    +0.000 HD
ENDBRANCH   3  26
BRANCH   5  28
ATOM     28  N   UNL     1     -10.899  55.389  46.589  0.00  0.00    +0.000 N 
ATOM     29  H   UNL     1     -10.383  56.074  46.104  0.00  0.00    +0.000 HD
BRANCH  28  30
ATOM     30  C   UNL     1     -11.530  54.248  45.909  0.00  0.00    +0.000 C 
BRANCH  30  31
ATOM     31  C   UNL     1     -10.566  53.607  44.976  0.00  0.00    +0.000 A 
ATOM     32  O   UNL     1      -9.256  53.966  45.115  0.00  0.00    +0.000 OA
ATOM     33  C   UNL     1     -10.693  52.668  43.973  0.00  0.00    +0.000 A 
ATOM     34  C   UNL     1      -8.550  53.253  44.202  0.00  0.00    +0.000 A 
ATOM     35  C   UNL     1      -9.389  52.443  43.473  0.00  0.00    +0.000 A 
ENDBRANCH  30  31
ENDBRANCH  28  30
ENDBRANCH   5  28
TORSDOF 5
ENDMDL
MODEL 7
REMARK VINA RESULT:      -8.0      2.886      8.281
REMARK  Name = 
REMARK  5 active torsions:
REMARK  status: ('A' for Active; 'I' for Inactive)
REMARK    1  A    between atoms: C_6  and  C_10
REMARK    2  A    between atoms: C_14  and  O_18
REMARK    3  A    between atoms: N_17  and  N_20
REMARK    4  A    between atoms: N_20  and  C_23
REMARK    5  A    between atoms: C_23  and  C_26
REMARK                            x       y       z     vdW  Elec       q    Type
REMARK                         _______ _______ _______ _____ _____    ______ ____
ROOT
ATOM      1  C   UNL     1      -9.862  54.027  50.699  0.00  0.00    +0.000 A 
ATOM      2  C   UNL     1     -11.163  54.714  50.955  0.00  0.00    +0.000 A 
ATOM      3  C   UNL     1      -9.452  53.798  49.439  0.00  0.00    +0.000 A 
ATOM      4  O   UNL     1     -11.495  54.886  52.133  0.00  0.00    +0.000 OA
ATOM      5  N   UNL     1     -11.909  55.145  49.857  0.00  0.00    +0.000 N 
ATOM      6  C   UNL     1     -10.258  54.249  48.295  0.00  0.00    +0.000 A 
ATOM      7  C   UNL     1     -11.477  54.913  48.517  0.00  0.00    +0.000 A 
ATOM      8  C   UNL     1      -9.818  54.037  46.978  0.00  0.00    +0.000 A 
ATOM      9  C   UNL     1     -12.234  55.342  47.414  0.00  0.00    +0.000 A 
ATOM     10  C   UNL     1     -10.570  54.481  45.892  0.00  0.00    +0.000 A 
ATOM     11  C   UNL     1     -11.778  55.130  46.110  0.00  0.00    +0.000 A 
ENDROOT
BRANCH   1  17
ATOM     12  S   UNL     1      -6.801  53.918  53.161  0.00  0.00    +0.000 S 
ATOM     13  O   UNL     1      -6.773  55.061  54.054  0.00  0.00    +0.000 OA
ATOM     14  O   UNL     1      -5.577  53.429  52.558  0.00  0.00    +0.000 OA
ATOM     15  N   UNL     1      -7.840  54.260  51.963  0.00  0.00    +0.000 N 
ATOM     16  C   UNL     1      -7.451  52.584  54.095  0.00  0.00    +0.000 A 
ATOM     17  C   UNL     1      -8.991  53.657  51.883  0.00  0.00    +0.000 C 
ATOM     18  C   UNL     1      -8.722  52.129  53.780  0.00  0.00    +0.000 A 
ATOM     19  C   UNL     1      -6.688  52.003  55.110  0.00  0.00    +0.000 A 
ATOM     20  N   UNL     1      -9.477  52.724  52.773  0.00  0.00    +0.000 N 
ATOM     21  C   UNL     1      -9.271  51.106  54.561  0.00  0.00    +0.000 A 
ATOM     22  C   UNL     1      -7.233  50.961  55.857  0.00  0.00    +0.000 A 
ATOM     23  C   UNL     1      -8.528  50.520  55.590  0.00  0.00    +0.000 A 
ATOM     24  H   UNL     1      -7.597  54.934  51.288  0.00  0.00    +0.000 HD
ATOM     25  H   UNL     1     -10.422  52.461  52.692  0.00  0.00    +0.000 HD
ENDBRANCH   1  17
BRANCH   3  26
ATOM     26  O   UNL     1      -8.264  53.172  49.108  0.00  0.00    +0.000 OA
ATOM     27  H   UNL     1      -7.783  53.449  48.353  0.00  0.00    +0.000 HD
ENDBRANCH   3  26
BRANCH   5  28
ATOM     28  N   UNL     1     -13.198  55.748  50.047  0.00  0.00    +0.000 N 
ATOM     29  H   UNL     1     -14.028  55.221  50.096  0.00  0.00    +0.000 HD
BRANCH  28  30
ATOM     30  C   UNL     1     -13.186  57.214  50.162  0.00  0.00    +0.000 C 
BRANCH  30  31
ATOM     31  C   UNL     1     -13.966  57.644  51.351  0.00  0.00    +0.000 A 
ATOM     32  O   UNL     1     -14.251  58.977  51.440  0.00  0.00    +0.000 OA
ATOM     33  C   UNL     1     -14.518  56.973  52.422  0.00  0.00    +0.000 A 
ATOM     34  C   UNL     1     -14.987  59.151  52.567  0.00  0.00    +0.000 A 
ATOM     35  C   UNL     1     -15.175  57.949  53.208  0.00  0.00    +0.000 A 
ENDBRANCH  30  31
ENDBRANCH  28  30
ENDBRANCH   5  28
TORSDOF 5
ENDMDL
MODEL 8
REMARK VINA RESULT:      -7.7      3.236      4.526
REMARK  Name = 
REMARK  5 active torsions:
REMARK  status: ('A' for Active; 'I' for Inactive)
REMARK    1  A    between atoms: C_6  and  C_10
REMARK    2  A    between atoms: C_14  and  O_18
REMARK    3  A    between atoms: N_17  and  N_20
REMARK    4  A    between atoms: N_20  and  C_23
REMARK    5  A    between atoms: C_23  and  C_26
REMARK                            x       y       z     vdW  Elec       q    Type
REMARK                         _______ _______ _______ _____ _____    ______ ____
ROOT
ATOM      1  C   UNL     1     -11.555  54.292  50.862  0.00  0.00    +0.000 A 
ATOM      2  C   UNL     1     -11.593  53.262  49.781  0.00  0.00    +0.000 A 
ATOM      3  C   UNL     1     -10.682  54.177  51.878  0.00  0.00    +0.000 A 
ATOM      4  O   UNL     1     -12.424  53.413  48.880  0.00  0.00    +0.000 OA
ATOM      5  N   UNL     1     -10.673  52.214  49.836  0.00  0.00    +0.000 N 
ATOM      6  C   UNL     1      -9.728  53.058  51.924  0.00  0.00    +0.000 A 
ATOM      7  C   UNL     1      -9.738  52.090  50.905  0.00  0.00    +0.000 A 
ATOM      8  C   UNL     1      -8.796  52.952  52.969  0.00  0.00    +0.000 A 
ATOM      9  C   UNL     1      -8.818  51.029  50.962  0.00  0.00    +0.000 A 
ATOM     10  C   UNL     1      -7.877  51.904  53.005  0.00  0.00    +0.000 A 
ATOM     11  C   UNL     1      -7.891  50.942  52.003  0.00  0.00    +0.000 A 
ENDROOT
BRANCH   1  17
ATOM     12  S   UNL     1     -13.392  57.431  49.374  0.00  0.00    +0.000 S 
ATOM     13  O   UNL     1     -14.489  57.062  48.500  0.00  0.00    +0.000 OA
ATOM     14  O   UNL     1     -12.502  58.519  49.016  0.00  0.00    +0.000 OA
ATOM     15  N   UNL     1     -12.484  56.106  49.603  0.00  0.00    +0.000 N 
ATOM     16  C   UNL     1     -14.116  57.879  50.907  0.00  0.00    +0.000 A 
ATOM     17  C   UNL     1     -12.471  55.494  50.752  0.00  0.00    +0.000 C 
ATOM     18  C   UNL     1     -13.928  57.031  51.986  0.00  0.00    +0.000 A 
ATOM     19  C   UNL     1     -14.843  59.066  51.018  0.00  0.00    +0.000 A 
ATOM     20  N   UNL     1     -13.211  55.844  51.861  0.00  0.00    +0.000 N 
ATOM     21  C   UNL     1     -14.554  57.350  53.196  0.00  0.00    +0.000 A 
ATOM     22  C   UNL     1     -15.431  59.391  52.237  0.00  0.00    +0.000 A 
ATOM     23  C   UNL     1     -15.296  58.528  53.323  0.00  0.00    +0.000 A 
ATOM     24  H   UNL     1     -11.937  55.759  48.862  0.00  0.00    +0.000 HD
ATOM     25  H   UNL     1     -13.235  55.212  52.615  0.00  0.00    +0.000 HD
ENDBRANCH   1  17
BRANCH   3  26
ATOM     26  O   UNL     1     -10.574  55.081  52.919  0.00  0.00    +0.000 OA
ATOM     27  H   UNL     1     -11.289  55.199  53.513  0.00  0.00    +0.000 HD
ENDBRANCH   3  26
BRANCH   5  28
ATOM     28  N   UNL     1     -10.713  51.162  48.859  0.00  0.00    +0.000 N 
ATOM     29  H   UNL     1     -11.308  50.382  48.944  0.00  0.00    +0.000 HD
BRANCH  28  30
ATOM     30  C   UNL     1      -9.797  51.336  47.722  0.00  0.00    +0.000 C 
BRANCH  30  31
ATOM     31  C   UNL     1     -10.476  52.065  46.620  0.00  0.00    +0.000 A 
ATOM     32  O   UNL     1     -11.573  51.459  46.077  0.00  0.00    +0.000 OA
ATOM     33  C   UNL     1     -10.258  53.281  46.007  0.00  0.00    +0.000 A 
ATOM     34  C   UNL     1     -12.055  52.294  45.121  0.00  0.00    +0.000 A 
ATOM     35  C   UNL     1     -11.279  53.427  45.037  0.00  0.00    +0.000 A 
ENDBRANCH  30  31
ENDBRANCH  28  30
ENDBRANCH   5  28
TORSDOF 5
ENDMDL
MODEL 9
REMARK VINA RESULT:      -7.4      1.819      3.603
REMARK  Name = 
REMARK  5 active torsions:
REMARK  status: ('A' for Active; 'I' for Inactive)
REMARK    1  A    between atoms: C_6  and  C_10
REMARK    2  A    between atoms: C_14  and  O_18
REMARK    3  A    between atoms: N_17  and  N_20
REMARK    4  A    between atoms: N_20  and  C_23
REMARK    5  A    between atoms: C_23  and  C_26
REMARK                            x       y       z     vdW  Elec       q    Type
REMARK                         _______ _______ _______ _____ _____    ______ ____
ROOT
ATOM      1  C   UNL     1     -10.304  55.246  50.705  0.00  0.00    +0.000 A 
ATOM      2  C   UNL     1     -10.252  53.946  51.440  0.00  0.00    +0.000 A 
ATOM      3  C   UNL     1      -9.213  55.711  50.071  0.00  0.00    +0.000 A 
ATOM      4  O   UNL     1     -11.280  53.575  52.014  0.00  0.00    +0.000 OA
ATOM      5  N   UNL     1      -9.061  53.218  51.408  0.00  0.00    +0.000 N 
ATOM      6  C   UNL     1      -7.965  54.935  50.060  0.00  0.00    +0.000 A 
ATOM      7  C   UNL     1      -7.903  53.701  50.730  0.00  0.00    +0.000 A 
ATOM      8  C   UNL     1      -6.833  55.405  49.373  0.00  0.00    +0.000 A 
ATOM      9  C   UNL     1      -6.704  52.969  50.706  0.00  0.00    +0.000 A 
ATOM     10  C   UNL     1      -5.654  54.662  49.343  0.00  0.00    +0.000 A 
ATOM     11  C   UNL     1      -5.589  53.446  50.012  0.00  0.00    +0.000 A 
ENDROOT
BRANCH   1  17
ATOM     12  S   UNL     1     -13.411  57.164  49.251  0.00  0.00    +0.000 S 
ATOM     13  O   UNL     1     -14.386  56.264  48.664  0.00  0.00    +0.000 OA
ATOM     14  O   UNL     1     -13.077  58.413  48.595  0.00  0.00    +0.000 OA
ATOM     15  N   UNL     1     -12.035  56.328  49.451  0.00  0.00    +0.000 N 
ATOM     16  C   UNL     1     -14.032  57.595  50.833  0.00  0.00    +0.000 A 
ATOM     17  C   UNL     1     -11.624  55.989  50.638  0.00  0.00    +0.000 C 
ATOM     18  C   UNL     1     -13.379  57.090  51.946  0.00  0.00    +0.000 A 
ATOM     19  C   UNL     1     -15.143  58.434  50.944  0.00  0.00    +0.000 A 
ATOM     20  N   UNL     1     -12.280  56.245  51.822  0.00  0.00    +0.000 N 
ATOM     21  C   UNL     1     -13.906  57.379  53.210  0.00  0.00    +0.000 A 
ATOM     22  C   UNL     1     -15.636  58.743  52.209  0.00  0.00    +0.000 A 
ATOM     23  C   UNL     1     -15.024  58.208  53.341  0.00  0.00    +0.000 A 
ATOM     24  H   UNL     1     -11.504  56.073  48.662  0.00  0.00    +0.000 HD
ATOM     25  H   UNL     1     -11.949  55.800  52.636  0.00  0.00    +0.000 HD
ENDBRANCH   1  17
BRANCH   3  26
ATOM     26  O   UNL     1      -9.170  56.901  49.367  0.00  0.00    +0.000 OA
ATOM     27  H   UNL     1      -9.466  56.931  48.478  0.00  0.00    +0.000 HD
ENDBRANCH   3  26
BRANCH   5  28
ATOM     28  N   UNL     1      -8.937  51.997  52.153  0.00  0.00    +0.000 N 
ATOM     29  H   UNL     1      -8.854  51.117  51.720  0.00  0.00    +0.000 HD
BRANCH  28  30
ATOM     30  C   UNL     1      -8.944  52.159  53.614  0.00  0.00    +0.000 C 
BRANCH  30  31
ATOM     31  C   UNL     1      -7.763  52.947  54.052  0.00  0.00    +0.000 A 
ATOM     32  O   UNL     1      -7.923  54.302  54.106  0.00  0.00    +0.000 OA
ATOM     33  C   UNL     1      -6.489  52.607  54.460  0.00  0.00    +0.000 A 
ATOM     34  C   UNL     1      -6.751  54.823  54.552  0.00  0.00    +0.000 A 
ATOM     35  C   UNL     1      -5.837  53.821  54.781  0.00  0.00    +0.000 A 
ENDBRANCH  30  31
ENDBRANCH  28  30
ENDBRANCH   5  28
TORSDOF 5
ENDMDL
