MODEL 1
REMARK VINA RESULT:      -9.3      0.000      0.000
REMARK  Name = 
REMARK  6 active torsions:
REMARK  status: ('A' for Active; 'I' for Inactive)
REMARK    1  A    between atoms: C_6  and  C_10
REMARK    2  A    between atoms: C_14  and  O_18
REMARK    3  A    between atoms: N_17  and  N_20
REMARK    4  A    between atoms: N_20  and  C_23
REMARK    5  A    between atoms: C_23  and  C_26
REMARK    6  A    between atoms: C_30  and  C_33
REMARK                            x       y       z     vdW  Elec       q    Type
REMARK                         _______ _______ _______ _____ _____    ______ ____
ROOT
ATOM      1  C   UNL     1      -9.220  54.122  49.594  0.00  0.00    +0.000 A 
ATOM      2  C   UNL     1     -10.189  55.252  49.492  0.00  0.00    +0.000 A 
ATOM      3  C   UNL     1      -9.116  53.224  48.599  0.00  0.00    +0.000 A 
ATOM      4  O   UNL     1     -10.257  56.027  50.452  0.00  0.00    +0.000 OA
ATOM      5  N   UNL     1     -10.936  55.382  48.316  0.00  0.00    +0.000 N 
ATOM      6  C   UNL     1      -9.919  53.368  47.375  0.00  0.00    +0.000 A 
ATOM      7  C   UNL     1     -10.815  54.444  47.247  0.00  0.00    +0.000 A 
ATOM      8  C   UNL     1      -9.786  52.450  46.318  0.00  0.00    +0.000 A 
ATOM      9  C   UNL     1     -11.564  54.572  46.065  0.00  0.00    +0.000 A 
ATOM     10  C   UNL     1     -10.523  52.597  45.145  0.00  0.00    +0.000 A 
ATOM     11  C   UNL     1     -11.414  53.657  45.020  0.00  0.00    +0.000 A 
ENDROOT
BRANCH   1  17
ATOM     12  S   UNL     1      -8.072  54.067  53.350  0.00  0.00    +0.000 S 
ATOM     13  O   UNL     1      -8.287  52.779  53.981  0.00  0.00    +0.000 OA
ATOM     14  O   UNL     1      -8.364  55.293  54.070  0.00  0.00    +0.000 OA
ATOM     15  N   UNL     1      -8.921  54.086  51.972  0.00  0.00    +0.000 N 
ATOM     16  C   UNL     1      -6.362  54.138  52.952  0.00  0.00    +0.000 A 
ATOM     17  C   UNL     1      -8.325  54.046  50.817  0.00  0.00    +0.000 C 
ATOM     18  C   UNL     1      -6.008  54.086  51.616  0.00  0.00    +0.000 A 
ATOM     19  C   UNL     1      -5.413  54.258  53.970  0.00  0.00    +0.000 A 
ATOM     20  N   UNL     1      -6.966  53.948  50.614  0.00  0.00    +0.000 N 
ATOM     21  C   UNL     1      -4.645  54.080  51.298  0.00  0.00    +0.000 A 
ATOM     22  C   UNL     1      -4.060  54.290  53.637  0.00  0.00    +0.000 A 
ATOM     23  C   UNL     1      -3.677  54.190  52.299  0.00  0.00    +0.000 A 
ATOM     24  H   UNL     1      -9.905  54.127  52.008  0.00  0.00    +0.000 HD
ATOM     25  H   UNL     1      -6.651  53.769  49.699  0.00  0.00    +0.000 HD
ENDBRANCH   1  17
BRANCH   3  26
ATOM     26  O   UNL     1      -8.254  52.142  48.614  0.00  0.00    +0.000 OA
ATOM     27  H   UNL     1      -8.596  51.271  48.645  0.00  0.00    +0.000 HD
ENDBRANCH   3  26
BRANCH   5  28
ATOM     28  N   UNL     1     -11.928  56.420  48.193  0.00  0.00    +0.000 N 
ATOM     29  H   UNL     1     -11.767  57.253  47.692  0.00  0.00    +0.000 HD
BRANCH  28  30
ATOM     30  C   UNL     1     -13.199  56.135  48.874  0.00  0.00    +0.000 C 
BRANCH  30  31
ATOM     31  C   UNL     1     -13.691  57.297  49.704  0.00  0.00    +0.000 A 
ATOM     32  C   UNL     1     -14.101  57.106  51.030  0.00  0.00    +0.000 A 
ATOM     33  C   UNL     1     -13.813  58.574  49.133  0.00  0.00    +0.000 A 
ATOM     34  C   UNL     1     -14.634  58.166  51.776  0.00  0.00    +0.000 A 
ATOM     35  C   UNL     1     -14.342  59.634  49.869  0.00  0.00    +0.000 A 
ATOM     36  C   UNL     1     -14.755  59.429  51.183  0.00  0.00    +0.000 A 
ATOM     37  C   UNL     1     -15.118  57.945  53.176  0.00  0.00    +0.000 C 
ENDBRANCH  30  31
ENDBRANCH  28  30
ENDBRANCH   5  28
TORSDOF 5
ENDMDL
MODEL 2
REMARK VINA RESULT:      -9.1      2.426      7.543
REMARK  Name = 
REMARK  6 active torsions:
REMARK  status: ('A' for Active; 'I' for Inactive)
REMARK    1  A    between atoms: C_6  and  C_10
REMARK    2  A    between atoms: C_14  and  O_18
REMARK    3  A    between atoms: N_17  and  N_20
REMARK    4  A    between atoms: N_20  and  C_23
REMARK    5  A    between atoms: C_23  and  C_26
REMARK    6  A    between atoms: C_30  and  C_33
REMARK                            x       y       z     vdW  Elec       q    Type
REMARK                         _______ _______ _______ _____ _____    ______ ____
ROOT
ATOM      1  C   UNL     1     -11.328  55.951  48.908  0.00  0.00    +0.000 A 
ATOM      2  C   UNL     1     -10.272  55.401  49.808  0.00  0.00    +0.000 A 
ATOM      3  C   UNL     1     -11.394  55.563  47.623  0.00  0.00    +0.000 A 
ATOM      4  O   UNL     1     -10.247  55.820  50.971  0.00  0.00    +0.000 OA
ATOM      5  N   UNL     1      -9.399  54.436  49.296  0.00  0.00    +0.000 N 
ATOM      6  C   UNL     1     -10.460  54.556  47.097  0.00  0.00    +0.000 A 
ATOM      7  C   UNL     1      -9.477  54.004  47.937  0.00  0.00    +0.000 A 
ATOM      8  C   UNL     1     -10.551  54.122  45.762  0.00  0.00    +0.000 A 
ATOM      9  C   UNL     1      -8.602  53.034  47.420  0.00  0.00    +0.000 A 
ATOM     10  C   UNL     1      -9.687  53.149  45.265  0.00  0.00    +0.000 A 
ATOM     11  C   UNL     1      -8.711  52.606  46.094  0.00  0.00    +0.000 A 
ENDROOT
BRANCH   1  17
ATOM     12  S   UNL     1     -13.515  59.172  49.431  0.00  0.00    +0.000 S 
ATOM     13  O   UNL     1     -14.641  59.236  48.519  0.00  0.00    +0.000 OA
ATOM     14  O   UNL     1     -12.742  60.363  49.727  0.00  0.00    +0.000 OA
ATOM     15  N   UNL     1     -12.496  58.044  48.874  0.00  0.00    +0.000 N 
ATOM     16  C   UNL     1     -14.164  58.625  50.970  0.00  0.00    +0.000 A 
ATOM     17  C   UNL     1     -12.348  56.910  49.493  0.00  0.00    +0.000 C 
ATOM     18  C   UNL     1     -13.827  57.353  51.397  0.00  0.00    +0.000 A 
ATOM     19  C   UNL     1     -14.979  59.472  51.725  0.00  0.00    +0.000 A 
ATOM     20  N   UNL     1     -13.027  56.514  50.624  0.00  0.00    +0.000 N 
ATOM     21  C   UNL     1     -14.391  56.890  52.592  0.00  0.00    +0.000 A 
ATOM     22  C   UNL     1     -15.503  59.013  52.932  0.00  0.00    +0.000 A 
ATOM     23  C   UNL     1     -15.216  57.717  53.359  0.00  0.00    +0.000 A 
ATOM     24  H   UNL     1     -11.981  58.218  48.053  0.00  0.00    +0.000 HD
ATOM     25  H   UNL     1     -12.942  55.574  50.906  0.00  0.00    +0.000 HD
ENDBRANCH   1  17
BRANCH   3  26
ATOM     26  O   UNL     1     -12.331  56.027  46.717  0.00  0.00    +0.000 OA
ATOM     27  H   UNL     1     -12.188  56.835  46.267  0.00  0.00    +0.000 HD
ENDBRANCH   3  26
BRANCH   5  28
ATOM     28  N   UNL     1      -8.325  53.920  50.106  0.00  0.00    +0.000 N 
ATOM     29  H   UNL     1      -8.395  53.075  50.607  0.00  0.00    +0.000 HD
BRANCH  28  30
ATOM     30  C   UNL     1      -7.117  54.756  50.124  0.00  0.00    +0.000 C 
BRANCH  30  31
ATOM     31  C   UNL     1      -6.517  54.889  51.504  0.00  0.00    +0.000 A 
ATOM     32  C   UNL     1      -5.275  54.316  51.801  0.00  0.00    +0.000 A 
ATOM     33  C   UNL     1      -7.234  55.527  52.529  0.00  0.00    +0.000 A 
ATOM     34  C   UNL     1      -4.754  54.367  53.102  0.00  0.00    +0.000 A 
ATOM     35  C   UNL     1      -6.722  55.584  53.825  0.00  0.00    +0.000 A 
ATOM     36  C   UNL     1      -5.490  55.001  54.111  0.00  0.00    +0.000 A 
ATOM     37  C   UNL     1      -3.448  53.708  53.427  0.00  0.00    +0.000 C 
ENDBRANCH  30  31
ENDBRANCH  28  30
ENDBRANCH   5  28
TORSDOF 5
ENDMDL
MODEL 3
REMARK VINA RESULT:      -9.0      1.454      1.976
REMARK  Name = 
REMARK  6 active torsions:
REMARK  status: ('A' for Active; 'I' for Inactive)
REMARK    1  A    between atoms: C_6  and  C_10
REMARK    2  A    between atoms: C_14  and  O_18
REMARK    3  A    between atoms: N_17  and  N_20
REMARK    4  A    between atoms: N_20  and  C_23
REMARK    5  A    between atoms: C_23  and  C_26
REMARK    6  A    between atoms: C_30  and  C_33
REMARK                            x       y       z     vdW  Elec       q    Type
REMARK                         _______ _______ _______ _____ _____    ______ ____
ROOT
ATOM      1  C   UNL     1      -9.523  54.052  49.567  0.00  0.00    +0.000 A 
ATOM      2  C   UNL     1     -10.462  55.203  49.415  0.00  0.00    +0.000 A 
ATOM      3  C   UNL     1      -9.385  53.153  48.578  0.00  0.00    +0.000 A 
ATOM      4  O   UNL     1     -10.565  55.978  50.372  0.00  0.00    +0.000 OA
ATOM      5  N   UNL     1     -11.142  55.348  48.202  0.00  0.00    +0.000 N 
ATOM      6  C   UNL     1     -10.118  53.315  47.313  0.00  0.00    +0.000 A 
ATOM      7  C   UNL     1     -10.984  54.409  47.139  0.00  0.00    +0.000 A 
ATOM      8  C   UNL     1      -9.947  52.394  46.263  0.00  0.00    +0.000 A 
ATOM      9  C   UNL     1     -11.666  54.552  45.919  0.00  0.00    +0.000 A 
ATOM     10  C   UNL     1     -10.617  52.557  45.053  0.00  0.00    +0.000 A 
ATOM     11  C   UNL     1     -11.478  53.635  44.882  0.00  0.00    +0.000 A 
ENDROOT
BRANCH   1  17
ATOM     12  S   UNL     1      -6.734  54.774  52.238  0.00  0.00    +0.000 S 
ATOM     13  O   UNL     1      -7.026  55.941  53.049  0.00  0.00    +0.000 OA
ATOM     14  O   UNL     1      -5.387  54.534  51.757  0.00  0.00    +0.000 OA
ATOM     15  N   UNL     1      -7.721  54.809  50.955  0.00  0.00    +0.000 N 
ATOM     16  C   UNL     1      -7.150  53.379  53.223  0.00  0.00    +0.000 A 
ATOM     17  C   UNL     1      -8.697  53.958  50.836  0.00  0.00    +0.000 C 
ATOM     18  C   UNL     1      -8.253  52.633  52.851  0.00  0.00    +0.000 A 
ATOM     19  C   UNL     1      -6.367  53.048  54.331  0.00  0.00    +0.000 A 
ATOM     20  N   UNL     1      -9.035  52.986  51.753  0.00  0.00    +0.000 N 
ATOM     21  C   UNL     1      -8.624  51.557  53.666  0.00  0.00    +0.000 A 
ATOM     22  C   UNL     1      -6.725  51.952  55.113  0.00  0.00    +0.000 A 
ATOM     23  C   UNL     1      -7.861  51.212  54.785  0.00  0.00    +0.000 A 
ATOM     24  H   UNL     1      -7.581  55.486  50.254  0.00  0.00    +0.000 HD
ATOM     25  H   UNL     1      -9.886  52.508  51.622  0.00  0.00    +0.000 HD
ENDBRANCH   1  17
BRANCH   3  26
ATOM     26  O   UNL     1      -8.547  52.054  48.637  0.00  0.00    +0.000 OA
ATOM     27  H   UNL     1      -8.785  51.259  48.203  0.00  0.00    +0.000 HD
ENDBRANCH   3  26
BRANCH   5  28
ATOM     28  N   UNL     1     -12.104  56.407  48.027  0.00  0.00    +0.000 N 
ATOM     29  H   UNL     1     -11.918  57.214  47.495  0.00  0.00    +0.000 HD
BRANCH  28  30
ATOM     30  C   UNL     1     -13.388  56.183  48.708  0.00  0.00    +0.000 C 
BRANCH  30  31
ATOM     31  C   UNL     1     -13.786  57.335  49.600  0.00  0.00    +0.000 A 
ATOM     32  C   UNL     1     -14.178  57.110  50.926  0.00  0.00    +0.000 A 
ATOM     33  C   UNL     1     -13.839  58.642  49.088  0.00  0.00    +0.000 A 
ATOM     34  C   UNL     1     -14.625  58.167  51.730  0.00  0.00    +0.000 A 
ATOM     35  C   UNL     1     -14.281  59.698  49.883  0.00  0.00    +0.000 A 
ATOM     36  C   UNL     1     -14.678  59.461  51.197  0.00  0.00    +0.000 A 
ATOM     37  C   UNL     1     -15.091  57.914  53.132  0.00  0.00    +0.000 C 
ENDBRANCH  30  31
ENDBRANCH  28  30
ENDBRANCH   5  28
TORSDOF 5
ENDMDL
MODEL 4
REMARK VINA RESULT:      -9.0      3.322      8.727
REMARK  Name = 
REMARK  6 active torsions:
REMARK  status: ('A' for Active; 'I' for Inactive)
REMARK    1  A    between atoms: C_6  and  C_10
REMARK    2  A    between atoms: C_14  and  O_18
REMARK    3  A    between atoms: N_17  and  N_20
REMARK    4  A    between atoms: N_20  and  C_23
REMARK    5  A    between atoms: C_23  and  C_26
REMARK    6  A    between atoms: C_30  and  C_33
REMARK                            x       y       z     vdW  Elec       q    Type
REMARK                         _______ _______ _______ _____ _____    ______ ____
ROOT
ATOM      1  C   UNL     1     -10.103  54.556  52.189  0.00  0.00    +0.000 A 
ATOM      2  C   UNL     1      -8.744  55.134  51.973  0.00  0.00    +0.000 A 
ATOM      3  C   UNL     1     -10.260  53.451  52.937  0.00  0.00    +0.000 A 
ATOM      4  O   UNL     1      -8.663  56.134  51.253  0.00  0.00    +0.000 OA
ATOM      5  N   UNL     1      -7.657  54.530  52.614  0.00  0.00    +0.000 N 
ATOM      6  C   UNL     1      -9.104  52.821  53.594  0.00  0.00    +0.000 A 
ATOM      7  C   UNL     1      -7.820  53.368  53.427  0.00  0.00    +0.000 A 
ATOM      8  C   UNL     1      -9.272  51.685  54.405  0.00  0.00    +0.000 A 
ATOM      9  C   UNL     1      -6.730  52.760  54.073  0.00  0.00    +0.000 A 
ATOM     10  C   UNL     1      -8.185  51.101  55.052  0.00  0.00    +0.000 A 
ATOM     11  C   UNL     1      -6.914  51.638  54.884  0.00  0.00    +0.000 A 
ENDROOT
BRANCH   1  17
ATOM     12  S   UNL     1     -12.590  56.040  49.535  0.00  0.00    +0.000 S 
ATOM     13  O   UNL     1     -13.488  55.039  48.992  0.00  0.00    +0.000 OA
ATOM     14  O   UNL     1     -11.993  57.038  48.667  0.00  0.00    +0.000 OA
ATOM     15  N   UNL     1     -11.390  55.261  50.294  0.00  0.00    +0.000 N 
ATOM     16  C   UNL     1     -13.518  56.933  50.730  0.00  0.00    +0.000 A 
ATOM     17  C   UNL     1     -11.297  55.277  51.591  0.00  0.00    +0.000 C 
ATOM     18  C   UNL     1     -13.188  56.763  52.062  0.00  0.00    +0.000 A 
ATOM     19  C   UNL     1     -14.541  57.791  50.320  0.00  0.00    +0.000 A 
ATOM     20  N   UNL     1     -12.177  55.890  52.456  0.00  0.00    +0.000 N 
ATOM     21  C   UNL     1     -13.964  57.425  53.020  0.00  0.00    +0.000 A 
ATOM     22  C   UNL     1     -15.282  58.474  51.282  0.00  0.00    +0.000 A 
ATOM     23  C   UNL     1     -14.999  58.282  52.634  0.00  0.00    +0.000 A 
ATOM     24  H   UNL     1     -10.722  54.767  49.766  0.00  0.00    +0.000 HD
ATOM     25  H   UNL     1     -12.084  55.699  53.417  0.00  0.00    +0.000 HD
ENDBRANCH   1  17
BRANCH   3  26
ATOM     26  O   UNL     1     -11.479  52.843  53.181  0.00  0.00    +0.000 OA
ATOM     27  H   UNL     1     -11.941  52.423  52.483  0.00  0.00    +0.000 HD
ENDBRANCH   3  26
BRANCH   5  28
ATOM     28  N   UNL     1      -6.318  55.013  52.390  0.00  0.00    +0.000 N 
ATOM     29  H   UNL     1      -5.808  55.506  53.073  0.00  0.00    +0.000 HD
BRANCH  28  30
ATOM     30  C   UNL     1      -5.774  54.709  51.058  0.00  0.00    +0.000 C 
BRANCH  30  31
ATOM     31  C   UNL     1      -5.106  53.356  50.994  0.00  0.00    +0.000 A 
ATOM     32  C   UNL     1      -5.727  52.282  50.343  0.00  0.00    +0.000 A 
ATOM     33  C   UNL     1      -3.885  53.137  51.651  0.00  0.00    +0.000 A 
ATOM     34  C   UNL     1      -5.148  51.006  50.352  0.00  0.00    +0.000 A 
ATOM     35  C   UNL     1      -3.302  51.870  51.663  0.00  0.00    +0.000 A 
ATOM     36  C   UNL     1      -3.934  50.808  51.021  0.00  0.00    +0.000 A 
ATOM     37  C   UNL     1      -5.841  49.850  49.698  0.00  0.00    +0.000 C 
ENDBRANCH  30  31
ENDBRANCH  28  30
ENDBRANCH   5  28
TORSDOF 5
ENDMDL
MODEL 5
REMARK VINA RESULT:      -8.9      3.285      7.483
REMARK  Name = 
REMARK  6 active torsions:
REMARK  status: ('A' for Active; 'I' for Inactive)
REMARK    1  A    between atoms: C_6  and  C_10
REMARK    2  A    between atoms: C_14  and  O_18
REMARK    3  A    between atoms: N_17  and  N_20
REMARK    4  A    between atoms: N_20  and  C_23
REMARK    5  A    between atoms: C_23  and  C_26
REMARK    6  A    between atoms: C_30  and  C_33
REMARK                            x       y       z     vdW  Elec       q    Type
REMARK                         _______ _______ _______ _____ _____    ______ ____
ROOT
ATOM      1  C   UNL     1     -12.462  54.321  49.582  0.00  0.00    +0.000 A 
ATOM      2  C   UNL     1     -11.918  54.319  48.192  0.00  0.00    +0.000 A 
ATOM      3  C   UNL     1     -12.185  53.309  50.421  0.00  0.00    +0.000 A 
ATOM      4  O   UNL     1     -12.232  55.264  47.461  0.00  0.00    +0.000 OA
ATOM      5  N   UNL     1     -11.071  53.273  47.813  0.00  0.00    +0.000 N 
ATOM      6  C   UNL     1     -11.303  52.210  50.002  0.00  0.00    +0.000 A 
ATOM      7  C   UNL     1     -10.755  52.205  48.707  0.00  0.00    +0.000 A 
ATOM      8  C   UNL     1     -10.983  51.168  50.891  0.00  0.00    +0.000 A 
ATOM      9  C   UNL     1      -9.905  51.153  48.328  0.00  0.00    +0.000 A 
ATOM     10  C   UNL     1     -10.126  50.139  50.509  0.00  0.00    +0.000 A 
ATOM     11  C   UNL     1      -9.588  50.130  49.226  0.00  0.00    +0.000 A 
ENDROOT
BRANCH   1  17
ATOM     12  S   UNL     1     -15.379  56.432  51.152  0.00  0.00    +0.000 S 
ATOM     13  O   UNL     1     -15.296  56.511  52.598  0.00  0.00    +0.000 OA
ATOM     14  O   UNL     1     -16.660  56.236  50.501  0.00  0.00    +0.000 OA
ATOM     15  N   UNL     1     -14.388  55.247  50.667  0.00  0.00    +0.000 N 
ATOM     16  C   UNL     1     -14.759  57.961  50.544  0.00  0.00    +0.000 A 
ATOM     17  C   UNL     1     -13.285  55.514  50.033  0.00  0.00    +0.000 C 
ATOM     18  C   UNL     1     -13.543  57.947  49.886  0.00  0.00    +0.000 A 
ATOM     19  C   UNL     1     -15.498  59.133  50.719  0.00  0.00    +0.000 A 
ATOM     20  N   UNL     1     -12.810  56.772  49.735  0.00  0.00    +0.000 N 
ATOM     21  C   UNL     1     -13.016  59.170  49.454  0.00  0.00    +0.000 A 
ATOM     22  C   UNL     1     -14.981  60.339  50.250  0.00  0.00    +0.000 A 
ATOM     23  C   UNL     1     -13.733  60.357  49.626  0.00  0.00    +0.000 A 
ATOM     24  H   UNL     1     -14.624  54.310  50.856  0.00  0.00    +0.000 HD
ATOM     25  H   UNL     1     -11.890  56.846  49.392  0.00  0.00    +0.000 HD
ENDBRANCH   1  17
BRANCH   3  26
ATOM     26  O   UNL     1     -12.654  53.225  51.720  0.00  0.00    +0.000 OA
ATOM     27  H   UNL     1     -12.987  52.413  52.046  0.00  0.00    +0.000 HD
ENDBRANCH   3  26
BRANCH   5  28
ATOM     28  N   UNL     1     -10.568  53.193  46.465  0.00  0.00    +0.000 N 
ATOM     29  H   UNL     1     -10.851  52.494  45.832  0.00  0.00    +0.000 HD
BRANCH  28  30
ATOM     30  C   UNL     1      -9.599  54.240  46.112  0.00  0.00    +0.000 C 
BRANCH  30  31
ATOM     31  C   UNL     1      -8.316  54.141  46.903  0.00  0.00    +0.000 A 
ATOM     32  C   UNL     1      -8.118  54.929  48.045  0.00  0.00    +0.000 A 
ATOM     33  C   UNL     1      -7.274  53.310  46.462  0.00  0.00    +0.000 A 
ATOM     34  C   UNL     1      -6.899  54.899  48.734  0.00  0.00    +0.000 A 
ATOM     35  C   UNL     1      -6.058  53.274  47.144  0.00  0.00    +0.000 A 
ATOM     36  C   UNL     1      -5.869  54.069  48.272  0.00  0.00    +0.000 A 
ATOM     37  C   UNL     1      -6.673  55.780  49.924  0.00  0.00    +0.000 C 
ENDBRANCH  30  31
ENDBRANCH  28  30
ENDBRANCH   5  28
TORSDOF 5
ENDMDL
MODEL 6
REMARK VINA RESULT:      -8.9      2.992      7.938
REMARK  Name = 
REMARK  6 active torsions:
REMARK  status: ('A' for Active; 'I' for Inactive)
REMARK    1  A    between atoms: C_6  and  C_10
REMARK    2  A    between atoms: C_14  and  O_18
REMARK    3  A    between atoms: N_17  and  N_20
REMARK    4  A    between atoms: N_20  and  C_23
REMARK    5  A    between atoms: C_23  and  C_26
REMARK    6  A    between atoms: C_30  and  C_33
REMARK                            x       y       z     vdW  Elec       q    Type
REMARK                         _______ _______ _______ _____ _____    ______ ____
ROOT
ATOM      1  C   UNL     1     -11.208  54.608  50.734  0.00  0.00    +0.000 A 
ATOM      2  C   UNL     1      -9.841  54.982  50.267  0.00  0.00    +0.000 A 
ATOM      3  C   UNL     1     -11.442  53.385  51.242  0.00  0.00    +0.000 A 
ATOM      4  O   UNL     1      -9.698  56.110  49.783  0.00  0.00    +0.000 OA
ATOM      5  N   UNL     1      -8.808  54.053  50.426  0.00  0.00    +0.000 N 
ATOM      6  C   UNL     1     -10.346  52.416  51.391  0.00  0.00    +0.000 A 
ATOM      7  C   UNL     1      -9.045  52.760  50.985  0.00  0.00    +0.000 A 
ATOM      8  C   UNL     1     -10.581  51.149  51.956  0.00  0.00    +0.000 A 
ATOM      9  C   UNL     1      -8.009  51.825  51.147  0.00  0.00    +0.000 A 
ATOM     10  C   UNL     1      -9.542  50.237  52.125  0.00  0.00    +0.000 A 
ATOM     11  C   UNL     1      -8.256  50.574  51.718  0.00  0.00    +0.000 A 
ENDROOT
BRANCH   1  17
ATOM     12  S   UNL     1     -13.707  57.276  49.297  0.00  0.00    +0.000 S 
ATOM     13  O   UNL     1     -14.864  56.673  48.662  0.00  0.00    +0.000 OA
ATOM     14  O   UNL     1     -13.056  58.424  48.695  0.00  0.00    +0.000 OA
ATOM     15  N   UNL     1     -12.594  56.117  49.490  0.00  0.00    +0.000 N 
ATOM     16  C   UNL     1     -14.243  57.804  50.886  0.00  0.00    +0.000 A 
ATOM     17  C   UNL     1     -12.305  55.654  50.670  0.00  0.00    +0.000 C 
ATOM     18  C   UNL     1     -13.758  57.124  51.988  0.00  0.00    +0.000 A 
ATOM     19  C   UNL     1     -15.117  58.887  51.004  0.00  0.00    +0.000 A 
ATOM     20  N   UNL     1     -12.900  56.035  51.853  0.00  0.00    +0.000 N 
ATOM     21  C   UNL     1     -14.229  57.501  53.251  0.00  0.00    +0.000 A 
ATOM     22  C   UNL     1     -15.549  59.277  52.270  0.00  0.00    +0.000 A 
ATOM     23  C   UNL     1     -15.111  58.576  53.394  0.00  0.00    +0.000 A 
ATOM     24  H   UNL     1     -12.128  55.756  48.701  0.00  0.00    +0.000 HD
ATOM     25  H   UNL     1     -12.705  55.501  52.657  0.00  0.00    +0.000 HD
ENDBRANCH   1  17
BRANCH   3  26
ATOM     26  O   UNL     1     -12.677  52.951  51.690  0.00  0.00    +0.000 OA
ATOM     27  H   UNL     1     -12.730  52.299  52.359  0.00  0.00    +0.000 HD
ENDBRANCH   3  26
BRANCH   5  28
ATOM     28  N   UNL     1      -7.484  54.342  49.936  0.00  0.00    +0.000 N 
ATOM     29  H   UNL     1      -7.085  53.870  49.170  0.00  0.00    +0.000 HD
BRANCH  28  30
ATOM     30  C   UNL     1      -6.778  55.399  50.674  0.00  0.00    +0.000 C 
BRANCH  30  31
ATOM     31  C   UNL     1      -6.330  54.956  52.047  0.00  0.00    +0.000 A 
ATOM     32  C   UNL     1      -5.234  54.097  52.199  0.00  0.00    +0.000 A 
ATOM     33  C   UNL     1      -7.055  55.341  53.187  0.00  0.00    +0.000 A 
ATOM     34  C   UNL     1      -4.867  53.619  53.464  0.00  0.00    +0.000 A 
ATOM     35  C   UNL     1      -6.695  54.870  54.449  0.00  0.00    +0.000 A 
ATOM     36  C   UNL     1      -5.609  54.009  54.586  0.00  0.00    +0.000 A 
ATOM     37  C   UNL     1      -3.726  52.661  53.615  0.00  0.00    +0.000 C 
ENDBRANCH  30  31
ENDBRANCH  28  30
ENDBRANCH   5  28
TORSDOF 5
ENDMDL
MODEL 7
REMARK VINA RESULT:      -8.8      2.626      7.460
REMARK  Name = 
REMARK  6 active torsions:
REMARK  status: ('A' for Active; 'I' for Inactive)
REMARK    1  A    between atoms: C_6  and  C_10
REMARK    2  A    between atoms: C_14  and  O_18
REMARK    3  A    between atoms: N_17  and  N_20
REMARK    4  A    between atoms: N_20  and  C_23
REMARK    5  A    between atoms: C_23  and  C_26
REMARK    6  A    between atoms: C_30  and  C_33
REMARK                            x       y       z     vdW  Elec       q    Type
REMARK                         _______ _______ _______ _____ _____    ______ ____
ROOT
ATOM      1  C   UNL     1     -11.204  54.569  48.393  0.00  0.00    +0.000 A 
ATOM      2  C   UNL     1     -10.906  54.127  49.787  0.00  0.00    +0.000 A 
ATOM      3  C   UNL     1     -12.166  55.479  48.160  0.00  0.00    +0.000 A 
ATOM      4  O   UNL     1     -10.031  53.267  49.932  0.00  0.00    +0.000 OA
ATOM      5  N   UNL     1     -11.611  54.723  50.837  0.00  0.00    +0.000 N 
ATOM      6  C   UNL     1     -12.906  56.087  49.276  0.00  0.00    +0.000 A 
ATOM      7  C   UNL     1     -12.620  55.705  50.598  0.00  0.00    +0.000 A 
ATOM      8  C   UNL     1     -13.888  57.065  49.036  0.00  0.00    +0.000 A 
ATOM      9  C   UNL     1     -13.329  56.307  51.652  0.00  0.00    +0.000 A 
ATOM     10  C   UNL     1     -14.574  57.665  50.090  0.00  0.00    +0.000 A 
ATOM     11  C   UNL     1     -14.295  57.284  51.398  0.00  0.00    +0.000 A 
ENDROOT
BRANCH   1  17
ATOM     12  S   UNL     1      -8.150  53.951  46.001  0.00  0.00    +0.000 S 
ATOM     13  O   UNL     1      -7.157  53.066  46.581  0.00  0.00    +0.000 OA
ATOM     14  O   UNL     1      -7.739  55.128  45.260  0.00  0.00    +0.000 OA
ATOM     15  N   UNL     1      -9.133  54.433  47.194  0.00  0.00    +0.000 N 
ATOM     16  C   UNL     1      -9.079  52.972  44.875  0.00  0.00    +0.000 A 
ATOM     17  C   UNL     1     -10.361  54.010  47.263  0.00  0.00    +0.000 C 
ATOM     18  C   UNL     1     -10.389  52.679  45.204  0.00  0.00    +0.000 A 
ATOM     19  C   UNL     1      -8.493  52.530  43.686  0.00  0.00    +0.000 A 
ATOM     20  N   UNL     1     -10.954  53.112  46.402  0.00  0.00    +0.000 N 
ATOM     21  C   UNL     1     -11.113  51.849  44.340  0.00  0.00    +0.000 A 
ATOM     22  C   UNL     1      -9.237  51.736  42.816  0.00  0.00    +0.000 A 
ATOM     23  C   UNL     1     -10.545  51.388  43.150  0.00  0.00    +0.000 A 
ATOM     24  H   UNL     1      -8.796  55.055  47.878  0.00  0.00    +0.000 HD
ATOM     25  H   UNL     1     -11.836  52.753  46.650  0.00  0.00    +0.000 HD
ENDBRANCH   1  17
BRANCH   3  26
ATOM     26  O   UNL     1     -12.514  55.938  46.902  0.00  0.00    +0.000 OA
ATOM     27  H   UNL     1     -13.328  56.384  46.775  0.00  0.00    +0.000 HD
ENDBRANCH   3  26
BRANCH   5  28
ATOM     28  N   UNL     1     -11.405  54.288  52.195  0.00  0.00    +0.000 N 
ATOM     29  H   UNL     1     -11.875  53.515  52.584  0.00  0.00    +0.000 HD
BRANCH  28  30
ATOM     30  C   UNL     1     -10.435  55.091  52.953  0.00  0.00    +0.000 C 
BRANCH  30  31
ATOM     31  C   UNL     1      -9.271  54.275  53.464  0.00  0.00    +0.000 A 
ATOM     32  C   UNL     1      -8.072  54.896  53.838  0.00  0.00    +0.000 A 
ATOM     33  C   UNL     1      -9.350  52.874  53.501  0.00  0.00    +0.000 A 
ATOM     34  C   UNL     1      -6.964  54.135  54.234  0.00  0.00    +0.000 A 
ATOM     35  C   UNL     1      -8.252  52.110  53.895  0.00  0.00    +0.000 A 
ATOM     36  C   UNL     1      -7.063  52.738  54.255  0.00  0.00    +0.000 A 
ATOM     37  C   UNL     1      -5.668  54.800  54.584  0.00  0.00    +0.000 C 
ENDBRANCH  30  31
ENDBRANCH  28  30
ENDBRANCH   5  28
TORSDOF 5
ENDMDL
MODEL 8
REMARK VINA RESULT:      -8.7      1.903      5.692
REMARK  Name = 
REMARK  6 active torsions:
REMARK  status: ('A' for Active; 'I' for Inactive)
REMARK    1  A    between atoms: C_6  and  C_10
REMARK    2  A    between atoms: C_14  and  O_18
REMARK    3  A    between atoms: N_17  and  N_20
REMARK    4  A    between atoms: N_20  and  C_23
REMARK    5  A    between atoms: C_23  and  C_26
REMARK    6  A    between atoms: C_30  and  C_33
REMARK                            x       y       z     vdW  Elec       q    Type
REMARK                         _______ _______ _______ _____ _____    ______ ____
ROOT
ATOM      1  C   UNL     1     -10.557  55.072  50.729  0.00  0.00    +0.000 A 
ATOM      2  C   UNL     1     -10.290  55.073  49.261  0.00  0.00    +0.000 A 
ATOM      3  C   UNL     1     -11.650  55.681  51.222  0.00  0.00    +0.000 A 
ATOM      4  O   UNL     1      -9.255  54.521  48.874  0.00  0.00    +0.000 OA
ATOM      5  N   UNL     1     -11.232  55.669  48.416  0.00  0.00    +0.000 N 
ATOM      6  C   UNL     1     -12.623  56.314  50.320  0.00  0.00    +0.000 A 
ATOM      7  C   UNL     1     -12.405  56.299  48.930  0.00  0.00    +0.000 A 
ATOM      8  C   UNL     1     -13.785  56.920  50.830  0.00  0.00    +0.000 A 
ATOM      9  C   UNL     1     -13.353  56.899  48.084  0.00  0.00    +0.000 A 
ATOM     10  C   UNL     1     -14.725  57.497  49.979  0.00  0.00    +0.000 A 
ATOM     11  C   UNL     1     -14.507  57.488  48.606  0.00  0.00    +0.000 A 
ENDROOT
BRANCH   1  17
ATOM     12  S   UNL     1      -9.004  52.217  52.935  0.00  0.00    +0.000 S 
ATOM     13  O   UNL     1      -8.344  51.196  52.143  0.00  0.00    +0.000 OA
ATOM     14  O   UNL     1      -9.821  51.846  54.074  0.00  0.00    +0.000 OA
ATOM     15  N   UNL     1      -9.918  53.100  51.933  0.00  0.00    +0.000 N 
ATOM     16  C   UNL     1      -7.726  53.242  53.572  0.00  0.00    +0.000 A 
ATOM     17  C   UNL     1      -9.598  54.325  51.637  0.00  0.00    +0.000 C 
ATOM     18  C   UNL     1      -7.622  54.528  53.074  0.00  0.00    +0.000 A 
ATOM     19  C   UNL     1      -6.866  52.754  54.559  0.00  0.00    +0.000 A 
ATOM     20  N   UNL     1      -8.477  54.994  52.078  0.00  0.00    +0.000 N 
ATOM     21  C   UNL     1      -6.569  55.327  53.534  0.00  0.00    +0.000 A 
ATOM     22  C   UNL     1      -5.845  53.573  55.036  0.00  0.00    +0.000 A 
ATOM     23  C   UNL     1      -5.691  54.858  54.515  0.00  0.00    +0.000 A 
ATOM     24  H   UNL     1     -10.730  52.703  51.540  0.00  0.00    +0.000 HD
ATOM     25  H   UNL     1      -8.266  55.860  51.660  0.00  0.00    +0.000 HD
ENDBRANCH   1  17
BRANCH   3  26
ATOM     26  O   UNL     1     -11.970  55.737  52.567  0.00  0.00    +0.000 OA
ATOM     27  H   UNL     1     -12.530  55.087  52.942  0.00  0.00    +0.000 HD
ENDBRANCH   3  26
BRANCH   5  28
ATOM     28  N   UNL     1     -10.992  55.750  46.997  0.00  0.00    +0.000 N 
ATOM     29  H   UNL     1     -10.508  56.499  46.581  0.00  0.00    +0.000 HD
BRANCH  28  30
ATOM     30  C   UNL     1     -11.528  54.622  46.222  0.00  0.00    +0.000 C 
BRANCH  30  31
ATOM     31  C   UNL     1     -10.476  53.934  45.384  0.00  0.00    +0.000 A 
ATOM     32  C   UNL     1     -10.836  52.973  44.432  0.00  0.00    +0.000 A 
ATOM     33  C   UNL     1      -9.114  54.198  45.602  0.00  0.00    +0.000 A 
ATOM     34  C   UNL     1      -9.857  52.276  43.711  0.00  0.00    +0.000 A 
ATOM     35  C   UNL     1      -8.134  53.509  44.888  0.00  0.00    +0.000 A 
ATOM     36  C   UNL     1      -8.505  52.548  43.950  0.00  0.00    +0.000 A 
ATOM     37  C   UNL     1     -10.246  51.212  42.730  0.00  0.00    +0.000 C 
ENDBRANCH  30  31
ENDBRANCH  28  30
ENDBRANCH   5  28
TORSDOF 5
ENDMDL
MODEL 9
REMARK VINA RESULT:      -8.6      1.767      5.359
REMARK  Name = 
REMARK  6 active torsions:
REMARK  status: ('A' for Active; 'I' for Inactive)
REMARK    1  A    between atoms: C_6  and  C_10
REMARK    2  A    between atoms: C_14  and  O_18
REMARK    3  A    between atoms: N_17  and  N_20
REMARK    4  A    between atoms: N_20  and  C_23
REMARK    5  A    between atoms: C_23  and  C_26
REMARK    6  A    between atoms: C_30  and  C_33
REMARK                            x       y       z     vdW  Elec       q    Type
REMARK                         _______ _______ _______ _____ _____    ______ ____
ROOT
ATOM      1  C   UNL     1     -10.107  54.121  51.176  0.00  0.00    +0.000 A 
ATOM      2  C   UNL     1     -10.568  53.836  49.786  0.00  0.00    +0.000 A 
ATOM      3  C   UNL     1     -10.820  54.933  51.975  0.00  0.00    +0.000 A 
ATOM      4  O   UNL     1      -9.853  53.105  49.092  0.00  0.00    +0.000 OA
ATOM      5  N   UNL     1     -11.783  54.386  49.364  0.00  0.00    +0.000 N 
ATOM      6  C   UNL     1     -12.089  55.514  51.511  0.00  0.00    +0.000 A 
ATOM      7  C   UNL     1     -12.556  55.233  50.215  0.00  0.00    +0.000 A 
ATOM      8  C   UNL     1     -12.854  56.335  52.358  0.00  0.00    +0.000 A 
ATOM      9  C   UNL     1     -13.777  55.787  49.793  0.00  0.00    +0.000 A 
ATOM     10  C   UNL     1     -14.071  56.865  51.934  0.00  0.00    +0.000 A 
ATOM     11  C   UNL     1     -14.531  56.592  50.650  0.00  0.00    +0.000 A 
ENDROOT
BRANCH   1  17
ATOM     12  S   UNL     1      -7.760  51.671  53.156  0.00  0.00    +0.000 S 
ATOM     13  O   UNL     1      -7.715  50.346  52.570  0.00  0.00    +0.000 OA
ATOM     14  O   UNL     1      -7.824  51.835  54.596  0.00  0.00    +0.000 OA
ATOM     15  N   UNL     1      -9.024  52.451  52.511  0.00  0.00    +0.000 N 
ATOM     16  C   UNL     1      -6.286  52.481  52.645  0.00  0.00    +0.000 A 
ATOM     17  C   UNL     1      -8.851  53.432  51.676  0.00  0.00    +0.000 C 
ATOM     18  C   UNL     1      -6.402  53.519  51.739  0.00  0.00    +0.000 A 
ATOM     19  C   UNL     1      -5.053  52.079  53.164  0.00  0.00    +0.000 A 
ATOM     20  N   UNL     1      -7.637  53.897  51.217  0.00  0.00    +0.000 N 
ATOM     21  C   UNL     1      -5.226  54.127  51.282  0.00  0.00    +0.000 A 
ATOM     22  C   UNL     1      -3.893  52.718  52.730  0.00  0.00    +0.000 A 
ATOM     23  C   UNL     1      -3.980  53.736  51.780  0.00  0.00    +0.000 A 
ATOM     24  H   UNL     1      -9.938  52.177  52.753  0.00  0.00    +0.000 HD
ATOM     25  H   UNL     1      -7.644  54.539  50.471  0.00  0.00    +0.000 HD
ENDBRANCH   1  17
BRANCH   3  26
ATOM     26  O   UNL     1     -10.463  55.260  53.272  0.00  0.00    +0.000 OA
ATOM     27  H   UNL     1      -9.891  55.983  53.432  0.00  0.00    +0.000 HD
ENDBRANCH   3  26
BRANCH   5  28
ATOM     28  N   UNL     1     -12.242  54.191  48.012  0.00  0.00    +0.000 N 
ATOM     29  H   UNL     1     -12.819  53.438  47.749  0.00  0.00    +0.000 HD
BRANCH  28  30
ATOM     30  C   UNL     1     -11.778  55.207  47.056  0.00  0.00    +0.000 C 
BRANCH  30  31
ATOM     31  C   UNL     1     -10.642  54.719  46.189  0.00  0.00    +0.000 A 
ATOM     32  C   UNL     1     -10.864  53.757  45.195  0.00  0.00    +0.000 A 
ATOM     33  C   UNL     1      -9.332  55.169  46.417  0.00  0.00    +0.000 A 
ATOM     34  C   UNL     1      -9.799  53.243  44.444  0.00  0.00    +0.000 A 
ATOM     35  C   UNL     1      -8.266  54.663  45.673  0.00  0.00    +0.000 A 
ATOM     36  C   UNL     1      -8.499  53.700  44.694  0.00  0.00    +0.000 A 
ATOM     37  C   UNL     1     -10.034  52.178  43.416  0.00  0.00    +0.000 C 
ENDBRANCH  30  31
ENDBRANCH  28  30
ENDBRANCH   5  28
TORSDOF 5
ENDMDL
