MODEL 1
REMARK VINA RESULT:      -9.1      0.000      0.000
REMARK  Name = 
REMARK  5 active torsions:
REMARK  status: ('A' for Active; 'I' for Inactive)
REMARK    1  A    between atoms: C_6  and  C_10
REMARK    2  A    between atoms: C_14  and  O_18
REMARK    3  A    between atoms: N_17  and  N_20
REMARK    4  A    between atoms: N_20  and  C_23
REMARK    5  A    between atoms: C_23  and  C_26
REMARK                            x       y       z     vdW  Elec       q    Type
REMARK                         _______ _______ _______ _____ _____    ______ ____
ROOT
ATOM      1  C   UNL     1      -9.435  54.062  50.672  0.00  0.00    +0.000 A 
ATOM      2  C   UNL     1     -10.661  54.421  51.441  0.00  0.00    +0.000 A 
ATOM      3  C   UNL     1      -9.393  54.216  49.341  0.00  0.00    +0.000 A 
ATOM      4  O   UNL     1     -10.618  54.211  52.658  0.00  0.00    +0.000 OA
ATOM      5  N   UNL     1     -11.764  54.940  50.738  0.00  0.00    +0.000 N 
ATOM      6  C   UNL     1     -10.517  54.830  48.625  0.00  0.00    +0.000 A 
ATOM      7  C   UNL     1     -11.687  55.183  49.319  0.00  0.00    +0.000 A 
ATOM      8  C   UNL     1     -10.418  55.075  47.242  0.00  0.00    +0.000 A 
ATOM      9  C   UNL     1     -12.733  55.786  48.594  0.00  0.00    +0.000 A 
ATOM     10  C   UNL     1     -11.451  55.695  46.548  0.00  0.00    +0.000 A 
ATOM     11  C   UNL     1     -12.605  56.056  47.226  0.00  0.00    +0.000 A 
ENDROOT
BRANCH   1  17
ATOM     12  S   UNL     1      -7.385  51.566  52.896  0.00  0.00    +0.000 S 
ATOM     13  O   UNL     1      -7.167  50.322  52.187  0.00  0.00    +0.000 OA
ATOM     14  O   UNL     1      -7.725  51.558  54.306  0.00  0.00    +0.000 OA
ATOM     15  N   UNL     1      -8.547  52.392  52.133  0.00  0.00    +0.000 N 
ATOM     16  C   UNL     1      -5.890  52.472  52.761  0.00  0.00    +0.000 A 
ATOM     17  C   UNL     1      -8.265  53.439  51.409  0.00  0.00    +0.000 C 
ATOM     18  C   UNL     1      -5.869  53.569  51.918  0.00  0.00    +0.000 A 
ATOM     19  C   UNL     1      -4.768  52.067  53.487  0.00  0.00    +0.000 A 
ATOM     20  N   UNL     1      -7.022  54.007  51.272  0.00  0.00    +0.000 N 
ATOM     21  C   UNL     1      -4.675  54.286  51.799  0.00  0.00    +0.000 A 
ATOM     22  C   UNL     1      -3.588  52.790  53.363  0.00  0.00    +0.000 A 
ATOM     23  C   UNL     1      -3.538  53.896  52.513  0.00  0.00    +0.000 A 
ATOM     24  H   UNL     1      -9.482  52.100  52.216  0.00  0.00    +0.000 HD
ATOM     25  H   UNL     1      -6.941  54.783  50.673  0.00  0.00    +0.000 HD
ENDBRANCH   1  17
BRANCH   3  26
ATOM     26  O   UNL     1      -8.332  53.826  48.539  0.00  0.00    +0.000 OA
ATOM     27  H   UNL     1      -8.476  53.235  47.827  0.00  0.00    +0.000 HD
ENDBRANCH   3  26
BRANCH   5  28
ATOM     28  N   UNL     1     -13.071  55.054  51.379  0.00  0.00    +0.000 N 
ATOM     29  H   UNL     1     -13.739  54.332  51.337  0.00  0.00    +0.000 HD
BRANCH  28  30
ATOM     30  C   UNL     1     -13.330  56.316  52.092  0.00  0.00    +0.000 C 
BRANCH  30  31
ATOM     31  C   UNL     1     -14.831  56.685  52.170  0.00  0.00    +0.000 C 
ATOM     32  C   UNL     1     -15.496  56.968  50.817  0.00  0.00    +0.000 C 
ATOM     33  C   UNL     1     -15.019  57.903  53.099  0.00  0.00    +0.000 C 
ATOM     34  C   UNL     1     -14.965  58.241  50.168  0.00  0.00    +0.000 C 
ATOM     35  C   UNL     1     -14.532  59.211  52.471  0.00  0.00    +0.000 C 
ATOM     36  C   UNL     1     -15.138  59.445  51.090  0.00  0.00    +0.000 C 
ENDBRANCH  30  31
ENDBRANCH  28  30
ENDBRANCH   5  28
TORSDOF 5
ENDMDL
MODEL 2
REMARK VINA RESULT:      -8.9      1.421      1.730
REMARK  Name = 
REMARK  5 active torsions:
REMARK  status: ('A' for Active; 'I' for Inactive)
REMARK    1  A    between atoms: C_6  and  C_10
REMARK    2  A    between atoms: C_14  and  O_18
REMARK    3  A    between atoms: N_17  and  N_20
REMARK    4  A    between atoms: N_20  and  C_23
REMARK    5  A    between atoms: C_23  and  C_26
REMARK                            x       y       z     vdW  Elec       q    Type
REMARK                         _______ _______ _______ _____ _____    ______ ____
ROOT
ATOM      1  C   UNL     1      -8.942  54.605  50.959  0.00  0.00    +0.000 A 
ATOM      2  C   UNL     1     -10.215  54.859  51.694  0.00  0.00    +0.000 A 
ATOM      3  C   UNL     1      -8.904  54.658  49.620  0.00  0.00    +0.000 A 
ATOM      4  O   UNL     1     -10.159  54.754  52.924  0.00  0.00    +0.000 OA
ATOM      5  N   UNL     1     -11.366  55.172  50.949  0.00  0.00    +0.000 N 
ATOM      6  C   UNL     1     -10.089  55.060  48.855  0.00  0.00    +0.000 A 
ATOM      7  C   UNL     1     -11.304  55.310  49.516  0.00  0.00    +0.000 A 
ATOM      8  C   UNL     1     -10.006  55.206  47.457  0.00  0.00    +0.000 A 
ATOM      9  C   UNL     1     -12.411  55.711  48.742  0.00  0.00    +0.000 A 
ATOM     10  C   UNL     1     -11.102  55.628  46.713  0.00  0.00    +0.000 A 
ATOM     11  C   UNL     1     -12.302  55.887  47.358  0.00  0.00    +0.000 A 
ENDROOT
BRANCH   1  17
ATOM     12  S   UNL     1      -6.144  54.648  53.706  0.00  0.00    +0.000 S 
ATOM     13  O   UNL     1      -6.685  54.231  54.983  0.00  0.00    +0.000 OA
ATOM     14  O   UNL     1      -5.209  55.755  53.631  0.00  0.00    +0.000 OA
ATOM     15  N   UNL     1      -7.376  55.001  52.719  0.00  0.00    +0.000 N 
ATOM     16  C   UNL     1      -5.303  53.255  53.055  0.00  0.00    +0.000 A 
ATOM     17  C   UNL     1      -7.710  54.202  51.747  0.00  0.00    +0.000 C 
ATOM     18  C   UNL     1      -5.883  52.584  51.992  0.00  0.00    +0.000 A 
ATOM     19  C   UNL     1      -4.091  52.853  53.620  0.00  0.00    +0.000 A 
ATOM     20  N   UNL     1      -7.045  53.055  51.388  0.00  0.00    +0.000 N 
ATOM     21  C   UNL     1      -5.220  51.465  51.478  0.00  0.00    +0.000 A 
ATOM     22  C   UNL     1      -3.441  51.741  53.098  0.00  0.00    +0.000 A 
ATOM     23  C   UNL     1      -4.007  51.042  52.032  0.00  0.00    +0.000 A 
ATOM     24  H   UNL     1      -7.882  55.834  52.856  0.00  0.00    +0.000 HD
ATOM     25  H   UNL     1      -7.419  52.525  50.647  0.00  0.00    +0.000 HD
ENDBRANCH   1  17
BRANCH   3  26
ATOM     26  O   UNL     1      -7.791  54.349  48.855  0.00  0.00    +0.000 OA
ATOM     27  H   UNL     1      -7.854  53.710  48.173  0.00  0.00    +0.000 HD
ENDBRANCH   3  26
BRANCH   5  28
ATOM     28  N   UNL     1     -12.685  55.163  51.576  0.00  0.00    +0.000 N 
ATOM     29  H   UNL     1     -13.249  54.356  51.599  0.00  0.00    +0.000 HD
BRANCH  28  30
ATOM     30  C   UNL     1     -13.123  56.436  52.172  0.00  0.00    +0.000 C 
BRANCH  30  31
ATOM     31  C   UNL     1     -14.655  56.651  52.115  0.00  0.00    +0.000 C 
ATOM     32  C   UNL     1     -15.219  56.899  50.711  0.00  0.00    +0.000 C 
ATOM     33  C   UNL     1     -15.050  57.821  53.042  0.00  0.00    +0.000 C 
ATOM     34  C   UNL     1     -14.765  58.235  50.134  0.00  0.00    +0.000 C 
ATOM     35  C   UNL     1     -14.645  59.186  52.483  0.00  0.00    +0.000 C 
ATOM     36  C   UNL     1     -15.143  59.392  51.055  0.00  0.00    +0.000 C 
ENDBRANCH  30  31
ENDBRANCH  28  30
ENDBRANCH   5  28
TORSDOF 5
ENDMDL
MODEL 3
REMARK VINA RESULT:      -8.8      2.758      8.474
REMARK  Name = 
REMARK  5 active torsions:
REMARK  status: ('A' for Active; 'I' for Inactive)
REMARK    1  A    between atoms: C_6  and  C_10
REMARK    2  A    between atoms: C_14  and  O_18
REMARK    3  A    between atoms: N_17  and  N_20
REMARK    4  A    between atoms: N_20  and  C_23
REMARK    5  A    between atoms: C_23  and  C_26
REMARK                            x       y       z     vdW  Elec       q    Type
REMARK                         _______ _______ _______ _____ _____    ______ ____
ROOT
ATOM      1  C   UNL     1     -10.072  54.433  52.364  0.00  0.00    +0.000 A 
ATOM      2  C   UNL     1      -8.670  54.893  52.153  0.00  0.00    +0.000 A 
ATOM      3  C   UNL     1     -10.330  53.331  53.084  0.00  0.00    +0.000 A 
ATOM      4  O   UNL     1      -8.530  55.898  51.448  0.00  0.00    +0.000 OA
ATOM      5  N   UNL     1      -7.627  54.152  52.740  0.00  0.00    +0.000 N 
ATOM      6  C   UNL     1      -9.245  52.609  53.757  0.00  0.00    +0.000 A 
ATOM      7  C   UNL     1      -7.911  53.017  53.581  0.00  0.00    +0.000 A 
ATOM      8  C   UNL     1      -9.542  51.513  54.588  0.00  0.00    +0.000 A 
ATOM      9  C   UNL     1      -6.904  52.305  54.262  0.00  0.00    +0.000 A 
ATOM     10  C   UNL     1      -8.537  50.838  55.272  0.00  0.00    +0.000 A 
ATOM     11  C   UNL     1      -7.219  51.240  55.114  0.00  0.00    +0.000 A 
ENDROOT
BRANCH   1  17
ATOM     12  S   UNL     1     -12.387  55.818  49.518  0.00  0.00    +0.000 S 
ATOM     13  O   UNL     1     -13.221  54.759  48.987  0.00  0.00    +0.000 OA
ATOM     14  O   UNL     1     -11.776  56.788  48.628  0.00  0.00    +0.000 OA
ATOM     15  N   UNL     1     -11.194  55.146  50.378  0.00  0.00    +0.000 N 
ATOM     16  C   UNL     1     -13.404  56.735  50.613  0.00  0.00    +0.000 A 
ATOM     17  C   UNL     1     -11.199  55.184  51.681  0.00  0.00    +0.000 C 
ATOM     18  C   UNL     1     -13.182  56.599  51.973  0.00  0.00    +0.000 A 
ATOM     19  C   UNL     1     -14.405  57.561  50.099  0.00  0.00    +0.000 A 
ATOM     20  N   UNL     1     -12.121  55.839  52.460  0.00  0.00    +0.000 N 
ATOM     21  C   UNL     1     -13.998  57.319  52.849  0.00  0.00    +0.000 A 
ATOM     22  C   UNL     1     -15.209  58.274  50.981  0.00  0.00    +0.000 A 
ATOM     23  C   UNL     1     -15.011  58.149  52.356  0.00  0.00    +0.000 A 
ATOM     24  H   UNL     1     -10.452  54.701  49.911  0.00  0.00    +0.000 HD
ATOM     25  H   UNL     1     -12.025  55.767  53.437  0.00  0.00    +0.000 HD
ENDBRANCH   1  17
BRANCH   3  26
ATOM     26  O   UNL     1     -11.591  52.784  53.255  0.00  0.00    +0.000 OA
ATOM     27  H   UNL     1     -11.682  51.908  53.577  0.00  0.00    +0.000 HD
ENDBRANCH   3  26
BRANCH   5  28
ATOM     28  N   UNL     1      -6.238  54.384  52.353  0.00  0.00    +0.000 N 
ATOM     29  H   UNL     1      -5.687  55.082  52.775  0.00  0.00    +0.000 HD
BRANCH  28  30
ATOM     30  C   UNL     1      -5.711  53.510  51.292  0.00  0.00    +0.000 C 
BRANCH  30  31
ATOM     31  C   UNL     1      -4.910  54.269  50.207  0.00  0.00    +0.000 C 
ATOM     32  C   UNL     1      -5.691  55.371  49.482  0.00  0.00    +0.000 C 
ATOM     33  C   UNL     1      -4.358  53.265  49.173  0.00  0.00    +0.000 C 
ATOM     34  C   UNL     1      -6.809  54.810  48.611  0.00  0.00    +0.000 C 
ATOM     35  C   UNL     1      -5.442  52.703  48.252  0.00  0.00    +0.000 C 
ATOM     36  C   UNL     1      -6.267  53.807  47.595  0.00  0.00    +0.000 C 
ENDBRANCH  30  31
ENDBRANCH  28  30
ENDBRANCH   5  28
TORSDOF 5
ENDMDL
MODEL 4
REMARK VINA RESULT:      -8.7      2.909      8.226
REMARK  Name = 
REMARK  5 active torsions:
REMARK  status: ('A' for Active; 'I' for Inactive)
REMARK    1  A    between atoms: C_6  and  C_10
REMARK    2  A    between atoms: C_14  and  O_18
REMARK    3  A    between atoms: N_17  and  N_20
REMARK    4  A    between atoms: N_20  and  C_23
REMARK    5  A    between atoms: C_23  and  C_26
REMARK                            x       y       z     vdW  Elec       q    Type
REMARK                         _______ _______ _______ _____ _____    ______ ____
ROOT
ATOM      1  C   UNL     1     -11.302  53.868  51.661  0.00  0.00    +0.000 A 
ATOM      2  C   UNL     1     -10.278  53.985  52.739  0.00  0.00    +0.000 A 
ATOM      3  C   UNL     1     -11.487  52.707  51.016  0.00  0.00    +0.000 A 
ATOM      4  O   UNL     1     -10.158  55.103  53.252  0.00  0.00    +0.000 OA
ATOM      5  N   UNL     1      -9.524  52.845  53.072  0.00  0.00    +0.000 N 
ATOM      6  C   UNL     1     -10.752  51.504  51.421  0.00  0.00    +0.000 A 
ATOM      7  C   UNL     1      -9.781  51.578  52.436  0.00  0.00    +0.000 A 
ATOM      8  C   UNL     1     -11.028  50.271  50.800  0.00  0.00    +0.000 A 
ATOM      9  C   UNL     1      -9.115  50.393  52.804  0.00  0.00    +0.000 A 
ATOM     10  C   UNL     1     -10.377  49.107  51.195  0.00  0.00    +0.000 A 
ATOM     11  C   UNL     1      -9.426  49.169  52.202  0.00  0.00    +0.000 A 
ENDROOT
BRANCH   1  17
ATOM     12  S   UNL     1     -12.676  56.781  49.424  0.00  0.00    +0.000 S 
ATOM     13  O   UNL     1     -13.639  56.271  48.469  0.00  0.00    +0.000 OA
ATOM     14  O   UNL     1     -11.701  57.777  49.022  0.00  0.00    +0.000 OA
ATOM     15  N   UNL     1     -11.853  55.531  50.035  0.00  0.00    +0.000 N 
ATOM     16  C   UNL     1     -13.611  57.507  50.717  0.00  0.00    +0.000 A 
ATOM     17  C   UNL     1     -12.074  55.107  51.248  0.00  0.00    +0.000 C 
ATOM     18  C   UNL     1     -13.668  56.842  51.929  0.00  0.00    +0.000 A 
ATOM     19  C   UNL     1     -14.273  58.716  50.496  0.00  0.00    +0.000 A 
ATOM     20  N   UNL     1     -12.927  55.685  52.155  0.00  0.00    +0.000 N 
ATOM     21  C   UNL     1     -14.421  57.413  52.959  0.00  0.00    +0.000 A 
ATOM     22  C   UNL     1     -15.017  59.275  51.529  0.00  0.00    +0.000 A 
ATOM     23  C   UNL     1     -15.097  58.621  52.759  0.00  0.00    +0.000 A 
ATOM     24  H   UNL     1     -11.173  55.082  49.483  0.00  0.00    +0.000 HD
ATOM     25  H   UNL     1     -13.022  55.248  53.032  0.00  0.00    +0.000 HD
ENDBRANCH   1  17
BRANCH   3  26
ATOM     26  O   UNL     1     -12.349  52.533  49.946  0.00  0.00    +0.000 OA
ATOM     27  H   UNL     1     -12.876  51.761  49.890  0.00  0.00    +0.000 HD
ENDBRANCH   3  26
BRANCH   5  28
ATOM     28  N   UNL     1      -8.336  52.957  53.914  0.00  0.00    +0.000 N 
ATOM     29  H   UNL     1      -8.395  53.050  54.892  0.00  0.00    +0.000 HD
BRANCH  28  30
ATOM     30  C   UNL     1      -7.043  52.922  53.210  0.00  0.00    +0.000 C 
BRANCH  30  31
ATOM     31  C   UNL     1      -6.610  54.296  52.645  0.00  0.00    +0.000 C 
ATOM     32  C   UNL     1      -5.365  54.261  51.749  0.00  0.00    +0.000 C 
ATOM     33  C   UNL     1      -6.379  55.286  53.806  0.00  0.00    +0.000 C 
ATOM     34  C   UNL     1      -4.103  53.910  52.529  0.00  0.00    +0.000 C 
ATOM     35  C   UNL     1      -5.102  54.992  54.594  0.00  0.00    +0.000 C 
ATOM     36  C   UNL     1      -3.880  54.880  53.686  0.00  0.00    +0.000 C 
ENDBRANCH  30  31
ENDBRANCH  28  30
ENDBRANCH   5  28
TORSDOF 5
ENDMDL
MODEL 5
REMARK VINA RESULT:      -8.7      1.889      2.653
REMARK  Name = 
REMARK  5 active torsions:
REMARK  status: ('A' for Active; 'I' for Inactive)
REMARK    1  A    between atoms: C_6  and  C_10
REMARK    2  A    between atoms: C_14  and  O_18
REMARK    3  A    between atoms: N_17  and  N_20
REMARK    4  A    between atoms: N_20  and  C_23
REMARK    5  A    between atoms: C_23  and  C_26
REMARK                            x       y       z     vdW  Elec       q    Type
REMARK                         _______ _______ _______ _____ _____    ______ ____
ROOT
ATOM      1  C   UNL     1      -9.925  54.326  50.889  0.00  0.00    +0.000 A 
ATOM      2  C   UNL     1     -11.354  54.566  51.242  0.00  0.00    +0.000 A 
ATOM      3  C   UNL     1      -9.508  54.430  49.618  0.00  0.00    +0.000 A 
ATOM      4  O   UNL     1     -11.650  54.413  52.432  0.00  0.00    +0.000 OA
ATOM      5  N   UNL     1     -12.247  54.918  50.214  0.00  0.00    +0.000 N 
ATOM      6  C   UNL     1     -10.428  54.873  48.565  0.00  0.00    +0.000 A 
ATOM      7  C   UNL     1     -11.781  55.111  48.864  0.00  0.00    +0.000 A 
ATOM      8  C   UNL     1      -9.951  55.072  47.256  0.00  0.00    +0.000 A 
ATOM      9  C   UNL     1     -12.623  55.553  47.824  0.00  0.00    +0.000 A 
ATOM     10  C   UNL     1     -10.791  55.534  46.248  0.00  0.00    +0.000 A 
ATOM     11  C   UNL     1     -12.125  55.780  46.536  0.00  0.00    +0.000 A 
ENDROOT
BRANCH   1  17
ATOM     12  S   UNL     1      -6.754  54.219  53.193  0.00  0.00    +0.000 S 
ATOM     13  O   UNL     1      -6.775  55.324  54.129  0.00  0.00    +0.000 OA
ATOM     14  O   UNL     1      -5.517  53.833  52.540  0.00  0.00    +0.000 OA
ATOM     15  N   UNL     1      -7.832  54.519  52.025  0.00  0.00    +0.000 N 
ATOM     16  C   UNL     1      -7.293  52.811  54.088  0.00  0.00    +0.000 A 
ATOM     17  C   UNL     1      -8.967  53.880  51.976  0.00  0.00    +0.000 C 
ATOM     18  C   UNL     1      -8.560  52.320  53.825  0.00  0.00    +0.000 A 
ATOM     19  C   UNL     1      -6.450  52.232  55.038  0.00  0.00    +0.000 A 
ATOM     20  N   UNL     1      -9.348  52.858  52.811  0.00  0.00    +0.000 N 
ATOM     21  C   UNL     1      -8.997  51.205  54.545  0.00  0.00    +0.000 A 
ATOM     22  C   UNL     1      -6.895  51.122  55.746  0.00  0.00    +0.000 A 
ATOM     23  C   UNL     1      -8.171  50.611  55.506  0.00  0.00    +0.000 A 
ATOM     24  H   UNL     1      -7.628  55.195  51.341  0.00  0.00    +0.000 HD
ATOM     25  H   UNL     1     -10.246  52.477  52.683  0.00  0.00    +0.000 HD
ENDBRANCH   1  17
BRANCH   3  26
ATOM     26  O   UNL     1      -8.224  54.139  49.189  0.00  0.00    +0.000 OA
ATOM     27  H   UNL     1      -7.528  54.746  49.347  0.00  0.00    +0.000 HD
ENDBRANCH   3  26
BRANCH   5  28
ATOM     28  N   UNL     1     -13.690  54.899  50.440  0.00  0.00    +0.000 N 
ATOM     29  H   UNL     1     -14.194  54.059  50.533  0.00  0.00    +0.000 HD
BRANCH  28  30
ATOM     30  C   UNL     1     -14.346  56.215  50.520  0.00  0.00    +0.000 C 
BRANCH  30  31
ATOM     31  C   UNL     1     -13.497  57.287  51.245  0.00  0.00    +0.000 C 
ATOM     32  C   UNL     1     -13.704  57.355  52.763  0.00  0.00    +0.000 C 
ATOM     33  C   UNL     1     -13.773  58.674  50.626  0.00  0.00    +0.000 C 
ATOM     34  C   UNL     1     -15.095  57.855  53.134  0.00  0.00    +0.000 C 
ATOM     35  C   UNL     1     -15.147  59.231  51.003  0.00  0.00    +0.000 C 
ATOM     36  C   UNL     1     -15.376  59.221  52.513  0.00  0.00    +0.000 C 
ENDBRANCH  30  31
ENDBRANCH  28  30
ENDBRANCH   5  28
TORSDOF 5
ENDMDL
MODEL 6
REMARK VINA RESULT:      -8.5      3.145      5.828
REMARK  Name = 
REMARK  5 active torsions:
REMARK  status: ('A' for Active; 'I' for Inactive)
REMARK    1  A    between atoms: C_6  and  C_10
REMARK    2  A    between atoms: C_14  and  O_18
REMARK    3  A    between atoms: N_17  and  N_20
REMARK    4  A    between atoms: N_20  and  C_23
REMARK    5  A    between atoms: C_23  and  C_26
REMARK                            x       y       z     vdW  Elec       q    Type
REMARK                         _______ _______ _______ _____ _____    ______ ____
ROOT
ATOM      1  C   UNL     1     -10.059  53.424  49.317  0.00  0.00    +0.000 A 
ATOM      2  C   UNL     1     -11.285  53.748  50.101  0.00  0.00    +0.000 A 
ATOM      3  C   UNL     1      -8.841  53.677  49.817  0.00  0.00    +0.000 A 
ATOM      4  O   UNL     1     -12.362  53.511  49.544  0.00  0.00    +0.000 OA
ATOM      5  N   UNL     1     -11.132  54.311  51.381  0.00  0.00    +0.000 N 
ATOM      6  C   UNL     1      -8.687  54.192  51.183  0.00  0.00    +0.000 A 
ATOM      7  C   UNL     1      -9.822  54.505  51.950  0.00  0.00    +0.000 A 
ATOM      8  C   UNL     1      -7.400  54.359  51.728  0.00  0.00    +0.000 A 
ATOM      9  C   UNL     1      -9.626  54.978  53.263  0.00  0.00    +0.000 A 
ATOM     10  C   UNL     1      -7.226  54.803  53.034  0.00  0.00    +0.000 A 
ATOM     11  C   UNL     1      -8.341  55.106  53.803  0.00  0.00    +0.000 A 
ENDROOT
BRANCH   1  17
ATOM     12  S   UNL     1     -11.323  51.211  46.337  0.00  0.00    +0.000 S 
ATOM     13  O   UNL     1     -12.684  51.565  45.988  0.00  0.00    +0.000 OA
ATOM     14  O   UNL     1     -10.912  49.820  46.370  0.00  0.00    +0.000 OA
ATOM     15  N   UNL     1     -10.987  51.839  47.789  0.00  0.00    +0.000 N 
ATOM     16  C   UNL     1     -10.297  51.995  45.150  0.00  0.00    +0.000 A 
ATOM     17  C   UNL     1     -10.213  52.880  47.910  0.00  0.00    +0.000 C 
ATOM     18  C   UNL     1      -9.555  53.090  45.556  0.00  0.00    +0.000 A 
ATOM     19  C   UNL     1     -10.259  51.510  43.842  0.00  0.00    +0.000 A 
ATOM     20  N   UNL     1      -9.539  53.501  46.887  0.00  0.00    +0.000 N 
ATOM     21  C   UNL     1      -8.744  53.724  44.610  0.00  0.00    +0.000 A 
ATOM     22  C   UNL     1      -9.448  52.148  42.911  0.00  0.00    +0.000 A 
ATOM     23  C   UNL     1      -8.695  53.259  43.291  0.00  0.00    +0.000 A 
ATOM     24  H   UNL     1     -11.375  51.429  48.594  0.00  0.00    +0.000 HD
ATOM     25  H   UNL     1      -9.005  54.297  47.111  0.00  0.00    +0.000 HD
ENDBRANCH   1  17
BRANCH   3  26
ATOM     26  O   UNL     1      -7.655  53.492  49.125  0.00  0.00    +0.000 OA
ATOM     27  H   UNL     1      -7.580  53.783  48.238  0.00  0.00    +0.000 HD
ENDBRANCH   3  26
BRANCH   5  28
ATOM     28  N   UNL     1     -12.272  54.897  52.081  0.00  0.00    +0.000 N 
ATOM     29  H   UNL     1     -12.728  54.432  52.820  0.00  0.00    +0.000 HD
BRANCH  28  30
ATOM     30  C   UNL     1     -12.701  56.225  51.612  0.00  0.00    +0.000 C 
BRANCH  30  31
ATOM     31  C   UNL     1     -14.214  56.311  51.297  0.00  0.00    +0.000 C 
ATOM     32  C   UNL     1     -14.558  57.007  49.974  0.00  0.00    +0.000 C 
ATOM     33  C   UNL     1     -14.946  57.020  52.456  0.00  0.00    +0.000 C 
ATOM     34  C   UNL     1     -14.231  58.496  50.003  0.00  0.00    +0.000 C 
ATOM     35  C   UNL     1     -14.674  58.524  52.500  0.00  0.00    +0.000 C 
ATOM     36  C   UNL     1     -14.944  59.196  51.157  0.00  0.00    +0.000 C 
ENDBRANCH  30  31
ENDBRANCH  28  30
ENDBRANCH   5  28
TORSDOF 5
ENDMDL
MODEL 7
REMARK VINA RESULT:      -8.4      2.660      5.723
REMARK  Name = 
REMARK  5 active torsions:
REMARK  status: ('A' for Active; 'I' for Inactive)
REMARK    1  A    between atoms: C_6  and  C_10
REMARK    2  A    between atoms: C_14  and  O_18
REMARK    3  A    between atoms: N_17  and  N_20
REMARK    4  A    between atoms: N_20  and  C_23
REMARK    5  A    between atoms: C_23  and  C_26
REMARK                            x       y       z     vdW  Elec       q    Type
REMARK                         _______ _______ _______ _____ _____    ______ ____
ROOT
ATOM      1  C   UNL     1     -10.271  54.942  50.725  0.00  0.00    +0.000 A 
ATOM      2  C   UNL     1      -9.923  54.812  49.281  0.00  0.00    +0.000 A 
ATOM      3  C   UNL     1     -11.395  55.567  51.105  0.00  0.00    +0.000 A 
ATOM      4  O   UNL     1      -8.851  54.252  49.030  0.00  0.00    +0.000 OA
ATOM      5  N   UNL     1     -10.811  55.346  48.329  0.00  0.00    +0.000 N 
ATOM      6  C   UNL     1     -12.353  56.052  50.105  0.00  0.00    +0.000 A 
ATOM      7  C   UNL     1     -12.058  55.943  48.735  0.00  0.00    +0.000 A 
ATOM      8  C   UNL     1     -13.574  56.617  50.520  0.00  0.00    +0.000 A 
ATOM      9  C   UNL     1     -13.016  56.406  47.811  0.00  0.00    +0.000 A 
ATOM     10  C   UNL     1     -14.518  57.045  49.593  0.00  0.00    +0.000 A 
ATOM     11  C   UNL     1     -14.240  56.932  48.239  0.00  0.00    +0.000 A 
ENDROOT
BRANCH   1  17
ATOM     12  S   UNL     1      -7.060  54.706  52.965  0.00  0.00    +0.000 S 
ATOM     13  O   UNL     1      -7.077  55.740  53.979  0.00  0.00    +0.000 OA
ATOM     14  O   UNL     1      -5.831  54.383  52.266  0.00  0.00    +0.000 OA
ATOM     15  N   UNL     1      -8.161  55.077  51.839  0.00  0.00    +0.000 N 
ATOM     16  C   UNL     1      -7.569  53.231  53.764  0.00  0.00    +0.000 A 
ATOM     17  C   UNL     1      -9.290  54.430  51.762  0.00  0.00    +0.000 C 
ATOM     18  C   UNL     1      -8.834  52.745  53.486  0.00  0.00    +0.000 A 
ATOM     19  C   UNL     1      -6.704  52.594  54.656  0.00  0.00    +0.000 A 
ATOM     20  N   UNL     1      -9.645  53.345  52.526  0.00  0.00    +0.000 N 
ATOM     21  C   UNL     1      -9.247  51.575  54.130  0.00  0.00    +0.000 A 
ATOM     22  C   UNL     1      -7.124  51.431  55.288  0.00  0.00    +0.000 A 
ATOM     23  C   UNL     1      -8.399  50.923  55.032  0.00  0.00    +0.000 A 
ATOM     24  H   UNL     1      -7.976  55.803  51.203  0.00  0.00    +0.000 HD
ATOM     25  H   UNL     1     -10.541  52.964  52.385  0.00  0.00    +0.000 HD
ENDBRANCH   1  17
BRANCH   3  26
ATOM     26  O   UNL     1     -11.750  55.810  52.422  0.00  0.00    +0.000 OA
ATOM     27  H   UNL     1     -12.232  56.583  52.642  0.00  0.00    +0.000 HD
ENDBRANCH   3  26
BRANCH   5  28
ATOM     28  N   UNL     1     -10.407  55.495  46.933  0.00  0.00    +0.000 N 
ATOM     29  H   UNL     1      -9.823  56.229  46.633  0.00  0.00    +0.000 HD
BRANCH  28  30
ATOM     30  C   UNL     1     -10.928  54.482  46.001  0.00  0.00    +0.000 C 
BRANCH  30  31
ATOM     31  C   UNL     1     -10.107  53.169  45.992  0.00  0.00    +0.000 C 
ATOM     32  C   UNL     1      -8.601  53.353  45.764  0.00  0.00    +0.000 C 
ATOM     33  C   UNL     1     -10.675  52.209  44.926  0.00  0.00    +0.000 C 
ATOM     34  C   UNL     1      -8.287  53.846  44.356  0.00  0.00    +0.000 C 
ATOM     35  C   UNL     1     -10.350  52.647  43.497  0.00  0.00    +0.000 C 
ATOM     36  C   UNL     1      -8.859  52.904  43.300  0.00  0.00    +0.000 C 
ENDBRANCH  30  31
ENDBRANCH  28  30
ENDBRANCH   5  28
TORSDOF 5
ENDMDL
MODEL 8
REMARK VINA RESULT:      -8.3      3.749      8.595
REMARK  Name = 
REMARK  5 active torsions:
REMARK  status: ('A' for Active; 'I' for Inactive)
REMARK    1  A    between atoms: C_6  and  C_10
REMARK    2  A    between atoms: C_14  and  O_18
REMARK    3  A    between atoms: N_17  and  N_20
REMARK    4  A    between atoms: N_20  and  C_23
REMARK    5  A    between atoms: C_23  and  C_26
REMARK                            x       y       z     vdW  Elec       q    Type
REMARK                         _______ _______ _______ _____ _____    ______ ____
ROOT
ATOM      1  C   UNL     1     -10.726  55.805  48.550  0.00  0.00    +0.000 A 
ATOM      2  C   UNL     1     -11.038  55.312  47.178  0.00  0.00    +0.000 A 
ATOM      3  C   UNL     1      -9.511  55.615  49.085  0.00  0.00    +0.000 A 
ATOM      4  O   UNL     1     -12.194  55.503  46.784  0.00  0.00    +0.000 OA
ATOM      5  N   UNL     1     -10.024  54.659  46.455  0.00  0.00    +0.000 N 
ATOM      6  C   UNL     1      -8.436  55.002  48.297  0.00  0.00    +0.000 A 
ATOM      7  C   UNL     1      -8.696  54.529  46.999  0.00  0.00    +0.000 A 
ATOM      8  C   UNL     1      -7.141  54.900  48.838  0.00  0.00    +0.000 A 
ATOM      9  C   UNL     1      -7.628  53.966  46.272  0.00  0.00    +0.000 A 
ATOM     10  C   UNL     1      -6.094  54.363  48.097  0.00  0.00    +0.000 A 
ATOM     11  C   UNL     1      -6.338  53.903  46.811  0.00  0.00    +0.000 A 
ENDROOT
BRANCH   1  17
ATOM     12  S   UNL     1     -13.431  56.316  51.343  0.00  0.00    +0.000 S 
ATOM     13  O   UNL     1     -12.796  56.581  52.617  0.00  0.00    +0.000 OA
ATOM     14  O   UNL     1     -14.585  55.441  51.266  0.00  0.00    +0.000 OA
ATOM     15  N   UNL     1     -12.318  55.724  50.330  0.00  0.00    +0.000 N 
ATOM     16  C   UNL     1     -13.958  57.872  50.729  0.00  0.00    +0.000 A 
ATOM     17  C   UNL     1     -11.831  56.450  49.365  0.00  0.00    +0.000 C 
ATOM     18  C   UNL     1     -13.260  58.421  49.667  0.00  0.00    +0.000 A 
ATOM     19  C   UNL     1     -15.046  58.516  51.320  0.00  0.00    +0.000 A 
ATOM     20  N   UNL     1     -12.235  57.721  49.035  0.00  0.00    +0.000 N 
ATOM     21  C   UNL     1     -13.670  59.666  49.182  0.00  0.00    +0.000 A 
ATOM     22  C   UNL     1     -15.446  59.752  50.828  0.00  0.00    +0.000 A 
ATOM     23  C   UNL     1     -14.755  60.332  49.763  0.00  0.00    +0.000 A 
ATOM     24  H   UNL     1     -12.004  54.799  50.445  0.00  0.00    +0.000 HD
ATOM     25  H   UNL     1     -11.765  58.171  48.297  0.00  0.00    +0.000 HD
ENDBRANCH   1  17
BRANCH   3  26
ATOM     26  O   UNL     1      -9.163  55.959  50.381  0.00  0.00    +0.000 OA
ATOM     27  H   UNL     1      -8.656  55.368  50.902  0.00  0.00    +0.000 HD
ENDBRANCH   3  26
BRANCH   5  28
ATOM     28  N   UNL     1     -10.335  53.921  45.233  0.00  0.00    +0.000 N 
ATOM     29  H   UNL     1     -10.389  54.362  44.355  0.00  0.00    +0.000 HD
BRANCH  28  30
ATOM     30  C   UNL     1     -10.563  52.475  45.395  0.00  0.00    +0.000 C 
BRANCH  30  31
ATOM     31  C   UNL     1     -10.704  51.717  44.053  0.00  0.00    +0.000 C 
ATOM     32  C   UNL     1     -10.199  50.270  44.075  0.00  0.00    +0.000 C 
ATOM     33  C   UNL     1      -9.978  52.498  42.938  0.00  0.00    +0.000 C 
ATOM     34  C   UNL     1      -8.685  50.189  44.243  0.00  0.00    +0.000 C 
ATOM     35  C   UNL     1      -8.455  52.414  43.046  0.00  0.00    +0.000 C 
ATOM     36  C   UNL     1      -7.965  50.971  43.147  0.00  0.00    +0.000 C 
ENDBRANCH  30  31
ENDBRANCH  28  30
ENDBRANCH   5  28
TORSDOF 5
ENDMDL
MODEL 9
REMARK VINA RESULT:      -8.2      4.145      8.599
REMARK  Name = 
REMARK  5 active torsions:
REMARK  status: ('A' for Active; 'I' for Inactive)
REMARK    1  A    between atoms: C_6  and  C_10
REMARK    2  A    between atoms: C_14  and  O_18
REMARK    3  A    between atoms: N_17  and  N_20
REMARK    4  A    between atoms: N_20  and  C_23
REMARK    5  A    between atoms: C_23  and  C_26
REMARK                            x       y       z     vdW  Elec       q    Type
REMARK                         _______ _______ _______ _____ _____    ______ ____
ROOT
ATOM      1  C   UNL     1     -11.264  56.372  48.545  0.00  0.00    +0.000 A 
ATOM      2  C   UNL     1     -11.692  55.729  47.270  0.00  0.00    +0.000 A 
ATOM      3  C   UNL     1     -10.040  56.151  49.046  0.00  0.00    +0.000 A 
ATOM      4  O   UNL     1     -12.849  55.965  46.906  0.00  0.00    +0.000 OA
ATOM      5  N   UNL     1     -10.775  54.900  46.599  0.00  0.00    +0.000 N 
ATOM      6  C   UNL     1      -9.063  55.349  48.302  0.00  0.00    +0.000 A 
ATOM      7  C   UNL     1      -9.432  54.730  47.095  0.00  0.00    +0.000 A 
ATOM      8  C   UNL     1      -7.752  55.208  48.793  0.00  0.00    +0.000 A 
ATOM      9  C   UNL     1      -8.455  53.984  46.406  0.00  0.00    +0.000 A 
ATOM     10  C   UNL     1      -6.794  54.489  48.087  0.00  0.00    +0.000 A 
ATOM     11  C   UNL     1      -7.146  53.883  46.889  0.00  0.00    +0.000 A 
ENDROOT
BRANCH   1  17
ATOM     12  S   UNL     1     -13.602  59.377  49.486  0.00  0.00    +0.000 S 
ATOM     13  O   UNL     1     -14.748  59.419  48.603  0.00  0.00    +0.000 OA
ATOM     14  O   UNL     1     -12.925  60.602  49.870  0.00  0.00    +0.000 OA
ATOM     15  N   UNL     1     -12.487  58.405  48.832  0.00  0.00    +0.000 N 
ATOM     16  C   UNL     1     -14.162  58.643  50.977  0.00  0.00    +0.000 A 
ATOM     17  C   UNL     1     -12.266  57.214  49.312  0.00  0.00    +0.000 C 
ATOM     18  C   UNL     1     -13.758  57.348  51.255  0.00  0.00    +0.000 A 
ATOM     19  C   UNL     1     -14.997  59.364  51.832  0.00  0.00    +0.000 A 
ATOM     20  N   UNL     1     -12.854  56.680  50.433  0.00  0.00    +0.000 N 
ATOM     21  C   UNL     1     -14.213  56.756  52.437  0.00  0.00    +0.000 A 
ATOM     22  C   UNL     1     -15.441  58.765  53.004  0.00  0.00    +0.000 A 
ATOM     23  C   UNL     1     -15.055  57.458  53.305  0.00  0.00    +0.000 A 
ATOM     24  H   UNL     1     -11.968  58.718  48.058  0.00  0.00    +0.000 HD
ATOM     25  H   UNL     1     -12.617  55.756  50.674  0.00  0.00    +0.000 HD
ENDBRANCH   1  17
BRANCH   3  26
ATOM     26  O   UNL     1      -9.593  56.634  50.265  0.00  0.00    +0.000 OA
ATOM     27  H   UNL     1      -9.204  57.485  50.318  0.00  0.00    +0.000 HD
ENDBRANCH   3  26
BRANCH   5  28
ATOM     28  N   UNL     1     -11.212  54.035  45.506  0.00  0.00    +0.000 N 
ATOM     29  H   UNL     1     -11.214  54.336  44.569  0.00  0.00    +0.000 HD
BRANCH  28  30
ATOM     30  C   UNL     1     -11.650  52.683  45.892  0.00  0.00    +0.000 C 
BRANCH  30  31
ATOM     31  C   UNL     1     -11.761  51.704  44.698  0.00  0.00    +0.000 C 
ATOM     32  C   UNL     1     -11.952  50.233  45.086  0.00  0.00    +0.000 C 
ATOM     33  C   UNL     1     -10.514  51.840  43.798  0.00  0.00    +0.000 C 
ATOM     34  C   UNL     1     -10.718  49.650  45.765  0.00  0.00    +0.000 C 
ATOM     35  C   UNL     1      -9.258  51.234  44.427  0.00  0.00    +0.000 C 
ATOM     36  C   UNL     1      -9.481  49.794  44.882  0.00  0.00    +0.000 C 
ENDBRANCH  30  31
ENDBRANCH  28  30
ENDBRANCH   5  28
TORSDOF 5
ENDMDL
