MODEL 1
REMARK VINA RESULT:      -8.4      0.000      0.000
REMARK  Name = 
REMARK  5 active torsions:
REMARK  status: ('A' for Active; 'I' for Inactive)
REMARK    1  A    between atoms: C_6  and  C_10
REMARK    2  A    between atoms: C_14  and  O_18
REMARK    3  A    between atoms: N_17  and  N_20
REMARK    4  A    between atoms: N_20  and  C_23
REMARK    5  A    between atoms: C_23  and  C_26
REMARK                            x       y       z     vdW  Elec       q    Type
REMARK                         _______ _______ _______ _____ _____    ______ ____
ROOT
ATOM      1  C   UNL     1     -11.456  56.038  48.847  0.00  0.00    +0.000 A 
ATOM      2  C   UNL     1     -10.405  55.431  49.717  0.00  0.00    +0.000 A 
ATOM      3  C   UNL     1     -11.567  55.671  47.559  0.00  0.00    +0.000 A 
ATOM      4  O   UNL     1     -10.351  55.807  50.892  0.00  0.00    +0.000 OA
ATOM      5  N   UNL     1      -9.581  54.444  49.167  0.00  0.00    +0.000 N 
ATOM      6  C   UNL     1     -10.672  54.652  46.991  0.00  0.00    +0.000 A 
ATOM      7  C   UNL     1      -9.686  54.057  47.799  0.00  0.00    +0.000 A 
ATOM      8  C   UNL     1     -10.810  54.246  45.652  0.00  0.00    +0.000 A 
ATOM      9  C   UNL     1      -8.842  53.085  47.238  0.00  0.00    +0.000 A 
ATOM     10  C   UNL     1      -9.984  53.259  45.117  0.00  0.00    +0.000 A 
ATOM     11  C   UNL     1      -8.996  52.684  45.907  0.00  0.00    +0.000 A 
ENDROOT
BRANCH   1  17
ATOM     12  S   UNL     1     -13.571  59.291  49.462  0.00  0.00    +0.000 S 
ATOM     13  O   UNL     1     -14.704  59.385  48.566  0.00  0.00    +0.000 OA
ATOM     14  O   UNL     1     -12.775  60.462  49.768  0.00  0.00    +0.000 OA
ATOM     15  N   UNL     1     -12.577  58.154  48.875  0.00  0.00    +0.000 N 
ATOM     16  C   UNL     1     -14.210  58.725  50.997  0.00  0.00    +0.000 A 
ATOM     17  C   UNL     1     -12.446  57.004  49.468  0.00  0.00    +0.000 C 
ATOM     18  C   UNL     1     -13.897  57.435  51.395  0.00  0.00    +0.000 A 
ATOM     19  C   UNL     1     -14.999  59.571  51.777  0.00  0.00    +0.000 A 
ATOM     20  N   UNL     1     -13.120  56.597  50.598  0.00  0.00    +0.000 N 
ATOM     21  C   UNL     1     -14.457  56.957  52.584  0.00  0.00    +0.000 A 
ATOM     22  C   UNL     1     -15.518  59.097  52.980  0.00  0.00    +0.000 A 
ATOM     23  C   UNL     1     -15.256  57.784  53.376  0.00  0.00    +0.000 A 
ATOM     24  H   UNL     1     -12.063  58.337  48.055  0.00  0.00    +0.000 HD
ATOM     25  H   UNL     1     -13.048  55.652  50.861  0.00  0.00    +0.000 HD
ENDBRANCH   1  17
BRANCH   3  26
ATOM     26  O   UNL     1     -12.521  56.165  46.687  0.00  0.00    +0.000 OA
ATOM     27  H   UNL     1     -13.251  55.631  46.440  0.00  0.00    +0.000 HD
ENDBRANCH   3  26
BRANCH   5  28
ATOM     28  N   UNL     1      -8.572  53.806  49.975  0.00  0.00    +0.000 N 
ATOM     29  H   UNL     1      -8.680  52.900  50.348  0.00  0.00    +0.000 HD
BRANCH  28  30
ATOM     30  C   UNL     1      -7.364  54.624  50.194  0.00  0.00    +0.000 C 
BRANCH  30  31
ATOM     31  C   UNL     1      -7.111  54.890  51.654  0.00  0.00    +0.000 A 
ATOM     32  S   UNL     1      -6.760  53.586  52.723  0.00  0.00    +0.000 S 
ATOM     33  N   UNL     1      -7.236  56.073  52.227  0.00  0.00    +0.000 NA
ATOM     34  C   UNL     1      -6.794  54.674  54.043  0.00  0.00    +0.000 A 
ATOM     35  C   UNL     1      -7.057  55.948  53.591  0.00  0.00    +0.000 A 
ENDBRANCH  30  31
ENDBRANCH  28  30
ENDBRANCH   5  28
TORSDOF 5
ENDMDL
MODEL 2
REMARK VINA RESULT:      -8.3      3.268      4.896
REMARK  Name = 
REMARK  5 active torsions:
REMARK  status: ('A' for Active; 'I' for Inactive)
REMARK    1  A    between atoms: C_6  and  C_10
REMARK    2  A    between atoms: C_14  and  O_18
REMARK    3  A    between atoms: N_17  and  N_20
REMARK    4  A    between atoms: N_20  and  C_23
REMARK    5  A    between atoms: C_23  and  C_26
REMARK                            x       y       z     vdW  Elec       q    Type
REMARK                         _______ _______ _______ _____ _____    ______ ____
ROOT
ATOM      1  C   UNL     1     -10.107  54.546  52.149  0.00  0.00    +0.000 A 
ATOM      2  C   UNL     1      -8.741  55.108  51.929  0.00  0.00    +0.000 A 
ATOM      3  C   UNL     1     -10.279  53.458  52.917  0.00  0.00    +0.000 A 
ATOM      4  O   UNL     1      -8.645  56.109  51.213  0.00  0.00    +0.000 OA
ATOM      5  N   UNL     1      -7.664  54.501  52.583  0.00  0.00    +0.000 N 
ATOM      6  C   UNL     1      -9.130  52.815  53.573  0.00  0.00    +0.000 A 
ATOM      7  C   UNL     1      -7.837  53.339  53.392  0.00  0.00    +0.000 A 
ATOM      8  C   UNL     1      -9.315  51.696  54.403  0.00  0.00    +0.000 A 
ATOM      9  C   UNL     1      -6.753  52.712  54.028  0.00  0.00    +0.000 A 
ATOM     10  C   UNL     1      -8.234  51.101  55.051  0.00  0.00    +0.000 A 
ATOM     11  C   UNL     1      -6.953  51.605  54.858  0.00  0.00    +0.000 A 
ENDROOT
BRANCH   1  17
ATOM     12  S   UNL     1     -12.596  56.054  49.510  0.00  0.00    +0.000 S 
ATOM     13  O   UNL     1     -13.497  55.055  48.974  0.00  0.00    +0.000 OA
ATOM     14  O   UNL     1     -12.003  57.053  48.643  0.00  0.00    +0.000 OA
ATOM     15  N   UNL     1     -11.393  55.272  50.264  0.00  0.00    +0.000 N 
ATOM     16  C   UNL     1     -13.516  56.943  50.714  0.00  0.00    +0.000 A 
ATOM     17  C   UNL     1     -11.297  55.279  51.561  0.00  0.00    +0.000 C 
ATOM     18  C   UNL     1     -13.185  56.762  52.047  0.00  0.00    +0.000 A 
ATOM     19  C   UNL     1     -14.537  57.805  50.313  0.00  0.00    +0.000 A 
ATOM     20  N   UNL     1     -12.173  55.888  52.433  0.00  0.00    +0.000 N 
ATOM     21  C   UNL     1     -13.958  57.416  53.012  0.00  0.00    +0.000 A 
ATOM     22  C   UNL     1     -15.273  58.482  51.282  0.00  0.00    +0.000 A 
ATOM     23  C   UNL     1     -14.990  58.277  52.634  0.00  0.00    +0.000 A 
ATOM     24  H   UNL     1     -10.724  54.786  49.731  0.00  0.00    +0.000 HD
ATOM     25  H   UNL     1     -12.076  55.692  53.393  0.00  0.00    +0.000 HD
ENDBRANCH   1  17
BRANCH   3  26
ATOM     26  O   UNL     1     -11.506  52.882  53.191  0.00  0.00    +0.000 OA
ATOM     27  H   UNL     1     -11.991  53.148  53.947  0.00  0.00    +0.000 HD
ENDBRANCH   3  26
BRANCH   5  28
ATOM     28  N   UNL     1      -6.330  55.025  52.429  0.00  0.00    +0.000 N 
ATOM     29  H   UNL     1      -5.864  55.518  53.143  0.00  0.00    +0.000 HD
BRANCH  28  30
ATOM     30  C   UNL     1      -5.723  54.758  51.110  0.00  0.00    +0.000 C 
BRANCH  30  31
ATOM     31  C   UNL     1      -4.868  53.519  51.115  0.00  0.00    +0.000 A 
ATOM     32  S   UNL     1      -5.363  52.125  50.233  0.00  0.00    +0.000 S 
ATOM     33  N   UNL     1      -3.778  53.370  51.844  0.00  0.00    +0.000 NA
ATOM     34  C   UNL     1      -4.038  51.258  50.883  0.00  0.00    +0.000 A 
ATOM     35  C   UNL     1      -3.306  52.078  51.713  0.00  0.00    +0.000 A 
ENDBRANCH  30  31
ENDBRANCH  28  30
ENDBRANCH   5  28
TORSDOF 5
ENDMDL
MODEL 3
REMARK VINA RESULT:      -8.2      2.621      3.417
REMARK  Name = 
REMARK  5 active torsions:
REMARK  status: ('A' for Active; 'I' for Inactive)
REMARK    1  A    between atoms: C_6  and  C_10
REMARK    2  A    between atoms: C_14  and  O_18
REMARK    3  A    between atoms: N_17  and  N_20
REMARK    4  A    between atoms: N_20  and  C_23
REMARK    5  A    between atoms: C_23  and  C_26
REMARK                            x       y       z     vdW  Elec       q    Type
REMARK                         _______ _______ _______ _____ _____    ______ ____
ROOT
ATOM      1  C   UNL     1     -10.313  54.912  47.677  0.00  0.00    +0.000 A 
ATOM      2  C   UNL     1      -8.826  55.036  47.655  0.00  0.00    +0.000 A 
ATOM      3  C   UNL     1     -10.963  54.348  46.646  0.00  0.00    +0.000 A 
ATOM      4  O   UNL     1      -8.283  55.564  48.631  0.00  0.00    +0.000 OA
ATOM      5  N   UNL     1      -8.134  54.507  46.561  0.00  0.00    +0.000 N 
ATOM      6  C   UNL     1     -10.221  53.823  45.490  0.00  0.00    +0.000 A 
ATOM      7  C   UNL     1      -8.818  53.915  45.458  0.00  0.00    +0.000 A 
ATOM      8  C   UNL     1     -10.900  53.203  44.426  0.00  0.00    +0.000 A 
ATOM      9  C   UNL     1      -8.127  53.407  44.346  0.00  0.00    +0.000 A 
ATOM     10  C   UNL     1     -10.200  52.677  43.342  0.00  0.00    +0.000 A 
ATOM     11  C   UNL     1      -8.814  52.785  43.299  0.00  0.00    +0.000 A 
ENDROOT
BRANCH   1  17
ATOM     12  S   UNL     1     -11.690  54.950  51.356  0.00  0.00    +0.000 S 
ATOM     13  O   UNL     1     -10.707  55.433  52.304  0.00  0.00    +0.000 OA
ATOM     14  O   UNL     1     -12.532  53.816  51.682  0.00  0.00    +0.000 OA
ATOM     15  N   UNL     1     -10.911  54.610  49.976  0.00  0.00    +0.000 N 
ATOM     16  C   UNL     1     -12.781  56.293  51.058  0.00  0.00    +0.000 A 
ATOM     17  C   UNL     1     -11.061  55.354  48.920  0.00  0.00    +0.000 C 
ATOM     18  C   UNL     1     -12.732  56.905  49.816  0.00  0.00    +0.000 A 
ATOM     19  C   UNL     1     -13.666  56.706  52.054  0.00  0.00    +0.000 A 
ATOM     20  N   UNL     1     -11.833  56.491  48.836  0.00  0.00    +0.000 N 
ATOM     21  C   UNL     1     -13.552  58.018  49.597  0.00  0.00    +0.000 A 
ATOM     22  C   UNL     1     -14.507  57.789  51.809  0.00  0.00    +0.000 A 
ATOM     23  C   UNL     1     -14.439  58.453  50.583  0.00  0.00    +0.000 A 
ATOM     24  H   UNL     1     -10.316  53.827  49.937  0.00  0.00    +0.000 HD
ATOM     25  H   UNL     1     -11.744  57.049  48.030  0.00  0.00    +0.000 HD
ENDBRANCH   1  17
BRANCH   3  26
ATOM     26  O   UNL     1     -12.334  54.174  46.589  0.00  0.00    +0.000 OA
ATOM     27  H   UNL     1     -12.694  53.411  46.182  0.00  0.00    +0.000 HD
ENDBRANCH   3  26
BRANCH   5  28
ATOM     28  N   UNL     1      -6.695  54.573  46.508  0.00  0.00    +0.000 N 
ATOM     29  H   UNL     1      -6.209  55.349  46.146  0.00  0.00    +0.000 HD
BRANCH  28  30
ATOM     30  C   UNL     1      -6.014  53.379  47.043  0.00  0.00    +0.000 C 
BRANCH  30  31
ATOM     31  C   UNL     1      -5.671  53.522  48.502  0.00  0.00    +0.000 A 
ATOM     32  S   UNL     1      -6.442  52.522  49.674  0.00  0.00    +0.000 S 
ATOM     33  N   UNL     1      -4.872  54.452  48.991  0.00  0.00    +0.000 NA
ATOM     34  C   UNL     1      -5.666  53.403  50.919  0.00  0.00    +0.000 A 
ATOM     35  C   UNL     1      -4.871  54.384  50.371  0.00  0.00    +0.000 A 
ENDBRANCH  30  31
ENDBRANCH  28  30
ENDBRANCH   5  28
TORSDOF 5
ENDMDL
MODEL 4
REMARK VINA RESULT:      -8.2      2.478      3.241
REMARK  Name = 
REMARK  5 active torsions:
REMARK  status: ('A' for Active; 'I' for Inactive)
REMARK    1  A    between atoms: C_6  and  C_10
REMARK    2  A    between atoms: C_14  and  O_18
REMARK    3  A    between atoms: N_17  and  N_20
REMARK    4  A    between atoms: N_20  and  C_23
REMARK    5  A    between atoms: C_23  and  C_26
REMARK                            x       y       z     vdW  Elec       q    Type
REMARK                         _______ _______ _______ _____ _____    ______ ____
ROOT
ATOM      1  C   UNL     1     -11.183  54.550  50.759  0.00  0.00    +0.000 A 
ATOM      2  C   UNL     1      -9.785  54.930  50.400  0.00  0.00    +0.000 A 
ATOM      3  C   UNL     1     -11.458  53.312  51.202  0.00  0.00    +0.000 A 
ATOM      4  O   UNL     1      -9.593  56.082  49.999  0.00  0.00    +0.000 OA
ATOM      5  N   UNL     1      -8.774  53.982  50.584  0.00  0.00    +0.000 N 
ATOM      6  C   UNL     1     -10.386  52.318  51.362  0.00  0.00    +0.000 A 
ATOM      7  C   UNL     1      -9.060  52.663  51.044  0.00  0.00    +0.000 A 
ATOM      8  C   UNL     1     -10.670  51.033  51.856  0.00  0.00    +0.000 A 
ATOM      9  C   UNL     1      -8.049  51.701  51.205  0.00  0.00    +0.000 A 
ATOM     10  C   UNL     1      -9.653  50.098  52.038  0.00  0.00    +0.000 A 
ATOM     11  C   UNL     1      -8.344  50.429  51.706  0.00  0.00    +0.000 A 
ENDROOT
BRANCH   1  17
ATOM     12  S   UNL     1     -13.651  57.247  49.321  0.00  0.00    +0.000 S 
ATOM     13  O   UNL     1     -14.810  56.648  48.691  0.00  0.00    +0.000 OA
ATOM     14  O   UNL     1     -12.992  58.387  48.717  0.00  0.00    +0.000 OA
ATOM     15  N   UNL     1     -12.545  56.079  49.517  0.00  0.00    +0.000 N 
ATOM     16  C   UNL     1     -14.180  57.778  50.909  0.00  0.00    +0.000 A 
ATOM     17  C   UNL     1     -12.264  55.611  50.698  0.00  0.00    +0.000 C 
ATOM     18  C   UNL     1     -13.707  57.090  52.014  0.00  0.00    +0.000 A 
ATOM     19  C   UNL     1     -15.044  58.868  51.027  0.00  0.00    +0.000 A 
ATOM     20  N   UNL     1     -12.857  55.995  51.880  0.00  0.00    +0.000 N 
ATOM     21  C   UNL     1     -14.177  57.467  53.277  0.00  0.00    +0.000 A 
ATOM     22  C   UNL     1     -15.473  59.260  52.293  0.00  0.00    +0.000 A 
ATOM     23  C   UNL     1     -15.048  58.550  53.417  0.00  0.00    +0.000 A 
ATOM     24  H   UNL     1     -12.077  55.719  48.730  0.00  0.00    +0.000 HD
ATOM     25  H   UNL     1     -12.667  55.461  52.685  0.00  0.00    +0.000 HD
ENDBRANCH   1  17
BRANCH   3  26
ATOM     26  O   UNL     1     -12.718  52.879  51.575  0.00  0.00    +0.000 OA
ATOM     27  H   UNL     1     -13.293  53.454  52.041  0.00  0.00    +0.000 HD
ENDBRANCH   3  26
BRANCH   5  28
ATOM     28  N   UNL     1      -7.404  54.311  50.282  0.00  0.00    +0.000 N 
ATOM     29  H   UNL     1      -6.900  53.885  49.551  0.00  0.00    +0.000 HD
BRANCH  28  30
ATOM     30  C   UNL     1      -6.820  55.342  51.162  0.00  0.00    +0.000 C 
BRANCH  30  31
ATOM     31  C   UNL     1      -6.470  54.800  52.522  0.00  0.00    +0.000 A 
ATOM     32  S   UNL     1      -7.203  55.464  53.932  0.00  0.00    +0.000 S 
ATOM     33  N   UNL     1      -5.540  53.890  52.744  0.00  0.00    +0.000 NA
ATOM     34  C   UNL     1      -6.197  54.480  54.906  0.00  0.00    +0.000 A 
ATOM     35  C   UNL     1      -5.383  53.710  54.105  0.00  0.00    +0.000 A 
ENDBRANCH  30  31
ENDBRANCH  28  30
ENDBRANCH   5  28
TORSDOF 5
ENDMDL
MODEL 5
REMARK VINA RESULT:      -8.1      3.211      4.002
REMARK  Name = 
REMARK  5 active torsions:
REMARK  status: ('A' for Active; 'I' for Inactive)
REMARK    1  A    between atoms: C_6  and  C_10
REMARK    2  A    between atoms: C_14  and  O_18
REMARK    3  A    between atoms: N_17  and  N_20
REMARK    4  A    between atoms: N_20  and  C_23
REMARK    5  A    between atoms: C_23  and  C_26
REMARK                            x       y       z     vdW  Elec       q    Type
REMARK                         _______ _______ _______ _____ _____    ______ ____
ROOT
ATOM      1  C   UNL     1     -11.296  53.967  51.584  0.00  0.00    +0.000 A 
ATOM      2  C   UNL     1     -10.306  54.155  52.685  0.00  0.00    +0.000 A 
ATOM      3  C   UNL     1     -11.461  52.760  51.018  0.00  0.00    +0.000 A 
ATOM      4  O   UNL     1     -10.197  55.287  53.167  0.00  0.00    +0.000 OA
ATOM      5  N   UNL     1      -9.600  53.036  53.138  0.00  0.00    +0.000 N 
ATOM      6  C   UNL     1     -10.688  51.600  51.487  0.00  0.00    +0.000 A 
ATOM      7  C   UNL     1      -9.762  51.754  52.535  0.00  0.00    +0.000 A 
ATOM      8  C   UNL     1     -10.885  50.331  50.917  0.00  0.00    +0.000 A 
ATOM      9  C   UNL     1      -9.035  50.634  52.970  0.00  0.00    +0.000 A 
ATOM     10  C   UNL     1     -10.177  49.223  51.378  0.00  0.00    +0.000 A 
ATOM     11  C   UNL     1      -9.247  49.376  52.400  0.00  0.00    +0.000 A 
ENDROOT
BRANCH   1  17
ATOM     12  S   UNL     1     -12.931  56.790  49.395  0.00  0.00    +0.000 S 
ATOM     13  O   UNL     1     -13.972  56.277  48.529  0.00  0.00    +0.000 OA
ATOM     14  O   UNL     1     -11.989  57.779  48.909  0.00  0.00    +0.000 OA
ATOM     15  N   UNL     1     -12.082  55.522  49.941  0.00  0.00    +0.000 N 
ATOM     16  C   UNL     1     -13.752  57.532  50.758  0.00  0.00    +0.000 A 
ATOM     17  C   UNL     1     -12.168  55.140  51.182  0.00  0.00    +0.000 C 
ATOM     18  C   UNL     1     -13.666  56.903  51.989  0.00  0.00    +0.000 A 
ATOM     19  C   UNL     1     -14.455  58.724  50.582  0.00  0.00    +0.000 A 
ATOM     20  N   UNL     1     -12.972  55.705  52.146  0.00  0.00    +0.000 N 
ATOM     21  C   UNL     1     -14.373  57.454  53.063  0.00  0.00    +0.000 A 
ATOM     22  C   UNL     1     -15.122  59.286  51.669  0.00  0.00    +0.000 A 
ATOM     23  C   UNL     1     -15.090  58.642  52.907  0.00  0.00    +0.000 A 
ATOM     24  H   UNL     1     -11.492  55.033  49.324  0.00  0.00    +0.000 HD
ATOM     25  H   UNL     1     -13.062  55.232  53.005  0.00  0.00    +0.000 HD
ENDBRANCH   1  17
BRANCH   3  26
ATOM     26  O   UNL     1     -12.367  52.489  50.008  0.00  0.00    +0.000 OA
ATOM     27  H   UNL     1     -12.141  52.665  49.116  0.00  0.00    +0.000 HD
ENDBRANCH   3  26
BRANCH   5  28
ATOM     28  N   UNL     1      -8.655  53.160  54.220  0.00  0.00    +0.000 N 
ATOM     29  H   UNL     1      -8.815  52.779  55.114  0.00  0.00    +0.000 HD
BRANCH  28  30
ATOM     30  C   UNL     1      -7.430  53.905  53.873  0.00  0.00    +0.000 C 
BRANCH  30  31
ATOM     31  C   UNL     1      -6.326  52.999  53.399  0.00  0.00    +0.000 A 
ATOM     32  S   UNL     1      -5.876  52.980  51.736  0.00  0.00    +0.000 S 
ATOM     33  N   UNL     1      -5.713  52.111  54.160  0.00  0.00    +0.000 NA
ATOM     34  C   UNL     1      -4.802  51.686  52.053  0.00  0.00    +0.000 A 
ATOM     35  C   UNL     1      -4.845  51.361  53.391  0.00  0.00    +0.000 A 
ENDBRANCH  30  31
ENDBRANCH  28  30
ENDBRANCH   5  28
TORSDOF 5
ENDMDL
MODEL 6
REMARK VINA RESULT:      -8.1      3.039      7.245
REMARK  Name = 
REMARK  5 active torsions:
REMARK  status: ('A' for Active; 'I' for Inactive)
REMARK    1  A    between atoms: C_6  and  C_10
REMARK    2  A    between atoms: C_14  and  O_18
REMARK    3  A    between atoms: N_17  and  N_20
REMARK    4  A    between atoms: N_20  and  C_23
REMARK    5  A    between atoms: C_23  and  C_26
REMARK                            x       y       z     vdW  Elec       q    Type
REMARK                         _______ _______ _______ _____ _____    ______ ____
ROOT
ATOM      1  C   UNL     1     -10.271  55.242  50.722  0.00  0.00    +0.000 A 
ATOM      2  C   UNL     1      -9.905  55.116  49.280  0.00  0.00    +0.000 A 
ATOM      3  C   UNL     1     -11.455  55.768  51.079  0.00  0.00    +0.000 A 
ATOM      4  O   UNL     1      -8.803  54.626  49.012  0.00  0.00    +0.000 OA
ATOM      5  N   UNL     1     -10.844  55.512  48.323  0.00  0.00    +0.000 N 
ATOM      6  C   UNL     1     -12.418  56.206  50.058  0.00  0.00    +0.000 A 
ATOM      7  C   UNL     1     -12.098  56.080  48.694  0.00  0.00    +0.000 A 
ATOM      8  C   UNL     1     -13.670  56.725  50.432  0.00  0.00    +0.000 A 
ATOM      9  C   UNL     1     -13.032  56.502  47.734  0.00  0.00    +0.000 A 
ATOM     10  C   UNL     1     -14.598  57.114  49.468  0.00  0.00    +0.000 A 
ATOM     11  C   UNL     1     -14.277  57.009  48.120  0.00  0.00    +0.000 A 
ENDROOT
BRANCH   1  17
ATOM     12  S   UNL     1      -7.040  54.745  52.900  0.00  0.00    +0.000 S 
ATOM     13  O   UNL     1      -6.936  55.728  53.958  0.00  0.00    +0.000 OA
ATOM     14  O   UNL     1      -5.870  54.355  52.140  0.00  0.00    +0.000 OA
ATOM     15  N   UNL     1      -8.161  55.269  51.855  0.00  0.00    +0.000 N 
ATOM     16  C   UNL     1      -7.636  53.277  53.657  0.00  0.00    +0.000 A 
ATOM     17  C   UNL     1      -9.321  54.687  51.764  0.00  0.00    +0.000 C 
ATOM     18  C   UNL     1      -8.931  52.877  53.369  0.00  0.00    +0.000 A 
ATOM     19  C   UNL     1      -6.808  52.548  54.512  0.00  0.00    +0.000 A 
ATOM     20  N   UNL     1      -9.750  53.622  52.525  0.00  0.00    +0.000 N 
ATOM     21  C   UNL     1      -9.432  51.745  54.020  0.00  0.00    +0.000 A 
ATOM     22  C   UNL     1      -7.305  51.400  55.124  0.00  0.00    +0.000 A 
ATOM     23  C   UNL     1      -8.624  51.006  54.886  0.00  0.00    +0.000 A 
ATOM     24  H   UNL     1      -7.960  56.041  51.278  0.00  0.00    +0.000 HD
ATOM     25  H   UNL     1     -10.700  53.370  52.468  0.00  0.00    +0.000 HD
ENDBRANCH   1  17
BRANCH   3  26
ATOM     26  O   UNL     1     -11.884  55.905  52.387  0.00  0.00    +0.000 OA
ATOM     27  H   UNL     1     -11.859  56.744  52.803  0.00  0.00    +0.000 HD
ENDBRANCH   3  26
BRANCH   5  28
ATOM     28  N   UNL     1     -10.551  55.380  46.917  0.00  0.00    +0.000 N 
ATOM     29  H   UNL     1      -9.960  56.003  46.434  0.00  0.00    +0.000 HD
BRANCH  28  30
ATOM     30  C   UNL     1     -11.210  54.233  46.266  0.00  0.00    +0.000 C 
BRANCH  30  31
ATOM     31  C   UNL     1     -10.353  53.614  45.194  0.00  0.00    +0.000 A 
ATOM     32  S   UNL     1      -8.651  53.875  45.190  0.00  0.00    +0.000 S 
ATOM     33  N   UNL     1     -10.825  52.943  44.159  0.00  0.00    +0.000 NA
ATOM     34  C   UNL     1      -8.539  53.048  43.695  0.00  0.00    +0.000 A 
ATOM     35  C   UNL     1      -9.789  52.622  43.303  0.00  0.00    +0.000 A 
ENDBRANCH  30  31
ENDBRANCH  28  30
ENDBRANCH   5  28
TORSDOF 5
ENDMDL
MODEL 7
REMARK VINA RESULT:      -8.1      3.354      5.395
REMARK  Name = 
REMARK  5 active torsions:
REMARK  status: ('A' for Active; 'I' for Inactive)
REMARK    1  A    between atoms: C_6  and  C_10
REMARK    2  A    between atoms: C_14  and  O_18
REMARK    3  A    between atoms: N_17  and  N_20
REMARK    4  A    between atoms: N_20  and  C_23
REMARK    5  A    between atoms: C_23  and  C_26
REMARK                            x       y       z     vdW  Elec       q    Type
REMARK                         _______ _______ _______ _____ _____    ______ ____
ROOT
ATOM      1  C   UNL     1     -12.271  54.317  50.117  0.00  0.00    +0.000 A 
ATOM      2  C   UNL     1     -11.966  53.967  48.699  0.00  0.00    +0.000 A 
ATOM      3  C   UNL     1     -11.719  53.618  51.123  0.00  0.00    +0.000 A 
ATOM      4  O   UNL     1     -12.502  54.645  47.817  0.00  0.00    +0.000 OA
ATOM      5  N   UNL     1     -11.059  52.932  48.453  0.00  0.00    +0.000 N 
ATOM      6  C   UNL     1     -10.790  52.512  50.846  0.00  0.00    +0.000 A 
ATOM      7  C   UNL     1     -10.477  52.178  49.516  0.00  0.00    +0.000 A 
ATOM      8  C   UNL     1     -10.188  51.803  51.899  0.00  0.00    +0.000 A 
ATOM      9  C   UNL     1      -9.587  51.121  49.271  0.00  0.00    +0.000 A 
ATOM     10  C   UNL     1      -9.284  50.774  51.642  0.00  0.00    +0.000 A 
ATOM     11  C   UNL     1      -8.988  50.429  50.328  0.00  0.00    +0.000 A 
ENDROOT
BRANCH   1  17
ATOM     12  S   UNL     1     -15.327  56.495  51.280  0.00  0.00    +0.000 S 
ATOM     13  O   UNL     1     -15.344  56.692  52.714  0.00  0.00    +0.000 OA
ATOM     14  O   UNL     1     -16.554  56.221  50.559  0.00  0.00    +0.000 OA
ATOM     15  N   UNL     1     -14.287  55.292  50.965  0.00  0.00    +0.000 N 
ATOM     16  C   UNL     1     -14.682  57.976  50.592  0.00  0.00    +0.000 A 
ATOM     17  C   UNL     1     -13.141  55.527  50.397  0.00  0.00    +0.000 C 
ATOM     18  C   UNL     1     -13.415  57.934  50.033  0.00  0.00    +0.000 A 
ATOM     19  C   UNL     1     -15.445  59.144  50.613  0.00  0.00    +0.000 A 
ATOM     20  N   UNL     1     -12.659  56.765  50.032  0.00  0.00    +0.000 N 
ATOM     21  C   UNL     1     -12.870  59.126  49.544  0.00  0.00    +0.000 A 
ATOM     22  C   UNL     1     -14.908  60.316  50.086  0.00  0.00    +0.000 A 
ATOM     23  C   UNL     1     -13.614  60.308  49.563  0.00  0.00    +0.000 A 
ATOM     24  H   UNL     1     -14.528  54.369  51.208  0.00  0.00    +0.000 HD
ATOM     25  H   UNL     1     -11.717  56.827  49.752  0.00  0.00    +0.000 HD
ENDBRANCH   1  17
BRANCH   3  26
ATOM     26  O   UNL     1     -11.929  53.884  52.465  0.00  0.00    +0.000 OA
ATOM     27  H   UNL     1     -11.569  54.657  52.851  0.00  0.00    +0.000 HD
ENDBRANCH   3  26
BRANCH   5  28
ATOM     28  N   UNL     1     -10.707  52.577  47.101  0.00  0.00    +0.000 N 
ATOM     29  H   UNL     1     -11.106  51.810  46.629  0.00  0.00    +0.000 HD
BRANCH  28  30
ATOM     30  C   UNL     1      -9.700  53.461  46.485  0.00  0.00    +0.000 C 
BRANCH  30  31
ATOM     31  C   UNL     1      -9.544  53.209  45.009  0.00  0.00    +0.000 A 
ATOM     32  S   UNL     1     -10.762  52.350  44.146  0.00  0.00    +0.000 S 
ATOM     33  N   UNL     1      -8.466  53.517  44.312  0.00  0.00    +0.000 NA
ATOM     34  C   UNL     1      -9.773  52.377  42.748  0.00  0.00    +0.000 A 
ATOM     35  C   UNL     1      -8.597  53.040  43.022  0.00  0.00    +0.000 A 
ENDBRANCH  30  31
ENDBRANCH  28  30
ENDBRANCH   5  28
TORSDOF 5
ENDMDL
MODEL 8
REMARK VINA RESULT:      -8.0      2.154      7.164
REMARK  Name = 
REMARK  5 active torsions:
REMARK  status: ('A' for Active; 'I' for Inactive)
REMARK    1  A    between atoms: C_6  and  C_10
REMARK    2  A    between atoms: C_14  and  O_18
REMARK    3  A    between atoms: N_17  and  N_20
REMARK    4  A    between atoms: N_20  and  C_23
REMARK    5  A    between atoms: C_23  and  C_26
REMARK                            x       y       z     vdW  Elec       q    Type
REMARK                         _______ _______ _______ _____ _____    ______ ____
ROOT
ATOM      1  C   UNL     1      -9.121  54.363  49.954  0.00  0.00    +0.000 A 
ATOM      2  C   UNL     1     -10.202  55.383  50.095  0.00  0.00    +0.000 A 
ATOM      3  C   UNL     1      -8.990  53.666  48.813  0.00  0.00    +0.000 A 
ATOM      4  O   UNL     1     -10.273  55.992  51.167  0.00  0.00    +0.000 OA
ATOM      5  N   UNL     1     -11.033  55.622  48.997  0.00  0.00    +0.000 N 
ATOM      6  C   UNL     1      -9.892  53.910  47.678  0.00  0.00    +0.000 A 
ATOM      7  C   UNL     1     -10.906  54.878  47.786  0.00  0.00    +0.000 A 
ATOM      8  C   UNL     1      -9.733  53.203  46.474  0.00  0.00    +0.000 A 
ATOM      9  C   UNL     1     -11.757  55.098  46.691  0.00  0.00    +0.000 A 
ATOM     10  C   UNL     1     -10.566  53.452  45.385  0.00  0.00    +0.000 A 
ATOM     11  C   UNL     1     -11.582  54.394  45.495  0.00  0.00    +0.000 A 
ENDROOT
BRANCH   1  17
ATOM     12  S   UNL     1      -7.653  54.098  53.588  0.00  0.00    +0.000 S 
ATOM     13  O   UNL     1      -7.886  52.797  54.179  0.00  0.00    +0.000 OA
ATOM     14  O   UNL     1      -7.810  55.304  54.377  0.00  0.00    +0.000 OA
ATOM     15  N   UNL     1      -8.616  54.224  52.291  0.00  0.00    +0.000 N 
ATOM     16  C   UNL     1      -5.985  54.093  53.039  0.00  0.00    +0.000 A 
ATOM     17  C   UNL     1      -8.126  54.196  51.086  0.00  0.00    +0.000 C 
ATOM     18  C   UNL     1      -5.751  54.071  51.674  0.00  0.00    +0.000 A 
ATOM     19  C   UNL     1      -4.946  54.120  53.970  0.00  0.00    +0.000 A 
ATOM     20  N   UNL     1      -6.799  54.030  50.758  0.00  0.00    +0.000 N 
ATOM     21  C   UNL     1      -4.425  54.000  51.233  0.00  0.00    +0.000 A 
ATOM     22  C   UNL     1      -3.629  54.090  53.518  0.00  0.00    +0.000 A 
ATOM     23  C   UNL     1      -3.370  54.017  52.148  0.00  0.00    +0.000 A 
ATOM     24  H   UNL     1      -9.587  54.324  52.417  0.00  0.00    +0.000 HD
ATOM     25  H   UNL     1      -6.575  53.874  49.812  0.00  0.00    +0.000 HD
ENDBRANCH   1  17
BRANCH   3  26
ATOM     26  O   UNL     1      -8.008  52.717  48.587  0.00  0.00    +0.000 OA
ATOM     27  H   UNL     1      -7.581  52.674  47.754  0.00  0.00    +0.000 HD
ENDBRANCH   3  26
BRANCH   5  28
ATOM     28  N   UNL     1     -12.071  56.619  49.072  0.00  0.00    +0.000 N 
ATOM     29  H   UNL     1     -11.949  57.543  48.752  0.00  0.00    +0.000 HD
BRANCH  28  30
ATOM     30  C   UNL     1     -13.331  56.137  49.670  0.00  0.00    +0.000 C 
BRANCH  30  31
ATOM     31  C   UNL     1     -13.765  56.976  50.841  0.00  0.00    +0.000 A 
ATOM     32  S   UNL     1     -14.334  58.583  50.592  0.00  0.00    +0.000 S 
ATOM     33  N   UNL     1     -13.651  56.606  52.104  0.00  0.00    +0.000 NA
ATOM     34  C   UNL     1     -14.417  58.804  52.287  0.00  0.00    +0.000 A 
ATOM     35  C   UNL     1     -14.021  57.651  52.928  0.00  0.00    +0.000 A 
ENDBRANCH  30  31
ENDBRANCH  28  30
ENDBRANCH   5  28
TORSDOF 5
ENDMDL
MODEL 9
REMARK VINA RESULT:      -8.0      3.062      4.320
REMARK  Name = 
REMARK  5 active torsions:
REMARK  status: ('A' for Active; 'I' for Inactive)
REMARK    1  A    between atoms: C_6  and  C_10
REMARK    2  A    between atoms: C_14  and  O_18
REMARK    3  A    between atoms: N_17  and  N_20
REMARK    4  A    between atoms: N_20  and  C_23
REMARK    5  A    between atoms: C_23  and  C_26
REMARK                            x       y       z     vdW  Elec       q    Type
REMARK                         _______ _______ _______ _____ _____    ______ ____
ROOT
ATOM      1  C   UNL     1     -12.425  54.294  49.762  0.00  0.00    +0.000 A 
ATOM      2  C   UNL     1     -11.977  54.160  48.345  0.00  0.00    +0.000 A 
ATOM      3  C   UNL     1     -12.036  53.399  50.686  0.00  0.00    +0.000 A 
ATOM      4  O   UNL     1     -12.366  55.013  47.541  0.00  0.00    +0.000 OA
ATOM      5  N   UNL     1     -11.108  53.113  48.023  0.00  0.00    +0.000 N 
ATOM      6  C   UNL     1     -11.146  52.286  50.322  0.00  0.00    +0.000 A 
ATOM      7  C   UNL     1     -10.699  52.153  48.995  0.00  0.00    +0.000 A 
ATOM      8  C   UNL     1     -10.713  51.370  51.295  0.00  0.00    +0.000 A 
ATOM      9  C   UNL     1      -9.848  51.085  48.668  0.00  0.00    +0.000 A 
ATOM     10  C   UNL     1      -9.846  50.331  50.963  0.00  0.00    +0.000 A 
ATOM     11  C   UNL     1      -9.418  50.185  49.648  0.00  0.00    +0.000 A 
ENDROOT
BRANCH   1  17
ATOM     12  S   UNL     1     -15.360  56.466  51.212  0.00  0.00    +0.000 S 
ATOM     13  O   UNL     1     -15.286  56.594  52.653  0.00  0.00    +0.000 OA
ATOM     14  O   UNL     1     -16.633  56.251  50.556  0.00  0.00    +0.000 OA
ATOM     15  N   UNL     1     -14.366  55.263  50.778  0.00  0.00    +0.000 N 
ATOM     16  C   UNL     1     -14.726  57.968  50.558  0.00  0.00    +0.000 A 
ATOM     17  C   UNL     1     -13.251  55.504  50.152  0.00  0.00    +0.000 C 
ATOM     18  C   UNL     1     -13.497  57.931  49.921  0.00  0.00    +0.000 A 
ATOM     19  C   UNL     1     -15.463  59.147  50.681  0.00  0.00    +0.000 A 
ATOM     20  N   UNL     1     -12.767  56.749  49.818  0.00  0.00    +0.000 N 
ATOM     21  C   UNL     1     -12.958  59.135  49.457  0.00  0.00    +0.000 A 
ATOM     22  C   UNL     1     -14.933  60.333  50.179  0.00  0.00    +0.000 A 
ATOM     23  C   UNL     1     -13.674  60.328  49.578  0.00  0.00    +0.000 A 
ATOM     24  H   UNL     1     -14.610  54.333  50.990  0.00  0.00    +0.000 HD
ATOM     25  H   UNL     1     -11.843  56.809  49.484  0.00  0.00    +0.000 HD
ENDBRANCH   1  17
BRANCH   3  26
ATOM     26  O   UNL     1     -12.387  53.455  52.023  0.00  0.00    +0.000 OA
ATOM     27  H   UNL     1     -13.090  52.927  52.346  0.00  0.00    +0.000 HD
ENDBRANCH   3  26
BRANCH   5  28
ATOM     28  N   UNL     1     -10.621  52.959  46.675  0.00  0.00    +0.000 N 
ATOM     29  H   UNL     1     -10.856  52.190  46.106  0.00  0.00    +0.000 HD
BRANCH  28  30
ATOM     30  C   UNL     1      -9.740  54.053  46.220  0.00  0.00    +0.000 C 
BRANCH  30  31
ATOM     31  C   UNL     1      -8.366  53.969  46.828  0.00  0.00    +0.000 A 
ATOM     32  S   UNL     1      -7.949  54.970  48.166  0.00  0.00    +0.000 S 
ATOM     33  N   UNL     1      -7.381  53.236  46.342  0.00  0.00    +0.000 NA
ATOM     34  C   UNL     1      -6.339  54.397  48.079  0.00  0.00    +0.000 A 
ATOM     35  C   UNL     1      -6.224  53.483  47.055  0.00  0.00    +0.000 A 
ENDBRANCH  30  31
ENDBRANCH  28  30
ENDBRANCH   5  28
TORSDOF 5
ENDMDL
