MODEL 1
REMARK VINA RESULT:      -8.8      0.000      0.000
REMARK  Name = 
REMARK  5 active torsions:
REMARK  status: ('A' for Active; 'I' for Inactive)
REMARK    1  A    between atoms: C_6  and  C_10
REMARK    2  A    between atoms: C_14  and  O_18
REMARK    3  A    between atoms: N_17  and  N_20
REMARK    4  A    between atoms: N_20  and  C_23
REMARK    5  A    between atoms: C_23  and  C_26
REMARK                            x       y       z     vdW  Elec       q    Type
REMARK                         _______ _______ _______ _____ _____    ______ ____
ROOT
ATOM      1  C   UNL     1      -9.108  54.358  49.897  0.00  0.00    +0.000 A 
ATOM      2  C   UNL     1     -10.155  55.419  49.981  0.00  0.00    +0.000 A 
ATOM      3  C   UNL     1      -9.002  53.594  48.796  0.00  0.00    +0.000 A 
ATOM      4  O   UNL     1     -10.217  56.074  51.027  0.00  0.00    +0.000 OA
ATOM      5  N   UNL     1     -10.981  55.623  48.873  0.00  0.00    +0.000 N 
ATOM      6  C   UNL     1      -9.882  53.821  47.639  0.00  0.00    +0.000 A 
ATOM      7  C   UNL     1     -10.862  54.828  47.693  0.00  0.00    +0.000 A 
ATOM      8  C   UNL     1      -9.749  53.047  46.474  0.00  0.00    +0.000 A 
ATOM      9  C   UNL     1     -11.693  55.031  46.578  0.00  0.00    +0.000 A 
ATOM     10  C   UNL     1     -10.570  53.268  45.370  0.00  0.00    +0.000 A 
ATOM     11  C   UNL     1     -11.543  54.259  45.423  0.00  0.00    +0.000 A 
ENDROOT
BRANCH   1  17
ATOM     12  S   UNL     1      -7.727  54.093  53.565  0.00  0.00    +0.000 S 
ATOM     13  O   UNL     1      -7.954  52.782  54.142  0.00  0.00    +0.000 OA
ATOM     14  O   UNL     1      -7.924  55.289  54.359  0.00  0.00    +0.000 OA
ATOM     15  N   UNL     1      -8.659  54.214  52.245  0.00  0.00    +0.000 N 
ATOM     16  C   UNL     1      -6.046  54.119  53.060  0.00  0.00    +0.000 A 
ATOM     17  C   UNL     1      -8.140  54.199  51.053  0.00  0.00    +0.000 C 
ATOM     18  C   UNL     1      -5.777  54.112  51.702  0.00  0.00    +0.000 A 
ATOM     19  C   UNL     1      -5.030  54.160  54.018  0.00  0.00    +0.000 A 
ATOM     20  N   UNL     1      -6.800  54.056  50.759  0.00  0.00    +0.000 N 
ATOM     21  C   UNL     1      -4.439  54.072  51.294  0.00  0.00    +0.000 A 
ATOM     22  C   UNL     1      -3.702  54.157  53.598  0.00  0.00    +0.000 A 
ATOM     23  C   UNL     1      -3.407  54.104  52.237  0.00  0.00    +0.000 A 
ATOM     24  H   UNL     1      -9.634  54.300  52.348  0.00  0.00    +0.000 HD
ATOM     25  H   UNL     1      -6.551  53.904  49.819  0.00  0.00    +0.000 HD
ENDBRANCH   1  17
BRANCH   3  26
ATOM     26  O   UNL     1      -8.073  52.583  48.634  0.00  0.00    +0.000 OA
ATOM     27  H   UNL     1      -7.801  52.329  47.774  0.00  0.00    +0.000 HD
ENDBRANCH   3  26
BRANCH   5  28
ATOM     28  N   UNL     1     -12.074  56.557  48.936  0.00  0.00    +0.000 N 
ATOM     29  H   UNL     1     -12.023  57.454  48.535  0.00  0.00    +0.000 HD
BRANCH  28  30
ATOM     30  C   UNL     1     -13.272  56.078  49.642  0.00  0.00    +0.000 C 
BRANCH  30  31
ATOM     31  C   UNL     1     -13.727  57.063  50.683  0.00  0.00    +0.000 A 
ATOM     32  C   UNL     1     -14.262  58.296  50.317  0.00  0.00    +0.000 A 
ATOM     33  C   UNL     1     -13.655  56.775  52.050  0.00  0.00    +0.000 A 
ATOM     34  N   UNL     1     -14.694  59.231  51.194  0.00  0.00    +0.000 NA
ATOM     35  C   UNL     1     -14.091  57.722  52.975  0.00  0.00    +0.000 A 
ATOM     36  C   UNL     1     -14.594  58.922  52.504  0.00  0.00    +0.000 A 
ENDBRANCH  30  31
ENDBRANCH  28  30
ENDBRANCH   5  28
TORSDOF 5
ENDMDL
MODEL 2
REMARK VINA RESULT:      -8.8      2.565      7.359
REMARK  Name = 
REMARK  5 active torsions:
REMARK  status: ('A' for Active; 'I' for Inactive)
REMARK    1  A    between atoms: C_6  and  C_10
REMARK    2  A    between atoms: C_14  and  O_18
REMARK    3  A    between atoms: N_17  and  N_20
REMARK    4  A    between atoms: N_20  and  C_23
REMARK    5  A    between atoms: C_23  and  C_26
REMARK                            x       y       z     vdW  Elec       q    Type
REMARK                         _______ _______ _______ _____ _____    ______ ____
ROOT
ATOM      1  C   UNL     1     -11.355  55.966  48.886  0.00  0.00    +0.000 A 
ATOM      2  C   UNL     1     -10.289  55.406  49.770  0.00  0.00    +0.000 A 
ATOM      3  C   UNL     1     -11.439  55.587  47.600  0.00  0.00    +0.000 A 
ATOM      4  O   UNL     1     -10.248  55.810  50.938  0.00  0.00    +0.000 OA
ATOM      5  N   UNL     1      -9.421  54.451  49.235  0.00  0.00    +0.000 N 
ATOM      6  C   UNL     1     -10.515  54.582  47.053  0.00  0.00    +0.000 A 
ATOM      7  C   UNL     1      -9.517  54.030  47.874  0.00  0.00    +0.000 A 
ATOM      8  C   UNL     1     -10.625  54.158  45.718  0.00  0.00    +0.000 A 
ATOM      9  C   UNL     1      -8.644  53.070  47.335  0.00  0.00    +0.000 A 
ATOM     10  C   UNL     1      -9.762  53.194  45.199  0.00  0.00    +0.000 A 
ATOM     11  C   UNL     1      -8.770  52.652  46.008  0.00  0.00    +0.000 A 
ENDROOT
BRANCH   1  17
ATOM     12  S   UNL     1     -13.526  59.192  49.444  0.00  0.00    +0.000 S 
ATOM     13  O   UNL     1     -14.654  59.257  48.534  0.00  0.00    +0.000 OA
ATOM     14  O   UNL     1     -12.754  60.381  49.742  0.00  0.00    +0.000 OA
ATOM     15  N   UNL     1     -12.508  58.066  48.880  0.00  0.00    +0.000 N 
ATOM     16  C   UNL     1     -14.170  58.637  50.980  0.00  0.00    +0.000 A 
ATOM     17  C   UNL     1     -12.365  56.925  49.486  0.00  0.00    +0.000 C 
ATOM     18  C   UNL     1     -13.839  57.358  51.397  0.00  0.00    +0.000 A 
ATOM     19  C   UNL     1     -14.978  59.481  51.745  0.00  0.00    +0.000 A 
ATOM     20  N   UNL     1     -13.046  56.522  50.616  0.00  0.00    +0.000 N 
ATOM     21  C   UNL     1     -14.398  56.888  52.591  0.00  0.00    +0.000 A 
ATOM     22  C   UNL     1     -15.497  59.014  52.950  0.00  0.00    +0.000 A 
ATOM     23  C   UNL     1     -15.215  57.715  53.368  0.00  0.00    +0.000 A 
ATOM     24  H   UNL     1     -11.988  58.249  48.064  0.00  0.00    +0.000 HD
ATOM     25  H   UNL     1     -12.966  55.580  50.888  0.00  0.00    +0.000 HD
ENDBRANCH   1  17
BRANCH   3  26
ATOM     26  O   UNL     1     -12.384  56.060  46.707  0.00  0.00    +0.000 OA
ATOM     27  H   UNL     1     -13.066  55.493  46.403  0.00  0.00    +0.000 HD
ENDBRANCH   3  26
BRANCH   5  28
ATOM     28  N   UNL     1      -8.311  53.957  50.006  0.00  0.00    +0.000 N 
ATOM     29  H   UNL     1      -8.346  53.100  50.489  0.00  0.00    +0.000 HD
BRANCH  28  30
ATOM     30  C   UNL     1      -7.122  54.821  50.024  0.00  0.00    +0.000 C 
BRANCH  30  31
ATOM     31  C   UNL     1      -6.510  54.888  51.397  0.00  0.00    +0.000 A 
ATOM     32  C   UNL     1      -7.138  55.583  52.427  0.00  0.00    +0.000 A 
ATOM     33  C   UNL     1      -5.308  54.240  51.700  0.00  0.00    +0.000 A 
ATOM     34  N   UNL     1      -6.653  55.686  53.686  0.00  0.00    +0.000 NA
ATOM     35  C   UNL     1      -4.784  54.331  52.988  0.00  0.00    +0.000 A 
ATOM     36  C   UNL     1      -5.483  55.060  53.934  0.00  0.00    +0.000 A 
ENDBRANCH  30  31
ENDBRANCH  28  30
ENDBRANCH   5  28
TORSDOF 5
ENDMDL
MODEL 3
REMARK VINA RESULT:      -8.7      3.013      7.641
REMARK  Name = 
REMARK  5 active torsions:
REMARK  status: ('A' for Active; 'I' for Inactive)
REMARK    1  A    between atoms: C_6  and  C_10
REMARK    2  A    between atoms: C_14  and  O_18
REMARK    3  A    between atoms: N_17  and  N_20
REMARK    4  A    between atoms: N_20  and  C_23
REMARK    5  A    between atoms: C_23  and  C_26
REMARK                            x       y       z     vdW  Elec       q    Type
REMARK                         _______ _______ _______ _____ _____    ______ ____
ROOT
ATOM      1  C   UNL     1     -11.160  54.578  50.774  0.00  0.00    +0.000 A 
ATOM      2  C   UNL     1      -9.773  54.944  50.360  0.00  0.00    +0.000 A 
ATOM      3  C   UNL     1     -11.428  53.344  51.235  0.00  0.00    +0.000 A 
ATOM      4  O   UNL     1      -9.592  56.087  49.924  0.00  0.00    +0.000 OA
ATOM      5  N   UNL     1      -8.764  53.989  50.508  0.00  0.00    +0.000 N 
ATOM      6  C   UNL     1     -10.355  52.350  51.382  0.00  0.00    +0.000 A 
ATOM      7  C   UNL     1      -9.039  52.682  51.015  0.00  0.00    +0.000 A 
ATOM      8  C   UNL     1     -10.627  51.071  51.897  0.00  0.00    +0.000 A 
ATOM      9  C   UNL     1      -8.026  51.720  51.163  0.00  0.00    +0.000 A 
ATOM     10  C   UNL     1      -9.610  50.130  52.053  0.00  0.00    +0.000 A 
ATOM     11  C   UNL     1      -8.310  50.454  51.684  0.00  0.00    +0.000 A 
ENDROOT
BRANCH   1  17
ATOM     12  S   UNL     1     -13.602  57.303  49.347  0.00  0.00    +0.000 S 
ATOM     13  O   UNL     1     -14.751  56.717  48.684  0.00  0.00    +0.000 OA
ATOM     14  O   UNL     1     -12.934  58.456  48.777  0.00  0.00    +0.000 OA
ATOM     15  N   UNL     1     -12.499  56.134  49.539  0.00  0.00    +0.000 N 
ATOM     16  C   UNL     1     -14.160  57.805  50.934  0.00  0.00    +0.000 A 
ATOM     17  C   UNL     1     -12.240  55.641  50.714  0.00  0.00    +0.000 C 
ATOM     18  C   UNL     1     -13.705  57.097  52.034  0.00  0.00    +0.000 A 
ATOM     19  C   UNL     1     -15.024  58.896  51.059  0.00  0.00    +0.000 A 
ATOM     20  N   UNL     1     -12.856  56.002  51.894  0.00  0.00    +0.000 N 
ATOM     21  C   UNL     1     -14.193  57.454  53.296  0.00  0.00    +0.000 A 
ATOM     22  C   UNL     1     -15.472  59.264  52.325  0.00  0.00    +0.000 A 
ATOM     23  C   UNL     1     -15.065  58.537  53.442  0.00  0.00    +0.000 A 
ATOM     24  H   UNL     1     -12.015  55.791  48.753  0.00  0.00    +0.000 HD
ATOM     25  H   UNL     1     -12.685  55.449  52.689  0.00  0.00    +0.000 HD
ENDBRANCH   1  17
BRANCH   3  26
ATOM     26  O   UNL     1     -12.682  52.914  51.630  0.00  0.00    +0.000 OA
ATOM     27  H   UNL     1     -13.395  52.929  51.022  0.00  0.00    +0.000 HD
ENDBRANCH   3  26
BRANCH   5  28
ATOM     28  N   UNL     1      -7.433  54.248  50.028  0.00  0.00    +0.000 N 
ATOM     29  H   UNL     1      -7.038  53.750  49.277  0.00  0.00    +0.000 HD
BRANCH  28  30
ATOM     30  C   UNL     1      -6.703  55.309  50.738  0.00  0.00    +0.000 C 
BRANCH  30  31
ATOM     31  C   UNL     1      -6.479  54.952  52.182  0.00  0.00    +0.000 A 
ATOM     32  C   UNL     1      -7.260  55.515  53.188  0.00  0.00    +0.000 A 
ATOM     33  C   UNL     1      -5.502  54.029  52.569  0.00  0.00    +0.000 A 
ATOM     34  N   UNL     1      -7.121  55.242  54.505  0.00  0.00    +0.000 NA
ATOM     35  C   UNL     1      -5.336  53.731  53.920  0.00  0.00    +0.000 A 
ATOM     36  C   UNL     1      -6.157  54.359  54.840  0.00  0.00    +0.000 A 
ENDBRANCH  30  31
ENDBRANCH  28  30
ENDBRANCH   5  28
TORSDOF 5
ENDMDL
MODEL 4
REMARK VINA RESULT:      -8.7      3.257      8.585
REMARK  Name = 
REMARK  5 active torsions:
REMARK  status: ('A' for Active; 'I' for Inactive)
REMARK    1  A    between atoms: C_6  and  C_10
REMARK    2  A    between atoms: C_14  and  O_18
REMARK    3  A    between atoms: N_17  and  N_20
REMARK    4  A    between atoms: N_20  and  C_23
REMARK    5  A    between atoms: C_23  and  C_26
REMARK                            x       y       z     vdW  Elec       q    Type
REMARK                         _______ _______ _______ _____ _____    ______ ____
ROOT
ATOM      1  C   UNL     1     -10.127  54.550  52.225  0.00  0.00    +0.000 A 
ATOM      2  C   UNL     1      -8.755  55.108  52.040  0.00  0.00    +0.000 A 
ATOM      3  C   UNL     1     -10.317  53.446  52.968  0.00  0.00    +0.000 A 
ATOM      4  O   UNL     1      -8.640  56.112  51.328  0.00  0.00    +0.000 OA
ATOM      5  N   UNL     1      -7.691  54.481  52.694  0.00  0.00    +0.000 N 
ATOM      6  C   UNL     1      -9.186  52.797  53.648  0.00  0.00    +0.000 A 
ATOM      7  C   UNL     1      -7.889  53.318  53.500  0.00  0.00    +0.000 A 
ATOM      8  C   UNL     1      -9.388  51.663  54.453  0.00  0.00    +0.000 A 
ATOM      9  C   UNL     1      -6.821  52.686  54.158  0.00  0.00    +0.000 A 
ATOM     10  C   UNL     1      -8.322  51.054  55.112  0.00  0.00    +0.000 A 
ATOM     11  C   UNL     1      -7.038  51.564  54.963  0.00  0.00    +0.000 A 
ENDROOT
BRANCH   1  17
ATOM     12  S   UNL     1     -12.534  56.072  49.520  0.00  0.00    +0.000 S 
ATOM     13  O   UNL     1     -13.416  55.074  48.948  0.00  0.00    +0.000 OA
ATOM     14  O   UNL     1     -11.917  57.077  48.677  0.00  0.00    +0.000 OA
ATOM     15  N   UNL     1     -11.354  55.289  50.305  0.00  0.00    +0.000 N 
ATOM     16  C   UNL     1     -13.493  56.953  50.697  0.00  0.00    +0.000 A 
ATOM     17  C   UNL     1     -11.299  55.285  51.604  0.00  0.00    +0.000 C 
ATOM     18  C   UNL     1     -13.204  56.766  52.039  0.00  0.00    +0.000 A 
ATOM     19  C   UNL     1     -14.502  57.819  50.270  0.00  0.00    +0.000 A 
ATOM     20  N   UNL     1     -12.206  55.887  52.451  0.00  0.00    +0.000 N 
ATOM     21  C   UNL     1     -14.004  57.418  52.983  0.00  0.00    +0.000 A 
ATOM     22  C   UNL     1     -15.266  58.492  51.219  0.00  0.00    +0.000 A 
ATOM     23  C   UNL     1     -15.024  58.284  52.576  0.00  0.00    +0.000 A 
ATOM     24  H   UNL     1     -10.666  54.809  49.790  0.00  0.00    +0.000 HD
ATOM     25  H   UNL     1     -12.143  55.681  53.411  0.00  0.00    +0.000 HD
ENDBRANCH   1  17
BRANCH   3  26
ATOM     26  O   UNL     1     -11.548  52.854  53.185  0.00  0.00    +0.000 OA
ATOM     27  H   UNL     1     -12.152  53.237  53.790  0.00  0.00    +0.000 HD
ENDBRANCH   3  26
BRANCH   5  28
ATOM     28  N   UNL     1      -6.337  54.909  52.468  0.00  0.00    +0.000 N 
ATOM     29  H   UNL     1      -5.782  55.300  53.181  0.00  0.00    +0.000 HD
BRANCH  28  30
ATOM     30  C   UNL     1      -5.838  54.723  51.097  0.00  0.00    +0.000 C 
BRANCH  30  31
ATOM     31  C   UNL     1      -4.976  53.495  50.987  0.00  0.00    +0.000 A 
ATOM     32  C   UNL     1      -5.029  52.683  49.858  0.00  0.00    +0.000 A 
ATOM     33  C   UNL     1      -4.077  53.134  51.996  0.00  0.00    +0.000 A 
ATOM     34  N   UNL     1      -4.286  51.566  49.685  0.00  0.00    +0.000 NA
ATOM     35  C   UNL     1      -3.300  51.987  51.845  0.00  0.00    +0.000 A 
ATOM     36  C   UNL     1      -3.441  51.243  50.686  0.00  0.00    +0.000 A 
ENDBRANCH  30  31
ENDBRANCH  28  30
ENDBRANCH   5  28
TORSDOF 5
ENDMDL
MODEL 5
REMARK VINA RESULT:      -8.6      2.329      5.650
REMARK  Name = 
REMARK  5 active torsions:
REMARK  status: ('A' for Active; 'I' for Inactive)
REMARK    1  A    between atoms: C_6  and  C_10
REMARK    2  A    between atoms: C_14  and  O_18
REMARK    3  A    between atoms: N_17  and  N_20
REMARK    4  A    between atoms: N_20  and  C_23
REMARK    5  A    between atoms: C_23  and  C_26
REMARK                            x       y       z     vdW  Elec       q    Type
REMARK                         _______ _______ _______ _____ _____    ______ ____
ROOT
ATOM      1  C   UNL     1     -10.360  55.188  50.857  0.00  0.00    +0.000 A 
ATOM      2  C   UNL     1     -10.006  55.104  49.409  0.00  0.00    +0.000 A 
ATOM      3  C   UNL     1     -11.543  55.699  51.238  0.00  0.00    +0.000 A 
ATOM      4  O   UNL     1      -8.895  54.645  49.120  0.00  0.00    +0.000 OA
ATOM      5  N   UNL     1     -10.952  55.527  48.471  0.00  0.00    +0.000 N 
ATOM      6  C   UNL     1     -12.526  56.141  50.238  0.00  0.00    +0.000 A 
ATOM      7  C   UNL     1     -12.218  56.053  48.869  0.00  0.00    +0.000 A 
ATOM      8  C   UNL     1     -13.777  56.643  50.634  0.00  0.00    +0.000 A 
ATOM      9  C   UNL     1     -13.170  56.479  47.927  0.00  0.00    +0.000 A 
ATOM     10  C   UNL     1     -14.718  57.048  49.689  0.00  0.00    +0.000 A 
ATOM     11  C   UNL     1     -14.413  56.968  48.336  0.00  0.00    +0.000 A 
ENDROOT
BRANCH   1  17
ATOM     12  S   UNL     1      -7.077  54.701  52.958  0.00  0.00    +0.000 S 
ATOM     13  O   UNL     1      -6.952  55.686  54.015  0.00  0.00    +0.000 OA
ATOM     14  O   UNL     1      -5.922  54.318  52.171  0.00  0.00    +0.000 OA
ATOM     15  N   UNL     1      -8.223  55.221  51.939  0.00  0.00    +0.000 N 
ATOM     16  C   UNL     1      -7.647  53.230  53.727  0.00  0.00    +0.000 A 
ATOM     17  C   UNL     1      -9.382  54.636  51.876  0.00  0.00    +0.000 C 
ATOM     18  C   UNL     1      -8.945  52.824  53.468  0.00  0.00    +0.000 A 
ATOM     19  C   UNL     1      -6.793  52.502  54.560  0.00  0.00    +0.000 A 
ATOM     20  N   UNL     1      -9.789  53.568  52.649  0.00  0.00    +0.000 N 
ATOM     21  C   UNL     1      -9.424  51.685  54.126  0.00  0.00    +0.000 A 
ATOM     22  C   UNL     1      -7.271  51.350  55.179  0.00  0.00    +0.000 A 
ATOM     23  C   UNL     1      -8.589  50.947  54.970  0.00  0.00    +0.000 A 
ATOM     24  H   UNL     1      -8.039  55.993  51.356  0.00  0.00    +0.000 HD
ATOM     25  H   UNL     1     -10.739  53.316  52.618  0.00  0.00    +0.000 HD
ENDBRANCH   1  17
BRANCH   3  26
ATOM     26  O   UNL     1     -11.951  55.825  52.554  0.00  0.00    +0.000 OA
ATOM     27  H   UNL     1     -11.314  55.855  53.241  0.00  0.00    +0.000 HD
ENDBRANCH   3  26
BRANCH   5  28
ATOM     28  N   UNL     1     -10.626  55.569  47.070  0.00  0.00    +0.000 N 
ATOM     29  H   UNL     1      -9.968  56.200  46.702  0.00  0.00    +0.000 HD
BRANCH  28  30
ATOM     30  C   UNL     1     -11.345  54.602  46.227  0.00  0.00    +0.000 C 
BRANCH  30  31
ATOM     31  C   UNL     1     -10.396  53.790  45.389  0.00  0.00    +0.000 A 
ATOM     32  C   UNL     1      -9.045  53.706  45.716  0.00  0.00    +0.000 A 
ATOM     33  C   UNL     1     -10.831  53.072  44.270  0.00  0.00    +0.000 A 
ATOM     34  N   UNL     1      -8.132  52.996  45.014  0.00  0.00    +0.000 NA
ATOM     35  C   UNL     1      -9.912  52.333  43.528  0.00  0.00    +0.000 A 
ATOM     36  C   UNL     1      -8.588  52.329  43.933  0.00  0.00    +0.000 A 
ENDBRANCH  30  31
ENDBRANCH  28  30
ENDBRANCH   5  28
TORSDOF 5
ENDMDL
MODEL 6
REMARK VINA RESULT:      -8.5      1.573      2.119
REMARK  Name = 
REMARK  5 active torsions:
REMARK  status: ('A' for Active; 'I' for Inactive)
REMARK    1  A    between atoms: C_6  and  C_10
REMARK    2  A    between atoms: C_14  and  O_18
REMARK    3  A    between atoms: N_17  and  N_20
REMARK    4  A    between atoms: N_20  and  C_23
REMARK    5  A    between atoms: C_23  and  C_26
REMARK                            x       y       z     vdW  Elec       q    Type
REMARK                         _______ _______ _______ _____ _____    ______ ____
ROOT
ATOM      1  C   UNL     1      -9.600  54.287  50.083  0.00  0.00    +0.000 A 
ATOM      2  C   UNL     1     -10.580  55.413  50.094  0.00  0.00    +0.000 A 
ATOM      3  C   UNL     1      -9.449  53.529  48.984  0.00  0.00    +0.000 A 
ATOM      4  O   UNL     1     -10.690  56.061  51.142  0.00  0.00    +0.000 OA
ATOM      5  N   UNL     1     -11.295  55.680  48.924  0.00  0.00    +0.000 N 
ATOM      6  C   UNL     1     -10.211  53.823  47.761  0.00  0.00    +0.000 A 
ATOM      7  C   UNL     1     -11.126  54.890  47.746  0.00  0.00    +0.000 A 
ATOM      8  C   UNL     1     -10.028  53.053  46.599  0.00  0.00    +0.000 A 
ATOM      9  C   UNL     1     -11.844  55.157  46.569  0.00  0.00    +0.000 A 
ATOM     10  C   UNL     1     -10.737  53.337  45.433  0.00  0.00    +0.000 A 
ATOM     11  C   UNL     1     -11.646  54.388  45.419  0.00  0.00    +0.000 A 
ENDROOT
BRANCH   1  17
ATOM     12  S   UNL     1      -6.723  54.688  52.727  0.00  0.00    +0.000 S 
ATOM     13  O   UNL     1      -6.961  55.795  53.633  0.00  0.00    +0.000 OA
ATOM     14  O   UNL     1      -5.395  54.444  52.199  0.00  0.00    +0.000 OA
ATOM     15  N   UNL     1      -7.733  54.855  51.473  0.00  0.00    +0.000 N 
ATOM     16  C   UNL     1      -7.167  53.234  53.606  0.00  0.00    +0.000 A 
ATOM     17  C   UNL     1      -8.746  54.056  51.315  0.00  0.00    +0.000 C 
ATOM     18  C   UNL     1      -8.309  52.559  53.207  0.00  0.00    +0.000 A 
ATOM     19  C   UNL     1      -6.371  52.785  54.663  0.00  0.00    +0.000 A 
ATOM     20  N   UNL     1      -9.102  53.027  52.163  0.00  0.00    +0.000 N 
ATOM     21  C   UNL     1      -8.701  51.435  53.942  0.00  0.00    +0.000 A 
ATOM     22  C   UNL     1      -6.752  51.643  55.362  0.00  0.00    +0.000 A 
ATOM     23  C   UNL     1      -7.922  50.974  55.008  0.00  0.00    +0.000 A 
ATOM     24  H   UNL     1      -7.578  55.575  50.820  0.00  0.00    +0.000 HD
ATOM     25  H   UNL     1      -9.974  52.596  52.020  0.00  0.00    +0.000 HD
ENDBRANCH   1  17
BRANCH   3  26
ATOM     26  O   UNL     1      -8.575  52.461  48.886  0.00  0.00    +0.000 OA
ATOM     27  H   UNL     1      -8.903  51.584  48.910  0.00  0.00    +0.000 HD
ENDBRANCH   3  26
BRANCH   5  28
ATOM     28  N   UNL     1     -12.327  56.682  48.909  0.00  0.00    +0.000 N 
ATOM     29  H   UNL     1     -12.185  57.579  48.529  0.00  0.00    +0.000 HD
BRANCH  28  30
ATOM     30  C   UNL     1     -13.610  56.274  49.500  0.00  0.00    +0.000 C 
BRANCH  30  31
ATOM     31  C   UNL     1     -14.026  57.202  50.608  0.00  0.00    +0.000 A 
ATOM     32  C   UNL     1     -14.465  58.495  50.332  0.00  0.00    +0.000 A 
ATOM     33  C   UNL     1     -14.010  56.803  51.948  0.00  0.00    +0.000 A 
ATOM     34  N   UNL     1     -14.856  59.385  51.272  0.00  0.00    +0.000 NA
ATOM     35  C   UNL     1     -14.406  57.701  52.937  0.00  0.00    +0.000 A 
ATOM     36  C   UNL     1     -14.813  58.967  52.554  0.00  0.00    +0.000 A 
ENDBRANCH  30  31
ENDBRANCH  28  30
ENDBRANCH   5  28
TORSDOF 5
ENDMDL
MODEL 7
REMARK VINA RESULT:      -8.5      3.086      7.206
REMARK  Name = 
REMARK  5 active torsions:
REMARK  status: ('A' for Active; 'I' for Inactive)
REMARK    1  A    between atoms: C_6  and  C_10
REMARK    2  A    between atoms: C_14  and  O_18
REMARK    3  A    between atoms: N_17  and  N_20
REMARK    4  A    between atoms: N_20  and  C_23
REMARK    5  A    between atoms: C_23  and  C_26
REMARK                            x       y       z     vdW  Elec       q    Type
REMARK                         _______ _______ _______ _____ _____    ______ ____
ROOT
ATOM      1  C   UNL     1     -11.228  54.638  48.387  0.00  0.00    +0.000 A 
ATOM      2  C   UNL     1     -10.977  54.162  49.780  0.00  0.00    +0.000 A 
ATOM      3  C   UNL     1     -12.147  55.590  48.149  0.00  0.00    +0.000 A 
ATOM      4  O   UNL     1     -10.136  53.269  49.933  0.00  0.00    +0.000 OA
ATOM      5  N   UNL     1     -11.687  54.764  50.823  0.00  0.00    +0.000 N 
ATOM      6  C   UNL     1     -12.886  56.210  49.258  0.00  0.00    +0.000 A 
ATOM      7  C   UNL     1     -12.651  55.789  50.579  0.00  0.00    +0.000 A 
ATOM      8  C   UNL     1     -13.822  57.230  49.015  0.00  0.00    +0.000 A 
ATOM      9  C   UNL     1     -13.366  56.394  51.626  0.00  0.00    +0.000 A 
ATOM     10  C   UNL     1     -14.514  57.833  50.064  0.00  0.00    +0.000 A 
ATOM     11  C   UNL     1     -14.287  57.413  51.369  0.00  0.00    +0.000 A 
ENDROOT
BRANCH   1  17
ATOM     12  S   UNL     1      -8.165  53.953  46.026  0.00  0.00    +0.000 S 
ATOM     13  O   UNL     1      -7.206  53.043  46.622  0.00  0.00    +0.000 OA
ATOM     14  O   UNL     1      -7.713  55.116  45.289  0.00  0.00    +0.000 OA
ATOM     15  N   UNL     1      -9.153  54.462  47.203  0.00  0.00    +0.000 N 
ATOM     16  C   UNL     1      -9.102  52.997  44.890  0.00  0.00    +0.000 A 
ATOM     17  C   UNL     1     -10.389  54.063  47.262  0.00  0.00    +0.000 C 
ATOM     18  C   UNL     1     -10.424  52.729  45.205  0.00  0.00    +0.000 A 
ATOM     19  C   UNL     1      -8.515  52.543  43.707  0.00  0.00    +0.000 A 
ATOM     20  N   UNL     1     -10.992  53.174  46.396  0.00  0.00    +0.000 N 
ATOM     21  C   UNL     1     -11.159  51.917  44.334  0.00  0.00    +0.000 A 
ATOM     22  C   UNL     1      -9.269  51.767  42.830  0.00  0.00    +0.000 A 
ATOM     23  C   UNL     1     -10.587  51.446  43.148  0.00  0.00    +0.000 A 
ATOM     24  H   UNL     1      -8.812  55.085  47.885  0.00  0.00    +0.000 HD
ATOM     25  H   UNL     1     -11.882  52.832  46.637  0.00  0.00    +0.000 HD
ENDBRANCH   1  17
BRANCH   3  26
ATOM     26  O   UNL     1     -12.453  56.082  46.894  0.00  0.00    +0.000 OA
ATOM     27  H   UNL     1     -11.995  55.764  46.141  0.00  0.00    +0.000 HD
ENDBRANCH   3  26
BRANCH   5  28
ATOM     28  N   UNL     1     -11.564  54.274  52.170  0.00  0.00    +0.000 N 
ATOM     29  H   UNL     1     -12.203  53.634  52.557  0.00  0.00    +0.000 HD
BRANCH  28  30
ATOM     30  C   UNL     1     -10.418  54.798  52.929  0.00  0.00    +0.000 C 
BRANCH  30  31
ATOM     31  C   UNL     1      -9.549  53.686  53.448  0.00  0.00    +0.000 A 
ATOM     32  C   UNL     1      -8.167  53.837  53.529  0.00  0.00    +0.000 A 
ATOM     33  C   UNL     1     -10.089  52.473  53.888  0.00  0.00    +0.000 A 
ATOM     34  N   UNL     1      -7.320  52.885  53.985  0.00  0.00    +0.000 NA
ATOM     35  C   UNL     1      -9.239  51.475  54.362  0.00  0.00    +0.000 A 
ATOM     36  C   UNL     1      -7.878  51.724  54.387  0.00  0.00    +0.000 A 
ENDBRANCH  30  31
ENDBRANCH  28  30
ENDBRANCH   5  28
TORSDOF 5
ENDMDL
MODEL 8
REMARK VINA RESULT:      -8.4      2.265      7.288
REMARK  Name = 
REMARK  5 active torsions:
REMARK  status: ('A' for Active; 'I' for Inactive)
REMARK    1  A    between atoms: C_6  and  C_10
REMARK    2  A    between atoms: C_14  and  O_18
REMARK    3  A    between atoms: N_17  and  N_20
REMARK    4  A    between atoms: N_20  and  C_23
REMARK    5  A    between atoms: C_23  and  C_26
REMARK                            x       y       z     vdW  Elec       q    Type
REMARK                         _______ _______ _______ _____ _____    ______ ____
ROOT
ATOM      1  C   UNL     1     -10.750  55.594  49.135  0.00  0.00    +0.000 A 
ATOM      2  C   UNL     1      -9.654  55.033  49.979  0.00  0.00    +0.000 A 
ATOM      3  C   UNL     1     -10.772  55.368  47.810  0.00  0.00    +0.000 A 
ATOM      4  O   UNL     1      -9.676  55.294  51.187  0.00  0.00    +0.000 OA
ATOM      5  N   UNL     1      -8.686  54.236  49.362  0.00  0.00    +0.000 N 
ATOM      6  C   UNL     1      -9.744  54.528  47.177  0.00  0.00    +0.000 A 
ATOM      7  C   UNL     1      -8.714  53.976  47.958  0.00  0.00    +0.000 A 
ATOM      8  C   UNL     1      -9.785  54.261  45.798  0.00  0.00    +0.000 A 
ATOM      9  C   UNL     1      -7.741  53.175  47.337  0.00  0.00    +0.000 A 
ATOM     10  C   UNL     1      -8.823  53.453  45.196  0.00  0.00    +0.000 A 
ATOM     11  C   UNL     1      -7.799  52.911  45.966  0.00  0.00    +0.000 A 
ENDROOT
BRANCH   1  17
ATOM     12  S   UNL     1     -13.699  56.488  51.572  0.00  0.00    +0.000 S 
ATOM     13  O   UNL     1     -13.226  56.855  52.893  0.00  0.00    +0.000 OA
ATOM     14  O   UNL     1     -14.869  55.647  51.418  0.00  0.00    +0.000 OA
ATOM     15  N   UNL     1     -12.470  55.777  50.793  0.00  0.00    +0.000 N 
ATOM     16  C   UNL     1     -14.076  57.994  50.753  0.00  0.00    +0.000 A 
ATOM     17  C   UNL     1     -11.860  56.374  49.813  0.00  0.00    +0.000 C 
ATOM     18  C   UNL     1     -13.251  58.391  49.715  0.00  0.00    +0.000 A 
ATOM     19  C   UNL     1     -15.187  58.745  51.147  0.00  0.00    +0.000 A 
ATOM     20  N   UNL     1     -12.138  57.642  49.343  0.00  0.00    +0.000 N 
ATOM     21  C   UNL     1     -13.511  59.621  49.098  0.00  0.00    +0.000 A 
ATOM     22  C   UNL     1     -15.456  59.948  50.500  0.00  0.00    +0.000 A 
ATOM     23  C   UNL     1     -14.613  60.391  49.483  0.00  0.00    +0.000 A 
ATOM     24  H   UNL     1     -12.180  54.877  51.066  0.00  0.00    +0.000 HD
ATOM     25  H   UNL     1     -11.507  58.042  48.704  0.00  0.00    +0.000 HD
ENDBRANCH   1  17
BRANCH   3  26
ATOM     26  O   UNL     1     -11.740  55.855  46.951  0.00  0.00    +0.000 OA
ATOM     27  H   UNL     1     -11.488  56.323  46.179  0.00  0.00    +0.000 HD
ENDBRANCH   3  26
BRANCH   5  28
ATOM     28  N   UNL     1      -7.550  53.757  50.104  0.00  0.00    +0.000 N 
ATOM     29  H   UNL     1      -7.479  52.827  50.415  0.00  0.00    +0.000 HD
BRANCH  28  30
ATOM     30  C   UNL     1      -6.503  54.756  50.366  0.00  0.00    +0.000 C 
BRANCH  30  31
ATOM     31  C   UNL     1      -6.039  54.705  51.795  0.00  0.00    +0.000 A 
ATOM     32  C   UNL     1      -6.762  55.333  52.806  0.00  0.00    +0.000 A 
ATOM     33  C   UNL     1      -4.884  54.010  52.170  0.00  0.00    +0.000 A 
ATOM     34  N   UNL     1      -6.410  55.329  54.112  0.00  0.00    +0.000 NA
ATOM     35  C   UNL     1      -4.497  53.991  53.509  0.00  0.00    +0.000 A 
ATOM     36  C   UNL     1      -5.282  54.661  54.432  0.00  0.00    +0.000 A 
ENDBRANCH  30  31
ENDBRANCH  28  30
ENDBRANCH   5  28
TORSDOF 5
ENDMDL
MODEL 9
REMARK VINA RESULT:      -8.3      2.340      5.565
REMARK  Name = 
REMARK  5 active torsions:
REMARK  status: ('A' for Active; 'I' for Inactive)
REMARK    1  A    between atoms: C_6  and  C_10
REMARK    2  A    between atoms: C_14  and  O_18
REMARK    3  A    between atoms: N_17  and  N_20
REMARK    4  A    between atoms: N_20  and  C_23
REMARK    5  A    between atoms: C_23  and  C_26
REMARK                            x       y       z     vdW  Elec       q    Type
REMARK                         _______ _______ _______ _____ _____    ______ ____
ROOT
ATOM      1  C   UNL     1     -10.344  54.849  50.201  0.00  0.00    +0.000 A 
ATOM      2  C   UNL     1     -10.155  54.712  48.726  0.00  0.00    +0.000 A 
ATOM      3  C   UNL     1     -11.366  55.573  50.690  0.00  0.00    +0.000 A 
ATOM      4  O   UNL     1      -9.184  54.053  48.337  0.00  0.00    +0.000 OA
ATOM      5  N   UNL     1     -11.090  55.313  47.880  0.00  0.00    +0.000 N 
ATOM      6  C   UNL     1     -12.340  56.201  49.785  0.00  0.00    +0.000 A 
ATOM      7  C   UNL     1     -12.189  56.067  48.394  0.00  0.00    +0.000 A 
ATOM      8  C   UNL     1     -13.429  56.928  50.295  0.00  0.00    +0.000 A 
ATOM      9  C   UNL     1     -13.130  56.673  47.544  0.00  0.00    +0.000 A 
ATOM     10  C   UNL     1     -14.364  57.512  49.442  0.00  0.00    +0.000 A 
ATOM     11  C   UNL     1     -14.212  57.386  48.066  0.00  0.00    +0.000 A 
ENDROOT
BRANCH   1  17
ATOM     12  S   UNL     1      -8.526  51.917  52.079  0.00  0.00    +0.000 S 
ATOM     13  O   UNL     1      -7.528  51.270  51.249  0.00  0.00    +0.000 OA
ATOM     14  O   UNL     1      -9.396  51.129  52.929  0.00  0.00    +0.000 OA
ATOM     15  N   UNL     1      -9.461  52.816  51.109  0.00  0.00    +0.000 N 
ATOM     16  C   UNL     1      -7.646  52.992  53.152  0.00  0.00    +0.000 A 
ATOM     17  C   UNL     1      -9.394  54.114  51.126  0.00  0.00    +0.000 C 
ATOM     18  C   UNL     1      -7.770  54.356  52.948  0.00  0.00    +0.000 A 
ATOM     19  C   UNL     1      -6.862  52.464  54.181  0.00  0.00    +0.000 A 
ATOM     20  N   UNL     1      -8.543  54.867  51.908  0.00  0.00    +0.000 N 
ATOM     21  C   UNL     1      -7.024  55.215  53.761  0.00  0.00    +0.000 A 
ATOM     22  C   UNL     1      -6.154  53.332  55.007  0.00  0.00    +0.000 A 
ATOM     23  C   UNL     1      -6.227  54.707  54.791  0.00  0.00    +0.000 A 
ATOM     24  H   UNL     1     -10.090  52.372  50.496  0.00  0.00    +0.000 HD
ATOM     25  H   UNL     1      -8.477  55.830  51.718  0.00  0.00    +0.000 HD
ENDBRANCH   1  17
BRANCH   3  26
ATOM     26  O   UNL     1     -11.612  55.763  52.038  0.00  0.00    +0.000 OA
ATOM     27  H   UNL     1     -12.493  55.863  52.344  0.00  0.00    +0.000 HD
ENDBRANCH   3  26
BRANCH   5  28
ATOM     28  N   UNL     1     -10.900  55.304  46.454  0.00  0.00    +0.000 N 
ATOM     29  H   UNL     1     -10.320  55.953  45.996  0.00  0.00    +0.000 HD
BRANCH  28  30
ATOM     30  C   UNL     1     -11.634  54.257  45.728  0.00  0.00    +0.000 C 
BRANCH  30  31
ATOM     31  C   UNL     1     -10.696  53.322  45.014  0.00  0.00    +0.000 A 
ATOM     32  C   UNL     1     -11.162  52.143  44.439  0.00  0.00    +0.000 A 
ATOM     33  C   UNL     1      -9.334  53.608  44.879  0.00  0.00    +0.000 A 
ATOM     34  N   UNL     1     -10.382  51.255  43.780  0.00  0.00    +0.000 NA
ATOM     35  C   UNL     1      -8.507  52.710  44.207  0.00  0.00    +0.000 A 
ATOM     36  C   UNL     1      -9.070  51.558  43.684  0.00  0.00    +0.000 A 
ENDBRANCH  30  31
ENDBRANCH  28  30
ENDBRANCH   5  28
TORSDOF 5
ENDMDL
