MODEL 1
REMARK VINA RESULT:      -9.1      0.000      0.000
REMARK  Name = 
REMARK  5 active torsions:
REMARK  status: ('A' for Active; 'I' for Inactive)
REMARK    1  A    between atoms: C_6  and  C_10
REMARK    2  A    between atoms: C_14  and  O_18
REMARK    3  A    between atoms: N_17  and  N_20
REMARK    4  A    between atoms: N_20  and  C_23
REMARK    5  A    between atoms: C_23  and  C_26
REMARK                            x       y       z     vdW  Elec       q    Type
REMARK                         _______ _______ _______ _____ _____    ______ ____
ROOT
ATOM      1  C   UNL     1      -9.454  54.073  50.678  0.00  0.00    +0.000 A 
ATOM      2  C   UNL     1     -10.675  54.445  51.445  0.00  0.00    +0.000 A 
ATOM      3  C   UNL     1      -9.410  54.215  49.344  0.00  0.00    +0.000 A 
ATOM      4  O   UNL     1     -10.627  54.251  52.664  0.00  0.00    +0.000 OA
ATOM      5  N   UNL     1     -11.779  54.954  50.738  0.00  0.00    +0.000 N 
ATOM      6  C   UNL     1     -10.530  54.831  48.626  0.00  0.00    +0.000 A 
ATOM      7  C   UNL     1     -11.700  55.191  49.318  0.00  0.00    +0.000 A 
ATOM      8  C   UNL     1     -10.425  55.074  47.244  0.00  0.00    +0.000 A 
ATOM      9  C   UNL     1     -12.739  55.803  48.591  0.00  0.00    +0.000 A 
ATOM     10  C   UNL     1     -11.451  55.706  46.549  0.00  0.00    +0.000 A 
ATOM     11  C   UNL     1     -12.604  56.076  47.225  0.00  0.00    +0.000 A 
ENDROOT
BRANCH   1  17
ATOM     12  S   UNL     1      -7.416  51.592  52.916  0.00  0.00    +0.000 S 
ATOM     13  O   UNL     1      -7.197  50.344  52.221  0.00  0.00    +0.000 OA
ATOM     14  O   UNL     1      -7.765  51.602  54.329  0.00  0.00    +0.000 OA
ATOM     15  N   UNL     1      -8.572  52.414  52.146  0.00  0.00    +0.000 N 
ATOM     16  C   UNL     1      -5.918  52.494  52.780  0.00  0.00    +0.000 A 
ATOM     17  C   UNL     1      -8.288  53.453  51.416  0.00  0.00    +0.000 C 
ATOM     18  C   UNL     1      -5.892  53.581  51.920  0.00  0.00    +0.000 A 
ATOM     19  C   UNL     1      -4.802  52.097  53.519  0.00  0.00    +0.000 A 
ATOM     20  N   UNL     1      -7.041  54.018  51.275  0.00  0.00    +0.000 N 
ATOM     21  C   UNL     1      -4.691  54.286  51.790  0.00  0.00    +0.000 A 
ATOM     22  C   UNL     1      -3.616  52.811  53.384  0.00  0.00    +0.000 A 
ATOM     23  C   UNL     1      -3.558  53.900  52.514  0.00  0.00    +0.000 A 
ATOM     24  H   UNL     1      -9.509  52.124  52.231  0.00  0.00    +0.000 HD
ATOM     25  H   UNL     1      -6.959  54.792  50.673  0.00  0.00    +0.000 HD
ENDBRANCH   1  17
BRANCH   3  26
ATOM     26  O   UNL     1      -8.353  53.810  48.547  0.00  0.00    +0.000 OA
ATOM     27  H   UNL     1      -8.319  54.070  47.647  0.00  0.00    +0.000 HD
ENDBRANCH   3  26
BRANCH   5  28
ATOM     28  N   UNL     1     -13.086  55.067  51.378  0.00  0.00    +0.000 N 
ATOM     29  H   UNL     1     -13.754  54.344  51.335  0.00  0.00    +0.000 HD
BRANCH  28  30
ATOM     30  C   UNL     1     -13.346  56.329  52.088  0.00  0.00    +0.000 C 
BRANCH  30  31
ATOM     31  C   UNL     1     -14.846  56.700  52.159  0.00  0.00    +0.000 C 
ATOM     32  C   UNL     1     -15.503  56.988  50.804  0.00  0.00    +0.000 C 
ATOM     33  C   UNL     1     -15.037  57.917  53.091  0.00  0.00    +0.000 C 
ATOM     34  C   UNL     1     -14.963  58.261  50.162  0.00  0.00    +0.000 C 
ATOM     35  C   UNL     1     -14.544  59.224  52.469  0.00  0.00    +0.000 C 
ATOM     36  C   UNL     1     -15.142  59.463  51.085  0.00  0.00    +0.000 C 
ENDBRANCH  30  31
ENDBRANCH  28  30
ENDBRANCH   5  28
TORSDOF 5
ENDMDL
MODEL 2
REMARK VINA RESULT:      -8.8      2.945      8.267
REMARK  Name = 
REMARK  5 active torsions:
REMARK  status: ('A' for Active; 'I' for Inactive)
REMARK    1  A    between atoms: C_6  and  C_10
REMARK    2  A    between atoms: C_14  and  O_18
REMARK    3  A    between atoms: N_17  and  N_20
REMARK    4  A    between atoms: N_20  and  C_23
REMARK    5  A    between atoms: C_23  and  C_26
REMARK                            x       y       z     vdW  Elec       q    Type
REMARK                         _______ _______ _______ _____ _____    ______ ____
ROOT
ATOM      1  C   UNL     1     -11.281  53.902  51.804  0.00  0.00    +0.000 A 
ATOM      2  C   UNL     1     -10.286  54.072  52.900  0.00  0.00    +0.000 A 
ATOM      3  C   UNL     1     -11.417  52.723  51.177  0.00  0.00    +0.000 A 
ATOM      4  O   UNL     1     -10.216  55.202  53.396  0.00  0.00    +0.000 OA
ATOM      5  N   UNL     1      -9.498  52.966  53.265  0.00  0.00    +0.000 N 
ATOM      6  C   UNL     1     -10.657  51.552  51.624  0.00  0.00    +0.000 A 
ATOM      7  C   UNL     1      -9.707  51.677  52.655  0.00  0.00    +0.000 A 
ATOM      8  C   UNL     1     -10.892  50.298  51.031  0.00  0.00    +0.000 A 
ATOM      9  C   UNL     1      -9.021  50.520  53.068  0.00  0.00    +0.000 A 
ATOM     10  C   UNL     1     -10.224  49.161  51.473  0.00  0.00    +0.000 A 
ATOM     11  C   UNL     1      -9.295  49.272  52.495  0.00  0.00    +0.000 A 
ENDROOT
BRANCH   1  17
ATOM     12  S   UNL     1     -12.780  56.648  49.453  0.00  0.00    +0.000 S 
ATOM     13  O   UNL     1     -13.788  56.079  48.587  0.00  0.00    +0.000 OA
ATOM     14  O   UNL     1     -11.822  57.616  48.939  0.00  0.00    +0.000 OA
ATOM     15  N   UNL     1     -11.923  55.445  50.103  0.00  0.00    +0.000 N 
ATOM     16  C   UNL     1     -13.649  57.462  50.741  0.00  0.00    +0.000 A 
ATOM     17  C   UNL     1     -12.080  55.103  51.349  0.00  0.00    +0.000 C 
ATOM     18  C   UNL     1     -13.648  56.873  51.995  0.00  0.00    +0.000 A 
ATOM     19  C   UNL     1     -14.319  58.657  50.475  0.00  0.00    +0.000 A 
ATOM     20  N   UNL     1     -12.890  55.740  52.261  0.00  0.00    +0.000 N 
ATOM     21  C   UNL     1     -14.362  57.507  53.019  0.00  0.00    +0.000 A 
ATOM     22  C   UNL     1     -15.020  59.279  51.502  0.00  0.00    +0.000 A 
ATOM     23  C   UNL     1     -15.048  58.701  52.772  0.00  0.00    +0.000 A 
ATOM     24  H   UNL     1     -11.270  54.962  49.548  0.00  0.00    +0.000 HD
ATOM     25  H   UNL     1     -12.935  55.365  53.169  0.00  0.00    +0.000 HD
ENDBRANCH   1  17
BRANCH   3  26
ATOM     26  O   UNL     1     -12.248  52.505  50.092  0.00  0.00    +0.000 OA
ATOM     27  H   UNL     1     -11.883  52.274  49.261  0.00  0.00    +0.000 HD
ENDBRANCH   3  26
BRANCH   5  28
ATOM     28  N   UNL     1      -8.326  53.135  54.118  0.00  0.00    +0.000 N 
ATOM     29  H   UNL     1      -8.403  53.279  55.090  0.00  0.00    +0.000 HD
BRANCH  28  30
ATOM     30  C   UNL     1      -7.022  53.078  53.438  0.00  0.00    +0.000 C 
BRANCH  30  31
ATOM     31  C   UNL     1      -6.571  54.437  52.855  0.00  0.00    +0.000 C 
ATOM     32  C   UNL     1      -5.555  54.343  51.710  0.00  0.00    +0.000 C 
ATOM     33  C   UNL     1      -5.990  55.319  53.983  0.00  0.00    +0.000 C 
ATOM     34  C   UNL     1      -4.205  53.813  52.180  0.00  0.00    +0.000 C 
ATOM     35  C   UNL     1      -4.616  54.846  54.460  0.00  0.00    +0.000 C 
ATOM     36  C   UNL     1      -3.635  54.677  53.302  0.00  0.00    +0.000 C 
ENDBRANCH  30  31
ENDBRANCH  28  30
ENDBRANCH   5  28
TORSDOF 5
ENDMDL
MODEL 3
REMARK VINA RESULT:      -8.7      1.887      2.734
REMARK  Name = 
REMARK  5 active torsions:
REMARK  status: ('A' for Active; 'I' for Inactive)
REMARK    1  A    between atoms: C_6  and  C_10
REMARK    2  A    between atoms: C_14  and  O_18
REMARK    3  A    between atoms: N_17  and  N_20
REMARK    4  A    between atoms: N_20  and  C_23
REMARK    5  A    between atoms: C_23  and  C_26
REMARK                            x       y       z     vdW  Elec       q    Type
REMARK                         _______ _______ _______ _____ _____    ______ ____
ROOT
ATOM      1  C   UNL     1      -9.739  54.132  50.637  0.00  0.00    +0.000 A 
ATOM      2  C   UNL     1     -10.953  54.944  50.933  0.00  0.00    +0.000 A 
ATOM      3  C   UNL     1      -9.456  53.749  49.383  0.00  0.00    +0.000 A 
ATOM      4  O   UNL     1     -11.141  55.223  52.121  0.00  0.00    +0.000 OA
ATOM      5  N   UNL     1     -11.792  55.304  49.863  0.00  0.00    +0.000 N 
ATOM      6  C   UNL     1     -10.286  54.205  48.263  0.00  0.00    +0.000 A 
ATOM      7  C   UNL     1     -11.441  54.971  48.505  0.00  0.00    +0.000 A 
ATOM      8  C   UNL     1      -9.914  53.888  46.943  0.00  0.00    +0.000 A 
ATOM      9  C   UNL     1     -12.192  55.407  47.397  0.00  0.00    +0.000 A 
ATOM     10  C   UNL     1     -10.653  54.353  45.861  0.00  0.00    +0.000 A 
ATOM     11  C   UNL     1     -11.787  55.118  46.089  0.00  0.00    +0.000 A 
ENDROOT
BRANCH   1  17
ATOM     12  S   UNL     1      -6.672  53.869  53.055  0.00  0.00    +0.000 S 
ATOM     13  O   UNL     1      -6.602  55.029  53.915  0.00  0.00    +0.000 OA
ATOM     14  O   UNL     1      -5.464  53.310  52.466  0.00  0.00    +0.000 OA
ATOM     15  N   UNL     1      -7.677  54.193  51.835  0.00  0.00    +0.000 N 
ATOM     16  C   UNL     1      -7.378  52.588  54.022  0.00  0.00    +0.000 A 
ATOM     17  C   UNL     1      -8.869  53.673  51.787  0.00  0.00    +0.000 C 
ATOM     18  C   UNL     1      -8.686  52.218  53.751  0.00  0.00    +0.000 A 
ATOM     19  C   UNL     1      -6.624  51.989  55.033  0.00  0.00    +0.000 A 
ATOM     20  N   UNL     1      -9.380  52.756  52.676  0.00  0.00    +0.000 N 
ATOM     21  C   UNL     1      -9.260  51.214  54.539  0.00  0.00    +0.000 A 
ATOM     22  C   UNL     1      -7.206  50.989  55.804  0.00  0.00    +0.000 A 
ATOM     23  C   UNL     1      -8.525  50.606  55.562  0.00  0.00    +0.000 A 
ATOM     24  H   UNL     1      -7.383  54.795  51.113  0.00  0.00    +0.000 HD
ATOM     25  H   UNL     1     -10.308  52.457  52.538  0.00  0.00    +0.000 HD
ENDBRANCH   1  17
BRANCH   3  26
ATOM     26  O   UNL     1      -8.404  52.921  49.034  0.00  0.00    +0.000 OA
ATOM     27  H   UNL     1      -7.722  52.744  49.653  0.00  0.00    +0.000 HD
ENDBRANCH   3  26
BRANCH   5  28
ATOM     28  N   UNL     1     -13.125  55.844  50.111  0.00  0.00    +0.000 N 
ATOM     29  H   UNL     1     -13.910  55.261  50.235  0.00  0.00    +0.000 HD
BRANCH  28  30
ATOM     30  C   UNL     1     -13.225  57.311  50.162  0.00  0.00    +0.000 C 
BRANCH  30  31
ATOM     31  C   UNL     1     -14.680  57.828  50.251  0.00  0.00    +0.000 C 
ATOM     32  C   UNL     1     -14.831  59.224  50.866  0.00  0.00    +0.000 C 
ATOM     33  C   UNL     1     -15.540  56.821  51.047  0.00  0.00    +0.000 C 
ATOM     34  C   UNL     1     -14.469  59.243  52.347  0.00  0.00    +0.000 C 
ATOM     35  C   UNL     1     -15.237  56.835  52.546  0.00  0.00    +0.000 C 
ATOM     36  C   UNL     1     -15.311  58.242  53.133  0.00  0.00    +0.000 C 
ENDBRANCH  30  31
ENDBRANCH  28  30
ENDBRANCH   5  28
TORSDOF 5
ENDMDL
MODEL 4
REMARK VINA RESULT:      -8.5      3.139      5.818
REMARK  Name = 
REMARK  5 active torsions:
REMARK  status: ('A' for Active; 'I' for Inactive)
REMARK    1  A    between atoms: C_6  and  C_10
REMARK    2  A    between atoms: C_14  and  O_18
REMARK    3  A    between atoms: N_17  and  N_20
REMARK    4  A    between atoms: N_20  and  C_23
REMARK    5  A    between atoms: C_23  and  C_26
REMARK                            x       y       z     vdW  Elec       q    Type
REMARK                         _______ _______ _______ _____ _____    ______ ____
ROOT
ATOM      1  C   UNL     1     -10.054  53.434  49.327  0.00  0.00    +0.000 A 
ATOM      2  C   UNL     1     -11.279  53.740  50.118  0.00  0.00    +0.000 A 
ATOM      3  C   UNL     1      -8.834  53.703  49.816  0.00  0.00    +0.000 A 
ATOM      4  O   UNL     1     -12.355  53.482  49.570  0.00  0.00    +0.000 OA
ATOM      5  N   UNL     1     -11.123  54.314  51.393  0.00  0.00    +0.000 N 
ATOM      6  C   UNL     1      -8.678  54.215  51.180  0.00  0.00    +0.000 A 
ATOM      7  C   UNL     1      -9.812  54.518  51.956  0.00  0.00    +0.000 A 
ATOM      8  C   UNL     1      -7.390  54.387  51.719  0.00  0.00    +0.000 A 
ATOM      9  C   UNL     1      -9.612  54.983  53.269  0.00  0.00    +0.000 A 
ATOM     10  C   UNL     1      -7.214  54.820  53.029  0.00  0.00    +0.000 A 
ATOM     11  C   UNL     1      -8.326  55.111  53.805  0.00  0.00    +0.000 A 
ENDROOT
BRANCH   1  17
ATOM     12  S   UNL     1     -11.326  51.225  46.356  0.00  0.00    +0.000 S 
ATOM     13  O   UNL     1     -12.677  51.589  45.995  0.00  0.00    +0.000 OA
ATOM     14  O   UNL     1     -10.923  49.828  46.405  0.00  0.00    +0.000 OA
ATOM     15  N   UNL     1     -10.992  51.856  47.803  0.00  0.00    +0.000 N 
ATOM     16  C   UNL     1     -10.283  51.990  45.170  0.00  0.00    +0.000 A 
ATOM     17  C   UNL     1     -10.209  52.889  47.924  0.00  0.00    +0.000 C 
ATOM     18  C   UNL     1      -9.539  53.087  45.573  0.00  0.00    +0.000 A 
ATOM     19  C   UNL     1     -10.238  51.492  43.867  0.00  0.00    +0.000 A 
ATOM     20  N   UNL     1      -9.523  53.500  46.899  0.00  0.00    +0.000 N 
ATOM     21  C   UNL     1      -8.727  53.714  44.623  0.00  0.00    +0.000 A 
ATOM     22  C   UNL     1      -9.422  52.122  42.934  0.00  0.00    +0.000 A 
ATOM     23  C   UNL     1      -8.672  53.237  43.309  0.00  0.00    +0.000 A 
ATOM     24  H   UNL     1     -11.387  51.454  48.609  0.00  0.00    +0.000 HD
ATOM     25  H   UNL     1      -8.979  54.289  47.123  0.00  0.00    +0.000 HD
ENDBRANCH   1  17
BRANCH   3  26
ATOM     26  O   UNL     1      -7.654  53.535  49.113  0.00  0.00    +0.000 OA
ATOM     27  H   UNL     1      -7.325  52.673  48.948  0.00  0.00    +0.000 HD
ENDBRANCH   3  26
BRANCH   5  28
ATOM     28  N   UNL     1     -12.265  54.895  52.093  0.00  0.00    +0.000 N 
ATOM     29  H   UNL     1     -12.712  54.431  52.839  0.00  0.00    +0.000 HD
BRANCH  28  30
ATOM     30  C   UNL     1     -12.707  56.215  51.616  0.00  0.00    +0.000 C 
BRANCH  30  31
ATOM     31  C   UNL     1     -14.223  56.287  51.319  0.00  0.00    +0.000 C 
ATOM     32  C   UNL     1     -14.589  56.981  50.001  0.00  0.00    +0.000 C 
ATOM     33  C   UNL     1     -14.949  56.990  52.487  0.00  0.00    +0.000 C 
ATOM     34  C   UNL     1     -14.270  58.472  50.028  0.00  0.00    +0.000 C 
ATOM     35  C   UNL     1     -14.687  58.496  52.529  0.00  0.00    +0.000 C 
ATOM     36  C   UNL     1     -14.978  59.166  51.188  0.00  0.00    +0.000 C 
ENDBRANCH  30  31
ENDBRANCH  28  30
ENDBRANCH   5  28
TORSDOF 5
ENDMDL
MODEL 5
REMARK VINA RESULT:      -8.5      1.614      2.127
REMARK  Name = 
REMARK  5 active torsions:
REMARK  status: ('A' for Active; 'I' for Inactive)
REMARK    1  A    between atoms: C_6  and  C_10
REMARK    2  A    between atoms: C_14  and  O_18
REMARK    3  A    between atoms: N_17  and  N_20
REMARK    4  A    between atoms: N_20  and  C_23
REMARK    5  A    between atoms: C_23  and  C_26
REMARK                            x       y       z     vdW  Elec       q    Type
REMARK                         _______ _______ _______ _____ _____    ______ ____
ROOT
ATOM      1  C   UNL     1      -9.058  54.534  49.789  0.00  0.00    +0.000 A 
ATOM      2  C   UNL     1     -10.043  55.651  49.833  0.00  0.00    +0.000 A 
ATOM      3  C   UNL     1      -9.060  53.656  48.774  0.00  0.00    +0.000 A 
ATOM      4  O   UNL     1      -9.979  56.389  50.822  0.00  0.00    +0.000 OA
ATOM      5  N   UNL     1     -10.972  55.765  48.783  0.00  0.00    +0.000 N 
ATOM      6  C   UNL     1      -9.970  53.835  47.639  0.00  0.00    +0.000 A 
ATOM      7  C   UNL     1     -10.916  54.877  47.649  0.00  0.00    +0.000 A 
ATOM      8  C   UNL     1      -9.885  52.972  46.531  0.00  0.00    +0.000 A 
ATOM      9  C   UNL     1     -11.750  55.026  46.525  0.00  0.00    +0.000 A 
ATOM     10  C   UNL     1     -10.699  53.153  45.418  0.00  0.00    +0.000 A 
ATOM     11  C   UNL     1     -11.626  54.184  45.414  0.00  0.00    +0.000 A 
ENDROOT
BRANCH   1  17
ATOM     12  S   UNL     1      -7.770  54.101  53.459  0.00  0.00    +0.000 S 
ATOM     13  O   UNL     1      -8.080  52.779  53.953  0.00  0.00    +0.000 OA
ATOM     14  O   UNL     1      -7.930  55.268  54.314  0.00  0.00    +0.000 OA
ATOM     15  N   UNL     1      -8.648  54.373  52.132  0.00  0.00    +0.000 N 
ATOM     16  C   UNL     1      -6.078  54.065  52.999  0.00  0.00    +0.000 A 
ATOM     17  C   UNL     1      -8.105  54.354  50.950  0.00  0.00    +0.000 C 
ATOM     18  C   UNL     1      -5.773  54.058  51.648  0.00  0.00    +0.000 A 
ATOM     19  C   UNL     1      -5.093  54.032  53.989  0.00  0.00    +0.000 A 
ATOM     20  N   UNL     1      -6.764  54.195  50.684  0.00  0.00    +0.000 N 
ATOM     21  C   UNL     1      -4.425  54.003  51.278  0.00  0.00    +0.000 A 
ATOM     22  C   UNL     1      -3.757  53.983  53.608  0.00  0.00    +0.000 A 
ATOM     23  C   UNL     1      -3.423  53.961  52.253  0.00  0.00    +0.000 A 
ATOM     24  H   UNL     1      -9.611  54.558  52.219  0.00  0.00    +0.000 HD
ATOM     25  H   UNL     1      -6.487  54.177  49.740  0.00  0.00    +0.000 HD
ENDBRANCH   1  17
BRANCH   3  26
ATOM     26  O   UNL     1      -8.243  52.541  48.701  0.00  0.00    +0.000 OA
ATOM     27  H   UNL     1      -8.295  51.878  49.362  0.00  0.00    +0.000 HD
ENDBRANCH   3  26
BRANCH   5  28
ATOM     28  N   UNL     1     -12.129  56.647  48.903  0.00  0.00    +0.000 N 
ATOM     29  H   UNL     1     -12.179  57.510  48.431  0.00  0.00    +0.000 HD
BRANCH  28  30
ATOM     30  C   UNL     1     -13.214  56.167  49.774  0.00  0.00    +0.000 C 
BRANCH  30  31
ATOM     31  C   UNL     1     -14.529  56.965  49.615  0.00  0.00    +0.000 C 
ATOM     32  C   UNL     1     -14.389  58.482  49.789  0.00  0.00    +0.000 C 
ATOM     33  C   UNL     1     -15.584  56.431  50.610  0.00  0.00    +0.000 C 
ATOM     34  C   UNL     1     -14.036  58.867  51.222  0.00  0.00    +0.000 C 
ATOM     35  C   UNL     1     -15.290  56.827  52.057  0.00  0.00    +0.000 C 
ATOM     36  C   UNL     1     -15.071  58.331  52.207  0.00  0.00    +0.000 C 
ENDBRANCH  30  31
ENDBRANCH  28  30
ENDBRANCH   5  28
TORSDOF 5
ENDMDL
MODEL 6
REMARK VINA RESULT:      -8.4      3.506      8.540
REMARK  Name = 
REMARK  5 active torsions:
REMARK  status: ('A' for Active; 'I' for Inactive)
REMARK    1  A    between atoms: C_6  and  C_10
REMARK    2  A    between atoms: C_14  and  O_18
REMARK    3  A    between atoms: N_17  and  N_20
REMARK    4  A    between atoms: N_20  and  C_23
REMARK    5  A    between atoms: C_23  and  C_26
REMARK                            x       y       z     vdW  Elec       q    Type
REMARK                         _______ _______ _______ _____ _____    ______ ____
ROOT
ATOM      1  C   UNL     1     -11.307  56.334  48.576  0.00  0.00    +0.000 A 
ATOM      2  C   UNL     1      -9.906  56.241  49.072  0.00  0.00    +0.000 A 
ATOM      3  C   UNL     1     -11.675  55.726  47.437  0.00  0.00    +0.000 A 
ATOM      4  O   UNL     1      -9.660  56.858  50.114  0.00  0.00    +0.000 OA
ATOM      5  N   UNL     1      -8.979  55.496  48.321  0.00  0.00    +0.000 N 
ATOM      6  C   UNL     1     -10.727  54.878  46.709  0.00  0.00    +0.000 A 
ATOM      7  C   UNL     1      -9.394  54.769  47.148  0.00  0.00    +0.000 A 
ATOM      8  C   UNL     1     -11.157  54.158  45.579  0.00  0.00    +0.000 A 
ATOM      9  C   UNL     1      -8.527  53.923  46.432  0.00  0.00    +0.000 A 
ATOM     10  C   UNL     1     -10.292  53.305  44.902  0.00  0.00    +0.000 A 
ATOM     11  C   UNL     1      -8.980  53.182  45.334  0.00  0.00    +0.000 A 
ENDROOT
BRANCH   1  17
ATOM     12  S   UNL     1     -13.564  59.393  49.507  0.00  0.00    +0.000 S 
ATOM     13  O   UNL     1     -14.696  59.479  48.613  0.00  0.00    +0.000 OA
ATOM     14  O   UNL     1     -12.846  60.593  49.912  0.00  0.00    +0.000 OA
ATOM     15  N   UNL     1     -12.473  58.395  48.861  0.00  0.00    +0.000 N 
ATOM     16  C   UNL     1     -14.166  58.665  50.985  0.00  0.00    +0.000 A 
ATOM     17  C   UNL     1     -12.295  57.194  49.332  0.00  0.00    +0.000 C 
ATOM     18  C   UNL     1     -13.812  57.353  51.252  0.00  0.00    +0.000 A 
ATOM     19  C   UNL     1     -14.983  59.409  51.839  0.00  0.00    +0.000 A 
ATOM     20  N   UNL     1     -12.916  56.668  50.442  0.00  0.00    +0.000 N 
ATOM     21  C   UNL     1     -14.312  56.761  52.417  0.00  0.00    +0.000 A 
ATOM     22  C   UNL     1     -15.468  58.811  52.996  0.00  0.00    +0.000 A 
ATOM     23  C   UNL     1     -15.139  57.486  53.282  0.00  0.00    +0.000 A 
ATOM     24  H   UNL     1     -11.932  58.698  48.097  0.00  0.00    +0.000 HD
ATOM     25  H   UNL     1     -12.707  55.736  50.679  0.00  0.00    +0.000 HD
ENDBRANCH   1  17
BRANCH   3  26
ATOM     26  O   UNL     1     -12.927  55.836  46.859  0.00  0.00    +0.000 OA
ATOM     27  H   UNL     1     -13.254  55.147  46.314  0.00  0.00    +0.000 HD
ENDBRANCH   3  26
BRANCH   5  28
ATOM     28  N   UNL     1      -7.548  55.599  48.590  0.00  0.00    +0.000 N 
ATOM     29  H   UNL     1      -6.961  56.200  48.076  0.00  0.00    +0.000 HD
BRANCH  28  30
ATOM     30  C   UNL     1      -7.036  54.747  49.676  0.00  0.00    +0.000 C 
BRANCH  30  31
ATOM     31  C   UNL     1      -5.508  54.865  49.884  0.00  0.00    +0.000 C 
ATOM     32  C   UNL     1      -4.657  54.307  48.737  0.00  0.00    +0.000 C 
ATOM     33  C   UNL     1      -5.108  54.170  51.204  0.00  0.00    +0.000 C 
ATOM     34  C   UNL     1      -4.776  52.791  48.617  0.00  0.00    +0.000 C 
ATOM     35  C   UNL     1      -5.176  52.644  51.117  0.00  0.00    +0.000 C 
ATOM     36  C   UNL     1      -4.391  52.103  49.924  0.00  0.00    +0.000 C 
ENDBRANCH  30  31
ENDBRANCH  28  30
ENDBRANCH   5  28
TORSDOF 5
ENDMDL
MODEL 7
REMARK VINA RESULT:      -8.4      2.956      8.401
REMARK  Name = 
REMARK  5 active torsions:
REMARK  status: ('A' for Active; 'I' for Inactive)
REMARK    1  A    between atoms: C_6  and  C_10
REMARK    2  A    between atoms: C_14  and  O_18
REMARK    3  A    between atoms: N_17  and  N_20
REMARK    4  A    between atoms: N_20  and  C_23
REMARK    5  A    between atoms: C_23  and  C_26
REMARK                            x       y       z     vdW  Elec       q    Type
REMARK                         _______ _______ _______ _____ _____    ______ ____
ROOT
ATOM      1  C   UNL     1     -10.728  55.745  48.531  0.00  0.00    +0.000 A 
ATOM      2  C   UNL     1      -9.327  55.754  49.039  0.00  0.00    +0.000 A 
ATOM      3  C   UNL     1     -11.017  55.238  47.323  0.00  0.00    +0.000 A 
ATOM      4  O   UNL     1      -9.159  56.268  50.150  0.00  0.00    +0.000 OA
ATOM      5  N   UNL     1      -8.317  55.212  48.224  0.00  0.00    +0.000 N 
ATOM      6  C   UNL     1      -9.975  54.593  46.519  0.00  0.00    +0.000 A 
ATOM      7  C   UNL     1      -8.641  54.586  46.967  0.00  0.00    +0.000 A 
ATOM      8  C   UNL     1     -10.314  53.967  45.305  0.00  0.00    +0.000 A 
ATOM      9  C   UNL     1      -7.679  53.933  46.173  0.00  0.00    +0.000 A 
ATOM     10  C   UNL     1      -9.354  53.302  44.550  0.00  0.00    +0.000 A 
ATOM     11  C   UNL     1      -8.039  53.280  44.988  0.00  0.00    +0.000 A 
ENDROOT
BRANCH   1  17
ATOM     12  S   UNL     1     -13.358  56.273  51.380  0.00  0.00    +0.000 S 
ATOM     13  O   UNL     1     -12.698  56.565  52.633  0.00  0.00    +0.000 OA
ATOM     14  O   UNL     1     -14.506  55.380  51.339  0.00  0.00    +0.000 OA
ATOM     15  N   UNL     1     -12.268  55.678  50.351  0.00  0.00    +0.000 N 
ATOM     16  C   UNL     1     -13.919  57.813  50.756  0.00  0.00    +0.000 A 
ATOM     17  C   UNL     1     -11.812  56.393  49.364  0.00  0.00    +0.000 C 
ATOM     18  C   UNL     1     -13.246  58.357  49.674  0.00  0.00    +0.000 A 
ATOM     19  C   UNL     1     -15.004  58.451  51.361  0.00  0.00    +0.000 A 
ATOM     20  N   UNL     1     -12.237  57.657  49.026  0.00  0.00    +0.000 N 
ATOM     21  C   UNL     1     -13.675  59.598  49.190  0.00  0.00    +0.000 A 
ATOM     22  C   UNL     1     -15.423  59.681  50.866  0.00  0.00    +0.000 A 
ATOM     23  C   UNL     1     -14.754  60.258  49.786  0.00  0.00    +0.000 A 
ATOM     24  H   UNL     1     -11.941  54.757  50.471  0.00  0.00    +0.000 HD
ATOM     25  H   UNL     1     -11.792  58.098  48.267  0.00  0.00    +0.000 HD
ENDBRANCH   1  17
BRANCH   3  26
ATOM     26  O   UNL     1     -12.272  55.272  46.739  0.00  0.00    +0.000 OA
ATOM     27  H   UNL     1     -12.515  54.619  46.112  0.00  0.00    +0.000 HD
ENDBRANCH   3  26
BRANCH   5  28
ATOM     28  N   UNL     1      -6.909  55.444  48.529  0.00  0.00    +0.000 N 
ATOM     29  H   UNL     1      -6.364  56.090  48.024  0.00  0.00    +0.000 HD
BRANCH  28  30
ATOM     30  C   UNL     1      -6.354  54.651  49.638  0.00  0.00    +0.000 C 
BRANCH  30  31
ATOM     31  C   UNL     1      -4.828  54.424  49.530  0.00  0.00    +0.000 C 
ATOM     32  C   UNL     1      -4.380  53.633  48.296  0.00  0.00    +0.000 C 
ATOM     33  C   UNL     1      -4.316  53.719  50.805  0.00  0.00    +0.000 C 
ATOM     34  C   UNL     1      -4.845  52.181  48.343  0.00  0.00    +0.000 C 
ATOM     35  C   UNL     1      -4.727  52.247  50.875  0.00  0.00    +0.000 C 
ATOM     36  C   UNL     1      -4.348  51.485  49.608  0.00  0.00    +0.000 C 
ENDBRANCH  30  31
ENDBRANCH  28  30
ENDBRANCH   5  28
TORSDOF 5
ENDMDL
MODEL 8
REMARK VINA RESULT:      -8.4      3.861      8.316
REMARK  Name = 
REMARK  5 active torsions:
REMARK  status: ('A' for Active; 'I' for Inactive)
REMARK    1  A    between atoms: C_6  and  C_10
REMARK    2  A    between atoms: C_14  and  O_18
REMARK    3  A    between atoms: N_17  and  N_20
REMARK    4  A    between atoms: N_20  and  C_23
REMARK    5  A    between atoms: C_23  and  C_26
REMARK                            x       y       z     vdW  Elec       q    Type
REMARK                         _______ _______ _______ _____ _____    ______ ____
ROOT
ATOM      1  C   UNL     1     -12.228  54.240  50.104  0.00  0.00    +0.000 A 
ATOM      2  C   UNL     1     -12.019  53.745  48.714  0.00  0.00    +0.000 A 
ATOM      3  C   UNL     1     -11.719  53.577  51.153  0.00  0.00    +0.000 A 
ATOM      4  O   UNL     1     -12.551  54.410  47.818  0.00  0.00    +0.000 OA
ATOM      5  N   UNL     1     -11.271  52.568  48.529  0.00  0.00    +0.000 N 
ATOM      6  C   UNL     1     -10.865  52.404  50.947  0.00  0.00    +0.000 A 
ATOM      7  C   UNL     1     -10.648  51.907  49.648  0.00  0.00    +0.000 A 
ATOM      8  C   UNL     1     -10.248  51.785  52.049  0.00  0.00    +0.000 A 
ATOM      9  C   UNL     1      -9.800  50.794  49.497  0.00  0.00    +0.000 A 
ATOM     10  C   UNL     1      -9.390  50.704  51.876  0.00  0.00    +0.000 A 
ATOM     11  C   UNL     1      -9.162  50.214  50.599  0.00  0.00    +0.000 A 
ENDROOT
BRANCH   1  17
ATOM     12  S   UNL     1     -15.246  56.452  51.250  0.00  0.00    +0.000 S 
ATOM     13  O   UNL     1     -15.229  56.630  52.684  0.00  0.00    +0.000 OA
ATOM     14  O   UNL     1     -16.498  56.205  50.549  0.00  0.00    +0.000 OA
ATOM     15  N   UNL     1     -14.254  55.237  50.871  0.00  0.00    +0.000 N 
ATOM     16  C   UNL     1     -14.592  57.929  50.568  0.00  0.00    +0.000 A 
ATOM     17  C   UNL     1     -13.095  55.461  50.322  0.00  0.00    +0.000 C 
ATOM     18  C   UNL     1     -13.315  57.885  50.033  0.00  0.00    +0.000 A 
ATOM     19  C   UNL     1     -15.355  59.098  50.589  0.00  0.00    +0.000 A 
ATOM     20  N   UNL     1     -12.616  56.690  49.930  0.00  0.00    +0.000 N 
ATOM     21  C   UNL     1     -12.780  59.069  49.512  0.00  0.00    +0.000 A 
ATOM     22  C   UNL     1     -14.814  60.265  50.063  0.00  0.00    +0.000 A 
ATOM     23  C   UNL     1     -13.524  60.253  49.531  0.00  0.00    +0.000 A 
ATOM     24  H   UNL     1     -14.529  54.311  51.057  0.00  0.00    +0.000 HD
ATOM     25  H   UNL     1     -11.711  56.723  49.546  0.00  0.00    +0.000 HD
ENDBRANCH   1  17
BRANCH   3  26
ATOM     26  O   UNL     1     -11.941  53.915  52.477  0.00  0.00    +0.000 OA
ATOM     27  H   UNL     1     -12.751  54.315  52.729  0.00  0.00    +0.000 HD
ENDBRANCH   3  26
BRANCH   5  28
ATOM     28  N   UNL     1     -11.270  51.881  47.242  0.00  0.00    +0.000 N 
ATOM     29  H   UNL     1     -11.739  51.025  47.106  0.00  0.00    +0.000 HD
BRANCH  28  30
ATOM     30  C   UNL     1     -10.524  52.544  46.160  0.00  0.00    +0.000 C 
BRANCH  30  31
ATOM     31  C   UNL     1      -8.989  52.452  46.324  0.00  0.00    +0.000 C 
ATOM     32  C   UNL     1      -8.358  53.587  47.139  0.00  0.00    +0.000 C 
ATOM     33  C   UNL     1      -8.321  52.388  44.932  0.00  0.00    +0.000 C 
ATOM     34  C   UNL     1      -8.452  54.930  46.423  0.00  0.00    +0.000 C 
ATOM     35  C   UNL     1      -8.358  53.726  44.194  0.00  0.00    +0.000 C 
ATOM     36  C   UNL     1      -7.801  54.866  45.044  0.00  0.00    +0.000 C 
ENDBRANCH  30  31
ENDBRANCH  28  30
ENDBRANCH   5  28
TORSDOF 5
ENDMDL
MODEL 9
REMARK VINA RESULT:      -8.3      3.721      8.554
REMARK  Name = 
REMARK  5 active torsions:
REMARK  status: ('A' for Active; 'I' for Inactive)
REMARK    1  A    between atoms: C_6  and  C_10
REMARK    2  A    between atoms: C_14  and  O_18
REMARK    3  A    between atoms: N_17  and  N_20
REMARK    4  A    between atoms: N_20  and  C_23
REMARK    5  A    between atoms: C_23  and  C_26
REMARK                            x       y       z     vdW  Elec       q    Type
REMARK                         _______ _______ _______ _____ _____    ______ ____
ROOT
ATOM      1  C   UNL     1     -10.693  55.776  48.562  0.00  0.00    +0.000 A 
ATOM      2  C   UNL     1     -10.988  55.302  47.180  0.00  0.00    +0.000 A 
ATOM      3  C   UNL     1      -9.488  55.572  49.115  0.00  0.00    +0.000 A 
ATOM      4  O   UNL     1     -12.135  55.512  46.770  0.00  0.00    +0.000 OA
ATOM      5  N   UNL     1      -9.971  54.641  46.469  0.00  0.00    +0.000 N 
ATOM      6  C   UNL     1      -8.406  54.965  48.335  0.00  0.00    +0.000 A 
ATOM      7  C   UNL     1      -8.650  54.503  47.029  0.00  0.00    +0.000 A 
ATOM      8  C   UNL     1      -7.117  54.859  48.891  0.00  0.00    +0.000 A 
ATOM      9  C   UNL     1      -7.574  53.950  46.309  0.00  0.00    +0.000 A 
ATOM     10  C   UNL     1      -6.061  54.336  48.153  0.00  0.00    +0.000 A 
ATOM     11  C   UNL     1      -6.289  53.888  46.861  0.00  0.00    +0.000 A 
ENDROOT
BRANCH   1  17
ATOM     12  S   UNL     1     -13.420  56.279  51.323  0.00  0.00    +0.000 S 
ATOM     13  O   UNL     1     -12.804  56.543  52.603  0.00  0.00    +0.000 OA
ATOM     14  O   UNL     1     -14.574  55.396  51.224  0.00  0.00    +0.000 OA
ATOM     15  N   UNL     1     -12.298  55.691  50.323  0.00  0.00    +0.000 N 
ATOM     16  C   UNL     1     -13.946  57.834  50.706  0.00  0.00    +0.000 A 
ATOM     17  C   UNL     1     -11.801  56.420  49.366  0.00  0.00    +0.000 C 
ATOM     18  C   UNL     1     -13.230  58.390  49.658  0.00  0.00    +0.000 A 
ATOM     19  C   UNL     1     -15.047  58.470  51.282  0.00  0.00    +0.000 A 
ATOM     20  N   UNL     1     -12.204  57.693  49.035  0.00  0.00    +0.000 N 
ATOM     21  C   UNL     1     -13.631  59.643  49.181  0.00  0.00    +0.000 A 
ATOM     22  C   UNL     1     -15.438  59.712  50.794  0.00  0.00    +0.000 A 
ATOM     23  C   UNL     1     -14.726  60.302  49.749  0.00  0.00    +0.000 A 
ATOM     24  H   UNL     1     -11.984  54.766  50.439  0.00  0.00    +0.000 HD
ATOM     25  H   UNL     1     -11.728  58.143  48.300  0.00  0.00    +0.000 HD
ENDBRANCH   1  17
BRANCH   3  26
ATOM     26  O   UNL     1      -9.160  55.898  50.420  0.00  0.00    +0.000 OA
ATOM     27  H   UNL     1      -9.793  55.793  51.103  0.00  0.00    +0.000 HD
ENDBRANCH   3  26
BRANCH   5  28
ATOM     28  N   UNL     1     -10.273  53.909  45.243  0.00  0.00    +0.000 N 
ATOM     29  H   UNL     1     -10.209  54.329  44.354  0.00  0.00    +0.000 HD
BRANCH  28  30
ATOM     30  C   UNL     1     -10.681  52.505  45.417  0.00  0.00    +0.000 C 
BRANCH  30  31
ATOM     31  C   UNL     1     -10.765  51.719  44.088  0.00  0.00    +0.000 C 
ATOM     32  C   UNL     1     -10.230  50.284  44.153  0.00  0.00    +0.000 C 
ATOM     33  C   UNL     1     -10.021  52.493  42.978  0.00  0.00    +0.000 C 
ATOM     34  C   UNL     1      -8.721  50.241  44.372  0.00  0.00    +0.000 C 
ATOM     35  C   UNL     1      -8.500  52.444  43.136  0.00  0.00    +0.000 C 
ATOM     36  C   UNL     1      -7.985  51.015  43.282  0.00  0.00    +0.000 C 
ENDBRANCH  30  31
ENDBRANCH  28  30
ENDBRANCH   5  28
TORSDOF 5
ENDMDL
