MODEL 1
REMARK VINA RESULT:      -8.8      0.000      0.000
REMARK  Name = 
REMARK  4 active torsions:
REMARK  status: ('A' for Active; 'I' for Inactive)
REMARK    1  A    between atoms: C_6  and  C_10
REMARK    2  A    between atoms: C_14  and  O_18
REMARK    3  A    between atoms: N_17  and  N_20
REMARK    4  A    between atoms: N_20  and  C_23
REMARK                            x       y       z     vdW  Elec       q    Type
REMARK                         _______ _______ _______ _____ _____    ______ ____
ROOT
ATOM      1  C   UNL     1      -9.948  54.186  52.435  0.00  0.00    +0.000 A 
ATOM      2  C   UNL     1      -8.538  54.685  52.436  0.00  0.00    +0.000 A 
ATOM      3  C   UNL     1     -10.277  53.084  53.128  0.00  0.00    +0.000 A 
ATOM      4  O   UNL     1      -8.330  55.819  51.994  0.00  0.00    +0.000 OA
ATOM      5  N   UNL     1      -7.532  53.836  52.940  0.00  0.00    +0.000 N 
ATOM      6  C   UNL     1      -9.253  52.360  53.894  0.00  0.00    +0.000 A 
ATOM      7  C   UNL     1      -7.900  52.733  53.788  0.00  0.00    +0.000 A 
ATOM      8  C   UNL     1      -9.622  51.344  54.791  0.00  0.00    +0.000 A 
ATOM      9  C   UNL     1      -6.957  52.060  54.586  0.00  0.00    +0.000 A 
ATOM     10  C   UNL     1      -8.686  50.715  55.597  0.00  0.00    +0.000 A 
ATOM     11  C   UNL     1      -7.344  51.073  55.496  0.00  0.00    +0.000 A 
ENDROOT
BRANCH   1  17
ATOM     12  S   UNL     1     -12.150  55.553  49.504  0.00  0.00    +0.000 S 
ATOM     13  O   UNL     1     -12.923  54.494  48.888  0.00  0.00    +0.000 OA
ATOM     14  O   UNL     1     -11.514  56.570  48.688  0.00  0.00    +0.000 OA
ATOM     15  N   UNL     1     -11.003  54.870  50.413  0.00  0.00    +0.000 N 
ATOM     16  C   UNL     1     -13.265  56.403  50.559  0.00  0.00    +0.000 A 
ATOM     17  C   UNL     1     -11.013  54.986  51.711  0.00  0.00    +0.000 C 
ATOM     18  C   UNL     1     -13.019  56.379  51.922  0.00  0.00    +0.000 A 
ATOM     19  C   UNL     1     -14.369  57.060  50.004  0.00  0.00    +0.000 A 
ATOM     20  N   UNL     1     -11.895  55.742  52.449  0.00  0.00    +0.000 N 
ATOM     21  C   UNL     1     -13.910  57.069  52.753  0.00  0.00    +0.000 A 
ATOM     22  C   UNL     1     -15.254  57.726  50.844  0.00  0.00    +0.000 A 
ATOM     23  C   UNL     1     -15.024  57.731  52.220  0.00  0.00    +0.000 A 
ATOM     24  H   UNL     1     -10.283  54.358  49.979  0.00  0.00    +0.000 HD
ATOM     25  H   UNL     1     -11.721  55.841  53.413  0.00  0.00    +0.000 HD
ENDBRANCH   1  17
BRANCH   3  26
ATOM     26  O   UNL     1     -11.561  52.578  53.235  0.00  0.00    +0.000 OA
ATOM     27  H   UNL     1     -12.288  53.160  53.333  0.00  0.00    +0.000 HD
ENDBRANCH   3  26
BRANCH   5  28
ATOM     28  N   UNL     1      -6.259  54.444  53.111  0.00  0.00    +0.000 N 
ATOM     29  H   UNL     1      -6.124  55.031  53.890  0.00  0.00    +0.000 HD
BRANCH  28  30
ATOM     30  C   UNL     1      -5.133  54.244  52.191  0.00  0.00    +0.000 C 
ATOM     31  C   UNL     1      -5.212  53.120  51.149  0.00  0.00    +0.000 C 
ATOM     32  C   UNL     1      -3.731  54.267  52.811  0.00  0.00    +0.000 C 
ATOM     33  C   UNL     1      -4.743  51.752  51.629  0.00  0.00    +0.000 C 
ATOM     34  C   UNL     1      -3.300  52.935  53.408  0.00  0.00    +0.000 C 
ATOM     35  C   UNL     1      -3.447  51.766  52.440  0.00  0.00    +0.000 C 
ENDBRANCH  28  30
ENDBRANCH   5  28
TORSDOF 4
ENDMDL
MODEL 2
REMARK VINA RESULT:      -8.6      1.886      2.628
REMARK  Name = 
REMARK  4 active torsions:
REMARK  status: ('A' for Active; 'I' for Inactive)
REMARK    1  A    between atoms: C_6  and  C_10
REMARK    2  A    between atoms: C_14  and  O_18
REMARK    3  A    between atoms: N_17  and  N_20
REMARK    4  A    between atoms: N_20  and  C_23
REMARK                            x       y       z     vdW  Elec       q    Type
REMARK                         _______ _______ _______ _____ _____    ______ ____
ROOT
ATOM      1  C   UNL     1     -11.097  53.949  51.668  0.00  0.00    +0.000 A 
ATOM      2  C   UNL     1     -10.131  54.015  52.808  0.00  0.00    +0.000 A 
ATOM      3  C   UNL     1     -11.311  52.788  51.028  0.00  0.00    +0.000 A 
ATOM      4  O   UNL     1     -10.146  55.028  53.515  0.00  0.00    +0.000 OA
ATOM      5  N   UNL     1      -9.264  52.921  53.010  0.00  0.00    +0.000 N 
ATOM      6  C   UNL     1     -10.597  51.573  51.445  0.00  0.00    +0.000 A 
ATOM      7  C   UNL     1      -9.583  51.650  52.417  0.00  0.00    +0.000 A 
ATOM      8  C   UNL     1     -10.970  50.319  50.933  0.00  0.00    +0.000 A 
ATOM      9  C   UNL     1      -8.968  50.457  52.837  0.00  0.00    +0.000 A 
ATOM     10  C   UNL     1     -10.380  49.148  51.384  0.00  0.00    +0.000 A 
ATOM     11  C   UNL     1      -9.372  49.215  52.342  0.00  0.00    +0.000 A 
ENDROOT
BRANCH   1  17
ATOM     12  S   UNL     1     -12.761  56.719  49.462  0.00  0.00    +0.000 S 
ATOM     13  O   UNL     1     -13.761  56.157  48.576  0.00  0.00    +0.000 OA
ATOM     14  O   UNL     1     -11.853  57.747  48.989  0.00  0.00    +0.000 OA
ATOM     15  N   UNL     1     -11.864  55.505  50.038  0.00  0.00    +0.000 N 
ATOM     16  C   UNL     1     -13.652  57.433  50.793  0.00  0.00    +0.000 A 
ATOM     17  C   UNL     1     -11.890  55.187  51.301  0.00  0.00    +0.000 C 
ATOM     18  C   UNL     1     -13.470  56.901  52.060  0.00  0.00    +0.000 A 
ATOM     19  C   UNL     1     -14.527  58.496  50.542  0.00  0.00    +0.000 A 
ATOM     20  N   UNL     1     -12.571  55.861  52.291  0.00  0.00    +0.000 N 
ATOM     21  C   UNL     1     -14.180  57.486  53.115  0.00  0.00    +0.000 A 
ATOM     22  C   UNL     1     -15.237  59.055  51.598  0.00  0.00    +0.000 A 
ATOM     23  C   UNL     1     -15.063  58.549  52.887  0.00  0.00    +0.000 A 
ATOM     24  H   UNL     1     -11.287  54.996  49.422  0.00  0.00    +0.000 HD
ATOM     25  H   UNL     1     -12.411  55.590  53.223  0.00  0.00    +0.000 HD
ENDBRANCH   1  17
BRANCH   3  26
ATOM     26  O   UNL     1     -12.224  52.613  50.003  0.00  0.00    +0.000 OA
ATOM     27  H   UNL     1     -12.348  53.289  49.366  0.00  0.00    +0.000 HD
ENDBRANCH   3  26
BRANCH   5  28
ATOM     28  N   UNL     1      -8.528  52.952  54.225  0.00  0.00    +0.000 N 
ATOM     29  H   UNL     1      -8.988  52.693  55.056  0.00  0.00    +0.000 HD
BRANCH  28  30
ATOM     30  C   UNL     1      -7.117  53.349  54.311  0.00  0.00    +0.000 C 
ATOM     31  C   UNL     1      -6.756  54.839  54.239  0.00  0.00    +0.000 C 
ATOM     32  C   UNL     1      -6.127  52.543  53.461  0.00  0.00    +0.000 C 
ATOM     33  C   UNL     1      -6.573  55.398  52.833  0.00  0.00    +0.000 C 
ATOM     34  C   UNL     1      -6.029  53.014  52.018  0.00  0.00    +0.000 C 
ATOM     35  C   UNL     1      -5.762  54.510  51.890  0.00  0.00    +0.000 C 
ENDBRANCH  28  30
ENDBRANCH   5  28
TORSDOF 4
ENDMDL
MODEL 3
REMARK VINA RESULT:      -8.4      3.613      4.628
REMARK  Name = 
REMARK  4 active torsions:
REMARK  status: ('A' for Active; 'I' for Inactive)
REMARK    1  A    between atoms: C_6  and  C_10
REMARK    2  A    between atoms: C_14  and  O_18
REMARK    3  A    between atoms: N_17  and  N_20
REMARK    4  A    between atoms: N_20  and  C_23
REMARK                            x       y       z     vdW  Elec       q    Type
REMARK                         _______ _______ _______ _____ _____    ______ ____
ROOT
ATOM      1  C   UNL     1     -11.553  54.817  50.404  0.00  0.00    +0.000 A 
ATOM      2  C   UNL     1     -10.246  55.193  49.781  0.00  0.00    +0.000 A 
ATOM      3  C   UNL     1     -11.782  53.551  50.785  0.00  0.00    +0.000 A 
ATOM      4  O   UNL     1      -9.987  56.396  49.671  0.00  0.00    +0.000 OA
ATOM      5  N   UNL     1      -9.388  54.157  49.358  0.00  0.00    +0.000 N 
ATOM      6  C   UNL     1     -10.749  52.523  50.594  0.00  0.00    +0.000 A 
ATOM      7  C   UNL     1      -9.575  52.830  49.881  0.00  0.00    +0.000 A 
ATOM      8  C   UNL     1     -10.889  51.255  51.183  0.00  0.00    +0.000 A 
ATOM      9  C   UNL     1      -8.580  51.840  49.775  0.00  0.00    +0.000 A 
ATOM     10  C   UNL     1      -9.885  50.303  51.101  0.00  0.00    +0.000 A 
ATOM     11  C   UNL     1      -8.722  50.595  50.392  0.00  0.00    +0.000 A 
ENDROOT
BRANCH   1  17
ATOM     12  S   UNL     1     -14.203  56.965  52.321  0.00  0.00    +0.000 S 
ATOM     13  O   UNL     1     -13.614  57.626  53.469  0.00  0.00    +0.000 OA
ATOM     14  O   UNL     1     -15.520  56.365  52.414  0.00  0.00    +0.000 OA
ATOM     15  N   UNL     1     -13.179  55.817  51.826  0.00  0.00    +0.000 N 
ATOM     16  C   UNL     1     -14.312  58.190  51.071  0.00  0.00    +0.000 A 
ATOM     17  C   UNL     1     -12.579  55.900  50.673  0.00  0.00    +0.000 C 
ATOM     18  C   UNL     1     -13.568  58.012  49.916  0.00  0.00    +0.000 A 
ATOM     19  C   UNL     1     -15.125  59.311  51.278  0.00  0.00    +0.000 A 
ATOM     20  N   UNL     1     -12.788  56.872  49.720  0.00  0.00    +0.000 N 
ATOM     21  C   UNL     1     -13.672  58.992  48.921  0.00  0.00    +0.000 A 
ATOM     22  C   UNL     1     -15.204  60.283  50.287  0.00  0.00    +0.000 A 
ATOM     23  C   UNL     1     -14.477  60.123  49.108  0.00  0.00    +0.000 A 
ATOM     24  H   UNL     1     -13.006  55.040  52.407  0.00  0.00    +0.000 HD
ATOM     25  H   UNL     1     -12.360  56.753  48.842  0.00  0.00    +0.000 HD
ENDBRANCH   1  17
BRANCH   3  26
ATOM     26  O   UNL     1     -12.933  53.118  51.421  0.00  0.00    +0.000 OA
ATOM     27  H   UNL     1     -13.483  53.733  51.865  0.00  0.00    +0.000 HD
ENDBRANCH   3  26
BRANCH   5  28
ATOM     28  N   UNL     1      -8.084  54.572  48.976  0.00  0.00    +0.000 N 
ATOM     29  H   UNL     1      -7.405  54.683  49.680  0.00  0.00    +0.000 HD
BRANCH  28  30
ATOM     30  C   UNL     1      -7.692  54.844  47.588  0.00  0.00    +0.000 C 
ATOM     31  C   UNL     1      -8.780  55.173  46.557  0.00  0.00    +0.000 C 
ATOM     32  C   UNL     1      -6.673  53.882  46.964  0.00  0.00    +0.000 C 
ATOM     33  C   UNL     1      -9.423  53.969  45.880  0.00  0.00    +0.000 C 
ATOM     34  C   UNL     1      -7.291  52.614  46.395  0.00  0.00    +0.000 C 
ATOM     35  C   UNL     1      -8.443  52.885  45.433  0.00  0.00    +0.000 C 
ENDBRANCH  28  30
ENDBRANCH   5  28
TORSDOF 4
ENDMDL
MODEL 4
REMARK VINA RESULT:      -8.3      2.808      8.292
REMARK  Name = 
REMARK  4 active torsions:
REMARK  status: ('A' for Active; 'I' for Inactive)
REMARK    1  A    between atoms: C_6  and  C_10
REMARK    2  A    between atoms: C_14  and  O_18
REMARK    3  A    between atoms: N_17  and  N_20
REMARK    4  A    between atoms: N_20  and  C_23
REMARK                            x       y       z     vdW  Elec       q    Type
REMARK                         _______ _______ _______ _____ _____    ______ ____
ROOT
ATOM      1  C   UNL     1      -9.763  53.861  50.669  0.00  0.00    +0.000 A 
ATOM      2  C   UNL     1     -10.667  54.983  51.072  0.00  0.00    +0.000 A 
ATOM      3  C   UNL     1      -9.694  53.475  49.385  0.00  0.00    +0.000 A 
ATOM      4  O   UNL     1     -10.520  55.460  52.202  0.00  0.00    +0.000 OA
ATOM      5  N   UNL     1     -11.628  55.430  50.142  0.00  0.00    +0.000 N 
ATOM      6  C   UNL     1     -10.505  54.154  48.365  0.00  0.00    +0.000 A 
ATOM      7  C   UNL     1     -11.463  55.111  48.749  0.00  0.00    +0.000 A 
ATOM      8  C   UNL     1     -10.281  53.910  47.000  0.00  0.00    +0.000 A 
ATOM      9  C   UNL     1     -12.174  55.786  47.741  0.00  0.00    +0.000 A 
ATOM     10  C   UNL     1     -10.963  54.610  46.017  0.00  0.00    +0.000 A 
ATOM     11  C   UNL     1     -11.917  55.555  46.387  0.00  0.00    +0.000 A 
ENDROOT
BRANCH   1  17
ATOM     12  S   UNL     1      -6.549  53.065  52.754  0.00  0.00    +0.000 S 
ATOM     13  O   UNL     1      -6.085  54.235  53.473  0.00  0.00    +0.000 OA
ATOM     14  O   UNL     1      -5.604  52.180  52.102  0.00  0.00    +0.000 OA
ATOM     15  N   UNL     1      -7.610  53.553  51.638  0.00  0.00    +0.000 N 
ATOM     16  C   UNL     1      -7.396  52.085  53.937  0.00  0.00    +0.000 A 
ATOM     17  C   UNL     1      -8.869  53.224  51.714  0.00  0.00    +0.000 C 
ATOM     18  C   UNL     1      -8.754  51.875  53.758  0.00  0.00    +0.000 A 
ATOM     19  C   UNL     1      -6.691  51.563  55.028  0.00  0.00    +0.000 A 
ATOM     20  N   UNL     1      -9.429  52.382  52.648  0.00  0.00    +0.000 N 
ATOM     21  C   UNL     1      -9.417  51.083  54.704  0.00  0.00    +0.000 A 
ATOM     22  C   UNL     1      -7.367  50.793  55.966  0.00  0.00    +0.000 A 
ATOM     23  C   UNL     1      -8.731  50.553  55.804  0.00  0.00    +0.000 A 
ATOM     24  H   UNL     1      -7.300  54.109  50.886  0.00  0.00    +0.000 HD
ATOM     25  H   UNL     1     -10.370  52.119  52.523  0.00  0.00    +0.000 HD
ENDBRANCH   1  17
BRANCH   3  26
ATOM     26  O   UNL     1      -8.848  52.489  48.906  0.00  0.00    +0.000 OA
ATOM     27  H   UNL     1      -8.585  52.494  48.007  0.00  0.00    +0.000 HD
ENDBRANCH   3  26
BRANCH   5  28
ATOM     28  N   UNL     1     -12.303  56.627  50.502  0.00  0.00    +0.000 N 
ATOM     29  H   UNL     1     -11.769  57.445  50.622  0.00  0.00    +0.000 HD
BRANCH  28  30
ATOM     30  C   UNL     1     -13.754  56.712  50.704  0.00  0.00    +0.000 C 
ATOM     31  C   UNL     1     -14.533  57.858  50.044  0.00  0.00    +0.000 C 
ATOM     32  C   UNL     1     -14.259  56.514  52.139  0.00  0.00    +0.000 C 
ATOM     33  C   UNL     1     -14.594  59.153  50.846  0.00  0.00    +0.000 C 
ATOM     34  C   UNL     1     -14.205  57.774  52.989  0.00  0.00    +0.000 C 
ATOM     35  C   UNL     1     -14.886  58.972  52.335  0.00  0.00    +0.000 C 
ENDBRANCH  28  30
ENDBRANCH   5  28
TORSDOF 4
ENDMDL
MODEL 5
REMARK VINA RESULT:      -8.3      3.111      8.470
REMARK  Name = 
REMARK  4 active torsions:
REMARK  status: ('A' for Active; 'I' for Inactive)
REMARK    1  A    between atoms: C_6  and  C_10
REMARK    2  A    between atoms: C_14  and  O_18
REMARK    3  A    between atoms: N_17  and  N_20
REMARK    4  A    between atoms: N_20  and  C_23
REMARK                            x       y       z     vdW  Elec       q    Type
REMARK                         _______ _______ _______ _____ _____    ______ ____
ROOT
ATOM      1  C   UNL     1      -9.051  54.435  49.919  0.00  0.00    +0.000 A 
ATOM      2  C   UNL     1     -10.174  55.412  50.062  0.00  0.00    +0.000 A 
ATOM      3  C   UNL     1      -8.911  53.725  48.788  0.00  0.00    +0.000 A 
ATOM      4  O   UNL     1     -10.125  56.210  51.004  0.00  0.00    +0.000 OA
ATOM      5  N   UNL     1     -11.220  55.369  49.117  0.00  0.00    +0.000 N 
ATOM      6  C   UNL     1      -9.862  53.904  47.682  0.00  0.00    +0.000 A 
ATOM      7  C   UNL     1     -11.002  54.710  47.856  0.00  0.00    +0.000 A 
ATOM      8  C   UNL     1      -9.603  53.336  46.423  0.00  0.00    +0.000 A 
ATOM      9  C   UNL     1     -11.854  54.909  46.755  0.00  0.00    +0.000 A 
ATOM     10  C   UNL     1     -10.432  53.571  45.337  0.00  0.00    +0.000 A 
ATOM     11  C   UNL     1     -11.566  54.363  45.502  0.00  0.00    +0.000 A 
ENDROOT
BRANCH   1  17
ATOM     12  S   UNL     1      -7.580  54.006  53.519  0.00  0.00    +0.000 S 
ATOM     13  O   UNL     1      -7.921  52.713  54.076  0.00  0.00    +0.000 OA
ATOM     14  O   UNL     1      -7.631  55.199  54.343  0.00  0.00    +0.000 OA
ATOM     15  N   UNL     1      -8.525  54.262  52.234  0.00  0.00    +0.000 N 
ATOM     16  C   UNL     1      -5.920  53.865  52.970  0.00  0.00    +0.000 A 
ATOM     17  C   UNL     1      -8.028  54.320  51.031  0.00  0.00    +0.000 C 
ATOM     18  C   UNL     1      -5.669  53.991  51.613  0.00  0.00    +0.000 A 
ATOM     19  C   UNL     1      -4.907  53.614  53.903  0.00  0.00    +0.000 A 
ATOM     20  N   UNL     1      -6.691  54.271  50.706  0.00  0.00    +0.000 N 
ATOM     21  C   UNL     1      -4.339  53.887  51.188  0.00  0.00    +0.000 A 
ATOM     22  C   UNL     1      -3.594  53.496  53.463  0.00  0.00    +0.000 A 
ATOM     23  C   UNL     1      -3.310  53.633  52.104  0.00  0.00    +0.000 A 
ATOM     24  H   UNL     1      -9.495  54.376  52.363  0.00  0.00    +0.000 HD
ATOM     25  H   UNL     1      -6.440  54.446  49.770  0.00  0.00    +0.000 HD
ENDBRANCH   1  17
BRANCH   3  26
ATOM     26  O   UNL     1      -7.875  52.842  48.538  0.00  0.00    +0.000 OA
ATOM     27  H   UNL     1      -7.942  51.950  48.819  0.00  0.00    +0.000 HD
ENDBRANCH   3  26
BRANCH   5  28
ATOM     28  N   UNL     1     -12.137  56.451  49.182  0.00  0.00    +0.000 N 
ATOM     29  H   UNL     1     -11.846  57.330  48.846  0.00  0.00    +0.000 HD
BRANCH  28  30
ATOM     30  C   UNL     1     -13.497  56.333  49.721  0.00  0.00    +0.000 C 
ATOM     31  C   UNL     1     -14.450  57.531  49.610  0.00  0.00    +0.000 C 
ATOM     32  C   UNL     1     -13.629  55.704  51.113  0.00  0.00    +0.000 C 
ATOM     33  C   UNL     1     -14.354  58.547  50.742  0.00  0.00    +0.000 C 
ATOM     34  C   UNL     1     -13.411  56.685  52.255  0.00  0.00    +0.000 C 
ATOM     35  C   UNL     1     -14.269  57.941  52.143  0.00  0.00    +0.000 C 
ENDBRANCH  28  30
ENDBRANCH   5  28
TORSDOF 4
ENDMDL
MODEL 6
REMARK VINA RESULT:      -8.3      1.552      2.212
REMARK  Name = 
REMARK  4 active torsions:
REMARK  status: ('A' for Active; 'I' for Inactive)
REMARK    1  A    between atoms: C_6  and  C_10
REMARK    2  A    between atoms: C_14  and  O_18
REMARK    3  A    between atoms: N_17  and  N_20
REMARK    4  A    between atoms: N_20  and  C_23
REMARK                            x       y       z     vdW  Elec       q    Type
REMARK                         _______ _______ _______ _____ _____    ______ ____
ROOT
ATOM      1  C   UNL     1     -10.286  54.220  52.016  0.00  0.00    +0.000 A 
ATOM      2  C   UNL     1      -8.895  54.768  51.946  0.00  0.00    +0.000 A 
ATOM      3  C   UNL     1     -10.552  53.145  52.774  0.00  0.00    +0.000 A 
ATOM      4  O   UNL     1      -8.743  55.885  51.440  0.00  0.00    +0.000 OA
ATOM      5  N   UNL     1      -7.843  53.982  52.460  0.00  0.00    +0.000 N 
ATOM      6  C   UNL     1      -9.479  52.499  53.543  0.00  0.00    +0.000 A 
ATOM      7  C   UNL     1      -8.145  52.913  53.374  0.00  0.00    +0.000 A 
ATOM      8  C   UNL     1      -9.783  51.518  54.502  0.00  0.00    +0.000 A 
ATOM      9  C   UNL     1      -7.154  52.316  54.175  0.00  0.00    +0.000 A 
ATOM     10  C   UNL     1      -8.800  50.965  55.309  0.00  0.00    +0.000 A 
ATOM     11  C   UNL     1      -7.476  51.365  55.146  0.00  0.00    +0.000 A 
ENDROOT
BRANCH   1  17
ATOM     12  S   UNL     1     -13.509  56.363  51.445  0.00  0.00    +0.000 S 
ATOM     13  O   UNL     1     -13.340  57.712  51.949  0.00  0.00    +0.000 OA
ATOM     14  O   UNL     1     -14.757  55.653  51.649  0.00  0.00    +0.000 OA
ATOM     15  N   UNL     1     -12.323  55.451  52.054  0.00  0.00    +0.000 N 
ATOM     16  C   UNL     1     -13.290  56.474  49.708  0.00  0.00    +0.000 A 
ATOM     17  C   UNL     1     -11.400  54.944  51.287  0.00  0.00    +0.000 C 
ATOM     18  C   UNL     1     -12.216  55.806  49.142  0.00  0.00    +0.000 A 
ATOM     19  C   UNL     1     -14.185  57.240  48.951  0.00  0.00    +0.000 A 
ATOM     20  N   UNL     1     -11.355  55.026  49.913  0.00  0.00    +0.000 N 
ATOM     21  C   UNL     1     -12.058  55.894  47.754  0.00  0.00    +0.000 A 
ATOM     22  C   UNL     1     -14.004  57.331  47.576  0.00  0.00    +0.000 A 
ATOM     23  C   UNL     1     -12.940  56.657  46.977  0.00  0.00    +0.000 A 
ATOM     24  H   UNL     1     -12.298  55.274  53.023  0.00  0.00    +0.000 HD
ATOM     25  H   UNL     1     -10.670  54.497  49.444  0.00  0.00    +0.000 HD
ENDBRANCH   1  17
BRANCH   3  26
ATOM     26  O   UNL     1     -11.813  52.600  52.949  0.00  0.00    +0.000 OA
ATOM     27  H   UNL     1     -12.575  53.117  52.776  0.00  0.00    +0.000 HD
ENDBRANCH   3  26
BRANCH   5  28
ATOM     28  N   UNL     1      -6.589  54.643  52.558  0.00  0.00    +0.000 N 
ATOM     29  H   UNL     1      -6.469  55.311  53.271  0.00  0.00    +0.000 HD
BRANCH  28  30
ATOM     30  C   UNL     1      -5.462  54.384  51.655  0.00  0.00    +0.000 C 
ATOM     31  C   UNL     1      -5.625  53.346  50.536  0.00  0.00    +0.000 C 
ATOM     32  C   UNL     1      -4.086  54.214  52.310  0.00  0.00    +0.000 C 
ATOM     33  C   UNL     1      -5.320  51.907  50.933  0.00  0.00    +0.000 C 
ATOM     34  C   UNL     1      -3.818  52.808  52.824  0.00  0.00    +0.000 C 
ATOM     35  C   UNL     1      -4.057  51.727  51.774  0.00  0.00    +0.000 C 
ENDBRANCH  28  30
ENDBRANCH   5  28
TORSDOF 4
ENDMDL
MODEL 7
REMARK VINA RESULT:      -8.2      3.835      5.531
REMARK  Name = 
REMARK  4 active torsions:
REMARK  status: ('A' for Active; 'I' for Inactive)
REMARK    1  A    between atoms: C_6  and  C_10
REMARK    2  A    between atoms: C_14  and  O_18
REMARK    3  A    between atoms: N_17  and  N_20
REMARK    4  A    between atoms: N_20  and  C_23
REMARK                            x       y       z     vdW  Elec       q    Type
REMARK                         _______ _______ _______ _____ _____    ______ ____
ROOT
ATOM      1  C   UNL     1     -10.976  55.232  48.140  0.00  0.00    +0.000 A 
ATOM      2  C   UNL     1      -9.655  54.818  48.705  0.00  0.00    +0.000 A 
ATOM      3  C   UNL     1     -11.298  54.924  46.874  0.00  0.00    +0.000 A 
ATOM      4  O   UNL     1      -9.500  54.905  49.928  0.00  0.00    +0.000 OA
ATOM      5  N   UNL     1      -8.666  54.351  47.814  0.00  0.00    +0.000 N 
ATOM      6  C   UNL     1     -10.353  54.175  46.033  0.00  0.00    +0.000 A 
ATOM      7  C   UNL     1      -9.054  53.905  46.503  0.00  0.00    +0.000 A 
ATOM      8  C   UNL     1     -10.760  53.660  44.792  0.00  0.00    +0.000 A 
ATOM      9  C   UNL     1      -8.200  53.130  45.697  0.00  0.00    +0.000 A 
ATOM     10  C   UNL     1      -9.920  52.866  44.026  0.00  0.00    +0.000 A 
ATOM     11  C   UNL     1      -8.631  52.598  44.479  0.00  0.00    +0.000 A 
ENDROOT
BRANCH   1  17
ATOM     12  S   UNL     1     -13.212  55.962  51.267  0.00  0.00    +0.000 S 
ATOM     13  O   UNL     1     -12.406  56.198  52.447  0.00  0.00    +0.000 OA
ATOM     14  O   UNL     1     -14.422  55.165  51.349  0.00  0.00    +0.000 OA
ATOM     15  N   UNL     1     -12.266  55.295  50.140  0.00  0.00    +0.000 N 
ATOM     16  C   UNL     1     -13.712  57.548  50.707  0.00  0.00    +0.000 A 
ATOM     17  C   UNL     1     -11.976  55.930  49.040  0.00  0.00    +0.000 C 
ATOM     18  C   UNL     1     -13.265  57.972  49.466  0.00  0.00    +0.000 A 
ATOM     19  C   UNL     1     -14.524  58.340  51.527  0.00  0.00    +0.000 A 
ATOM     20  N   UNL     1     -12.481  57.152  48.655  0.00  0.00    +0.000 N 
ATOM     21  C   UNL     1     -13.679  59.235  49.027  0.00  0.00    +0.000 A 
ATOM     22  C   UNL     1     -14.912  59.599  51.083  0.00  0.00    +0.000 A 
ATOM     23  C   UNL     1     -14.489  60.047  49.832  0.00  0.00    +0.000 A 
ATOM     24  H   UNL     1     -11.902  54.392  50.287  0.00  0.00    +0.000 HD
ATOM     25  H   UNL     1     -12.276  57.467  47.745  0.00  0.00    +0.000 HD
ENDBRANCH   1  17
BRANCH   3  26
ATOM     26  O   UNL     1     -12.514  55.212  46.280  0.00  0.00    +0.000 OA
ATOM     27  H   UNL     1     -13.223  54.603  46.343  0.00  0.00    +0.000 HD
ENDBRANCH   3  26
BRANCH   5  28
ATOM     28  N   UNL     1      -7.522  53.777  48.430  0.00  0.00    +0.000 N 
ATOM     29  H   UNL     1      -7.591  52.857  48.775  0.00  0.00    +0.000 HD
BRANCH  28  30
ATOM     30  C   UNL     1      -6.242  54.478  48.580  0.00  0.00    +0.000 C 
ATOM     31  C   UNL     1      -4.936  53.704  48.350  0.00  0.00    +0.000 C 
ATOM     32  C   UNL     1      -6.092  55.373  49.817  0.00  0.00    +0.000 C 
ATOM     33  C   UNL     1      -4.393  52.965  49.567  0.00  0.00    +0.000 C 
ATOM     34  C   UNL     1      -5.671  54.623  51.072  0.00  0.00    +0.000 C 
ATOM     35  C   UNL     1      -4.428  53.762  50.870  0.00  0.00    +0.000 C 
ENDBRANCH  28  30
ENDBRANCH   5  28
TORSDOF 4
ENDMDL
MODEL 8
REMARK VINA RESULT:      -8.0      3.389      8.239
REMARK  Name = 
REMARK  4 active torsions:
REMARK  status: ('A' for Active; 'I' for Inactive)
REMARK    1  A    between atoms: C_6  and  C_10
REMARK    2  A    between atoms: C_14  and  O_18
REMARK    3  A    between atoms: N_17  and  N_20
REMARK    4  A    between atoms: N_20  and  C_23
REMARK                            x       y       z     vdW  Elec       q    Type
REMARK                         _______ _______ _______ _____ _____    ______ ____
ROOT
ATOM      1  C   UNL     1      -9.956  53.772  49.860  0.00  0.00    +0.000 A 
ATOM      2  C   UNL     1     -10.750  55.029  49.694  0.00  0.00    +0.000 A 
ATOM      3  C   UNL     1      -9.825  52.914  48.835  0.00  0.00    +0.000 A 
ATOM      4  O   UNL     1     -10.644  55.894  50.569  0.00  0.00    +0.000 OA
ATOM      5  N   UNL     1     -11.569  55.154  48.553  0.00  0.00    +0.000 N 
ATOM      6  C   UNL     1     -10.460  53.205  47.542  0.00  0.00    +0.000 A 
ATOM      7  C   UNL     1     -11.326  54.308  47.415  0.00  0.00    +0.000 A 
ATOM      8  C   UNL     1     -10.152  52.434  46.409  0.00  0.00    +0.000 A 
ATOM      9  C   UNL     1     -11.863  54.592  46.147  0.00  0.00    +0.000 A 
ATOM     10  C   UNL     1     -10.660  52.749  45.158  0.00  0.00    +0.000 A 
ATOM     11  C   UNL     1     -11.522  53.835  45.023  0.00  0.00    +0.000 A 
ENDROOT
BRANCH   1  17
ATOM     12  S   UNL     1      -8.721  51.905  53.069  0.00  0.00    +0.000 S 
ATOM     13  O   UNL     1      -7.918  50.747  52.728  0.00  0.00    +0.000 OA
ATOM     14  O   UNL     1      -9.692  51.835  54.144  0.00  0.00    +0.000 OA
ATOM     15  N   UNL     1      -9.502  52.380  51.737  0.00  0.00    +0.000 N 
ATOM     16  C   UNL     1      -7.581  53.158  53.523  0.00  0.00    +0.000 A 
ATOM     17  C   UNL     1      -9.237  53.522  51.170  0.00  0.00    +0.000 C 
ATOM     18  C   UNL     1      -7.520  54.300  52.739  0.00  0.00    +0.000 A 
ATOM     19  C   UNL     1      -6.760  52.967  54.640  0.00  0.00    +0.000 A 
ATOM     20  N   UNL     1      -8.370  54.479  51.647  0.00  0.00    +0.000 N 
ATOM     21  C   UNL     1      -6.614  55.297  53.117  0.00  0.00    +0.000 A 
ATOM     22  C   UNL     1      -5.853  53.960  54.992  0.00  0.00    +0.000 A 
ATOM     23  C   UNL     1      -5.780  55.126  54.230  0.00  0.00    +0.000 A 
ATOM     24  H   UNL     1     -10.193  51.795  51.347  0.00  0.00    +0.000 HD
ATOM     25  H   UNL     1      -8.349  55.350  51.188  0.00  0.00    +0.000 HD
ENDBRANCH   1  17
BRANCH   3  26
ATOM     26  O   UNL     1      -9.067  51.757  48.872  0.00  0.00    +0.000 OA
ATOM     27  H   UNL     1      -8.888  51.340  49.691  0.00  0.00    +0.000 HD
ENDBRANCH   3  26
BRANCH   5  28
ATOM     28  N   UNL     1     -12.124  56.445  48.348  0.00  0.00    +0.000 N 
ATOM     29  H   UNL     1     -11.522  57.172  48.067  0.00  0.00    +0.000 HD
BRANCH  28  30
ATOM     30  C   UNL     1     -13.547  56.757  48.531  0.00  0.00    +0.000 C 
ATOM     31  C   UNL     1     -14.052  58.165  48.187  0.00  0.00    +0.000 C 
ATOM     32  C   UNL     1     -14.185  56.294  49.846  0.00  0.00    +0.000 C 
ATOM     33  C   UNL     1     -13.936  59.191  49.308  0.00  0.00    +0.000 C 
ATOM     34  C   UNL     1     -13.968  57.253  51.007  0.00  0.00    +0.000 C 
ATOM     35  C   UNL     1     -14.368  58.689  50.685  0.00  0.00    +0.000 C 
ENDBRANCH  28  30
ENDBRANCH   5  28
TORSDOF 4
ENDMDL
MODEL 9
REMARK VINA RESULT:      -8.0      4.542      7.342
REMARK  Name = 
REMARK  4 active torsions:
REMARK  status: ('A' for Active; 'I' for Inactive)
REMARK    1  A    between atoms: C_6  and  C_10
REMARK    2  A    between atoms: C_14  and  O_18
REMARK    3  A    between atoms: N_17  and  N_20
REMARK    4  A    between atoms: N_20  and  C_23
REMARK                            x       y       z     vdW  Elec       q    Type
REMARK                         _______ _______ _______ _____ _____    ______ ____
ROOT
ATOM      1  C   UNL     1     -11.014  54.847  48.240  0.00  0.00    +0.000 A 
ATOM      2  C   UNL     1     -10.507  54.453  49.591  0.00  0.00    +0.000 A 
ATOM      3  C   UNL     1     -12.068  55.670  48.127  0.00  0.00    +0.000 A 
ATOM      4  O   UNL     1      -9.403  53.900  49.651  0.00  0.00    +0.000 OA
ATOM      5  N   UNL     1     -11.312  54.735  50.714  0.00  0.00    +0.000 N 
ATOM      6  C   UNL     1     -12.731  56.192  49.331  0.00  0.00    +0.000 A 
ATOM      7  C   UNL     1     -12.357  55.718  50.602  0.00  0.00    +0.000 A 
ATOM      8  C   UNL     1     -13.686  57.218  49.229  0.00  0.00    +0.000 A 
ATOM      9  C   UNL     1     -12.967  56.288  51.734  0.00  0.00    +0.000 A 
ATOM     10  C   UNL     1     -14.252  57.795  50.355  0.00  0.00    +0.000 A 
ATOM     11  C   UNL     1     -13.892  57.329  51.617  0.00  0.00    +0.000 A 
ENDROOT
BRANCH   1  17
ATOM     12  S   UNL     1      -8.057  54.189  45.764  0.00  0.00    +0.000 S 
ATOM     13  O   UNL     1      -7.056  53.326  46.358  0.00  0.00    +0.000 OA
ATOM     14  O   UNL     1      -7.662  55.336  44.969  0.00  0.00    +0.000 OA
ATOM     15  N   UNL     1      -9.020  54.724  46.946  0.00  0.00    +0.000 N 
ATOM     16  C   UNL     1      -9.000  53.161  44.700  0.00  0.00    +0.000 A 
ATOM     17  C   UNL     1     -10.273  54.371  47.007  0.00  0.00    +0.000 C 
ATOM     18  C   UNL     1     -10.340  52.972  44.995  0.00  0.00    +0.000 A 
ATOM     19  C   UNL     1      -8.376  52.552  43.605  0.00  0.00    +0.000 A 
ATOM     20  N   UNL     1     -10.946  53.614  46.075  0.00  0.00    +0.000 N 
ATOM     21  C   UNL     1     -11.084  52.157  44.133  0.00  0.00    +0.000 A 
ATOM     22  C   UNL     1      -9.125  51.732  42.768  0.00  0.00    +0.000 A 
ATOM     23  C   UNL     1     -10.480  51.535  43.032  0.00  0.00    +0.000 A 
ATOM     24  H   UNL     1      -8.653  55.327  47.633  0.00  0.00    +0.000 HD
ATOM     25  H   UNL     1     -11.921  53.519  46.178  0.00  0.00    +0.000 HD
ENDBRANCH   1  17
BRANCH   3  26
ATOM     26  O   UNL     1     -12.575  56.137  46.927  0.00  0.00    +0.000 OA
ATOM     27  H   UNL     1     -12.266  56.946  46.570  0.00  0.00    +0.000 HD
ENDBRANCH   3  26
BRANCH   5  28
ATOM     28  N   UNL     1     -10.685  54.533  51.972  0.00  0.00    +0.000 N 
ATOM     29  H   UNL     1     -10.060  55.221  52.298  0.00  0.00    +0.000 HD
BRANCH  28  30
ATOM     30  C   UNL     1     -10.917  53.355  52.816  0.00  0.00    +0.000 C 
ATOM     31  C   UNL     1      -9.729  52.719  53.552  0.00  0.00    +0.000 C 
ATOM     32  C   UNL     1     -11.798  52.249  52.221  0.00  0.00    +0.000 C 
ATOM     33  C   UNL     1      -8.944  51.687  52.753  0.00  0.00    +0.000 C 
ATOM     34  C   UNL     1     -11.047  51.283  51.318  0.00  0.00    +0.000 C 
ATOM     35  C   UNL     1      -9.801  50.692  51.971  0.00  0.00    +0.000 C 
ENDBRANCH  28  30
ENDBRANCH   5  28
TORSDOF 4
ENDMDL
