MODEL 1
REMARK VINA RESULT:      -8.3      0.000      0.000
REMARK  Name = 
REMARK  5 active torsions:
REMARK  status: ('A' for Active; 'I' for Inactive)
REMARK    1  A    between atoms: C_6  and  C_10
REMARK    2  A    between atoms: C_14  and  O_18
REMARK    3  A    between atoms: N_17  and  N_20
REMARK    4  A    between atoms: N_20  and  C_23
REMARK    5  A    between atoms: C_23  and  C_26
REMARK                            x       y       z     vdW  Elec       q    Type
REMARK                         _______ _______ _______ _____ _____    ______ ____
ROOT
ATOM      1  C   UNL     1     -11.353  53.908  51.573  0.00  0.00    +0.000 A 
ATOM      2  C   UNL     1     -10.391  54.074  52.701  0.00  0.00    +0.000 A 
ATOM      3  C   UNL     1     -11.496  52.714  50.972  0.00  0.00    +0.000 A 
ATOM      4  O   UNL     1     -10.273  55.206  53.183  0.00  0.00    +0.000 OA
ATOM      5  N   UNL     1      -9.705  52.945  53.158  0.00  0.00    +0.000 N 
ATOM      6  C   UNL     1     -10.747  51.543  51.449  0.00  0.00    +0.000 A 
ATOM      7  C   UNL     1      -9.860  51.671  52.533  0.00  0.00    +0.000 A 
ATOM      8  C   UNL     1     -10.918  50.287  50.840  0.00  0.00    +0.000 A 
ATOM      9  C   UNL     1      -9.153  50.541  52.975  0.00  0.00    +0.000 A 
ATOM     10  C   UNL     1     -10.221  49.170  51.297  0.00  0.00    +0.000 A 
ATOM     11  C   UNL     1      -9.337  49.298  52.362  0.00  0.00    +0.000 A 
ENDROOT
BRANCH   1  17
ATOM     12  S   UNL     1     -12.880  56.789  49.379  0.00  0.00    +0.000 S 
ATOM     13  O   UNL     1     -13.904  56.311  48.471  0.00  0.00    +0.000 OA
ATOM     14  O   UNL     1     -11.906  57.769  48.939  0.00  0.00    +0.000 OA
ATOM     15  N   UNL     1     -12.071  55.492  49.926  0.00  0.00    +0.000 N 
ATOM     16  C   UNL     1     -13.731  57.524  50.726  0.00  0.00    +0.000 A 
ATOM     17  C   UNL     1     -12.196  55.099  51.160  0.00  0.00    +0.000 C 
ATOM     18  C   UNL     1     -13.686  56.875  51.952  0.00  0.00    +0.000 A 
ATOM     19  C   UNL     1     -14.408  58.731  50.553  0.00  0.00    +0.000 A 
ATOM     20  N   UNL     1     -13.017  55.665  52.111  0.00  0.00    +0.000 N 
ATOM     21  C   UNL     1     -14.414  57.425  53.017  0.00  0.00    +0.000 A 
ATOM     22  C   UNL     1     -15.096  59.286  51.631  0.00  0.00    +0.000 A 
ATOM     23  C   UNL     1     -15.107  58.628  52.859  0.00  0.00    +0.000 A 
ATOM     24  H   UNL     1     -11.478  54.997  49.316  0.00  0.00    +0.000 HD
ATOM     25  H   UNL     1     -13.139  55.180  52.959  0.00  0.00    +0.000 HD
ENDBRANCH   1  17
BRANCH   3  26
ATOM     26  O   UNL     1     -12.353  52.475  49.912  0.00  0.00    +0.000 OA
ATOM     27  H   UNL     1     -12.022  52.457  49.036  0.00  0.00    +0.000 HD
ENDBRANCH   3  26
BRANCH   5  28
ATOM     28  N   UNL     1      -8.740  53.069  54.223  0.00  0.00    +0.000 N 
ATOM     29  H   UNL     1      -8.961  52.910  55.170  0.00  0.00    +0.000 HD
BRANCH  28  30
ATOM     30  C   UNL     1      -7.400  53.457  53.770  0.00  0.00    +0.000 C 
BRANCH  30  31
ATOM     31  C   UNL     1      -6.989  54.748  54.410  0.00  0.00    +0.000 C 
ATOM     32  C   UNL     1      -6.760  56.007  53.618  0.00  0.00    +0.000 C 
ATOM     33  C   UNL     1      -5.586  55.258  54.186  0.00  0.00    +0.000 C 
ENDBRANCH  30  31
ENDBRANCH  28  30
ENDBRANCH   5  28
TORSDOF 5
ENDMDL
MODEL 2
REMARK VINA RESULT:      -8.2      2.226      2.837
REMARK  Name = 
REMARK  5 active torsions:
REMARK  status: ('A' for Active; 'I' for Inactive)
REMARK    1  A    between atoms: C_6  and  C_10
REMARK    2  A    between atoms: C_14  and  O_18
REMARK    3  A    between atoms: N_17  and  N_20
REMARK    4  A    between atoms: N_20  and  C_23
REMARK    5  A    between atoms: C_23  and  C_26
REMARK                            x       y       z     vdW  Elec       q    Type
REMARK                         _______ _______ _______ _____ _____    ______ ____
ROOT
ATOM      1  C   UNL     1     -10.060  54.544  52.186  0.00  0.00    +0.000 A 
ATOM      2  C   UNL     1      -8.699  55.113  51.963  0.00  0.00    +0.000 A 
ATOM      3  C   UNL     1     -10.223  53.449  52.947  0.00  0.00    +0.000 A 
ATOM      4  O   UNL     1      -8.610  56.095  51.219  0.00  0.00    +0.000 OA
ATOM      5  N   UNL     1      -7.618  54.522  52.623  0.00  0.00    +0.000 N 
ATOM      6  C   UNL     1      -9.072  52.824  53.613  0.00  0.00    +0.000 A 
ATOM      7  C   UNL     1      -7.784  53.365  53.443  0.00  0.00    +0.000 A 
ATOM      8  C   UNL     1      -9.245  51.695  54.434  0.00  0.00    +0.000 A 
ATOM      9  C   UNL     1      -6.696  52.754  54.088  0.00  0.00    +0.000 A 
ATOM     10  C   UNL     1      -8.159  51.107  55.080  0.00  0.00    +0.000 A 
ATOM     11  C   UNL     1      -6.884  51.635  54.904  0.00  0.00    +0.000 A 
ENDROOT
BRANCH   1  17
ATOM     12  S   UNL     1     -12.534  56.015  49.509  0.00  0.00    +0.000 S 
ATOM     13  O   UNL     1     -13.422  55.007  48.963  0.00  0.00    +0.000 OA
ATOM     14  O   UNL     1     -11.936  57.014  48.645  0.00  0.00    +0.000 OA
ATOM     15  N   UNL     1     -11.335  55.238  50.279  0.00  0.00    +0.000 N 
ATOM     16  C   UNL     1     -13.476  56.902  50.694  0.00  0.00    +0.000 A 
ATOM     17  C   UNL     1     -11.251  55.260  51.578  0.00  0.00    +0.000 C 
ATOM     18  C   UNL     1     -13.155  56.734  52.034  0.00  0.00    +0.000 A 
ATOM     19  C   UNL     1     -14.498  57.756  50.280  0.00  0.00    +0.000 A 
ATOM     20  N   UNL     1     -12.141  55.870  52.437  0.00  0.00    +0.000 N 
ATOM     21  C   UNL     1     -13.942  57.392  52.988  0.00  0.00    +0.000 A 
ATOM     22  C   UNL     1     -15.249  58.433  51.239  0.00  0.00    +0.000 A 
ATOM     23  C   UNL     1     -14.977  58.243  52.593  0.00  0.00    +0.000 A 
ATOM     24  H   UNL     1     -10.661  54.745  49.758  0.00  0.00    +0.000 HD
ATOM     25  H   UNL     1     -12.052  55.682  53.398  0.00  0.00    +0.000 HD
ENDBRANCH   1  17
BRANCH   3  26
ATOM     26  O   UNL     1     -11.445  52.848  53.194  0.00  0.00    +0.000 OA
ATOM     27  H   UNL     1     -11.991  52.584  52.480  0.00  0.00    +0.000 HD
ENDBRANCH   3  26
BRANCH   5  28
ATOM     28  N   UNL     1      -6.281  55.019  52.408  0.00  0.00    +0.000 N 
ATOM     29  H   UNL     1      -5.915  55.799  52.884  0.00  0.00    +0.000 HD
BRANCH  28  30
ATOM     30  C   UNL     1      -5.517  54.258  51.414  0.00  0.00    +0.000 C 
BRANCH  30  31
ATOM     31  C   UNL     1      -5.482  54.997  50.111  0.00  0.00    +0.000 C 
ATOM     32  C   UNL     1      -6.253  54.542  48.901  0.00  0.00    +0.000 C 
ATOM     33  C   UNL     1      -4.758  54.376  48.940  0.00  0.00    +0.000 C 
ENDBRANCH  30  31
ENDBRANCH  28  30
ENDBRANCH   5  28
TORSDOF 5
ENDMDL
MODEL 3
REMARK VINA RESULT:      -8.1      4.003      4.899
REMARK  Name = 
REMARK  5 active torsions:
REMARK  status: ('A' for Active; 'I' for Inactive)
REMARK    1  A    between atoms: C_6  and  C_10
REMARK    2  A    between atoms: C_14  and  O_18
REMARK    3  A    between atoms: N_17  and  N_20
REMARK    4  A    between atoms: N_20  and  C_23
REMARK    5  A    between atoms: C_23  and  C_26
REMARK                            x       y       z     vdW  Elec       q    Type
REMARK                         _______ _______ _______ _____ _____    ______ ____
ROOT
ATOM      1  C   UNL     1     -10.686  55.623  48.126  0.00  0.00    +0.000 A 
ATOM      2  C   UNL     1      -9.223  55.716  48.398  0.00  0.00    +0.000 A 
ATOM      3  C   UNL     1     -11.136  54.987  47.032  0.00  0.00    +0.000 A 
ATOM      4  O   UNL     1      -8.870  56.350  49.398  0.00  0.00    +0.000 OA
ATOM      5  N   UNL     1      -8.345  55.063  47.527  0.00  0.00    +0.000 N 
ATOM      6  C   UNL     1     -10.197  54.329  46.111  0.00  0.00    +0.000 A 
ATOM      7  C   UNL     1      -8.814  54.375  46.368  0.00  0.00    +0.000 A 
ATOM      8  C   UNL     1     -10.668  53.638  44.980  0.00  0.00    +0.000 A 
ATOM      9  C   UNL     1      -7.933  53.740  45.478  0.00  0.00    +0.000 A 
ATOM     10  C   UNL     1      -9.783  53.000  44.113  0.00  0.00    +0.000 A 
ATOM     11  C   UNL     1      -8.416  53.054  44.360  0.00  0.00    +0.000 A 
ENDROOT
BRANCH   1  17
ATOM     12  S   UNL     1     -13.040  55.951  51.257  0.00  0.00    +0.000 S 
ATOM     13  O   UNL     1     -12.301  56.184  52.483  0.00  0.00    +0.000 OA
ATOM     14  O   UNL     1     -14.168  55.042  51.239  0.00  0.00    +0.000 OA
ATOM     15  N   UNL     1     -11.976  55.450  50.138  0.00  0.00    +0.000 N 
ATOM     16  C   UNL     1     -13.671  57.513  50.767  0.00  0.00    +0.000 A 
ATOM     17  C   UNL     1     -11.648  56.216  49.138  0.00  0.00    +0.000 C 
ATOM     18  C   UNL     1     -13.127  58.105  49.635  0.00  0.00    +0.000 A 
ATOM     19  C   UNL     1     -14.698  58.115  51.494  0.00  0.00    +0.000 A 
ATOM     20  N   UNL     1     -12.093  57.503  48.923  0.00  0.00    +0.000 N 
ATOM     21  C   UNL     1     -13.583  59.380  49.273  0.00  0.00    +0.000 A 
ATOM     22  C   UNL     1     -15.168  59.366  51.100  0.00  0.00    +0.000 A 
ATOM     23  C   UNL     1     -14.605  60.002  49.997  0.00  0.00    +0.000 A 
ATOM     24  H   UNL     1     -11.575  54.555  50.215  0.00  0.00    +0.000 HD
ATOM     25  H   UNL     1     -11.651  58.030  48.220  0.00  0.00    +0.000 HD
ENDBRANCH   1  17
BRANCH   3  26
ATOM     26  O   UNL     1     -12.473  54.867  46.695  0.00  0.00    +0.000 OA
ATOM     27  H   UNL     1     -12.913  55.572  46.264  0.00  0.00    +0.000 HD
ENDBRANCH   3  26
BRANCH   5  28
ATOM     28  N   UNL     1      -6.920  55.157  47.734  0.00  0.00    +0.000 N 
ATOM     29  H   UNL     1      -6.352  55.813  47.270  0.00  0.00    +0.000 HD
BRANCH  28  30
ATOM     30  C   UNL     1      -6.394  54.184  48.697  0.00  0.00    +0.000 C 
BRANCH  30  31
ATOM     31  C   UNL     1      -5.652  54.888  49.793  0.00  0.00    +0.000 C 
ATOM     32  C   UNL     1      -4.753  54.162  50.757  0.00  0.00    +0.000 C 
ATOM     33  C   UNL     1      -6.089  54.673  51.222  0.00  0.00    +0.000 C 
ENDBRANCH  30  31
ENDBRANCH  28  30
ENDBRANCH   5  28
TORSDOF 5
ENDMDL
MODEL 4
REMARK VINA RESULT:      -8.1      2.922      7.350
REMARK  Name = 
REMARK  5 active torsions:
REMARK  status: ('A' for Active; 'I' for Inactive)
REMARK    1  A    between atoms: C_6  and  C_10
REMARK    2  A    between atoms: C_14  and  O_18
REMARK    3  A    between atoms: N_17  and  N_20
REMARK    4  A    between atoms: N_20  and  C_23
REMARK    5  A    between atoms: C_23  and  C_26
REMARK                            x       y       z     vdW  Elec       q    Type
REMARK                         _______ _______ _______ _____ _____    ______ ____
ROOT
ATOM      1  C   UNL     1     -10.469  54.916  50.512  0.00  0.00    +0.000 A 
ATOM      2  C   UNL     1     -11.605  55.103  51.461  0.00  0.00    +0.000 A 
ATOM      3  C   UNL     1     -10.603  55.246  49.217  0.00  0.00    +0.000 A 
ATOM      4  O   UNL     1     -11.433  54.742  52.630  0.00  0.00    +0.000 OA
ATOM      5  N   UNL     1     -12.778  55.694  50.981  0.00  0.00    +0.000 N 
ATOM      6  C   UNL     1     -11.853  55.842  48.723  0.00  0.00    +0.000 A 
ATOM      7  C   UNL     1     -12.925  56.058  49.609  0.00  0.00    +0.000 A 
ATOM      8  C   UNL     1     -11.985  56.214  47.373  0.00  0.00    +0.000 A 
ATOM      9  C   UNL     1     -14.112  56.628  49.119  0.00  0.00    +0.000 A 
ATOM     10  C   UNL     1     -13.163  56.793  46.903  0.00  0.00    +0.000 A 
ATOM     11  C   UNL     1     -14.226  56.997  47.775  0.00  0.00    +0.000 A 
ENDROOT
BRANCH   1  17
ATOM     12  S   UNL     1      -7.260  52.692  50.964  0.00  0.00    +0.000 S 
ATOM     13  O   UNL     1      -6.230  53.003  49.992  0.00  0.00    +0.000 OA
ATOM     14  O   UNL     1      -7.546  51.316  51.318  0.00  0.00    +0.000 OA
ATOM     15  N   UNL     1      -8.639  53.371  50.443  0.00  0.00    +0.000 N 
ATOM     16  C   UNL     1      -6.776  53.484  52.453  0.00  0.00    +0.000 A 
ATOM     17  C   UNL     1      -9.151  54.399  51.056  0.00  0.00    +0.000 C 
ATOM     18  C   UNL     1      -7.524  54.573  52.880  0.00  0.00    +0.000 A 
ATOM     19  C   UNL     1      -5.684  53.008  53.177  0.00  0.00    +0.000 A 
ATOM     20  N   UNL     1      -8.605  55.048  52.143  0.00  0.00    +0.000 N 
ATOM     21  C   UNL     1      -7.107  55.248  54.035  0.00  0.00    +0.000 A 
ATOM     22  C   UNL     1      -5.303  53.666  54.345  0.00  0.00    +0.000 A 
ATOM     23  C   UNL     1      -6.008  54.791  54.769  0.00  0.00    +0.000 A 
ATOM     24  H   UNL     1      -9.095  53.001  49.653  0.00  0.00    +0.000 HD
ATOM     25  H   UNL     1      -9.007  55.903  52.415  0.00  0.00    +0.000 HD
ENDBRANCH   1  17
BRANCH   3  26
ATOM     26  O   UNL     1      -9.608  55.093  48.267  0.00  0.00    +0.000 OA
ATOM     27  H   UNL     1      -9.709  55.473  47.417  0.00  0.00    +0.000 HD
ENDBRANCH   3  26
BRANCH   5  28
ATOM     28  N   UNL     1     -13.912  55.861  51.856  0.00  0.00    +0.000 N 
ATOM     29  H   UNL     1     -14.641  55.201  51.922  0.00  0.00    +0.000 HD
BRANCH  28  30
ATOM     30  C   UNL     1     -13.884  57.102  52.637  0.00  0.00    +0.000 C 
BRANCH  30  31
ATOM     31  C   UNL     1     -15.097  57.930  52.338  0.00  0.00    +0.000 C 
ATOM     32  C   UNL     1     -15.022  59.233  51.588  0.00  0.00    +0.000 C 
ATOM     33  C   UNL     1     -15.283  59.238  53.069  0.00  0.00    +0.000 C 
ENDBRANCH  30  31
ENDBRANCH  28  30
ENDBRANCH   5  28
TORSDOF 5
ENDMDL
MODEL 5
REMARK VINA RESULT:      -8.0      3.391      7.622
REMARK  Name = 
REMARK  5 active torsions:
REMARK  status: ('A' for Active; 'I' for Inactive)
REMARK    1  A    between atoms: C_6  and  C_10
REMARK    2  A    between atoms: C_14  and  O_18
REMARK    3  A    between atoms: N_17  and  N_20
REMARK    4  A    between atoms: N_20  and  C_23
REMARK    5  A    between atoms: C_23  and  C_26
REMARK                            x       y       z     vdW  Elec       q    Type
REMARK                         _______ _______ _______ _____ _____    ______ ____
ROOT
ATOM      1  C   UNL     1     -10.265  55.192  50.812  0.00  0.00    +0.000 A 
ATOM      2  C   UNL     1      -9.835  55.134  49.385  0.00  0.00    +0.000 A 
ATOM      3  C   UNL     1     -11.478  55.669  51.137  0.00  0.00    +0.000 A 
ATOM      4  O   UNL     1      -8.692  54.725  49.153  0.00  0.00    +0.000 OA
ATOM      5  N   UNL     1     -10.750  55.518  48.401  0.00  0.00    +0.000 N 
ATOM      6  C   UNL     1     -12.419  56.094  50.091  0.00  0.00    +0.000 A 
ATOM      7  C   UNL     1     -12.045  56.016  48.737  0.00  0.00    +0.000 A 
ATOM      8  C   UNL     1     -13.700  56.567  50.429  0.00  0.00    +0.000 A 
ATOM      9  C   UNL     1     -12.958  56.426  47.752  0.00  0.00    +0.000 A 
ATOM     10  C   UNL     1     -14.602  56.957  49.441  0.00  0.00    +0.000 A 
ATOM     11  C   UNL     1     -14.229  56.890  48.103  0.00  0.00    +0.000 A 
ENDROOT
BRANCH   1  17
ATOM     12  S   UNL     1      -7.086  54.774  53.085  0.00  0.00    +0.000 S 
ATOM     13  O   UNL     1      -7.053  55.733  54.173  0.00  0.00    +0.000 OA
ATOM     14  O   UNL     1      -5.878  54.454  52.350  0.00  0.00    +0.000 OA
ATOM     15  N   UNL     1      -8.198  55.287  52.020  0.00  0.00    +0.000 N 
ATOM     16  C   UNL     1      -7.639  53.264  53.785  0.00  0.00    +0.000 A 
ATOM     17  C   UNL     1      -9.325  54.653  51.873  0.00  0.00    +0.000 C 
ATOM     18  C   UNL     1      -8.906  52.816  53.439  0.00  0.00    +0.000 A 
ATOM     19  C   UNL     1      -6.810  52.544  54.646  0.00  0.00    +0.000 A 
ATOM     20  N   UNL     1      -9.731  53.548  52.590  0.00  0.00    +0.000 N 
ATOM     21  C   UNL     1      -9.379  51.642  54.043  0.00  0.00    +0.000 A 
ATOM     22  C   UNL     1      -7.279  51.359  55.209  0.00  0.00    +0.000 A 
ATOM     23  C   UNL     1      -8.566  50.913  54.915  0.00  0.00    +0.000 A 
ATOM     24  H   UNL     1      -8.018  56.089  51.477  0.00  0.00    +0.000 HD
ATOM     25  H   UNL     1     -10.666  53.257  52.493  0.00  0.00    +0.000 HD
ENDBRANCH   1  17
BRANCH   3  26
ATOM     26  O   UNL     1     -11.952  55.771  52.434  0.00  0.00    +0.000 OA
ATOM     27  H   UNL     1     -11.381  56.052  53.121  0.00  0.00    +0.000 HD
ENDBRANCH   3  26
BRANCH   5  28
ATOM     28  N   UNL     1     -10.363  55.510  47.011  0.00  0.00    +0.000 N 
ATOM     29  H   UNL     1     -10.194  56.333  46.496  0.00  0.00    +0.000 HD
BRANCH  28  30
ATOM     30  C   UNL     1     -10.244  54.167  46.434  0.00  0.00    +0.000 C 
BRANCH  30  31
ATOM     31  C   UNL     1     -11.240  53.988  45.329  0.00  0.00    +0.000 C 
ATOM     32  C   UNL     1     -12.039  52.724  45.157  0.00  0.00    +0.000 C 
ATOM     33  C   UNL     1     -10.917  53.034  44.205  0.00  0.00    +0.000 C 
ENDBRANCH  30  31
ENDBRANCH  28  30
ENDBRANCH   5  28
TORSDOF 5
ENDMDL
MODEL 6
REMARK VINA RESULT:      -8.0      2.903      7.317
REMARK  Name = 
REMARK  5 active torsions:
REMARK  status: ('A' for Active; 'I' for Inactive)
REMARK    1  A    between atoms: C_6  and  C_10
REMARK    2  A    between atoms: C_14  and  O_18
REMARK    3  A    between atoms: N_17  and  N_20
REMARK    4  A    between atoms: N_20  and  C_23
REMARK    5  A    between atoms: C_23  and  C_26
REMARK                            x       y       z     vdW  Elec       q    Type
REMARK                         _______ _______ _______ _____ _____    ______ ____
ROOT
ATOM      1  C   UNL     1     -10.127  54.860  50.887  0.00  0.00    +0.000 A 
ATOM      2  C   UNL     1     -11.439  55.398  51.350  0.00  0.00    +0.000 A 
ATOM      3  C   UNL     1      -9.853  54.773  49.574  0.00  0.00    +0.000 A 
ATOM      4  O   UNL     1     -11.647  55.413  52.568  0.00  0.00    +0.000 OA
ATOM      5  N   UNL     1     -12.337  55.873  50.389  0.00  0.00    +0.000 N 
ATOM      6  C   UNL     1     -10.820  55.252  48.576  0.00  0.00    +0.000 A 
ATOM      7  C   UNL     1     -12.049  55.794  48.993  0.00  0.00    +0.000 A 
ATOM      8  C   UNL     1     -10.523  55.188  47.202  0.00  0.00    +0.000 A 
ATOM      9  C   UNL     1     -12.960  56.248  48.025  0.00  0.00    +0.000 A 
ATOM     10  C   UNL     1     -11.429  55.655  46.252  0.00  0.00    +0.000 A 
ATOM     11  C   UNL     1     -12.649  56.181  46.663  0.00  0.00    +0.000 A 
ENDROOT
BRANCH   1  17
ATOM     12  S   UNL     1      -6.817  54.832  53.005  0.00  0.00    +0.000 S 
ATOM     13  O   UNL     1      -6.800  55.867  54.020  0.00  0.00    +0.000 OA
ATOM     14  O   UNL     1      -5.627  54.543  52.229  0.00  0.00    +0.000 OA
ATOM     15  N   UNL     1      -8.015  55.187  51.970  0.00  0.00    +0.000 N 
ATOM     16  C   UNL     1      -7.223  53.342  53.839  0.00  0.00    +0.000 A 
ATOM     17  C   UNL     1      -9.099  54.467  51.929  0.00  0.00    +0.000 C 
ATOM     18  C   UNL     1      -8.469  52.783  53.594  0.00  0.00    +0.000 A 
ATOM     19  C   UNL     1      -6.302  52.747  54.700  0.00  0.00    +0.000 A 
ATOM     20  N   UNL     1      -9.387  53.392  52.742  0.00  0.00    +0.000 N 
ATOM     21  C   UNL     1      -8.824  51.627  54.303  0.00  0.00    +0.000 A 
ATOM     22  C   UNL     1      -6.653  51.576  55.369  0.00  0.00    +0.000 A 
ATOM     23  C   UNL     1      -7.917  51.022  55.178  0.00  0.00    +0.000 A 
ATOM     24  H   UNL     1      -7.921  55.957  51.363  0.00  0.00    +0.000 HD
ATOM     25  H   UNL     1     -10.302  53.031  52.718  0.00  0.00    +0.000 HD
ENDBRANCH   1  17
BRANCH   3  26
ATOM     26  O   UNL     1      -8.670  54.274  49.057  0.00  0.00    +0.000 OA
ATOM     27  H   UNL     1      -7.921  54.831  48.979  0.00  0.00    +0.000 HD
ENDBRANCH   3  26
BRANCH   5  28
ATOM     28  N   UNL     1     -13.630  56.369  50.792  0.00  0.00    +0.000 N 
ATOM     29  H   UNL     1     -14.430  55.797  50.851  0.00  0.00    +0.000 HD
BRANCH  28  30
ATOM     30  C   UNL     1     -13.647  57.802  51.105  0.00  0.00    +0.000 C 
BRANCH  30  31
ATOM     31  C   UNL     1     -14.071  58.017  52.526  0.00  0.00    +0.000 C 
ATOM     32  C   UNL     1     -15.394  57.533  53.057  0.00  0.00    +0.000 C 
ATOM     33  C   UNL     1     -15.179  59.002  52.813  0.00  0.00    +0.000 C 
ENDBRANCH  30  31
ENDBRANCH  28  30
ENDBRANCH   5  28
TORSDOF 5
ENDMDL
MODEL 7
REMARK VINA RESULT:      -8.0      3.339      7.681
REMARK  Name = 
REMARK  5 active torsions:
REMARK  status: ('A' for Active; 'I' for Inactive)
REMARK    1  A    between atoms: C_6  and  C_10
REMARK    2  A    between atoms: C_14  and  O_18
REMARK    3  A    between atoms: N_17  and  N_20
REMARK    4  A    between atoms: N_20  and  C_23
REMARK    5  A    between atoms: C_23  and  C_26
REMARK                            x       y       z     vdW  Elec       q    Type
REMARK                         _______ _______ _______ _____ _____    ______ ____
ROOT
ATOM      1  C   UNL     1      -9.703  55.173  50.901  0.00  0.00    +0.000 A 
ATOM      2  C   UNL     1     -10.927  55.312  51.742  0.00  0.00    +0.000 A 
ATOM      3  C   UNL     1      -9.774  55.319  49.567  0.00  0.00    +0.000 A 
ATOM      4  O   UNL     1     -10.805  55.125  52.957  0.00  0.00    +0.000 OA
ATOM      5  N   UNL     1     -12.124  55.668  51.114  0.00  0.00    +0.000 N 
ATOM      6  C   UNL     1     -11.047  55.667  48.920  0.00  0.00    +0.000 A 
ATOM      7  C   UNL     1     -12.206  55.836  49.699  0.00  0.00    +0.000 A 
ATOM      8  C   UNL     1     -11.117  55.848  47.527  0.00  0.00    +0.000 A 
ATOM      9  C   UNL     1     -13.414  56.169  49.063  0.00  0.00    +0.000 A 
ATOM     10  C   UNL     1     -12.318  56.193  46.910  0.00  0.00    +0.000 A 
ATOM     11  C   UNL     1     -13.466  56.350  47.678  0.00  0.00    +0.000 A 
ENDROOT
BRANCH   1  17
ATOM     12  S   UNL     1      -6.785  55.390  53.525  0.00  0.00    +0.000 S 
ATOM     13  O   UNL     1      -7.052  54.609  54.717  0.00  0.00    +0.000 OA
ATOM     14  O   UNL     1      -6.185  56.706  53.627  0.00  0.00    +0.000 OA
ATOM     15  N   UNL     1      -8.185  55.540  52.718  0.00  0.00    +0.000 N 
ATOM     16  C   UNL     1      -5.682  54.431  52.554  0.00  0.00    +0.000 A 
ATOM     17  C   UNL     1      -8.377  54.917  51.592  0.00  0.00    +0.000 C 
ATOM     18  C   UNL     1      -6.166  53.883  51.374  0.00  0.00    +0.000 A 
ATOM     19  C   UNL     1      -4.360  54.253  52.963  0.00  0.00    +0.000 A 
ATOM     20  N   UNL     1      -7.491  54.056  50.981  0.00  0.00    +0.000 N 
ATOM     21  C   UNL     1      -5.309  53.065  50.626  0.00  0.00    +0.000 A 
ATOM     22  C   UNL     1      -3.508  53.469  52.189  0.00  0.00    +0.000 A 
ATOM     23  C   UNL     1      -3.984  52.867  51.026  0.00  0.00    +0.000 A 
ATOM     24  H   UNL     1      -8.899  56.110  53.085  0.00  0.00    +0.000 HD
ATOM     25  H   UNL     1      -7.815  53.530  50.216  0.00  0.00    +0.000 HD
ENDBRANCH   1  17
BRANCH   3  26
ATOM     26  O   UNL     1      -8.693  55.192  48.712  0.00  0.00    +0.000 OA
ATOM     27  H   UNL     1      -8.832  54.999  47.806  0.00  0.00    +0.000 HD
ENDBRANCH   3  26
BRANCH   5  28
ATOM     28  N   UNL     1     -13.339  55.779  51.885  0.00  0.00    +0.000 N 
ATOM     29  H   UNL     1     -14.004  55.055  51.946  0.00  0.00    +0.000 HD
BRANCH  28  30
ATOM     30  C   UNL     1     -13.494  57.068  52.568  0.00  0.00    +0.000 C 
BRANCH  30  31
ATOM     31  C   UNL     1     -14.826  57.672  52.238  0.00  0.00    +0.000 C 
ATOM     32  C   UNL     1     -14.986  58.775  51.227  0.00  0.00    +0.000 C 
ATOM     33  C   UNL     1     -15.119  59.081  52.694  0.00  0.00    +0.000 C 
ENDBRANCH  30  31
ENDBRANCH  28  30
ENDBRANCH   5  28
TORSDOF 5
ENDMDL
MODEL 8
REMARK VINA RESULT:      -7.7      3.095      7.646
REMARK  Name = 
REMARK  5 active torsions:
REMARK  status: ('A' for Active; 'I' for Inactive)
REMARK    1  A    between atoms: C_6  and  C_10
REMARK    2  A    between atoms: C_14  and  O_18
REMARK    3  A    between atoms: N_17  and  N_20
REMARK    4  A    between atoms: N_20  and  C_23
REMARK    5  A    between atoms: C_23  and  C_26
REMARK                            x       y       z     vdW  Elec       q    Type
REMARK                         _______ _______ _______ _____ _____    ______ ____
ROOT
ATOM      1  C   UNL     1      -9.814  53.965  50.636  0.00  0.00    +0.000 A 
ATOM      2  C   UNL     1     -11.033  54.293  51.430  0.00  0.00    +0.000 A 
ATOM      3  C   UNL     1      -9.754  54.263  49.327  0.00  0.00    +0.000 A 
ATOM      4  O   UNL     1     -11.044  53.955  52.619  0.00  0.00    +0.000 OA
ATOM      5  N   UNL     1     -12.072  54.979  50.794  0.00  0.00    +0.000 N 
ATOM      6  C   UNL     1     -10.868  54.961  48.668  0.00  0.00    +0.000 A 
ATOM      7  C   UNL     1     -12.013  55.309  49.407  0.00  0.00    +0.000 A 
ATOM      8  C   UNL     1     -10.795  55.299  47.305  0.00  0.00    +0.000 A 
ATOM      9  C   UNL     1     -13.067  55.976  48.761  0.00  0.00    +0.000 A 
ATOM     10  C   UNL     1     -11.841  55.974  46.678  0.00  0.00    +0.000 A 
ATOM     11  C   UNL     1     -12.977  56.309  47.406  0.00  0.00    +0.000 A 
ENDROOT
BRANCH   1  17
ATOM     12  S   UNL     1      -7.710  51.540  52.903  0.00  0.00    +0.000 S 
ATOM     13  O   UNL     1      -7.407  50.286  52.240  0.00  0.00    +0.000 OA
ATOM     14  O   UNL     1      -8.098  51.559  54.299  0.00  0.00    +0.000 OA
ATOM     15  N   UNL     1      -8.881  52.269  52.048  0.00  0.00    +0.000 N 
ATOM     16  C   UNL     1      -6.253  52.511  52.793  0.00  0.00    +0.000 A 
ATOM     17  C   UNL     1      -8.632  53.340  51.351  0.00  0.00    +0.000 C 
ATOM     18  C   UNL     1      -6.275  53.621  51.961  0.00  0.00    +0.000 A 
ATOM     19  C   UNL     1      -5.125  52.170  53.541  0.00  0.00    +0.000 A 
ATOM     20  N   UNL     1      -7.402  53.945  51.209  0.00  0.00    +0.000 N 
ATOM     21  C   UNL     1      -5.096  54.365  51.821  0.00  0.00    +0.000 A 
ATOM     22  C   UNL     1      -3.971  52.942  53.421  0.00  0.00    +0.000 A 
ATOM     23  C   UNL     1      -3.953  54.033  52.555  0.00  0.00    +0.000 A 
ATOM     24  H   UNL     1      -9.793  51.898  52.058  0.00  0.00    +0.000 HD
ATOM     25  H   UNL     1      -7.314  54.654  50.533  0.00  0.00    +0.000 HD
ENDBRANCH   1  17
BRANCH   3  26
ATOM     26  O   UNL     1      -8.670  53.982  48.513  0.00  0.00    +0.000 OA
ATOM     27  H   UNL     1      -7.799  54.073  48.845  0.00  0.00    +0.000 HD
ENDBRANCH   3  26
BRANCH   5  28
ATOM     28  N   UNL     1     -13.284  55.284  51.517  0.00  0.00    +0.000 N 
ATOM     29  H   UNL     1     -14.046  54.663  51.572  0.00  0.00    +0.000 HD
BRANCH  28  30
ATOM     30  C   UNL     1     -13.277  56.603  52.159  0.00  0.00    +0.000 C 
BRANCH  30  31
ATOM     31  C   UNL     1     -14.643  57.215  52.100  0.00  0.00    +0.000 C 
ATOM     32  C   UNL     1     -14.861  58.691  51.901  0.00  0.00    +0.000 C 
ATOM     33  C   UNL     1     -15.106  58.075  53.251  0.00  0.00    +0.000 C 
ENDBRANCH  30  31
ENDBRANCH  28  30
ENDBRANCH   5  28
TORSDOF 5
ENDMDL
MODEL 9
REMARK VINA RESULT:      -7.6      3.343      7.650
REMARK  Name = 
REMARK  5 active torsions:
REMARK  status: ('A' for Active; 'I' for Inactive)
REMARK    1  A    between atoms: C_6  and  C_10
REMARK    2  A    between atoms: C_14  and  O_18
REMARK    3  A    between atoms: N_17  and  N_20
REMARK    4  A    between atoms: N_20  and  C_23
REMARK    5  A    between atoms: C_23  and  C_26
REMARK                            x       y       z     vdW  Elec       q    Type
REMARK                         _______ _______ _______ _____ _____    ______ ____
ROOT
ATOM      1  C   UNL     1     -10.403  54.875  50.498  0.00  0.00    +0.000 A 
ATOM      2  C   UNL     1      -9.927  54.971  49.088  0.00  0.00    +0.000 A 
ATOM      3  C   UNL     1     -11.612  55.350  50.842  0.00  0.00    +0.000 A 
ATOM      4  O   UNL     1      -8.790  54.555  48.843  0.00  0.00    +0.000 OA
ATOM      5  N   UNL     1     -10.798  55.500  48.130  0.00  0.00    +0.000 N 
ATOM      6  C   UNL     1     -12.505  55.927  49.826  0.00  0.00    +0.000 A 
ATOM      7  C   UNL     1     -12.088  55.997  48.484  0.00  0.00    +0.000 A 
ATOM      8  C   UNL     1     -13.782  56.399  50.179  0.00  0.00    +0.000 A 
ATOM      9  C   UNL     1     -12.954  56.551  47.527  0.00  0.00    +0.000 A 
ATOM     10  C   UNL     1     -14.638  56.933  49.218  0.00  0.00    +0.000 A 
ATOM     11  C   UNL     1     -14.223  57.012  47.893  0.00  0.00    +0.000 A 
ENDROOT
BRANCH   1  17
ATOM     12  S   UNL     1      -9.107  52.230  53.100  0.00  0.00    +0.000 S 
ATOM     13  O   UNL     1      -8.536  51.059  52.463  0.00  0.00    +0.000 OA
ATOM     14  O   UNL     1      -9.956  52.091  54.267  0.00  0.00    +0.000 OA
ATOM     15  N   UNL     1      -9.942  53.040  51.968  0.00  0.00    +0.000 N 
ATOM     16  C   UNL     1      -7.748  53.218  53.606  0.00  0.00    +0.000 A 
ATOM     17  C   UNL     1      -9.515  54.183  51.514  0.00  0.00    +0.000 C 
ATOM     18  C   UNL     1      -7.532  54.414  52.935  0.00  0.00    +0.000 A 
ATOM     19  C   UNL     1      -6.936  52.806  54.662  0.00  0.00    +0.000 A 
ATOM     20  N   UNL     1      -8.341  54.810  51.874  0.00  0.00    +0.000 N 
ATOM     21  C   UNL     1      -6.413  55.178  53.292  0.00  0.00    +0.000 A 
ATOM     22  C   UNL     1      -5.849  53.595  55.032  0.00  0.00    +0.000 A 
ATOM     23  C   UNL     1      -5.582  54.775  54.341  0.00  0.00    +0.000 A 
ATOM     24  H   UNL     1     -10.782  52.663  51.621  0.00  0.00    +0.000 HD
ATOM     25  H   UNL     1      -8.057  55.590  51.345  0.00  0.00    +0.000 HD
ENDBRANCH   1  17
BRANCH   3  26
ATOM     26  O   UNL     1     -12.126  55.315  52.126  0.00  0.00    +0.000 OA
ATOM     27  H   UNL     1     -11.734  55.831  52.802  0.00  0.00    +0.000 HD
ENDBRANCH   3  26
BRANCH   5  28
ATOM     28  N   UNL     1     -10.364  55.643  46.761  0.00  0.00    +0.000 N 
ATOM     29  H   UNL     1     -10.241  56.518  46.326  0.00  0.00    +0.000 HD
BRANCH  28  30
ATOM     30  C   UNL     1     -10.125  54.368  46.076  0.00  0.00    +0.000 C 
BRANCH  30  31
ATOM     31  C   UNL     1     -11.361  53.931  45.350  0.00  0.00    +0.000 C 
ATOM     32  C   UNL     1     -11.983  52.575  45.556  0.00  0.00    +0.000 C 
ATOM     33  C   UNL     1     -11.241  52.871  44.282  0.00  0.00    +0.000 C 
ENDBRANCH  30  31
ENDBRANCH  28  30
ENDBRANCH   5  28
TORSDOF 5
ENDMDL
