MODEL 1
REMARK VINA RESULT:      -7.9      0.000      0.000
REMARK  Name = 
REMARK  9 active torsions:
REMARK  status: ('A' for Active; 'I' for Inactive)
REMARK    1  A    between atoms: C_6  and  C_10
REMARK    2  A    between atoms: C_14  and  O_18
REMARK    3  A    between atoms: N_17  and  N_20
REMARK    4  A    between atoms: N_20  and  C_23
REMARK    5  A    between atoms: C_23  and  C_26
REMARK    6  A    between atoms: C_23  and  C_27
REMARK    7  A    between atoms: C_26  and  C_29
REMARK    8  A    between atoms: C_27  and  C_30
REMARK    9  A    between atoms: C_29  and  C_31
REMARK                            x       y       z     vdW  Elec       q    Type
REMARK                         _______ _______ _______ _____ _____    ______ ____
ROOT
ATOM      1  C   UNL     1      -9.945  55.286  50.374  0.00  0.00    +0.000 A 
ATOM      2  C   UNL     1      -9.469  55.346  48.956  0.00  0.00    +0.000 A 
ATOM      3  C   UNL     1     -11.179  55.737  50.670  0.00  0.00    +0.000 A 
ATOM      4  O   UNL     1      -8.255  55.233  48.748  0.00  0.00    +0.000 OA
ATOM      5  N   UNL     1     -10.454  55.447  47.955  0.00  0.00    +0.000 N 
ATOM      6  C   UNL     1     -12.089  56.195  49.613  0.00  0.00    +0.000 A 
ATOM      7  C   UNL     1     -11.748  55.994  48.265  0.00  0.00    +0.000 A 
ATOM      8  C   UNL     1     -13.328  56.771  49.947  0.00  0.00    +0.000 A 
ATOM      9  C   UNL     1     -12.682  56.376  47.282  0.00  0.00    +0.000 A 
ATOM     10  C   UNL     1     -14.239  57.139  48.963  0.00  0.00    +0.000 A 
ATOM     11  C   UNL     1     -13.916  56.938  47.629  0.00  0.00    +0.000 A 
ENDROOT
BRANCH   1  17
ATOM     12  S   UNL     1      -6.961  54.843  52.899  0.00  0.00    +0.000 S 
ATOM     13  O   UNL     1      -7.084  55.812  53.969  0.00  0.00    +0.000 OA
ATOM     14  O   UNL     1      -5.670  54.563  52.309  0.00  0.00    +0.000 OA
ATOM     15  N   UNL     1      -7.954  55.302  51.706  0.00  0.00    +0.000 N 
ATOM     16  C   UNL     1      -7.549  53.328  53.545  0.00  0.00    +0.000 A 
ATOM     17  C   UNL     1      -9.053  54.657  51.438  0.00  0.00    +0.000 C 
ATOM     18  C   UNL     1      -8.748  52.831  53.057  0.00  0.00    +0.000 A 
ATOM     19  C   UNL     1      -6.807  52.675  54.533  0.00  0.00    +0.000 A 
ATOM     20  N   UNL     1      -9.465  53.504  52.072  0.00  0.00    +0.000 N 
ATOM     21  C   UNL     1      -9.234  51.646  53.619  0.00  0.00    +0.000 A 
ATOM     22  C   UNL     1      -7.294  51.488  55.066  0.00  0.00    +0.000 A 
ATOM     23  C   UNL     1      -8.510  50.977  54.615  0.00  0.00    +0.000 A 
ATOM     24  H   UNL     1      -7.721  56.092  51.169  0.00  0.00    +0.000 HD
ATOM     25  H   UNL     1     -10.334  53.127  51.805  0.00  0.00    +0.000 HD
ENDBRANCH   1  17
BRANCH   3  26
ATOM     26  O   UNL     1     -11.729  55.759  51.939  0.00  0.00    +0.000 OA
ATOM     27  H   UNL     1     -11.792  54.967  52.436  0.00  0.00    +0.000 HD
ENDBRANCH   3  26
BRANCH   5  28
ATOM     28  N   UNL     1     -10.064  55.294  46.584  0.00  0.00    +0.000 N 
ATOM     29  H   UNL     1      -9.784  56.063  46.038  0.00  0.00    +0.000 HD
BRANCH  28  30
ATOM     30  C   UNL     1     -10.106  53.918  46.031  0.00  0.00    +0.000 C 
BRANCH  30  31
ATOM     31  C   UNL     1      -8.890  53.796  45.078  0.00  0.00    +0.000 C 
ATOM     32  C   UNL     1      -7.797  54.826  45.340  0.00  0.00    +0.000 C 
ENDBRANCH  30  31
BRANCH  30  33
ATOM     33  C   UNL     1     -11.427  53.605  45.281  0.00  0.00    +0.000 C 
BRANCH  33  34
ATOM     34  C   UNL     1     -12.154  52.368  45.837  0.00  0.00    +0.000 C 
ATOM     35  C   UNL     1     -12.205  52.347  47.357  0.00  0.00    +0.000 C 
ENDBRANCH  33  34
ENDBRANCH  30  33
ENDBRANCH  28  30
ENDBRANCH   5  28
TORSDOF 7
ENDMDL
MODEL 2
REMARK VINA RESULT:      -7.9      3.632      6.791
REMARK  Name = 
REMARK  9 active torsions:
REMARK  status: ('A' for Active; 'I' for Inactive)
REMARK    1  A    between atoms: C_6  and  C_10
REMARK    2  A    between atoms: C_14  and  O_18
REMARK    3  A    between atoms: N_17  and  N_20
REMARK    4  A    between atoms: N_20  and  C_23
REMARK    5  A    between atoms: C_23  and  C_26
REMARK    6  A    between atoms: C_23  and  C_27
REMARK    7  A    between atoms: C_26  and  C_29
REMARK    8  A    between atoms: C_27  and  C_30
REMARK    9  A    between atoms: C_29  and  C_31
REMARK                            x       y       z     vdW  Elec       q    Type
REMARK                         _______ _______ _______ _____ _____    ______ ____
ROOT
ATOM      1  C   UNL     1     -12.383  54.324  49.636  0.00  0.00    +0.000 A 
ATOM      2  C   UNL     1     -11.674  54.263  48.319  0.00  0.00    +0.000 A 
ATOM      3  C   UNL     1     -12.171  53.347  50.539  0.00  0.00    +0.000 A 
ATOM      4  O   UNL     1     -12.104  54.968  47.398  0.00  0.00    +0.000 OA
ATOM      5  N   UNL     1     -10.516  53.466  48.253  0.00  0.00    +0.000 N 
ATOM      6  C   UNL     1     -11.190  52.285  50.285  0.00  0.00    +0.000 A 
ATOM      7  C   UNL     1     -10.330  52.381  49.179  0.00  0.00    +0.000 A 
ATOM      8  C   UNL     1     -11.064  51.210  51.184  0.00  0.00    +0.000 A 
ATOM      9  C   UNL     1      -9.350  51.383  49.014  0.00  0.00    +0.000 A 
ATOM     10  C   UNL     1     -10.089  50.234  51.006  0.00  0.00    +0.000 A 
ATOM     11  C   UNL     1      -9.229  50.324  49.922  0.00  0.00    +0.000 A 
ENDROOT
BRANCH   1  17
ATOM     12  S   UNL     1     -15.363  56.411  51.133  0.00  0.00    +0.000 S 
ATOM     13  O   UNL     1     -15.234  56.476  52.574  0.00  0.00    +0.000 OA
ATOM     14  O   UNL     1     -16.657  56.193  50.523  0.00  0.00    +0.000 OA
ATOM     15  N   UNL     1     -14.371  55.247  50.604  0.00  0.00    +0.000 N 
ATOM     16  C   UNL     1     -14.781  57.943  50.522  0.00  0.00    +0.000 A 
ATOM     17  C   UNL     1     -13.276  55.519  49.954  0.00  0.00    +0.000 C 
ATOM     18  C   UNL     1     -13.584  57.954  49.821  0.00  0.00    +0.000 A 
ATOM     19  C   UNL     1     -15.523  59.101  50.769  0.00  0.00    +0.000 A 
ATOM     20  N   UNL     1     -12.868  56.784  49.591  0.00  0.00    +0.000 N 
ATOM     21  C   UNL     1     -13.103  59.193  49.383  0.00  0.00    +0.000 A 
ATOM     22  C   UNL     1     -15.040  60.320  50.309  0.00  0.00    +0.000 A 
ATOM     23  C   UNL     1     -13.827  60.368  49.623  0.00  0.00    +0.000 A 
ATOM     24  H   UNL     1     -14.602  54.307  50.779  0.00  0.00    +0.000 HD
ATOM     25  H   UNL     1     -12.001  56.866  49.131  0.00  0.00    +0.000 HD
ENDBRANCH   1  17
BRANCH   3  26
ATOM     26  O   UNL     1     -12.779  53.272  51.779  0.00  0.00    +0.000 OA
ATOM     27  H   UNL     1     -12.889  54.047  52.295  0.00  0.00    +0.000 HD
ENDBRANCH   3  26
BRANCH   5  28
ATOM     28  N   UNL     1      -9.689  53.544  47.085  0.00  0.00    +0.000 N 
ATOM     29  H   UNL     1      -9.685  52.832  46.406  0.00  0.00    +0.000 HD
BRANCH  28  30
ATOM     30  C   UNL     1      -8.840  54.754  46.951  0.00  0.00    +0.000 C 
BRANCH  30  31
ATOM     31  C   UNL     1      -7.875  54.478  45.771  0.00  0.00    +0.000 C 
ATOM     32  C   UNL     1      -8.519  53.728  44.611  0.00  0.00    +0.000 C 
ENDBRANCH  30  31
BRANCH  30  33
ATOM     33  C   UNL     1      -8.049  55.085  48.244  0.00  0.00    +0.000 C 
BRANCH  33  34
ATOM     34  C   UNL     1      -8.679  56.231  49.055  0.00  0.00    +0.000 C 
ATOM     35  C   UNL     1      -9.018  55.828  50.482  0.00  0.00    +0.000 C 
ENDBRANCH  33  34
ENDBRANCH  30  33
ENDBRANCH  28  30
ENDBRANCH   5  28
TORSDOF 7
ENDMDL
MODEL 3
REMARK VINA RESULT:      -7.8      1.506      2.074
REMARK  Name = 
REMARK  9 active torsions:
REMARK  status: ('A' for Active; 'I' for Inactive)
REMARK    1  A    between atoms: C_6  and  C_10
REMARK    2  A    between atoms: C_14  and  O_18
REMARK    3  A    between atoms: N_17  and  N_20
REMARK    4  A    between atoms: N_20  and  C_23
REMARK    5  A    between atoms: C_23  and  C_26
REMARK    6  A    between atoms: C_23  and  C_27
REMARK    7  A    between atoms: C_26  and  C_29
REMARK    8  A    between atoms: C_27  and  C_30
REMARK    9  A    between atoms: C_29  and  C_31
REMARK                            x       y       z     vdW  Elec       q    Type
REMARK                         _______ _______ _______ _____ _____    ______ ____
ROOT
ATOM      1  C   UNL     1     -10.349  55.172  50.530  0.00  0.00    +0.000 A 
ATOM      2  C   UNL     1      -9.790  55.282  49.145  0.00  0.00    +0.000 A 
ATOM      3  C   UNL     1     -11.585  55.648  50.776  0.00  0.00    +0.000 A 
ATOM      4  O   UNL     1      -8.570  55.140  49.001  0.00  0.00    +0.000 OA
ATOM      5  N   UNL     1     -10.712  55.460  48.096  0.00  0.00    +0.000 N 
ATOM      6  C   UNL     1     -12.418  56.183  49.693  0.00  0.00    +0.000 A 
ATOM      7  C   UNL     1     -12.005  56.034  48.358  0.00  0.00    +0.000 A 
ATOM      8  C   UNL     1     -13.657  56.782  49.984  0.00  0.00    +0.000 A 
ATOM      9  C   UNL     1     -12.869  56.490  47.343  0.00  0.00    +0.000 A 
ATOM     10  C   UNL     1     -14.498  57.225  48.968  0.00  0.00    +0.000 A 
ATOM     11  C   UNL     1     -14.104  57.075  47.647  0.00  0.00    +0.000 A 
ENDROOT
BRANCH   1  17
ATOM     12  S   UNL     1      -9.168  52.357  53.011  0.00  0.00    +0.000 S 
ATOM     13  O   UNL     1      -8.609  51.251  52.259  0.00  0.00    +0.000 OA
ATOM     14  O   UNL     1     -10.033  52.108  54.143  0.00  0.00    +0.000 OA
ATOM     15  N   UNL     1      -9.980  53.294  51.972  0.00  0.00    +0.000 N 
ATOM     16  C   UNL     1      -7.807  53.270  53.620  0.00  0.00    +0.000 A 
ATOM     17  C   UNL     1      -9.539  54.466  51.612  0.00  0.00    +0.000 C 
ATOM     18  C   UNL     1      -7.571  54.527  53.084  0.00  0.00    +0.000 A 
ATOM     19  C   UNL     1      -6.995  52.706  54.608  0.00  0.00    +0.000 A 
ATOM     20  N   UNL     1      -8.398  55.063  52.101  0.00  0.00    +0.000 N 
ATOM     21  C   UNL     1      -6.449  55.226  53.542  0.00  0.00    +0.000 A 
ATOM     22  C   UNL     1      -5.896  53.422  55.065  0.00  0.00    +0.000 A 
ATOM     23  C   UNL     1      -5.618  54.678  54.528  0.00  0.00    +0.000 A 
ATOM     24  H   UNL     1     -10.832  52.969  51.600  0.00  0.00    +0.000 HD
ATOM     25  H   UNL     1      -8.147  55.938  51.725  0.00  0.00    +0.000 HD
ENDBRANCH   1  17
BRANCH   3  26
ATOM     26  O   UNL     1     -12.207  55.629  52.012  0.00  0.00    +0.000 OA
ATOM     27  H   UNL     1     -12.817  54.948  52.218  0.00  0.00    +0.000 HD
ENDBRANCH   3  26
BRANCH   5  28
ATOM     28  N   UNL     1     -10.248  55.359  46.744  0.00  0.00    +0.000 N 
ATOM     29  H   UNL     1      -9.918  56.143  46.250  0.00  0.00    +0.000 HD
BRANCH  28  30
ATOM     30  C   UNL     1     -10.292  54.010  46.126  0.00  0.00    +0.000 C 
BRANCH  30  31
ATOM     31  C   UNL     1      -8.933  53.818  45.407  0.00  0.00    +0.000 C 
ATOM     32  C   UNL     1      -7.946  54.956  45.641  0.00  0.00    +0.000 C 
ENDBRANCH  30  31
BRANCH  30  33
ATOM     33  C   UNL     1     -11.470  53.837  45.132  0.00  0.00    +0.000 C 
BRANCH  33  34
ATOM     34  C   UNL     1     -12.145  52.458  45.236  0.00  0.00    +0.000 C 
ATOM     35  C   UNL     1     -12.291  51.979  46.673  0.00  0.00    +0.000 C 
ENDBRANCH  33  34
ENDBRANCH  30  33
ENDBRANCH  28  30
ENDBRANCH   5  28
TORSDOF 7
ENDMDL
MODEL 4
REMARK VINA RESULT:      -7.8      3.500      7.835
REMARK  Name = 
REMARK  9 active torsions:
REMARK  status: ('A' for Active; 'I' for Inactive)
REMARK    1  A    between atoms: C_6  and  C_10
REMARK    2  A    between atoms: C_14  and  O_18
REMARK    3  A    between atoms: N_17  and  N_20
REMARK    4  A    between atoms: N_20  and  C_23
REMARK    5  A    between atoms: C_23  and  C_26
REMARK    6  A    between atoms: C_23  and  C_27
REMARK    7  A    between atoms: C_26  and  C_29
REMARK    8  A    between atoms: C_27  and  C_30
REMARK    9  A    between atoms: C_29  and  C_31
REMARK                            x       y       z     vdW  Elec       q    Type
REMARK                         _______ _______ _______ _____ _____    ______ ____
ROOT
ATOM      1  C   UNL     1     -11.580  54.149  51.149  0.00  0.00    +0.000 A 
ATOM      2  C   UNL     1     -10.612  54.056  52.287  0.00  0.00    +0.000 A 
ATOM      3  C   UNL     1     -11.734  53.089  50.333  0.00  0.00    +0.000 A 
ATOM      4  O   UNL     1     -10.248  55.109  52.824  0.00  0.00    +0.000 OA
ATOM      5  N   UNL     1     -10.250  52.764  52.714  0.00  0.00    +0.000 N 
ATOM      6  C   UNL     1     -11.040  51.823  50.600  0.00  0.00    +0.000 A 
ATOM      7  C   UNL     1     -10.353  51.647  51.813  0.00  0.00    +0.000 A 
ATOM      8  C   UNL     1     -11.119  50.765  49.676  0.00  0.00    +0.000 A 
ATOM      9  C   UNL     1      -9.767  50.392  52.066  0.00  0.00    +0.000 A 
ATOM     10  C   UNL     1     -10.536  49.531  49.945  0.00  0.00    +0.000 A 
ATOM     11  C   UNL     1      -9.863  49.344  51.143  0.00  0.00    +0.000 A 
ENDROOT
BRANCH   1  17
ATOM     12  S   UNL     1     -13.457  57.121  49.384  0.00  0.00    +0.000 S 
ATOM     13  O   UNL     1     -14.584  56.605  48.632  0.00  0.00    +0.000 OA
ATOM     14  O   UNL     1     -12.617  58.157  48.824  0.00  0.00    +0.000 OA
ATOM     15  N   UNL     1     -12.505  55.868  49.760  0.00  0.00    +0.000 N 
ATOM     16  C   UNL     1     -14.118  57.769  50.868  0.00  0.00    +0.000 A 
ATOM     17  C   UNL     1     -12.417  55.411  50.977  0.00  0.00    +0.000 C 
ATOM     18  C   UNL     1     -13.843  57.102  52.052  0.00  0.00    +0.000 A 
ATOM     19  C   UNL     1     -14.908  58.921  50.816  0.00  0.00    +0.000 A 
ATOM     20  N   UNL     1     -13.052  55.957  52.072  0.00  0.00    +0.000 N 
ATOM     21  C   UNL     1     -14.420  57.600  53.225  0.00  0.00    +0.000 A 
ATOM     22  C   UNL     1     -15.457  59.413  51.993  0.00  0.00    +0.000 A 
ATOM     23  C   UNL     1     -15.220  58.750  53.196  0.00  0.00    +0.000 A 
ATOM     24  H   UNL     1     -11.977  55.439  49.050  0.00  0.00    +0.000 HD
ATOM     25  H   UNL     1     -12.937  55.500  52.936  0.00  0.00    +0.000 HD
ENDBRANCH   1  17
BRANCH   3  26
ATOM     26  O   UNL     1     -12.575  53.052  49.235  0.00  0.00    +0.000 OA
ATOM     27  H   UNL     1     -13.386  52.584  49.281  0.00  0.00    +0.000 HD
ENDBRANCH   3  26
BRANCH   5  28
ATOM     28  N   UNL     1      -9.499  52.622  53.927  0.00  0.00    +0.000 N 
ATOM     29  H   UNL     1      -9.940  52.583  54.806  0.00  0.00    +0.000 HD
BRANCH  28  30
ATOM     30  C   UNL     1      -8.024  52.537  53.788  0.00  0.00    +0.000 C 
BRANCH  30  31
ATOM     31  C   UNL     1      -7.540  51.565  54.894  0.00  0.00    +0.000 C 
ATOM     32  C   UNL     1      -8.650  50.706  55.488  0.00  0.00    +0.000 C 
ENDBRANCH  30  31
BRANCH  30  33
ATOM     33  C   UNL     1      -7.322  53.914  53.919  0.00  0.00    +0.000 C 
BRANCH  33  34
ATOM     34  C   UNL     1      -6.131  53.889  54.894  0.00  0.00    +0.000 C 
ATOM     35  C   UNL     1      -5.023  54.853  54.497  0.00  0.00    +0.000 C 
ENDBRANCH  33  34
ENDBRANCH  30  33
ENDBRANCH  28  30
ENDBRANCH   5  28
TORSDOF 7
ENDMDL
MODEL 5
REMARK VINA RESULT:      -7.7      3.172      7.390
REMARK  Name = 
REMARK  9 active torsions:
REMARK  status: ('A' for Active; 'I' for Inactive)
REMARK    1  A    between atoms: C_6  and  C_10
REMARK    2  A    between atoms: C_14  and  O_18
REMARK    3  A    between atoms: N_17  and  N_20
REMARK    4  A    between atoms: N_20  and  C_23
REMARK    5  A    between atoms: C_23  and  C_26
REMARK    6  A    between atoms: C_23  and  C_27
REMARK    7  A    between atoms: C_26  and  C_29
REMARK    8  A    between atoms: C_27  and  C_30
REMARK    9  A    between atoms: C_29  and  C_31
REMARK                            x       y       z     vdW  Elec       q    Type
REMARK                         _______ _______ _______ _____ _____    ______ ____
ROOT
ATOM      1  C   UNL     1      -9.904  54.382  52.176  0.00  0.00    +0.000 A 
ATOM      2  C   UNL     1      -8.497  54.826  51.921  0.00  0.00    +0.000 A 
ATOM      3  C   UNL     1     -10.121  53.334  52.993  0.00  0.00    +0.000 A 
ATOM      4  O   UNL     1      -8.290  55.562  50.949  0.00  0.00    +0.000 OA
ATOM      5  N   UNL     1      -7.524  54.437  52.860  0.00  0.00    +0.000 N 
ATOM      6  C   UNL     1      -9.011  52.688  53.704  0.00  0.00    +0.000 A 
ATOM      7  C   UNL     1      -7.734  53.275  53.683  0.00  0.00    +0.000 A 
ATOM      8  C   UNL     1      -9.237  51.524  54.461  0.00  0.00    +0.000 A 
ATOM      9  C   UNL     1      -6.714  52.669  54.441  0.00  0.00    +0.000 A 
ATOM     10  C   UNL     1      -8.218  50.941  55.206  0.00  0.00    +0.000 A 
ATOM     11  C   UNL     1      -6.957  51.517  55.199  0.00  0.00    +0.000 A 
ENDROOT
BRANCH   1  17
ATOM     12  S   UNL     1     -12.374  55.791  49.458  0.00  0.00    +0.000 S 
ATOM     13  O   UNL     1     -13.189  54.712  48.937  0.00  0.00    +0.000 OA
ATOM     14  O   UNL     1     -11.830  56.793  48.568  0.00  0.00    +0.000 OA
ATOM     15  N   UNL     1     -11.136  55.126  50.261  0.00  0.00    +0.000 N 
ATOM     16  C   UNL     1     -13.376  56.645  50.610  0.00  0.00    +0.000 A 
ATOM     17  C   UNL     1     -11.060  55.162  51.561  0.00  0.00    +0.000 C 
ATOM     18  C   UNL     1     -13.054  56.546  51.955  0.00  0.00    +0.000 A 
ATOM     19  C   UNL     1     -14.468  57.383  50.147  0.00  0.00    +0.000 A 
ATOM     20  N   UNL     1     -11.959  55.803  52.386  0.00  0.00    +0.000 N 
ATOM     21  C   UNL     1     -13.893  57.190  52.871  0.00  0.00    +0.000 A 
ATOM     22  C   UNL     1     -15.279  58.034  51.068  0.00  0.00    +0.000 A 
ATOM     23  C   UNL     1     -14.998  57.932  52.430  0.00  0.00    +0.000 A 
ATOM     24  H   UNL     1     -10.421  54.682  49.753  0.00  0.00    +0.000 HD
ATOM     25  H   UNL     1     -11.814  55.730  53.357  0.00  0.00    +0.000 HD
ENDBRANCH   1  17
BRANCH   3  26
ATOM     26  O   UNL     1     -11.365  52.810  53.293  0.00  0.00    +0.000 OA
ATOM     27  H   UNL     1     -11.630  51.990  52.923  0.00  0.00    +0.000 HD
ENDBRANCH   3  26
BRANCH   5  28
ATOM     28  N   UNL     1      -6.213  55.011  52.777  0.00  0.00    +0.000 N 
ATOM     29  H   UNL     1      -6.030  55.929  53.081  0.00  0.00    +0.000 HD
BRANCH  28  30
ATOM     30  C   UNL     1      -5.147  54.150  52.208  0.00  0.00    +0.000 C 
BRANCH  30  31
ATOM     31  C   UNL     1      -3.829  54.574  52.905  0.00  0.00    +0.000 C 
ATOM     32  C   UNL     1      -4.036  55.231  54.265  0.00  0.00    +0.000 C 
ENDBRANCH  30  31
BRANCH  30  33
ATOM     33  C   UNL     1      -5.020  54.279  50.667  0.00  0.00    +0.000 C 
BRANCH  33  34
ATOM     34  C   UNL     1      -5.740  53.149  49.910  0.00  0.00    +0.000 C 
ATOM     35  C   UNL     1      -6.427  53.632  48.641  0.00  0.00    +0.000 C 
ENDBRANCH  33  34
ENDBRANCH  30  33
ENDBRANCH  28  30
ENDBRANCH   5  28
TORSDOF 7
ENDMDL
MODEL 6
REMARK VINA RESULT:      -7.5      2.870      6.597
REMARK  Name = 
REMARK  9 active torsions:
REMARK  status: ('A' for Active; 'I' for Inactive)
REMARK    1  A    between atoms: C_6  and  C_10
REMARK    2  A    between atoms: C_14  and  O_18
REMARK    3  A    between atoms: N_17  and  N_20
REMARK    4  A    between atoms: N_20  and  C_23
REMARK    5  A    between atoms: C_23  and  C_26
REMARK    6  A    between atoms: C_23  and  C_27
REMARK    7  A    between atoms: C_26  and  C_29
REMARK    8  A    between atoms: C_27  and  C_30
REMARK    9  A    between atoms: C_29  and  C_31
REMARK                            x       y       z     vdW  Elec       q    Type
REMARK                         _______ _______ _______ _____ _____    ______ ____
ROOT
ATOM      1  C   UNL     1     -11.688  54.718  50.546  0.00  0.00    +0.000 A 
ATOM      2  C   UNL     1     -11.681  54.029  49.216  0.00  0.00    +0.000 A 
ATOM      3  C   UNL     1     -10.797  54.339  51.482  0.00  0.00    +0.000 A 
ATOM      4  O   UNL     1     -12.679  54.155  48.495  0.00  0.00    +0.000 OA
ATOM      5  N   UNL     1     -10.501  53.355  48.851  0.00  0.00    +0.000 N 
ATOM      6  C   UNL     1      -9.770  53.334  51.185  0.00  0.00    +0.000 A 
ATOM      7  C   UNL     1      -9.589  52.893  49.864  0.00  0.00    +0.000 A 
ATOM      8  C   UNL     1      -8.923  52.865  52.206  0.00  0.00    +0.000 A 
ATOM      9  C   UNL     1      -8.541  51.987  49.605  0.00  0.00    +0.000 A 
ATOM     10  C   UNL     1      -7.892  51.973  51.932  0.00  0.00    +0.000 A 
ATOM     11  C   UNL     1      -7.699  51.537  50.629  0.00  0.00    +0.000 A 
ENDROOT
BRANCH   1  17
ATOM     12  S   UNL     1     -14.333  57.000  52.353  0.00  0.00    +0.000 S 
ATOM     13  O   UNL     1     -13.722  57.633  53.504  0.00  0.00    +0.000 OA
ATOM     14  O   UNL     1     -15.676  56.467  52.437  0.00  0.00    +0.000 OA
ATOM     15  N   UNL     1     -13.359  55.798  51.880  0.00  0.00    +0.000 N 
ATOM     16  C   UNL     1     -14.360  58.209  51.089  0.00  0.00    +0.000 A 
ATOM     17  C   UNL     1     -12.653  55.873  50.788  0.00  0.00    +0.000 C 
ATOM     18  C   UNL     1     -13.522  58.033  49.998  0.00  0.00    +0.000 A 
ATOM     19  C   UNL     1     -15.206  59.314  51.222  0.00  0.00    +0.000 A 
ATOM     20  N   UNL     1     -12.692  56.922  49.895  0.00  0.00    +0.000 N 
ATOM     21  C   UNL     1     -13.514  59.033  49.020  0.00  0.00    +0.000 A 
ATOM     22  C   UNL     1     -15.200  60.288  50.231  0.00  0.00    +0.000 A 
ATOM     23  C   UNL     1     -14.350  60.152  49.134  0.00  0.00    +0.000 A 
ATOM     24  H   UNL     1     -13.298  54.987  52.433  0.00  0.00    +0.000 HD
ATOM     25  H   UNL     1     -12.083  56.880  49.121  0.00  0.00    +0.000 HD
ENDBRANCH   1  17
BRANCH   3  26
ATOM     26  O   UNL     1     -10.713  54.875  52.755  0.00  0.00    +0.000 OA
ATOM     27  H   UNL     1     -10.644  54.309  53.498  0.00  0.00    +0.000 HD
ENDBRANCH   3  26
BRANCH   5  28
ATOM     28  N   UNL     1     -10.371  52.865  47.511  0.00  0.00    +0.000 N 
ATOM     29  H   UNL     1     -10.624  51.946  47.269  0.00  0.00    +0.000 HD
BRANCH  28  30
ATOM     30  C   UNL     1      -9.835  53.816  46.506  0.00  0.00    +0.000 C 
BRANCH  30  31
ATOM     31  C   UNL     1     -10.929  53.962  45.418  0.00  0.00    +0.000 C 
ATOM     32  C   UNL     1     -10.907  52.855  44.371  0.00  0.00    +0.000 C 
ENDBRANCH  30  31
BRANCH  30  33
ATOM     33  C   UNL     1      -8.495  53.346  45.879  0.00  0.00    +0.000 C 
BRANCH  33  34
ATOM     34  C   UNL     1      -7.331  54.314  46.158  0.00  0.00    +0.000 C 
ATOM     35  C   UNL     1      -7.304  54.807  47.596  0.00  0.00    +0.000 C 
ENDBRANCH  33  34
ENDBRANCH  30  33
ENDBRANCH  28  30
ENDBRANCH   5  28
TORSDOF 7
ENDMDL
MODEL 7
REMARK VINA RESULT:      -7.4      2.882      6.863
REMARK  Name = 
REMARK  9 active torsions:
REMARK  status: ('A' for Active; 'I' for Inactive)
REMARK    1  A    between atoms: C_6  and  C_10
REMARK    2  A    between atoms: C_14  and  O_18
REMARK    3  A    between atoms: N_17  and  N_20
REMARK    4  A    between atoms: N_20  and  C_23
REMARK    5  A    between atoms: C_23  and  C_26
REMARK    6  A    between atoms: C_23  and  C_27
REMARK    7  A    between atoms: C_26  and  C_29
REMARK    8  A    between atoms: C_27  and  C_30
REMARK    9  A    between atoms: C_29  and  C_31
REMARK                            x       y       z     vdW  Elec       q    Type
REMARK                         _______ _______ _______ _____ _____    ______ ____
ROOT
ATOM      1  C   UNL     1     -11.725  54.467  48.274  0.00  0.00    +0.000 A 
ATOM      2  C   UNL     1     -11.784  53.662  49.534  0.00  0.00    +0.000 A 
ATOM      3  C   UNL     1     -12.428  55.613  48.196  0.00  0.00    +0.000 A 
ATOM      4  O   UNL     1     -11.406  52.485  49.487  0.00  0.00    +0.000 OA
ATOM      5  N   UNL     1     -12.193  54.332  50.702  0.00  0.00    +0.000 N 
ATOM      6  C   UNL     1     -13.170  56.124  49.355  0.00  0.00    +0.000 A 
ATOM      7  C   UNL     1     -13.002  55.518  50.612  0.00  0.00    +0.000 A 
ATOM      8  C   UNL     1     -13.993  57.258  49.225  0.00  0.00    +0.000 A 
ATOM      9  C   UNL     1     -13.670  56.086  51.715  0.00  0.00    +0.000 A 
ATOM     10  C   UNL     1     -14.642  57.806  50.326  0.00  0.00    +0.000 A 
ATOM     11  C   UNL     1     -14.476  57.221  51.572  0.00  0.00    +0.000 A 
ENDROOT
BRANCH   1  17
ATOM     12  S   UNL     1      -8.492  54.026  46.077  0.00  0.00    +0.000 S 
ATOM     13  O   UNL     1      -7.522  53.227  46.797  0.00  0.00    +0.000 OA
ATOM     14  O   UNL     1      -8.071  55.192  45.330  0.00  0.00    +0.000 OA
ATOM     15  N   UNL     1      -9.616  54.505  47.138  0.00  0.00    +0.000 N 
ATOM     16  C   UNL     1      -9.251  52.950  44.926  0.00  0.00    +0.000 A 
ATOM     17  C   UNL     1     -10.821  54.011  47.134  0.00  0.00    +0.000 C 
ATOM     18  C   UNL     1     -10.577  52.600  45.135  0.00  0.00    +0.000 A 
ATOM     19  C   UNL     1      -8.503  52.468  43.849  0.00  0.00    +0.000 A 
ATOM     20  N   UNL     1     -11.295  53.097  46.218  0.00  0.00    +0.000 N 
ATOM     21  C   UNL     1     -11.157  51.697  44.238  0.00  0.00    +0.000 A 
ATOM     22  C   UNL     1      -9.101  51.588  42.955  0.00  0.00    +0.000 A 
ATOM     23  C   UNL     1     -10.425  51.196  43.153  0.00  0.00    +0.000 A 
ATOM     24  H   UNL     1      -9.382  55.189  47.805  0.00  0.00    +0.000 HD
ATOM     25  H   UNL     1     -12.216  52.770  46.340  0.00  0.00    +0.000 HD
ENDBRANCH   1  17
BRANCH   3  26
ATOM     26  O   UNL     1     -12.478  56.436  47.085  0.00  0.00    +0.000 OA
ATOM     27  H   UNL     1     -12.884  57.279  47.144  0.00  0.00    +0.000 HD
ENDBRANCH   3  26
BRANCH   5  28
ATOM     28  N   UNL     1     -12.062  53.665  51.964  0.00  0.00    +0.000 N 
ATOM     29  H   UNL     1     -12.840  53.279  52.428  0.00  0.00    +0.000 HD
BRANCH  28  30
ATOM     30  C   UNL     1     -10.695  53.584  52.535  0.00  0.00    +0.000 C 
BRANCH  30  31
ATOM     31  C   UNL     1     -10.776  52.585  53.716  0.00  0.00    +0.000 C 
ATOM     32  C   UNL     1      -9.504  51.769  53.920  0.00  0.00    +0.000 C 
ENDBRANCH  30  31
BRANCH  30  33
ATOM     33  C   UNL     1     -10.155  54.958  53.012  0.00  0.00    +0.000 C 
BRANCH  33  34
ATOM     34  C   UNL     1      -8.643  55.122  52.778  0.00  0.00    +0.000 C 
ATOM     35  C   UNL     1      -7.871  55.385  54.062  0.00  0.00    +0.000 C 
ENDBRANCH  33  34
ENDBRANCH  30  33
ENDBRANCH  28  30
ENDBRANCH   5  28
TORSDOF 7
ENDMDL
MODEL 8
REMARK VINA RESULT:      -7.4      2.808      6.601
REMARK  Name = 
REMARK  9 active torsions:
REMARK  status: ('A' for Active; 'I' for Inactive)
REMARK    1  A    between atoms: C_6  and  C_10
REMARK    2  A    between atoms: C_14  and  O_18
REMARK    3  A    between atoms: N_17  and  N_20
REMARK    4  A    between atoms: N_20  and  C_23
REMARK    5  A    between atoms: C_23  and  C_26
REMARK    6  A    between atoms: C_23  and  C_27
REMARK    7  A    between atoms: C_26  and  C_29
REMARK    8  A    between atoms: C_27  and  C_30
REMARK    9  A    between atoms: C_29  and  C_31
REMARK                            x       y       z     vdW  Elec       q    Type
REMARK                         _______ _______ _______ _____ _____    ______ ____
ROOT
ATOM      1  C   UNL     1     -10.569  55.842  48.314  0.00  0.00    +0.000 A 
ATOM      2  C   UNL     1      -9.139  56.127  48.653  0.00  0.00    +0.000 A 
ATOM      3  C   UNL     1     -10.848  55.089  47.233  0.00  0.00    +0.000 A 
ATOM      4  O   UNL     1      -8.904  57.056  49.435  0.00  0.00    +0.000 OA
ATOM      5  N   UNL     1      -8.170  55.260  48.115  0.00  0.00    +0.000 N 
ATOM      6  C   UNL     1      -9.774  54.472  46.445  0.00  0.00    +0.000 A 
ATOM      7  C   UNL     1      -8.452  54.510  46.919  0.00  0.00    +0.000 A 
ATOM      8  C   UNL     1     -10.076  53.787  45.254  0.00  0.00    +0.000 A 
ATOM      9  C   UNL     1      -7.462  53.839  46.175  0.00  0.00    +0.000 A 
ATOM     10  C   UNL     1      -9.085  53.128  44.533  0.00  0.00    +0.000 A 
ATOM     11  C   UNL     1      -7.778  53.152  44.997  0.00  0.00    +0.000 A 
ENDROOT
BRANCH   1  17
ATOM     12  S   UNL     1     -13.082  55.985  51.337  0.00  0.00    +0.000 S 
ATOM     13  O   UNL     1     -12.347  56.178  52.571  0.00  0.00    +0.000 OA
ATOM     14  O   UNL     1     -14.190  55.055  51.284  0.00  0.00    +0.000 OA
ATOM     15  N   UNL     1     -12.021  55.547  50.198  0.00  0.00    +0.000 N 
ATOM     16  C   UNL     1     -13.730  57.551  50.906  0.00  0.00    +0.000 A 
ATOM     17  C   UNL     1     -11.674  56.351  49.234  0.00  0.00    +0.000 C 
ATOM     18  C   UNL     1     -13.202  58.194  49.797  0.00  0.00    +0.000 A 
ATOM     19  C   UNL     1     -14.741  58.110  51.693  0.00  0.00    +0.000 A 
ATOM     20  N   UNL     1     -12.195  57.611  49.033  0.00  0.00    +0.000 N 
ATOM     21  C   UNL     1     -13.691  59.468  49.493  0.00  0.00    +0.000 A 
ATOM     22  C   UNL     1     -15.230  59.368  51.365  0.00  0.00    +0.000 A 
ATOM     23  C   UNL     1     -14.701  60.051  50.271  0.00  0.00    +0.000 A 
ATOM     24  H   UNL     1     -11.625  54.646  50.234  0.00  0.00    +0.000 HD
ATOM     25  H   UNL     1     -11.827  58.140  48.288  0.00  0.00    +0.000 HD
ENDBRANCH   1  17
BRANCH   3  26
ATOM     26  O   UNL     1     -12.123  54.771  46.799  0.00  0.00    +0.000 OA
ATOM     27  H   UNL     1     -12.248  54.399  45.948  0.00  0.00    +0.000 HD
ENDBRANCH   3  26
BRANCH   5  28
ATOM     28  N   UNL     1      -6.817  55.362  48.577  0.00  0.00    +0.000 N 
ATOM     29  H   UNL     1      -6.134  55.858  48.072  0.00  0.00    +0.000 HD
BRANCH  28  30
ATOM     30  C   UNL     1      -6.500  54.682  49.858  0.00  0.00    +0.000 C 
BRANCH  30  31
ATOM     31  C   UNL     1      -4.955  54.588  49.928  0.00  0.00    +0.000 C 
ATOM     32  C   UNL     1      -4.430  54.074  51.264  0.00  0.00    +0.000 C 
ENDBRANCH  30  31
BRANCH  30  33
ATOM     33  C   UNL     1      -7.143  53.275  49.973  0.00  0.00    +0.000 C 
BRANCH  33  34
ATOM     34  C   UNL     1      -8.314  53.231  50.970  0.00  0.00    +0.000 C 
ATOM     35  C   UNL     1      -8.206  54.291  52.055  0.00  0.00    +0.000 C 
ENDBRANCH  33  34
ENDBRANCH  30  33
ENDBRANCH  28  30
ENDBRANCH   5  28
TORSDOF 7
ENDMDL
MODEL 9
REMARK VINA RESULT:      -7.3      2.842      5.966
REMARK  Name = 
REMARK  9 active torsions:
REMARK  status: ('A' for Active; 'I' for Inactive)
REMARK    1  A    between atoms: C_6  and  C_10
REMARK    2  A    between atoms: C_14  and  O_18
REMARK    3  A    between atoms: N_17  and  N_20
REMARK    4  A    between atoms: N_20  and  C_23
REMARK    5  A    between atoms: C_23  and  C_26
REMARK    6  A    between atoms: C_23  and  C_27
REMARK    7  A    between atoms: C_26  and  C_29
REMARK    8  A    between atoms: C_27  and  C_30
REMARK    9  A    between atoms: C_29  and  C_31
REMARK                            x       y       z     vdW  Elec       q    Type
REMARK                         _______ _______ _______ _____ _____    ______ ____
ROOT
ATOM      1  C   UNL     1     -10.400  54.885  47.560  0.00  0.00    +0.000 A 
ATOM      2  C   UNL     1      -8.920  55.113  47.536  0.00  0.00    +0.000 A 
ATOM      3  C   UNL     1     -10.985  54.279  46.509  0.00  0.00    +0.000 A 
ATOM      4  O   UNL     1      -8.449  55.932  48.334  0.00  0.00    +0.000 OA
ATOM      5  N   UNL     1      -8.165  54.314  46.658  0.00  0.00    +0.000 N 
ATOM      6  C   UNL     1     -10.184  53.760  45.395  0.00  0.00    +0.000 A 
ATOM      7  C   UNL     1      -8.784  53.726  45.499  0.00  0.00    +0.000 A 
ATOM      8  C   UNL     1     -10.818  53.235  44.253  0.00  0.00    +0.000 A 
ATOM      9  C   UNL     1      -8.054  53.148  44.442  0.00  0.00    +0.000 A 
ATOM     10  C   UNL     1     -10.081  52.666  43.219  0.00  0.00    +0.000 A 
ATOM     11  C   UNL     1      -8.698  52.619  43.317  0.00  0.00    +0.000 A 
ENDROOT
BRANCH   1  17
ATOM     12  S   UNL     1     -11.645  54.938  51.291  0.00  0.00    +0.000 S 
ATOM     13  O   UNL     1     -10.595  55.454  52.145  0.00  0.00    +0.000 OA
ATOM     14  O   UNL     1     -12.437  53.801  51.709  0.00  0.00    +0.000 OA
ATOM     15  N   UNL     1     -10.978  54.570  49.863  0.00  0.00    +0.000 N 
ATOM     16  C   UNL     1     -12.766  56.257  51.045  0.00  0.00    +0.000 A 
ATOM     17  C   UNL     1     -11.200  55.282  48.795  0.00  0.00    +0.000 C 
ATOM     18  C   UNL     1     -12.836  56.829  49.783  0.00  0.00    +0.000 A 
ATOM     19  C   UNL     1     -13.541  56.702  52.120  0.00  0.00    +0.000 A 
ATOM     20  N   UNL     1     -12.052  56.364  48.732  0.00  0.00    +0.000 N 
ATOM     21  C   UNL     1     -13.698  57.918  49.613  0.00  0.00    +0.000 A 
ATOM     22  C   UNL     1     -14.406  57.772  51.928  0.00  0.00    +0.000 A 
ATOM     23  C   UNL     1     -14.480  58.385  50.678  0.00  0.00    +0.000 A 
ATOM     24  H   UNL     1     -10.387  53.786  49.800  0.00  0.00    +0.000 HD
ATOM     25  H   UNL     1     -12.109  56.845  47.875  0.00  0.00    +0.000 HD
ENDBRANCH   1  17
BRANCH   3  26
ATOM     26  O   UNL     1     -12.341  54.030  46.396  0.00  0.00    +0.000 OA
ATOM     27  H   UNL     1     -12.940  54.406  47.011  0.00  0.00    +0.000 HD
ENDBRANCH   3  26
BRANCH   5  28
ATOM     28  N   UNL     1      -6.735  54.345  46.752  0.00  0.00    +0.000 N 
ATOM     29  H   UNL     1      -6.188  54.889  46.140  0.00  0.00    +0.000 HD
BRANCH  28  30
ATOM     30  C   UNL     1      -6.121  53.515  47.818  0.00  0.00    +0.000 C 
BRANCH  30  31
ATOM     31  C   UNL     1      -4.647  53.287  47.396  0.00  0.00    +0.000 C 
ATOM     32  C   UNL     1      -3.963  52.147  48.142  0.00  0.00    +0.000 C 
ENDBRANCH  30  31
BRANCH  30  33
ATOM     33  C   UNL     1      -6.849  52.161  48.027  0.00  0.00    +0.000 C 
BRANCH  33  34
ATOM     34  C   UNL     1      -7.563  52.068  49.387  0.00  0.00    +0.000 C 
ATOM     35  C   UNL     1      -7.226  53.228  50.312  0.00  0.00    +0.000 C 
ENDBRANCH  33  34
ENDBRANCH  30  33
ENDBRANCH  28  30
ENDBRANCH   5  28
TORSDOF 7
ENDMDL
