MODEL 1
REMARK VINA RESULT:      -9.2      0.000      0.000
REMARK  Name = 
REMARK  5 active torsions:
REMARK  status: ('A' for Active; 'I' for Inactive)
REMARK    1  A    between atoms: C_6  and  C_10
REMARK    2  A    between atoms: C_14  and  O_18
REMARK    3  A    between atoms: N_17  and  N_20
REMARK    4  A    between atoms: N_20  and  C_23
REMARK    5  A    between atoms: C_23  and  C_26
REMARK                            x       y       z     vdW  Elec       q    Type
REMARK                         _______ _______ _______ _____ _____    ______ ____
ROOT
ATOM      1  C   UNL     1      -9.144  54.379  49.890  0.00  0.00    +0.000 A 
ATOM      2  C   UNL     1     -10.203  55.428  49.990  0.00  0.00    +0.000 A 
ATOM      3  C   UNL     1      -9.032  53.629  48.780  0.00  0.00    +0.000 A 
ATOM      4  O   UNL     1     -10.272  56.066  51.045  0.00  0.00    +0.000 OA
ATOM      5  N   UNL     1     -11.030  55.636  48.885  0.00  0.00    +0.000 N 
ATOM      6  C   UNL     1      -9.916  53.859  47.629  0.00  0.00    +0.000 A 
ATOM      7  C   UNL     1     -10.905  54.856  47.694  0.00  0.00    +0.000 A 
ATOM      8  C   UNL     1      -9.780  53.099  46.455  0.00  0.00    +0.000 A 
ATOM      9  C   UNL     1     -11.740  55.065  46.584  0.00  0.00    +0.000 A 
ATOM     10  C   UNL     1     -10.606  53.324  45.354  0.00  0.00    +0.000 A 
ATOM     11  C   UNL     1     -11.587  54.306  45.420  0.00  0.00    +0.000 A 
ENDROOT
BRANCH   1  17
ATOM     12  S   UNL     1      -7.740  54.118  53.550  0.00  0.00    +0.000 S 
ATOM     13  O   UNL     1      -7.966  52.806  54.126  0.00  0.00    +0.000 OA
ATOM     14  O   UNL     1      -7.931  55.311  54.350  0.00  0.00    +0.000 OA
ATOM     15  N   UNL     1      -8.680  54.245  52.238  0.00  0.00    +0.000 N 
ATOM     16  C   UNL     1      -6.063  54.141  53.034  0.00  0.00    +0.000 A 
ATOM     17  C   UNL     1      -8.171  54.216  51.041  0.00  0.00    +0.000 C 
ATOM     18  C   UNL     1      -5.804  54.117  51.673  0.00  0.00    +0.000 A 
ATOM     19  C   UNL     1      -5.040  54.198  53.985  0.00  0.00    +0.000 A 
ATOM     20  N   UNL     1      -6.835  54.054  50.738  0.00  0.00    +0.000 N 
ATOM     21  C   UNL     1      -4.469  54.072  51.257  0.00  0.00    +0.000 A 
ATOM     22  C   UNL     1      -3.716  54.191  53.554  0.00  0.00    +0.000 A 
ATOM     23  C   UNL     1      -3.430  54.117  52.191  0.00  0.00    +0.000 A 
ATOM     24  H   UNL     1      -9.654  54.344  52.347  0.00  0.00    +0.000 HD
ATOM     25  H   UNL     1      -6.594  53.883  49.799  0.00  0.00    +0.000 HD
ENDBRANCH   1  17
BRANCH   3  26
ATOM     26  O   UNL     1      -8.091  52.630  48.604  0.00  0.00    +0.000 OA
ATOM     27  H   UNL     1      -7.875  52.060  49.316  0.00  0.00    +0.000 HD
ENDBRANCH   3  26
BRANCH   5  28
ATOM     28  N   UNL     1     -12.125  56.564  48.955  0.00  0.00    +0.000 N 
ATOM     29  H   UNL     1     -12.072  57.469  48.570  0.00  0.00    +0.000 HD
BRANCH  28  30
ATOM     30  C   UNL     1     -13.326  56.072  49.640  0.00  0.00    +0.000 C 
BRANCH  30  31
ATOM     31  C   UNL     1     -13.811  57.075  50.659  0.00  0.00    +0.000 A 
ATOM     32  C   UNL     1     -13.692  56.807  52.033  0.00  0.00    +0.000 A 
ATOM     33  C   UNL     1     -14.406  58.275  50.249  0.00  0.00    +0.000 A 
ATOM     34  C   UNL     1     -14.155  57.727  52.976  0.00  0.00    +0.000 A 
ATOM     35  C   UNL     1     -14.866  59.191  51.193  0.00  0.00    +0.000 A 
ATOM     36  C   UNL     1     -14.743  58.916  52.555  0.00  0.00    +0.000 A 
ENDBRANCH  30  31
ENDBRANCH  28  30
ENDBRANCH   5  28
TORSDOF 5
ENDMDL
MODEL 2
REMARK VINA RESULT:      -8.9      3.166      8.589
REMARK  Name = 
REMARK  5 active torsions:
REMARK  status: ('A' for Active; 'I' for Inactive)
REMARK    1  A    between atoms: C_6  and  C_10
REMARK    2  A    between atoms: C_14  and  O_18
REMARK    3  A    between atoms: N_17  and  N_20
REMARK    4  A    between atoms: N_20  and  C_23
REMARK    5  A    between atoms: C_23  and  C_26
REMARK                            x       y       z     vdW  Elec       q    Type
REMARK                         _______ _______ _______ _____ _____    ______ ____
ROOT
ATOM      1  C   UNL     1     -10.124  54.583  52.206  0.00  0.00    +0.000 A 
ATOM      2  C   UNL     1      -8.756  55.148  52.010  0.00  0.00    +0.000 A 
ATOM      3  C   UNL     1     -10.301  53.472  52.942  0.00  0.00    +0.000 A 
ATOM      4  O   UNL     1      -8.654  56.155  51.302  0.00  0.00    +0.000 OA
ATOM      5  N   UNL     1      -7.685  54.522  52.651  0.00  0.00    +0.000 N 
ATOM      6  C   UNL     1      -9.162  52.823  53.605  0.00  0.00    +0.000 A 
ATOM      7  C   UNL     1      -7.868  53.353  53.452  0.00  0.00    +0.000 A 
ATOM      8  C   UNL     1      -9.349  51.681  54.403  0.00  0.00    +0.000 A 
ATOM      9  C   UNL     1      -6.791  52.722  54.094  0.00  0.00    +0.000 A 
ATOM     10  C   UNL     1      -8.272  51.072  55.047  0.00  0.00    +0.000 A 
ATOM     11  C   UNL     1      -6.993  51.591  54.891  0.00  0.00    +0.000 A 
ENDROOT
BRANCH   1  17
ATOM     12  S   UNL     1     -12.575  56.106  49.540  0.00  0.00    +0.000 S 
ATOM     13  O   UNL     1     -13.469  55.105  48.990  0.00  0.00    +0.000 OA
ATOM     14  O   UNL     1     -11.975  57.104  48.678  0.00  0.00    +0.000 OA
ATOM     15  N   UNL     1     -11.379  55.327  50.304  0.00  0.00    +0.000 N 
ATOM     16  C   UNL     1     -13.510  56.991  50.733  0.00  0.00    +0.000 A 
ATOM     17  C   UNL     1     -11.307  55.314  51.603  0.00  0.00    +0.000 C 
ATOM     18  C   UNL     1     -13.205  56.794  52.070  0.00  0.00    +0.000 A 
ATOM     19  C   UNL     1     -14.513  57.872  50.321  0.00  0.00    +0.000 A 
ATOM     20  N   UNL     1     -12.206  55.907  52.465  0.00  0.00    +0.000 N 
ATOM     21  C   UNL     1     -13.988  57.448  53.028  0.00  0.00    +0.000 A 
ATOM     22  C   UNL     1     -15.259  58.546  51.285  0.00  0.00    +0.000 A 
ATOM     23  C   UNL     1     -15.004  58.326  52.638  0.00  0.00    +0.000 A 
ATOM     24  H   UNL     1     -10.695  54.853  49.777  0.00  0.00    +0.000 HD
ATOM     25  H   UNL     1     -12.137  55.689  53.423  0.00  0.00    +0.000 HD
ENDBRANCH   1  17
BRANCH   3  26
ATOM     26  O   UNL     1     -11.528  52.872  53.168  0.00  0.00    +0.000 OA
ATOM     27  H   UNL     1     -11.659  51.973  52.937  0.00  0.00    +0.000 HD
ENDBRANCH   3  26
BRANCH   5  28
ATOM     28  N   UNL     1      -6.337  54.963  52.425  0.00  0.00    +0.000 N 
ATOM     29  H   UNL     1      -5.814  55.430  53.116  0.00  0.00    +0.000 HD
BRANCH  28  30
ATOM     30  C   UNL     1      -5.793  54.673  51.094  0.00  0.00    +0.000 C 
BRANCH  30  31
ATOM     31  C   UNL     1      -5.119  53.322  51.072  0.00  0.00    +0.000 A 
ATOM     32  C   UNL     1      -5.703  52.246  50.383  0.00  0.00    +0.000 A 
ATOM     33  C   UNL     1      -3.913  53.118  51.755  0.00  0.00    +0.000 A 
ATOM     34  C   UNL     1      -5.088  50.993  50.376  0.00  0.00    +0.000 A 
ATOM     35  C   UNL     1      -3.301  51.866  51.744  0.00  0.00    +0.000 A 
ATOM     36  C   UNL     1      -3.889  50.804  51.057  0.00  0.00    +0.000 A 
ENDBRANCH  30  31
ENDBRANCH  28  30
ENDBRANCH   5  28
TORSDOF 5
ENDMDL
MODEL 3
REMARK VINA RESULT:      -8.9      1.704      2.274
REMARK  Name = 
REMARK  5 active torsions:
REMARK  status: ('A' for Active; 'I' for Inactive)
REMARK    1  A    between atoms: C_6  and  C_10
REMARK    2  A    between atoms: C_14  and  O_18
REMARK    3  A    between atoms: N_17  and  N_20
REMARK    4  A    between atoms: N_20  and  C_23
REMARK    5  A    between atoms: C_23  and  C_26
REMARK                            x       y       z     vdW  Elec       q    Type
REMARK                         _______ _______ _______ _____ _____    ______ ____
ROOT
ATOM      1  C   UNL     1      -9.540  54.096  50.101  0.00  0.00    +0.000 A 
ATOM      2  C   UNL     1     -10.524  55.216  50.192  0.00  0.00    +0.000 A 
ATOM      3  C   UNL     1      -9.398  53.408  48.955  0.00  0.00    +0.000 A 
ATOM      4  O   UNL     1     -10.627  55.794  51.279  0.00  0.00    +0.000 OA
ATOM      5  N   UNL     1     -11.246  55.554  49.046  0.00  0.00    +0.000 N 
ATOM      6  C   UNL     1     -10.171  53.774  47.760  0.00  0.00    +0.000 A 
ATOM      7  C   UNL     1     -11.086  54.840  47.819  0.00  0.00    +0.000 A 
ATOM      8  C   UNL     1     -10.001  53.077  46.552  0.00  0.00    +0.000 A 
ATOM      9  C   UNL     1     -11.815  55.179  46.667  0.00  0.00    +0.000 A 
ATOM     10  C   UNL     1     -10.720  53.433  45.411  0.00  0.00    +0.000 A 
ATOM     11  C   UNL     1     -11.629  54.482  45.470  0.00  0.00    +0.000 A 
ENDROOT
BRANCH   1  17
ATOM     12  S   UNL     1      -6.459  54.052  52.539  0.00  0.00    +0.000 S 
ATOM     13  O   UNL     1      -6.378  55.262  53.333  0.00  0.00    +0.000 OA
ATOM     14  O   UNL     1      -5.261  53.463  51.976  0.00  0.00    +0.000 OA
ATOM     15  N   UNL     1      -7.492  54.332  51.323  0.00  0.00    +0.000 N 
ATOM     16  C   UNL     1      -7.157  52.828  53.586  0.00  0.00    +0.000 A 
ATOM     17  C   UNL     1      -8.673  53.789  51.307  0.00  0.00    +0.000 C 
ATOM     18  C   UNL     1      -8.454  52.416  53.325  0.00  0.00    +0.000 A 
ATOM     19  C   UNL     1      -6.402  52.291  54.632  0.00  0.00    +0.000 A 
ATOM     20  N   UNL     1      -9.196  52.966  52.283  0.00  0.00    +0.000 N 
ATOM     21  C   UNL     1      -9.037  51.488  54.195  0.00  0.00    +0.000 A 
ATOM     22  C   UNL     1      -6.983  51.339  55.466  0.00  0.00    +0.000 A 
ATOM     23  C   UNL     1      -8.303  50.945  55.253  0.00  0.00    +0.000 A 
ATOM     24  H   UNL     1      -7.221  54.924  50.584  0.00  0.00    +0.000 HD
ATOM     25  H   UNL     1     -10.156  52.753  52.239  0.00  0.00    +0.000 HD
ENDBRANCH   1  17
BRANCH   3  26
ATOM     26  O   UNL     1      -8.522  52.351  48.783  0.00  0.00    +0.000 OA
ATOM     27  H   UNL     1      -7.829  52.212  49.398  0.00  0.00    +0.000 HD
ENDBRANCH   3  26
BRANCH   5  28
ATOM     28  N   UNL     1     -12.271  56.559  49.097  0.00  0.00    +0.000 N 
ATOM     29  H   UNL     1     -12.129  57.473  48.761  0.00  0.00    +0.000 HD
BRANCH  28  30
ATOM     30  C   UNL     1     -13.545  56.131  49.685  0.00  0.00    +0.000 C 
BRANCH  30  31
ATOM     31  C   UNL     1     -14.021  57.123  50.719  0.00  0.00    +0.000 A 
ATOM     32  C   UNL     1     -13.955  56.813  52.087  0.00  0.00    +0.000 A 
ATOM     33  C   UNL     1     -14.554  58.358  50.326  0.00  0.00    +0.000 A 
ATOM     34  C   UNL     1     -14.409  57.724  53.042  0.00  0.00    +0.000 A 
ATOM     35  C   UNL     1     -15.005  59.265  51.283  0.00  0.00    +0.000 A 
ATOM     36  C   UNL     1     -14.935  58.948  52.639  0.00  0.00    +0.000 A 
ENDBRANCH  30  31
ENDBRANCH  28  30
ENDBRANCH   5  28
TORSDOF 5
ENDMDL
MODEL 4
REMARK VINA RESULT:      -8.9      2.544      7.349
REMARK  Name = 
REMARK  5 active torsions:
REMARK  status: ('A' for Active; 'I' for Inactive)
REMARK    1  A    between atoms: C_6  and  C_10
REMARK    2  A    between atoms: C_14  and  O_18
REMARK    3  A    between atoms: N_17  and  N_20
REMARK    4  A    between atoms: N_20  and  C_23
REMARK    5  A    between atoms: C_23  and  C_26
REMARK                            x       y       z     vdW  Elec       q    Type
REMARK                         _______ _______ _______ _____ _____    ______ ____
ROOT
ATOM      1  C   UNL     1     -11.413  56.011  48.861  0.00  0.00    +0.000 A 
ATOM      2  C   UNL     1     -10.339  55.446  49.732  0.00  0.00    +0.000 A 
ATOM      3  C   UNL     1     -11.511  55.637  47.574  0.00  0.00    +0.000 A 
ATOM      4  O   UNL     1     -10.284  55.848  50.899  0.00  0.00    +0.000 OA
ATOM      5  N   UNL     1      -9.482  54.489  49.186  0.00  0.00    +0.000 N 
ATOM      6  C   UNL     1     -10.596  54.632  47.014  0.00  0.00    +0.000 A 
ATOM      7  C   UNL     1      -9.593  54.071  47.824  0.00  0.00    +0.000 A 
ATOM      8  C   UNL     1     -10.718  54.214  45.678  0.00  0.00    +0.000 A 
ATOM      9  C   UNL     1      -8.729  53.110  47.274  0.00  0.00    +0.000 A 
ATOM     10  C   UNL     1      -9.863  53.249  45.147  0.00  0.00    +0.000 A 
ATOM     11  C   UNL     1      -8.867  52.698  45.945  0.00  0.00    +0.000 A 
ENDROOT
BRANCH   1  17
ATOM     12  S   UNL     1     -13.547  59.253  49.469  0.00  0.00    +0.000 S 
ATOM     13  O   UNL     1     -14.674  59.340  48.560  0.00  0.00    +0.000 OA
ATOM     14  O   UNL     1     -12.766  60.433  49.782  0.00  0.00    +0.000 OA
ATOM     15  N   UNL     1     -12.537  58.128  48.890  0.00  0.00    +0.000 N 
ATOM     16  C   UNL     1     -14.197  58.680  50.996  0.00  0.00    +0.000 A 
ATOM     17  C   UNL     1     -12.415  56.971  49.472  0.00  0.00    +0.000 C 
ATOM     18  C   UNL     1     -13.891  57.386  51.385  0.00  0.00    +0.000 A 
ATOM     19  C   UNL     1     -14.981  59.527  51.783  0.00  0.00    +0.000 A 
ATOM     20  N   UNL     1     -13.112  56.552  50.586  0.00  0.00    +0.000 N 
ATOM     21  C   UNL     1     -14.457  56.903  52.570  0.00  0.00    +0.000 A 
ATOM     22  C   UNL     1     -15.507  59.045  52.979  0.00  0.00    +0.000 A 
ATOM     23  C   UNL     1     -15.253  57.730  53.367  0.00  0.00    +0.000 A 
ATOM     24  H   UNL     1     -12.006  58.323  48.084  0.00  0.00    +0.000 HD
ATOM     25  H   UNL     1     -13.056  55.601  50.833  0.00  0.00    +0.000 HD
ENDBRANCH   1  17
BRANCH   3  26
ATOM     26  O   UNL     1     -12.464  56.115  46.692  0.00  0.00    +0.000 OA
ATOM     27  H   UNL     1     -12.815  56.977  46.804  0.00  0.00    +0.000 HD
ENDBRANCH   3  26
BRANCH   5  28
ATOM     28  N   UNL     1      -8.375  53.979  49.945  0.00  0.00    +0.000 N 
ATOM     29  H   UNL     1      -8.415  53.118  50.420  0.00  0.00    +0.000 HD
BRANCH  28  30
ATOM     30  C   UNL     1      -7.180  54.830  49.966  0.00  0.00    +0.000 C 
BRANCH  30  31
ATOM     31  C   UNL     1      -6.629  54.949  51.367  0.00  0.00    +0.000 A 
ATOM     32  C   UNL     1      -5.469  54.250  51.737  0.00  0.00    +0.000 A 
ATOM     33  C   UNL     1      -7.279  55.741  52.322  0.00  0.00    +0.000 A 
ATOM     34  C   UNL     1      -4.968  54.348  53.037  0.00  0.00    +0.000 A 
ATOM     35  C   UNL     1      -6.776  55.838  53.618  0.00  0.00    +0.000 A 
ATOM     36  C   UNL     1      -5.623  55.139  53.975  0.00  0.00    +0.000 A 
ENDBRANCH  30  31
ENDBRANCH  28  30
ENDBRANCH   5  28
TORSDOF 5
ENDMDL
MODEL 5
REMARK VINA RESULT:      -8.9      2.917      7.684
REMARK  Name = 
REMARK  5 active torsions:
REMARK  status: ('A' for Active; 'I' for Inactive)
REMARK    1  A    between atoms: C_6  and  C_10
REMARK    2  A    between atoms: C_14  and  O_18
REMARK    3  A    between atoms: N_17  and  N_20
REMARK    4  A    between atoms: N_20  and  C_23
REMARK    5  A    between atoms: C_23  and  C_26
REMARK                            x       y       z     vdW  Elec       q    Type
REMARK                         _______ _______ _______ _____ _____    ______ ____
ROOT
ATOM      1  C   UNL     1     -11.159  54.588  50.753  0.00  0.00    +0.000 A 
ATOM      2  C   UNL     1      -9.785  54.957  50.296  0.00  0.00    +0.000 A 
ATOM      3  C   UNL     1     -11.403  53.364  51.252  0.00  0.00    +0.000 A 
ATOM      4  O   UNL     1      -9.628  56.087  49.823  0.00  0.00    +0.000 OA
ATOM      5  N   UNL     1      -8.764  54.017  50.452  0.00  0.00    +0.000 N 
ATOM      6  C   UNL     1     -10.317  52.386  51.403  0.00  0.00    +0.000 A 
ATOM      7  C   UNL     1      -9.012  52.722  51.001  0.00  0.00    +0.000 A 
ATOM      8  C   UNL     1     -10.563  51.117  51.955  0.00  0.00    +0.000 A 
ATOM      9  C   UNL     1      -7.985  51.776  51.154  0.00  0.00    +0.000 A 
ATOM     10  C   UNL     1      -9.532  50.192  52.115  0.00  0.00    +0.000 A 
ATOM     11  C   UNL     1      -8.244  50.521  51.713  0.00  0.00    +0.000 A 
ENDROOT
BRANCH   1  17
ATOM     12  S   UNL     1     -13.653  57.260  49.314  0.00  0.00    +0.000 S 
ATOM     13  O   UNL     1     -14.807  56.644  48.688  0.00  0.00    +0.000 OA
ATOM     14  O   UNL     1     -13.013  58.407  48.701  0.00  0.00    +0.000 OA
ATOM     15  N   UNL     1     -12.530  56.110  49.509  0.00  0.00    +0.000 N 
ATOM     16  C   UNL     1     -14.185  57.790  50.900  0.00  0.00    +0.000 A 
ATOM     17  C   UNL     1     -12.252  55.636  50.688  0.00  0.00    +0.000 C 
ATOM     18  C   UNL     1     -13.713  57.099  52.005  0.00  0.00    +0.000 A 
ATOM     19  C   UNL     1     -15.044  58.885  51.019  0.00  0.00    +0.000 A 
ATOM     20  N   UNL     1     -12.862  56.005  51.869  0.00  0.00    +0.000 N 
ATOM     21  C   UNL     1     -14.183  57.476  53.268  0.00  0.00    +0.000 A 
ATOM     22  C   UNL     1     -15.473  59.273  52.286  0.00  0.00    +0.000 A 
ATOM     23  C   UNL     1     -15.051  58.563  53.409  0.00  0.00    +0.000 A 
ATOM     24  H   UNL     1     -12.050  55.764  48.722  0.00  0.00    +0.000 HD
ATOM     25  H   UNL     1     -12.683  55.459  52.669  0.00  0.00    +0.000 HD
ENDBRANCH   1  17
BRANCH   3  26
ATOM     26  O   UNL     1     -12.643  52.932  51.687  0.00  0.00    +0.000 OA
ATOM     27  H   UNL     1     -13.336  52.798  51.069  0.00  0.00    +0.000 HD
ENDBRANCH   3  26
BRANCH   5  28
ATOM     28  N   UNL     1      -7.445  54.280  49.948  0.00  0.00    +0.000 N 
ATOM     29  H   UNL     1      -7.065  53.783  49.187  0.00  0.00    +0.000 HD
BRANCH  28  30
ATOM     30  C   UNL     1      -6.702  55.337  50.643  0.00  0.00    +0.000 C 
BRANCH  30  31
ATOM     31  C   UNL     1      -6.490  54.981  52.094  0.00  0.00    +0.000 A 
ATOM     32  C   UNL     1      -7.318  55.526  53.089  0.00  0.00    +0.000 A 
ATOM     33  C   UNL     1      -5.453  54.118  52.471  0.00  0.00    +0.000 A 
ATOM     34  C   UNL     1      -7.113  55.208  54.433  0.00  0.00    +0.000 A 
ATOM     35  C   UNL     1      -5.252  53.802  53.813  0.00  0.00    +0.000 A 
ATOM     36  C   UNL     1      -6.080  54.349  54.793  0.00  0.00    +0.000 A 
ENDBRANCH  30  31
ENDBRANCH  28  30
ENDBRANCH   5  28
TORSDOF 5
ENDMDL
MODEL 6
REMARK VINA RESULT:      -8.8      2.106      5.669
REMARK  Name = 
REMARK  5 active torsions:
REMARK  status: ('A' for Active; 'I' for Inactive)
REMARK    1  A    between atoms: C_6  and  C_10
REMARK    2  A    between atoms: C_14  and  O_18
REMARK    3  A    between atoms: N_17  and  N_20
REMARK    4  A    between atoms: N_20  and  C_23
REMARK    5  A    between atoms: C_23  and  C_26
REMARK                            x       y       z     vdW  Elec       q    Type
REMARK                         _______ _______ _______ _____ _____    ______ ____
ROOT
ATOM      1  C   UNL     1     -10.423  55.164  50.959  0.00  0.00    +0.000 A 
ATOM      2  C   UNL     1     -10.125  55.058  49.499  0.00  0.00    +0.000 A 
ATOM      3  C   UNL     1     -11.587  55.691  51.378  0.00  0.00    +0.000 A 
ATOM      4  O   UNL     1      -9.029  54.589  49.176  0.00  0.00    +0.000 OA
ATOM      5  N   UNL     1     -11.105  55.471  48.594  0.00  0.00    +0.000 N 
ATOM      6  C   UNL     1     -12.604  56.126  50.410  0.00  0.00    +0.000 A 
ATOM      7  C   UNL     1     -12.352  56.013  49.032  0.00  0.00    +0.000 A 
ATOM      8  C   UNL     1     -13.834  56.647  50.846  0.00  0.00    +0.000 A 
ATOM      9  C   UNL     1     -13.335  56.431  48.121  0.00  0.00    +0.000 A 
ATOM     10  C   UNL     1     -14.809  57.045  49.931  0.00  0.00    +0.000 A 
ATOM     11  C   UNL     1     -14.558  56.939  48.569  0.00  0.00    +0.000 A 
ENDROOT
BRANCH   1  17
ATOM     12  S   UNL     1      -7.073  54.691  52.955  0.00  0.00    +0.000 S 
ATOM     13  O   UNL     1      -6.923  55.677  54.007  0.00  0.00    +0.000 OA
ATOM     14  O   UNL     1      -5.938  54.316  52.136  0.00  0.00    +0.000 OA
ATOM     15  N   UNL     1      -8.249  55.203  51.967  0.00  0.00    +0.000 N 
ATOM     16  C   UNL     1      -7.613  53.218  53.742  0.00  0.00    +0.000 A 
ATOM     17  C   UNL     1      -9.412  54.621  51.949  0.00  0.00    +0.000 C 
ATOM     18  C   UNL     1      -8.922  52.816  53.534  0.00  0.00    +0.000 A 
ATOM     19  C   UNL     1      -6.727  52.484  54.535  0.00  0.00    +0.000 A 
ATOM     20  N   UNL     1      -9.796  53.562  52.747  0.00  0.00    +0.000 N 
ATOM     21  C   UNL     1      -9.378  51.678  54.209  0.00  0.00    +0.000 A 
ATOM     22  C   UNL     1      -7.183  51.331  55.170  0.00  0.00    +0.000 A 
ATOM     23  C   UNL     1      -8.510  50.934  55.015  0.00  0.00    +0.000 A 
ATOM     24  H   UNL     1      -8.082  55.968  51.370  0.00  0.00    +0.000 HD
ATOM     25  H   UNL     1     -10.749  53.318  52.759  0.00  0.00    +0.000 HD
ENDBRANCH   1  17
BRANCH   3  26
ATOM     26  O   UNL     1     -11.943  55.840  52.707  0.00  0.00    +0.000 OA
ATOM     27  H   UNL     1     -12.224  56.675  53.026  0.00  0.00    +0.000 HD
ENDBRANCH   3  26
BRANCH   5  28
ATOM     28  N   UNL     1     -10.839  55.479  47.182  0.00  0.00    +0.000 N 
ATOM     29  H   UNL     1     -10.284  56.172  46.756  0.00  0.00    +0.000 HD
BRANCH  28  30
ATOM     30  C   UNL     1     -11.452  54.387  46.418  0.00  0.00    +0.000 C 
BRANCH  30  31
ATOM     31  C   UNL     1     -10.491  53.847  45.387  0.00  0.00    +0.000 A 
ATOM     32  C   UNL     1     -10.960  53.070  44.315  0.00  0.00    +0.000 A 
ATOM     33  C   UNL     1      -9.117  54.094  45.497  0.00  0.00    +0.000 A 
ATOM     34  C   UNL     1     -10.070  52.557  43.370  0.00  0.00    +0.000 A 
ATOM     35  C   UNL     1      -8.231  53.582  44.551  0.00  0.00    +0.000 A 
ATOM     36  C   UNL     1      -8.707  52.812  43.490  0.00  0.00    +0.000 A 
ENDBRANCH  30  31
ENDBRANCH  28  30
ENDBRANCH   5  28
TORSDOF 5
ENDMDL
MODEL 7
REMARK VINA RESULT:      -8.8      1.434      1.570
REMARK  Name = 
REMARK  5 active torsions:
REMARK  status: ('A' for Active; 'I' for Inactive)
REMARK    1  A    between atoms: C_6  and  C_10
REMARK    2  A    between atoms: C_14  and  O_18
REMARK    3  A    between atoms: N_17  and  N_20
REMARK    4  A    between atoms: N_20  and  C_23
REMARK    5  A    between atoms: C_23  and  C_26
REMARK                            x       y       z     vdW  Elec       q    Type
REMARK                         _______ _______ _______ _____ _____    ______ ____
ROOT
ATOM      1  C   UNL     1      -9.746  53.806  49.860  0.00  0.00    +0.000 A 
ATOM      2  C   UNL     1     -10.657  54.986  49.959  0.00  0.00    +0.000 A 
ATOM      3  C   UNL     1      -9.642  53.122  48.708  0.00  0.00    +0.000 A 
ATOM      4  O   UNL     1     -10.729  55.558  51.050  0.00  0.00    +0.000 OA
ATOM      5  N   UNL     1     -11.351  55.380  48.813  0.00  0.00    +0.000 N 
ATOM      6  C   UNL     1     -10.385  53.548  47.514  0.00  0.00    +0.000 A 
ATOM      7  C   UNL     1     -11.231  54.669  47.579  0.00  0.00    +0.000 A 
ATOM      8  C   UNL     1     -10.254  52.854  46.299  0.00  0.00    +0.000 A 
ATOM      9  C   UNL     1     -11.932  55.065  46.428  0.00  0.00    +0.000 A 
ATOM     10  C   UNL     1     -10.944  53.265  45.159  0.00  0.00    +0.000 A 
ATOM     11  C   UNL     1     -11.784  54.369  45.225  0.00  0.00    +0.000 A 
ENDROOT
BRANCH   1  17
ATOM     12  S   UNL     1      -8.354  51.784  52.927  0.00  0.00    +0.000 S 
ATOM     13  O   UNL     1      -7.450  50.728  52.516  0.00  0.00    +0.000 OA
ATOM     14  O   UNL     1      -9.324  51.550  53.978  0.00  0.00    +0.000 OA
ATOM     15  N   UNL     1      -9.158  52.280  51.612  0.00  0.00    +0.000 N 
ATOM     16  C   UNL     1      -7.340  53.103  53.486  0.00  0.00    +0.000 A 
ATOM     17  C   UNL     1      -8.906  53.434  51.066  0.00  0.00    +0.000 C 
ATOM     18  C   UNL     1      -7.265  54.240  52.699  0.00  0.00    +0.000 A 
ATOM     19  C   UNL     1      -6.652  52.990  54.697  0.00  0.00    +0.000 A 
ATOM     20  N   UNL     1      -7.951  54.334  51.491  0.00  0.00    +0.000 N 
ATOM     21  C   UNL     1      -6.409  55.269  53.107  0.00  0.00    +0.000 A 
ATOM     22  C   UNL     1      -5.834  54.039  55.111  0.00  0.00    +0.000 A 
ATOM     23  C   UNL     1      -5.704  55.173  54.311  0.00  0.00    +0.000 A 
ATOM     24  H   UNL     1      -9.849  51.699  51.218  0.00  0.00    +0.000 HD
ATOM     25  H   UNL     1      -7.742  55.094  50.901  0.00  0.00    +0.000 HD
ENDBRANCH   1  17
BRANCH   3  26
ATOM     26  O   UNL     1      -8.834  52.013  48.529  0.00  0.00    +0.000 OA
ATOM     27  H   UNL     1      -8.020  52.096  48.071  0.00  0.00    +0.000 HD
ENDBRANCH   3  26
BRANCH   5  28
ATOM     28  N   UNL     1     -12.311  56.447  48.870  0.00  0.00    +0.000 N 
ATOM     29  H   UNL     1     -12.116  57.348  48.525  0.00  0.00    +0.000 HD
BRANCH  28  30
ATOM     30  C   UNL     1     -13.601  56.103  49.479  0.00  0.00    +0.000 C 
BRANCH  30  31
ATOM     31  C   UNL     1     -13.973  57.101  50.549  0.00  0.00    +0.000 A 
ATOM     32  C   UNL     1     -13.928  56.741  51.905  0.00  0.00    +0.000 A 
ATOM     33  C   UNL     1     -14.389  58.393  50.202  0.00  0.00    +0.000 A 
ATOM     34  C   UNL     1     -14.287  57.658  52.894  0.00  0.00    +0.000 A 
ATOM     35  C   UNL     1     -14.745  59.307  51.192  0.00  0.00    +0.000 A 
ATOM     36  C   UNL     1     -14.697  58.939  52.536  0.00  0.00    +0.000 A 
ENDBRANCH  30  31
ENDBRANCH  28  30
ENDBRANCH   5  28
TORSDOF 5
ENDMDL
MODEL 8
REMARK VINA RESULT:      -8.6      3.687      8.092
REMARK  Name = 
REMARK  5 active torsions:
REMARK  status: ('A' for Active; 'I' for Inactive)
REMARK    1  A    between atoms: C_6  and  C_10
REMARK    2  A    between atoms: C_14  and  O_18
REMARK    3  A    between atoms: N_17  and  N_20
REMARK    4  A    between atoms: N_20  and  C_23
REMARK    5  A    between atoms: C_23  and  C_26
REMARK                            x       y       z     vdW  Elec       q    Type
REMARK                         _______ _______ _______ _____ _____    ______ ____
ROOT
ATOM      1  C   UNL     1     -11.519  56.411  48.555  0.00  0.00    +0.000 A 
ATOM      2  C   UNL     1     -11.931  55.814  47.249  0.00  0.00    +0.000 A 
ATOM      3  C   UNL     1     -10.273  56.225  49.024  0.00  0.00    +0.000 A 
ATOM      4  O   UNL     1     -13.096  55.998  46.883  0.00  0.00    +0.000 OA
ATOM      5  N   UNL     1     -10.975  55.107  46.516  0.00  0.00    +0.000 N 
ATOM      6  C   UNL     1      -9.282  55.473  48.241  0.00  0.00    +0.000 A 
ATOM      7  C   UNL     1      -9.644  54.922  46.999  0.00  0.00    +0.000 A 
ATOM      8  C   UNL     1      -7.969  55.305  48.714  0.00  0.00    +0.000 A 
ATOM      9  C   UNL     1      -8.684  54.209  46.262  0.00  0.00    +0.000 A 
ATOM     10  C   UNL     1      -7.021  54.607  47.967  0.00  0.00    +0.000 A 
ATOM     11  C   UNL     1      -7.379  54.057  46.742  0.00  0.00    +0.000 A 
ENDROOT
BRANCH   1  17
ATOM     12  S   UNL     1     -13.739  59.489  49.572  0.00  0.00    +0.000 S 
ATOM     13  O   UNL     1     -14.928  59.596  48.749  0.00  0.00    +0.000 OA
ATOM     14  O   UNL     1     -12.987  60.674  49.931  0.00  0.00    +0.000 OA
ATOM     15  N   UNL     1     -12.725  58.463  48.835  0.00  0.00    +0.000 N 
ATOM     16  C   UNL     1     -14.257  58.764  51.084  0.00  0.00    +0.000 A 
ATOM     17  C   UNL     1     -12.515  57.270  49.308  0.00  0.00    +0.000 C 
ATOM     18  C   UNL     1     -13.871  57.459  51.342  0.00  0.00    +0.000 A 
ATOM     19  C   UNL     1     -15.020  59.506  51.989  0.00  0.00    +0.000 A 
ATOM     20  N   UNL     1     -13.116  56.729  50.426  0.00  0.00    +0.000 N 
ATOM     21  C   UNL     1     -14.334  56.854  52.516  0.00  0.00    +0.000 A 
ATOM     22  C   UNL     1     -15.441  58.904  53.172  0.00  0.00    +0.000 A 
ATOM     23  C   UNL     1     -15.107  57.575  53.431  0.00  0.00    +0.000 A 
ATOM     24  H   UNL     1     -12.259  58.747  48.015  0.00  0.00    +0.000 HD
ATOM     25  H   UNL     1     -13.004  55.765  50.588  0.00  0.00    +0.000 HD
ENDBRANCH   1  17
BRANCH   3  26
ATOM     26  O   UNL     1      -9.808  56.729  50.225  0.00  0.00    +0.000 OA
ATOM     27  H   UNL     1      -9.962  56.259  51.022  0.00  0.00    +0.000 HD
ENDBRANCH   3  26
BRANCH   5  28
ATOM     28  N   UNL     1     -11.337  54.433  45.301  0.00  0.00    +0.000 N 
ATOM     29  H   UNL     1     -11.262  54.863  44.418  0.00  0.00    +0.000 HD
BRANCH  28  30
ATOM     30  C   UNL     1     -11.828  53.060  45.463  0.00  0.00    +0.000 C 
BRANCH  30  31
ATOM     31  C   UNL     1     -10.970  52.087  44.691  0.00  0.00    +0.000 A 
ATOM     32  C   UNL     1     -10.376  52.470  43.477  0.00  0.00    +0.000 A 
ATOM     33  C   UNL     1     -10.772  50.783  45.163  0.00  0.00    +0.000 A 
ATOM     34  C   UNL     1      -9.595  51.566  42.755  0.00  0.00    +0.000 A 
ATOM     35  C   UNL     1      -9.990  49.884  44.440  0.00  0.00    +0.000 A 
ATOM     36  C   UNL     1      -9.405  50.274  43.236  0.00  0.00    +0.000 A 
ENDBRANCH  30  31
ENDBRANCH  28  30
ENDBRANCH   5  28
TORSDOF 5
ENDMDL
MODEL 9
REMARK VINA RESULT:      -8.6      2.056      5.496
REMARK  Name = 
REMARK  5 active torsions:
REMARK  status: ('A' for Active; 'I' for Inactive)
REMARK    1  A    between atoms: C_6  and  C_10
REMARK    2  A    between atoms: C_14  and  O_18
REMARK    3  A    between atoms: N_17  and  N_20
REMARK    4  A    between atoms: N_20  and  C_23
REMARK    5  A    between atoms: C_23  and  C_26
REMARK                            x       y       z     vdW  Elec       q    Type
REMARK                         _______ _______ _______ _____ _____    ______ ____
ROOT
ATOM      1  C   UNL     1     -10.474  54.872  50.588  0.00  0.00    +0.000 A 
ATOM      2  C   UNL     1     -10.305  54.842  49.104  0.00  0.00    +0.000 A 
ATOM      3  C   UNL     1     -11.508  55.530  51.141  0.00  0.00    +0.000 A 
ATOM      4  O   UNL     1      -9.321  54.244  48.656  0.00  0.00    +0.000 OA
ATOM      5  N   UNL     1     -11.274  55.468  48.317  0.00  0.00    +0.000 N 
ATOM      6  C   UNL     1     -12.515  56.188  50.297  0.00  0.00    +0.000 A 
ATOM      7  C   UNL     1     -12.386  56.152  48.897  0.00  0.00    +0.000 A 
ATOM      8  C   UNL     1     -13.614  56.848  50.872  0.00  0.00    +0.000 A 
ATOM      9  C   UNL     1     -13.359  56.783  48.105  0.00  0.00    +0.000 A 
ATOM     10  C   UNL     1     -14.581  57.459  50.074  0.00  0.00    +0.000 A 
ATOM     11  C   UNL     1     -14.452  57.429  48.691  0.00  0.00    +0.000 A 
ENDROOT
BRANCH   1  17
ATOM     12  S   UNL     1      -8.623  51.881  52.338  0.00  0.00    +0.000 S 
ATOM     13  O   UNL     1      -7.689  51.223  51.445  0.00  0.00    +0.000 OA
ATOM     14  O   UNL     1      -9.458  51.101  53.229  0.00  0.00    +0.000 OA
ATOM     15  N   UNL     1      -9.594  52.810  51.434  0.00  0.00    +0.000 N 
ATOM     16  C   UNL     1      -7.658  52.927  53.366  0.00  0.00    +0.000 A 
ATOM     17  C   UNL     1      -9.488  54.106  51.447  0.00  0.00    +0.000 C 
ATOM     18  C   UNL     1      -7.752  54.295  53.167  0.00  0.00    +0.000 A 
ATOM     19  C   UNL     1      -6.842  52.373  54.356  0.00  0.00    +0.000 A 
ATOM     20  N   UNL     1      -8.565  54.831  52.172  0.00  0.00    +0.000 N 
ATOM     21  C   UNL     1      -6.938  55.130  53.941  0.00  0.00    +0.000 A 
ATOM     22  C   UNL     1      -6.066  53.219  55.144  0.00  0.00    +0.000 A 
ATOM     23  C   UNL     1      -6.106  54.597  54.930  0.00  0.00    +0.000 A 
ATOM     24  H   UNL     1     -10.276  52.386  50.864  0.00  0.00    +0.000 HD
ATOM     25  H   UNL     1      -8.475  55.791  51.973  0.00  0.00    +0.000 HD
ENDBRANCH   1  17
BRANCH   3  26
ATOM     26  O   UNL     1     -11.737  55.620  52.502  0.00  0.00    +0.000 OA
ATOM     27  H   UNL     1     -11.413  56.357  52.983  0.00  0.00    +0.000 HD
ENDBRANCH   3  26
BRANCH   5  28
ATOM     28  N   UNL     1     -11.117  55.552  46.892  0.00  0.00    +0.000 N 
ATOM     29  H   UNL     1     -10.653  56.305  46.458  0.00  0.00    +0.000 HD
BRANCH  28  30
ATOM     30  C   UNL     1     -11.694  54.442  46.126  0.00  0.00    +0.000 C 
BRANCH  30  31
ATOM     31  C   UNL     1     -10.659  53.814  45.224  0.00  0.00    +0.000 A 
ATOM     32  C   UNL     1      -9.297  54.115  45.389  0.00  0.00    +0.000 A 
ATOM     33  C   UNL     1     -11.044  52.941  44.199  0.00  0.00    +0.000 A 
ATOM     34  C   UNL     1      -8.340  53.547  44.545  0.00  0.00    +0.000 A 
ATOM     35  C   UNL     1     -10.086  52.375  43.360  0.00  0.00    +0.000 A 
ATOM     36  C   UNL     1      -8.736  52.680  43.531  0.00  0.00    +0.000 A 
ENDBRANCH  30  31
ENDBRANCH  28  30
ENDBRANCH   5  28
TORSDOF 5
ENDMDL
