MODEL 1
REMARK VINA RESULT:      -8.4      0.000      0.000
REMARK  Name = 
REMARK  5 active torsions:
REMARK  status: ('A' for Active; 'I' for Inactive)
REMARK    1  A    between atoms: C_6  and  C_10
REMARK    2  A    between atoms: C_14  and  O_18
REMARK    3  A    between atoms: N_17  and  N_20
REMARK    4  A    between atoms: N_20  and  C_23
REMARK    5  A    between atoms: C_23  and  C_26
REMARK                            x       y       z     vdW  Elec       q    Type
REMARK                         _______ _______ _______ _____ _____    ______ ____
ROOT
ATOM      1  C   UNL     1     -10.111  54.553  52.165  0.00  0.00    +0.000 A 
ATOM      2  C   UNL     1      -8.751  55.132  51.965  0.00  0.00    +0.000 A 
ATOM      3  C   UNL     1     -10.282  53.452  52.916  0.00  0.00    +0.000 A 
ATOM      4  O   UNL     1      -8.667  56.153  51.276  0.00  0.00    +0.000 OA
ATOM      5  N   UNL     1      -7.669  54.507  52.590  0.00  0.00    +0.000 N 
ATOM      6  C   UNL     1      -9.134  52.811  53.572  0.00  0.00    +0.000 A 
ATOM      7  C   UNL     1      -7.842  53.341  53.395  0.00  0.00    +0.000 A 
ATOM      8  C   UNL     1      -9.316  51.688  54.394  0.00  0.00    +0.000 A 
ATOM      9  C   UNL     1      -6.759  52.719  54.037  0.00  0.00    +0.000 A 
ATOM     10  C   UNL     1      -8.237  51.100  55.050  0.00  0.00    +0.000 A 
ATOM     11  C   UNL     1      -6.959  51.613  54.869  0.00  0.00    +0.000 A 
ENDROOT
BRANCH   1  17
ATOM     12  S   UNL     1     -12.589  56.044  49.521  0.00  0.00    +0.000 S 
ATOM     13  O   UNL     1     -13.490  55.036  48.994  0.00  0.00    +0.000 OA
ATOM     14  O   UNL     1     -12.006  57.034  48.630  0.00  0.00    +0.000 OA
ATOM     15  N   UNL     1     -11.383  55.276  50.276  0.00  0.00    +0.000 N 
ATOM     16  C   UNL     1     -13.504  56.948  50.714  0.00  0.00    +0.000 A 
ATOM     17  C   UNL     1     -11.301  55.274  51.571  0.00  0.00    +0.000 C 
ATOM     18  C   UNL     1     -13.184  56.761  52.047  0.00  0.00    +0.000 A 
ATOM     19  C   UNL     1     -14.509  57.825  50.306  0.00  0.00    +0.000 A 
ATOM     20  N   UNL     1     -12.188  55.871  52.439  0.00  0.00    +0.000 N 
ATOM     21  C   UNL     1     -13.944  57.437  53.008  0.00  0.00    +0.000 A 
ATOM     22  C   UNL     1     -15.237  58.516  51.269  0.00  0.00    +0.000 A 
ATOM     23  C   UNL     1     -14.960  58.314  52.622  0.00  0.00    +0.000 A 
ATOM     24  H   UNL     1     -10.700  54.805  49.745  0.00  0.00    +0.000 HD
ATOM     25  H   UNL     1     -12.114  55.655  53.397  0.00  0.00    +0.000 HD
ENDBRANCH   1  17
BRANCH   3  26
ATOM     26  O   UNL     1     -11.508  52.865  53.174  0.00  0.00    +0.000 OA
ATOM     27  H   UNL     1     -11.550  52.047  53.628  0.00  0.00    +0.000 HD
ENDBRANCH   3  26
BRANCH   5  28
ATOM     28  N   UNL     1      -6.328  54.984  52.385  0.00  0.00    +0.000 N 
ATOM     29  H   UNL     1      -5.822  55.452  53.089  0.00  0.00    +0.000 HD
BRANCH  28  30
ATOM     30  C   UNL     1      -5.765  54.725  51.054  0.00  0.00    +0.000 C 
BRANCH  30  31
ATOM     31  C   UNL     1      -4.981  53.446  51.055  0.00  0.00    +0.000 A 
ATOM     32  S   UNL     1      -5.601  52.060  50.251  0.00  0.00    +0.000 S 
ATOM     33  C   UNL     1      -3.741  53.198  51.607  0.00  0.00    +0.000 A 
ATOM     34  C   UNL     1      -4.218  51.139  50.640  0.00  0.00    +0.000 A 
ATOM     35  C   UNL     1      -3.303  51.864  51.370  0.00  0.00    +0.000 A 
ENDBRANCH  30  31
ENDBRANCH  28  30
ENDBRANCH   5  28
TORSDOF 5
ENDMDL
MODEL 2
REMARK VINA RESULT:      -8.3      3.251      4.878
REMARK  Name = 
REMARK  5 active torsions:
REMARK  status: ('A' for Active; 'I' for Inactive)
REMARK    1  A    between atoms: C_6  and  C_10
REMARK    2  A    between atoms: C_14  and  O_18
REMARK    3  A    between atoms: N_17  and  N_20
REMARK    4  A    between atoms: N_20  and  C_23
REMARK    5  A    between atoms: C_23  and  C_26
REMARK                            x       y       z     vdW  Elec       q    Type
REMARK                         _______ _______ _______ _____ _____    ______ ____
ROOT
ATOM      1  C   UNL     1     -11.490  55.924  48.898  0.00  0.00    +0.000 A 
ATOM      2  C   UNL     1     -10.489  55.280  49.797  0.00  0.00    +0.000 A 
ATOM      3  C   UNL     1     -11.559  55.588  47.599  0.00  0.00    +0.000 A 
ATOM      4  O   UNL     1     -10.491  55.623  50.983  0.00  0.00    +0.000 OA
ATOM      5  N   UNL     1      -9.640  54.312  49.255  0.00  0.00    +0.000 N 
ATOM      6  C   UNL     1     -10.662  54.564  47.046  0.00  0.00    +0.000 A 
ATOM      7  C   UNL     1      -9.711  53.944  47.876  0.00  0.00    +0.000 A 
ATOM      8  C   UNL     1     -10.763  54.179  45.699  0.00  0.00    +0.000 A 
ATOM      9  C   UNL     1      -8.869  52.962  47.331  0.00  0.00    +0.000 A 
ATOM     10  C   UNL     1      -9.943  53.180  45.179  0.00  0.00    +0.000 A 
ATOM     11  C   UNL     1      -8.995  52.574  45.993  0.00  0.00    +0.000 A 
ENDROOT
BRANCH   1  17
ATOM     12  S   UNL     1     -13.567  59.198  49.464  0.00  0.00    +0.000 S 
ATOM     13  O   UNL     1     -14.695  59.288  48.556  0.00  0.00    +0.000 OA
ATOM     14  O   UNL     1     -12.773  60.381  49.754  0.00  0.00    +0.000 OA
ATOM     15  N   UNL     1     -12.574  58.054  48.900  0.00  0.00    +0.000 N 
ATOM     16  C   UNL     1     -14.214  58.662  51.003  0.00  0.00    +0.000 A 
ATOM     17  C   UNL     1     -12.476  56.904  49.494  0.00  0.00    +0.000 C 
ATOM     18  C   UNL     1     -13.929  57.370  51.407  0.00  0.00    +0.000 A 
ATOM     19  C   UNL     1     -14.980  59.532  51.781  0.00  0.00    +0.000 A 
ATOM     20  N   UNL     1     -13.176  56.509  50.613  0.00  0.00    +0.000 N 
ATOM     21  C   UNL     1     -14.486  56.916  52.608  0.00  0.00    +0.000 A 
ATOM     22  C   UNL     1     -15.502  59.079  52.989  0.00  0.00    +0.000 A 
ATOM     23  C   UNL     1     -15.261  57.768  53.397  0.00  0.00    +0.000 A 
ATOM     24  H   UNL     1     -12.037  58.231  48.095  0.00  0.00    +0.000 HD
ATOM     25  H   UNL     1     -13.142  55.558  50.868  0.00  0.00    +0.000 HD
ENDBRANCH   1  17
BRANCH   3  26
ATOM     26  O   UNL     1     -12.470  56.117  46.703  0.00  0.00    +0.000 OA
ATOM     27  H   UNL     1     -12.205  56.316  45.827  0.00  0.00    +0.000 HD
ENDBRANCH   3  26
BRANCH   5  28
ATOM     28  N   UNL     1      -8.616  53.700  50.058  0.00  0.00    +0.000 N 
ATOM     29  H   UNL     1      -8.725  52.807  50.459  0.00  0.00    +0.000 HD
BRANCH  28  30
ATOM     30  C   UNL     1      -7.397  54.499  50.238  0.00  0.00    +0.000 C 
BRANCH  30  31
ATOM     31  C   UNL     1      -7.200  54.836  51.687  0.00  0.00    +0.000 A 
ATOM     32  S   UNL     1      -6.715  53.614  52.793  0.00  0.00    +0.000 S 
ATOM     33  C   UNL     1      -7.322  56.061  52.308  0.00  0.00    +0.000 A 
ATOM     34  C   UNL     1      -6.667  54.721  54.091  0.00  0.00    +0.000 A 
ATOM     35  C   UNL     1      -7.018  55.993  53.697  0.00  0.00    +0.000 A 
ENDBRANCH  30  31
ENDBRANCH  28  30
ENDBRANCH   5  28
TORSDOF 5
ENDMDL
MODEL 3
REMARK VINA RESULT:      -8.3      2.165      2.462
REMARK  Name = 
REMARK  5 active torsions:
REMARK  status: ('A' for Active; 'I' for Inactive)
REMARK    1  A    between atoms: C_6  and  C_10
REMARK    2  A    between atoms: C_14  and  O_18
REMARK    3  A    between atoms: N_17  and  N_20
REMARK    4  A    between atoms: N_20  and  C_23
REMARK    5  A    between atoms: C_23  and  C_26
REMARK                            x       y       z     vdW  Elec       q    Type
REMARK                         _______ _______ _______ _____ _____    ______ ____
ROOT
ATOM      1  C   UNL     1     -11.163  54.621  50.843  0.00  0.00    +0.000 A 
ATOM      2  C   UNL     1      -9.767  55.023  50.502  0.00  0.00    +0.000 A 
ATOM      3  C   UNL     1     -11.428  53.383  51.293  0.00  0.00    +0.000 A 
ATOM      4  O   UNL     1      -9.592  56.181  50.110  0.00  0.00    +0.000 OA
ATOM      5  N   UNL     1      -8.748  54.084  50.677  0.00  0.00    +0.000 N 
ATOM      6  C   UNL     1     -10.343  52.409  51.476  0.00  0.00    +0.000 A 
ATOM      7  C   UNL     1      -9.020  52.767  51.160  0.00  0.00    +0.000 A 
ATOM      8  C   UNL     1     -10.611  51.129  51.989  0.00  0.00    +0.000 A 
ATOM      9  C   UNL     1      -7.996  51.825  51.350  0.00  0.00    +0.000 A 
ATOM     10  C   UNL     1      -9.582  50.216  52.203  0.00  0.00    +0.000 A 
ATOM     11  C   UNL     1      -8.276  50.562  51.881  0.00  0.00    +0.000 A 
ENDROOT
BRANCH   1  17
ATOM     12  S   UNL     1     -13.627  57.270  49.338  0.00  0.00    +0.000 S 
ATOM     13  O   UNL     1     -14.761  56.645  48.684  0.00  0.00    +0.000 OA
ATOM     14  O   UNL     1     -12.984  58.423  48.730  0.00  0.00    +0.000 OA
ATOM     15  N   UNL     1     -12.503  56.130  49.564  0.00  0.00    +0.000 N 
ATOM     16  C   UNL     1     -14.197  57.806  50.908  0.00  0.00    +0.000 A 
ATOM     17  C   UNL     1     -12.260  55.658  50.748  0.00  0.00    +0.000 C 
ATOM     18  C   UNL     1     -13.752  57.119  52.023  0.00  0.00    +0.000 A 
ATOM     19  C   UNL     1     -15.061  58.897  51.003  0.00  0.00    +0.000 A 
ATOM     20  N   UNL     1     -12.902  56.023  51.912  0.00  0.00    +0.000 N 
ATOM     21  C   UNL     1     -14.243  57.505  53.275  0.00  0.00    +0.000 A 
ATOM     22  C   UNL     1     -15.518  59.293  52.256  0.00  0.00    +0.000 A 
ATOM     23  C   UNL     1     -15.115  58.590  53.392  0.00  0.00    +0.000 A 
ATOM     24  H   UNL     1     -11.994  55.791  48.792  0.00  0.00    +0.000 HD
ATOM     25  H   UNL     1     -12.749  55.473  52.715  0.00  0.00    +0.000 HD
ENDBRANCH   1  17
BRANCH   3  26
ATOM     26  O   UNL     1     -12.686  52.936  51.655  0.00  0.00    +0.000 OA
ATOM     27  H   UNL     1     -12.969  52.079  51.405  0.00  0.00    +0.000 HD
ENDBRANCH   3  26
BRANCH   5  28
ATOM     28  N   UNL     1      -7.393  54.393  50.309  0.00  0.00    +0.000 N 
ATOM     29  H   UNL     1      -6.925  53.924  49.581  0.00  0.00    +0.000 HD
BRANCH  28  30
ATOM     30  C   UNL     1      -6.756  55.458  51.095  0.00  0.00    +0.000 C 
BRANCH  30  31
ATOM     31  C   UNL     1      -6.358  54.946  52.447  0.00  0.00    +0.000 A 
ATOM     32  S   UNL     1      -7.247  55.420  53.839  0.00  0.00    +0.000 S 
ATOM     33  C   UNL     1      -5.343  54.069  52.770  0.00  0.00    +0.000 A 
ATOM     34  C   UNL     1      -6.280  54.454  54.862  0.00  0.00    +0.000 A 
ATOM     35  C   UNL     1      -5.297  53.788  54.165  0.00  0.00    +0.000 A 
ENDBRANCH  30  31
ENDBRANCH  28  30
ENDBRANCH   5  28
TORSDOF 5
ENDMDL
MODEL 4
REMARK VINA RESULT:      -8.2      3.133      8.347
REMARK  Name = 
REMARK  5 active torsions:
REMARK  status: ('A' for Active; 'I' for Inactive)
REMARK    1  A    between atoms: C_6  and  C_10
REMARK    2  A    between atoms: C_14  and  O_18
REMARK    3  A    between atoms: N_17  and  N_20
REMARK    4  A    between atoms: N_20  and  C_23
REMARK    5  A    between atoms: C_23  and  C_26
REMARK                            x       y       z     vdW  Elec       q    Type
REMARK                         _______ _______ _______ _____ _____    ______ ____
ROOT
ATOM      1  C   UNL     1      -9.154  54.344  49.907  0.00  0.00    +0.000 A 
ATOM      2  C   UNL     1     -10.200  55.403  49.993  0.00  0.00    +0.000 A 
ATOM      3  C   UNL     1      -9.029  53.594  48.799  0.00  0.00    +0.000 A 
ATOM      4  O   UNL     1     -10.249  56.066  51.034  0.00  0.00    +0.000 OA
ATOM      5  N   UNL     1     -11.033  55.601  48.889  0.00  0.00    +0.000 N 
ATOM      6  C   UNL     1      -9.910  53.819  47.644  0.00  0.00    +0.000 A 
ATOM      7  C   UNL     1     -10.904  54.812  47.705  0.00  0.00    +0.000 A 
ATOM      8  C   UNL     1      -9.752  53.067  46.469  0.00  0.00    +0.000 A 
ATOM      9  C   UNL     1     -11.729  55.018  46.588  0.00  0.00    +0.000 A 
ATOM     10  C   UNL     1     -10.557  53.303  45.357  0.00  0.00    +0.000 A 
ATOM     11  C   UNL     1     -11.547  54.275  45.417  0.00  0.00    +0.000 A 
ENDROOT
BRANCH   1  17
ATOM     12  S   UNL     1      -7.765  54.100  53.563  0.00  0.00    +0.000 S 
ATOM     13  O   UNL     1      -7.989  52.788  54.141  0.00  0.00    +0.000 OA
ATOM     14  O   UNL     1      -7.962  55.292  54.370  0.00  0.00    +0.000 OA
ATOM     15  N   UNL     1      -8.700  54.222  52.250  0.00  0.00    +0.000 N 
ATOM     16  C   UNL     1      -6.087  54.133  53.054  0.00  0.00    +0.000 A 
ATOM     17  C   UNL     1      -8.186  54.184  51.059  0.00  0.00    +0.000 C 
ATOM     18  C   UNL     1      -5.826  54.102  51.695  0.00  0.00    +0.000 A 
ATOM     19  C   UNL     1      -5.068  54.199  54.005  0.00  0.00    +0.000 A 
ATOM     20  N   UNL     1      -6.851  54.022  50.758  0.00  0.00    +0.000 N 
ATOM     21  C   UNL     1      -4.489  54.075  51.281  0.00  0.00    +0.000 A 
ATOM     22  C   UNL     1      -3.744  54.203  53.581  0.00  0.00    +0.000 A 
ATOM     23  C   UNL     1      -3.455  54.132  52.218  0.00  0.00    +0.000 A 
ATOM     24  H   UNL     1      -9.673  54.329  52.356  0.00  0.00    +0.000 HD
ATOM     25  H   UNL     1      -6.608  53.837  49.822  0.00  0.00    +0.000 HD
ENDBRANCH   1  17
BRANCH   3  26
ATOM     26  O   UNL     1      -8.073  52.609  48.626  0.00  0.00    +0.000 OA
ATOM     27  H   UNL     1      -7.358  52.748  48.036  0.00  0.00    +0.000 HD
ENDBRANCH   3  26
BRANCH   5  28
ATOM     28  N   UNL     1     -12.098  56.566  48.936  0.00  0.00    +0.000 N 
ATOM     29  H   UNL     1     -12.002  57.474  48.567  0.00  0.00    +0.000 HD
BRANCH  28  30
ATOM     30  C   UNL     1     -13.338  56.103  49.572  0.00  0.00    +0.000 C 
BRANCH  30  31
ATOM     31  C   UNL     1     -13.682  56.972  50.745  0.00  0.00    +0.000 A 
ATOM     32  S   UNL     1     -14.274  58.565  50.489  0.00  0.00    +0.000 S 
ATOM     33  C   UNL     1     -13.626  56.664  52.089  0.00  0.00    +0.000 A 
ATOM     34  C   UNL     1     -14.456  58.834  52.165  0.00  0.00    +0.000 A 
ATOM     35  C   UNL     1     -14.070  57.741  52.907  0.00  0.00    +0.000 A 
ENDBRANCH  30  31
ENDBRANCH  28  30
ENDBRANCH   5  28
TORSDOF 5
ENDMDL
MODEL 5
REMARK VINA RESULT:      -8.1      4.106      5.519
REMARK  Name = 
REMARK  5 active torsions:
REMARK  status: ('A' for Active; 'I' for Inactive)
REMARK    1  A    between atoms: C_6  and  C_10
REMARK    2  A    between atoms: C_14  and  O_18
REMARK    3  A    between atoms: N_17  and  N_20
REMARK    4  A    between atoms: N_20  and  C_23
REMARK    5  A    between atoms: C_23  and  C_26
REMARK                            x       y       z     vdW  Elec       q    Type
REMARK                         _______ _______ _______ _____ _____    ______ ____
ROOT
ATOM      1  C   UNL     1     -10.335  54.909  47.777  0.00  0.00    +0.000 A 
ATOM      2  C   UNL     1      -8.845  54.984  47.782  0.00  0.00    +0.000 A 
ATOM      3  C   UNL     1     -10.989  54.383  46.727  0.00  0.00    +0.000 A 
ATOM      4  O   UNL     1      -8.308  55.464  48.785  0.00  0.00    +0.000 OA
ATOM      5  N   UNL     1      -8.154  54.482  46.677  0.00  0.00    +0.000 N 
ATOM      6  C   UNL     1     -10.246  53.854  45.575  0.00  0.00    +0.000 A 
ATOM      7  C   UNL     1      -8.841  53.916  45.560  0.00  0.00    +0.000 A 
ATOM      8  C   UNL     1     -10.926  53.263  44.498  0.00  0.00    +0.000 A 
ATOM      9  C   UNL     1      -8.149  53.398  44.454  0.00  0.00    +0.000 A 
ATOM     10  C   UNL     1     -10.225  52.723  43.421  0.00  0.00    +0.000 A 
ATOM     11  C   UNL     1      -8.838  52.794  43.398  0.00  0.00    +0.000 A 
ENDROOT
BRANCH   1  17
ATOM     12  S   UNL     1     -11.772  54.968  51.422  0.00  0.00    +0.000 S 
ATOM     13  O   UNL     1     -10.793  55.442  52.382  0.00  0.00    +0.000 OA
ATOM     14  O   UNL     1     -12.632  53.845  51.756  0.00  0.00    +0.000 OA
ATOM     15  N   UNL     1     -10.984  54.608  50.056  0.00  0.00    +0.000 N 
ATOM     16  C   UNL     1     -12.844  56.319  51.103  0.00  0.00    +0.000 A 
ATOM     17  C   UNL     1     -11.089  55.363  49.007  0.00  0.00    +0.000 C 
ATOM     18  C   UNL     1     -12.753  56.936  49.869  0.00  0.00    +0.000 A 
ATOM     19  C   UNL     1     -13.757  56.731  52.075  0.00  0.00    +0.000 A 
ATOM     20  N   UNL     1     -11.827  56.523  48.915  0.00  0.00    +0.000 N 
ATOM     21  C   UNL     1     -13.567  58.049  49.626  0.00  0.00    +0.000 A 
ATOM     22  C   UNL     1     -14.583  57.818  51.810  0.00  0.00    +0.000 A 
ATOM     23  C   UNL     1     -14.481  58.482  50.588  0.00  0.00    +0.000 A 
ATOM     24  H   UNL     1     -10.417  53.804  50.021  0.00  0.00    +0.000 HD
ATOM     25  H   UNL     1     -11.691  57.096  48.125  0.00  0.00    +0.000 HD
ENDBRANCH   1  17
BRANCH   3  26
ATOM     26  O   UNL     1     -12.364  54.252  46.650  0.00  0.00    +0.000 OA
ATOM     27  H   UNL     1     -12.762  53.411  46.763  0.00  0.00    +0.000 HD
ENDBRANCH   3  26
BRANCH   5  28
ATOM     28  N   UNL     1      -6.721  54.582  46.600  0.00  0.00    +0.000 N 
ATOM     29  H   UNL     1      -6.267  55.383  46.251  0.00  0.00    +0.000 HD
BRANCH  28  30
ATOM     30  C   UNL     1      -5.983  53.405  47.077  0.00  0.00    +0.000 C 
BRANCH  30  31
ATOM     31  C   UNL     1      -5.660  53.545  48.536  0.00  0.00    +0.000 A 
ATOM     32  S   UNL     1      -6.320  52.435  49.669  0.00  0.00    +0.000 S 
ATOM     33  C   UNL     1      -4.835  54.464  49.150  0.00  0.00    +0.000 A 
ATOM     34  C   UNL     1      -5.503  53.181  50.969  0.00  0.00    +0.000 A 
ATOM     35  C   UNL     1      -4.747  54.255  50.555  0.00  0.00    +0.000 A 
ENDBRANCH  30  31
ENDBRANCH  28  30
ENDBRANCH   5  28
TORSDOF 5
ENDMDL
MODEL 6
REMARK VINA RESULT:      -8.1      3.607      7.355
REMARK  Name = 
REMARK  5 active torsions:
REMARK  status: ('A' for Active; 'I' for Inactive)
REMARK    1  A    between atoms: C_6  and  C_10
REMARK    2  A    between atoms: C_14  and  O_18
REMARK    3  A    between atoms: N_17  and  N_20
REMARK    4  A    between atoms: N_20  and  C_23
REMARK    5  A    between atoms: C_23  and  C_26
REMARK                            x       y       z     vdW  Elec       q    Type
REMARK                         _______ _______ _______ _____ _____    ______ ____
ROOT
ATOM      1  C   UNL     1     -10.358  55.207  50.864  0.00  0.00    +0.000 A 
ATOM      2  C   UNL     1     -10.004  55.102  49.418  0.00  0.00    +0.000 A 
ATOM      3  C   UNL     1     -11.540  55.721  51.243  0.00  0.00    +0.000 A 
ATOM      4  O   UNL     1      -8.908  54.606  49.140  0.00  0.00    +0.000 OA
ATOM      5  N   UNL     1     -10.939  55.538  48.477  0.00  0.00    +0.000 N 
ATOM      6  C   UNL     1     -12.514  56.170  50.239  0.00  0.00    +0.000 A 
ATOM      7  C   UNL     1     -12.200  56.080  48.871  0.00  0.00    +0.000 A 
ATOM      8  C   UNL     1     -13.768  56.665  50.632  0.00  0.00    +0.000 A 
ATOM      9  C   UNL     1     -13.148  56.506  47.926  0.00  0.00    +0.000 A 
ATOM     10  C   UNL     1     -14.711  57.054  49.683  0.00  0.00    +0.000 A 
ATOM     11  C   UNL     1     -14.400  56.978  48.332  0.00  0.00    +0.000 A 
ENDROOT
BRANCH   1  17
ATOM     12  S   UNL     1      -7.092  54.681  52.965  0.00  0.00    +0.000 S 
ATOM     13  O   UNL     1      -6.961  55.670  54.019  0.00  0.00    +0.000 OA
ATOM     14  O   UNL     1      -5.927  54.288  52.191  0.00  0.00    +0.000 OA
ATOM     15  N   UNL     1      -8.222  55.210  51.937  0.00  0.00    +0.000 N 
ATOM     16  C   UNL     1      -7.680  53.218  53.731  0.00  0.00    +0.000 A 
ATOM     17  C   UNL     1      -9.393  54.653  51.889  0.00  0.00    +0.000 C 
ATOM     18  C   UNL     1      -8.988  52.842  53.484  0.00  0.00    +0.000 A 
ATOM     19  C   UNL     1      -6.834  52.470  54.551  0.00  0.00    +0.000 A 
ATOM     20  N   UNL     1      -9.824  53.606  52.676  0.00  0.00    +0.000 N 
ATOM     21  C   UNL     1      -9.482  51.705  54.133  0.00  0.00    +0.000 A 
ATOM     22  C   UNL     1      -7.327  51.324  55.167  0.00  0.00    +0.000 A 
ATOM     23  C   UNL     1      -8.655  50.947  54.964  0.00  0.00    +0.000 A 
ATOM     24  H   UNL     1      -8.019  55.964  51.337  0.00  0.00    +0.000 HD
ATOM     25  H   UNL     1     -10.784  53.386  52.665  0.00  0.00    +0.000 HD
ENDBRANCH   1  17
BRANCH   3  26
ATOM     26  O   UNL     1     -11.958  55.832  52.558  0.00  0.00    +0.000 OA
ATOM     27  H   UNL     1     -11.788  55.138  53.164  0.00  0.00    +0.000 HD
ENDBRANCH   3  26
BRANCH   5  28
ATOM     28  N   UNL     1     -10.630  55.518  47.072  0.00  0.00    +0.000 N 
ATOM     29  H   UNL     1      -9.954  56.111  46.673  0.00  0.00    +0.000 HD
BRANCH  28  30
ATOM     30  C   UNL     1     -11.396  54.550  46.275  0.00  0.00    +0.000 C 
BRANCH  30  31
ATOM     31  C   UNL     1     -10.492  53.820  45.326  0.00  0.00    +0.000 A 
ATOM     32  S   UNL     1      -8.787  53.962  45.486  0.00  0.00    +0.000 S 
ATOM     33  C   UNL     1     -10.834  52.968  44.296  0.00  0.00    +0.000 A 
ATOM     34  C   UNL     1      -8.514  52.888  44.187  0.00  0.00    +0.000 A 
ATOM     35  C   UNL     1      -9.691  52.433  43.637  0.00  0.00    +0.000 A 
ENDBRANCH  30  31
ENDBRANCH  28  30
ENDBRANCH   5  28
TORSDOF 5
ENDMDL
MODEL 7
REMARK VINA RESULT:      -8.1      2.884      8.270
REMARK  Name = 
REMARK  5 active torsions:
REMARK  status: ('A' for Active; 'I' for Inactive)
REMARK    1  A    between atoms: C_6  and  C_10
REMARK    2  A    between atoms: C_14  and  O_18
REMARK    3  A    between atoms: N_17  and  N_20
REMARK    4  A    between atoms: N_20  and  C_23
REMARK    5  A    between atoms: C_23  and  C_26
REMARK                            x       y       z     vdW  Elec       q    Type
REMARK                         _______ _______ _______ _____ _____    ______ ____
ROOT
ATOM      1  C   UNL     1      -9.686  54.064  50.388  0.00  0.00    +0.000 A 
ATOM      2  C   UNL     1     -10.685  55.155  50.582  0.00  0.00    +0.000 A 
ATOM      3  C   UNL     1      -9.500  53.515  49.176  0.00  0.00    +0.000 A 
ATOM      4  O   UNL     1     -10.794  55.626  51.718  0.00  0.00    +0.000 OA
ATOM      5  N   UNL     1     -11.406  55.596  49.470  0.00  0.00    +0.000 N 
ATOM      6  C   UNL     1     -10.263  53.995  48.015  0.00  0.00    +0.000 A 
ATOM      7  C   UNL     1     -11.210  55.022  48.177  0.00  0.00    +0.000 A 
ATOM      8  C   UNL     1     -10.038  53.453  46.739  0.00  0.00    +0.000 A 
ATOM      9  C   UNL     1     -11.923  55.473  47.054  0.00  0.00    +0.000 A 
ATOM     10  C   UNL     1     -10.729  53.932  45.628  0.00  0.00    +0.000 A 
ATOM     11  C   UNL     1     -11.673  54.938  45.786  0.00  0.00    +0.000 A 
ENDROOT
BRANCH   1  17
ATOM     12  S   UNL     1      -6.567  53.585  52.711  0.00  0.00    +0.000 S 
ATOM     13  O   UNL     1      -6.285  54.775  53.491  0.00  0.00    +0.000 OA
ATOM     14  O   UNL     1      -5.475  52.832  52.117  0.00  0.00    +0.000 OA
ATOM     15  N   UNL     1      -7.588  54.005  51.529  0.00  0.00    +0.000 N 
ATOM     16  C   UNL     1      -7.392  52.473  53.787  0.00  0.00    +0.000 A 
ATOM     17  C   UNL     1      -8.833  53.644  51.564  0.00  0.00    +0.000 C 
ATOM     18  C   UNL     1      -8.742  52.255  53.577  0.00  0.00    +0.000 A 
ATOM     19  C   UNL     1      -6.686  51.834  54.807  0.00  0.00    +0.000 A 
ATOM     20  N   UNL     1      -9.436  52.911  52.564  0.00  0.00    +0.000 N 
ATOM     21  C   UNL     1      -9.420  51.411  54.464  0.00  0.00    +0.000 A 
ATOM     22  C   UNL     1      -7.364  50.973  55.663  0.00  0.00    +0.000 A 
ATOM     23  C   UNL     1      -8.733  50.768  55.496  0.00  0.00    +0.000 A 
ATOM     24  H   UNL     1      -7.259  54.542  50.772  0.00  0.00    +0.000 HD
ATOM     25  H   UNL     1     -10.418  52.847  52.562  0.00  0.00    +0.000 HD
ENDBRANCH   1  17
BRANCH   3  26
ATOM     26  O   UNL     1      -8.580  52.519  48.903  0.00  0.00    +0.000 OA
ATOM     27  H   UNL     1      -8.868  51.693  48.567  0.00  0.00    +0.000 HD
ENDBRANCH   3  26
BRANCH   5  28
ATOM     28  N   UNL     1     -12.424  56.603  49.607  0.00  0.00    +0.000 N 
ATOM     29  H   UNL     1     -12.274  57.541  49.351  0.00  0.00    +0.000 HD
BRANCH  28  30
ATOM     30  C   UNL     1     -13.703  56.133  50.156  0.00  0.00    +0.000 C 
BRANCH  30  31
ATOM     31  C   UNL     1     -14.228  57.106  51.170  0.00  0.00    +0.000 A 
ATOM     32  S   UNL     1     -14.252  58.787  50.813  0.00  0.00    +0.000 S 
ATOM     33  C   UNL     1     -14.762  56.846  52.415  0.00  0.00    +0.000 A 
ATOM     34  C   UNL     1     -14.974  59.159  52.314  0.00  0.00    +0.000 A 
ATOM     35  C   UNL     1     -15.190  58.032  53.076  0.00  0.00    +0.000 A 
ENDBRANCH  30  31
ENDBRANCH  28  30
ENDBRANCH   5  28
TORSDOF 5
ENDMDL
MODEL 8
REMARK VINA RESULT:      -8.0      4.511      5.410
REMARK  Name = 
REMARK  5 active torsions:
REMARK  status: ('A' for Active; 'I' for Inactive)
REMARK    1  A    between atoms: C_6  and  C_10
REMARK    2  A    between atoms: C_14  and  O_18
REMARK    3  A    between atoms: N_17  and  N_20
REMARK    4  A    between atoms: N_20  and  C_23
REMARK    5  A    between atoms: C_23  and  C_26
REMARK                            x       y       z     vdW  Elec       q    Type
REMARK                         _______ _______ _______ _____ _____    ______ ____
ROOT
ATOM      1  C   UNL     1     -12.370  54.263  49.779  0.00  0.00    +0.000 A 
ATOM      2  C   UNL     1     -11.700  54.253  48.446  0.00  0.00    +0.000 A 
ATOM      3  C   UNL     1     -12.181  53.255  50.648  0.00  0.00    +0.000 A 
ATOM      4  O   UNL     1     -11.905  55.218  47.704  0.00  0.00    +0.000 OA
ATOM      5  N   UNL     1     -10.864  53.178  48.136  0.00  0.00    +0.000 N 
ATOM      6  C   UNL     1     -11.293  52.135  50.307  0.00  0.00    +0.000 A 
ATOM      7  C   UNL     1     -10.652  52.106  49.055  0.00  0.00    +0.000 A 
ATOM      8  C   UNL     1     -11.058  51.104  51.230  0.00  0.00    +0.000 A 
ATOM      9  C   UNL     1      -9.801  51.031  48.751  0.00  0.00    +0.000 A 
ATOM     10  C   UNL     1     -10.186  50.060  50.929  0.00  0.00    +0.000 A 
ATOM     11  C   UNL     1      -9.561  50.021  49.689  0.00  0.00    +0.000 A 
ENDROOT
BRANCH   1  17
ATOM     12  S   UNL     1     -15.341  56.420  51.151  0.00  0.00    +0.000 S 
ATOM     13  O   UNL     1     -15.310  56.525  52.598  0.00  0.00    +0.000 OA
ATOM     14  O   UNL     1     -16.606  56.220  50.464  0.00  0.00    +0.000 OA
ATOM     15  N   UNL     1     -14.345  55.218  50.727  0.00  0.00    +0.000 N 
ATOM     16  C   UNL     1     -14.688  57.925  50.532  0.00  0.00    +0.000 A 
ATOM     17  C   UNL     1     -13.202  55.466  50.164  0.00  0.00    +0.000 C 
ATOM     18  C   UNL     1     -13.432  57.893  49.953  0.00  0.00    +0.000 A 
ATOM     19  C   UNL     1     -15.434  59.101  50.625  0.00  0.00    +0.000 A 
ATOM     20  N   UNL     1     -12.694  56.715  49.881  0.00  0.00    +0.000 N 
ATOM     21  C   UNL     1     -12.881  59.099  49.505  0.00  0.00    +0.000 A 
ATOM     22  C   UNL     1     -14.889  60.288  50.148  0.00  0.00    +0.000 A 
ATOM     23  C   UNL     1     -13.608  60.288  49.596  0.00  0.00    +0.000 A 
ATOM     24  H   UNL     1     -14.609  54.285  50.898  0.00  0.00    +0.000 HD
ATOM     25  H   UNL     1     -11.748  56.779  49.612  0.00  0.00    +0.000 HD
ENDBRANCH   1  17
BRANCH   3  26
ATOM     26  O   UNL     1     -12.742  53.197  51.911  0.00  0.00    +0.000 OA
ATOM     27  H   UNL     1     -12.634  53.913  52.505  0.00  0.00    +0.000 HD
ENDBRANCH   3  26
BRANCH   5  28
ATOM     28  N   UNL     1     -10.239  53.084  46.844  0.00  0.00    +0.000 N 
ATOM     29  H   UNL     1      -9.315  53.384  46.683  0.00  0.00    +0.000 HD
BRANCH  28  30
ATOM     30  C   UNL     1     -11.074  52.509  45.781  0.00  0.00    +0.000 C 
BRANCH  30  31
ATOM     31  C   UNL     1     -10.233  52.132  44.598  0.00  0.00    +0.000 A 
ATOM     32  S   UNL     1     -10.158  50.494  44.086  0.00  0.00    +0.000 S 
ATOM     33  C   UNL     1      -9.486  52.952  43.778  0.00  0.00    +0.000 A 
ATOM     34  C   UNL     1      -9.135  50.884  42.777  0.00  0.00    +0.000 A 
ATOM     35  C   UNL     1      -8.849  52.230  42.729  0.00  0.00    +0.000 A 
ENDBRANCH  30  31
ENDBRANCH  28  30
ENDBRANCH   5  28
TORSDOF 5
ENDMDL
MODEL 9
REMARK VINA RESULT:      -8.0      4.511      7.376
REMARK  Name = 
REMARK  5 active torsions:
REMARK  status: ('A' for Active; 'I' for Inactive)
REMARK    1  A    between atoms: C_6  and  C_10
REMARK    2  A    between atoms: C_14  and  O_18
REMARK    3  A    between atoms: N_17  and  N_20
REMARK    4  A    between atoms: N_20  and  C_23
REMARK    5  A    between atoms: C_23  and  C_26
REMARK                            x       y       z     vdW  Elec       q    Type
REMARK                         _______ _______ _______ _____ _____    ______ ____
ROOT
ATOM      1  C   UNL     1     -11.305  54.697  48.325  0.00  0.00    +0.000 A 
ATOM      2  C   UNL     1     -11.125  54.205  49.722  0.00  0.00    +0.000 A 
ATOM      3  C   UNL     1     -12.158  55.699  48.057  0.00  0.00    +0.000 A 
ATOM      4  O   UNL     1     -10.313  53.292  49.899  0.00  0.00    +0.000 OA
ATOM      5  N   UNL     1     -11.855  54.825  50.739  0.00  0.00    +0.000 N 
ATOM      6  C   UNL     1     -12.914  56.344  49.141  0.00  0.00    +0.000 A 
ATOM      7  C   UNL     1     -12.759  55.895  50.465  0.00  0.00    +0.000 A 
ATOM      8  C   UNL     1     -13.772  57.422  48.869  0.00  0.00    +0.000 A 
ATOM      9  C   UNL     1     -13.483  56.529  51.487  0.00  0.00    +0.000 A 
ATOM     10  C   UNL     1     -14.460  58.063  49.897  0.00  0.00    +0.000 A 
ATOM     11  C   UNL     1     -14.319  57.615  51.204  0.00  0.00    +0.000 A 
ENDROOT
BRANCH   1  17
ATOM     12  S   UNL     1      -8.217  53.960  46.027  0.00  0.00    +0.000 S 
ATOM     13  O   UNL     1      -7.280  53.048  46.656  0.00  0.00    +0.000 OA
ATOM     14  O   UNL     1      -7.725  55.107  45.283  0.00  0.00    +0.000 OA
ATOM     15  N   UNL     1      -9.219  54.501  47.176  0.00  0.00    +0.000 N 
ATOM     16  C   UNL     1      -9.145  53.005  44.887  0.00  0.00    +0.000 A 
ATOM     17  C   UNL     1     -10.451  54.097  47.229  0.00  0.00    +0.000 C 
ATOM     18  C   UNL     1     -10.467  52.739  45.195  0.00  0.00    +0.000 A 
ATOM     19  C   UNL     1      -8.549  52.548  43.710  0.00  0.00    +0.000 A 
ATOM     20  N   UNL     1     -11.043  53.189  46.379  0.00  0.00    +0.000 N 
ATOM     21  C   UNL     1     -11.200  51.933  44.316  0.00  0.00    +0.000 A 
ATOM     22  C   UNL     1      -9.297  51.774  42.829  0.00  0.00    +0.000 A 
ATOM     23  C   UNL     1     -10.620  51.459  43.137  0.00  0.00    +0.000 A 
ATOM     24  H   UNL     1      -8.890  55.145  47.843  0.00  0.00    +0.000 HD
ATOM     25  H   UNL     1     -11.929  52.836  46.625  0.00  0.00    +0.000 HD
ENDBRANCH   1  17
BRANCH   3  26
ATOM     26  O   UNL     1     -12.367  56.232  46.798  0.00  0.00    +0.000 OA
ATOM     27  H   UNL     1     -11.916  57.010  46.536  0.00  0.00    +0.000 HD
ENDBRANCH   3  26
BRANCH   5  28
ATOM     28  N   UNL     1     -11.767  54.355  52.096  0.00  0.00    +0.000 N 
ATOM     29  H   UNL     1     -12.457  53.779  52.499  0.00  0.00    +0.000 HD
BRANCH  28  30
ATOM     30  C   UNL     1     -10.579  54.795  52.838  0.00  0.00    +0.000 C 
BRANCH  30  31
ATOM     31  C   UNL     1      -9.812  53.612  53.351  0.00  0.00    +0.000 A 
ATOM     32  S   UNL     1      -8.099  53.581  53.227  0.00  0.00    +0.000 S 
ATOM     33  C   UNL     1     -10.294  52.482  53.978  0.00  0.00    +0.000 A 
ATOM     34  C   UNL     1      -8.007  52.068  54.011  0.00  0.00    +0.000 A 
ATOM     35  C   UNL     1      -9.251  51.589  54.356  0.00  0.00    +0.000 A 
ENDBRANCH  30  31
ENDBRANCH  28  30
ENDBRANCH   5  28
TORSDOF 5
ENDMDL
