MODEL 1
REMARK VINA RESULT:      -8.4      0.000      0.000
REMARK  Name = 
REMARK  5 active torsions:
REMARK  status: ('A' for Active; 'I' for Inactive)
REMARK    1  A    between atoms: C_6  and  C_10
REMARK    2  A    between atoms: C_14  and  O_18
REMARK    3  A    between atoms: N_17  and  N_20
REMARK    4  A    between atoms: N_20  and  C_23
REMARK    5  A    between atoms: C_23  and  C_26
REMARK                            x       y       z     vdW  Elec       q    Type
REMARK                         _______ _______ _______ _____ _____    ______ ____
ROOT
ATOM      1  C   UNL     1     -10.115  54.560  52.190  0.00  0.00    +0.000 A 
ATOM      2  C   UNL     1      -8.751  55.132  51.989  0.00  0.00    +0.000 A 
ATOM      3  C   UNL     1     -10.286  53.459  52.940  0.00  0.00    +0.000 A 
ATOM      4  O   UNL     1      -8.658  56.141  51.282  0.00  0.00    +0.000 OA
ATOM      5  N   UNL     1      -7.674  54.516  52.630  0.00  0.00    +0.000 N 
ATOM      6  C   UNL     1      -9.140  52.818  53.601  0.00  0.00    +0.000 A 
ATOM      7  C   UNL     1      -7.849  53.350  53.434  0.00  0.00    +0.000 A 
ATOM      8  C   UNL     1      -9.322  51.686  54.414  0.00  0.00    +0.000 A 
ATOM      9  C   UNL     1      -6.765  52.727  54.075  0.00  0.00    +0.000 A 
ATOM     10  C   UNL     1      -8.242  51.090  55.063  0.00  0.00    +0.000 A 
ATOM     11  C   UNL     1      -6.964  51.609  54.890  0.00  0.00    +0.000 A 
ENDROOT
BRANCH   1  17
ATOM     12  S   UNL     1     -12.578  56.064  49.527  0.00  0.00    +0.000 S 
ATOM     13  O   UNL     1     -13.475  55.062  48.990  0.00  0.00    +0.000 OA
ATOM     14  O   UNL     1     -11.978  57.055  48.654  0.00  0.00    +0.000 OA
ATOM     15  N   UNL     1     -11.380  55.284  50.290  0.00  0.00    +0.000 N 
ATOM     16  C   UNL     1     -13.503  56.960  50.719  0.00  0.00    +0.000 A 
ATOM     17  C   UNL     1     -11.301  55.286  51.588  0.00  0.00    +0.000 C 
ATOM     18  C   UNL     1     -13.186  56.777  52.055  0.00  0.00    +0.000 A 
ATOM     19  C   UNL     1     -14.510  57.834  50.308  0.00  0.00    +0.000 A 
ATOM     20  N   UNL     1     -12.191  55.889  52.451  0.00  0.00    +0.000 N 
ATOM     21  C   UNL     1     -13.961  57.445  53.014  0.00  0.00    +0.000 A 
ATOM     22  C   UNL     1     -15.248  58.517  51.271  0.00  0.00    +0.000 A 
ATOM     23  C   UNL     1     -14.981  58.317  52.623  0.00  0.00    +0.000 A 
ATOM     24  H   UNL     1     -10.702  54.800  49.765  0.00  0.00    +0.000 HD
ATOM     25  H   UNL     1     -12.118  55.678  53.410  0.00  0.00    +0.000 HD
ENDBRANCH   1  17
BRANCH   3  26
ATOM     26  O   UNL     1     -11.513  52.864  53.186  0.00  0.00    +0.000 OA
ATOM     27  H   UNL     1     -11.942  52.378  52.509  0.00  0.00    +0.000 HD
ENDBRANCH   3  26
BRANCH   5  28
ATOM     28  N   UNL     1      -6.333  54.990  52.419  0.00  0.00    +0.000 N 
ATOM     29  H   UNL     1      -5.822  55.462  53.115  0.00  0.00    +0.000 HD
BRANCH  28  30
ATOM     30  C   UNL     1      -5.783  54.718  51.084  0.00  0.00    +0.000 C 
BRANCH  30  31
ATOM     31  C   UNL     1      -4.995  53.441  51.086  0.00  0.00    +0.000 A 
ATOM     32  S   UNL     1      -5.609  52.049  50.291  0.00  0.00    +0.000 S 
ATOM     33  C   UNL     1      -3.750  53.202  51.634  0.00  0.00    +0.000 A 
ATOM     34  C   UNL     1      -4.215  51.139  50.671  0.00  0.00    +0.000 A 
ATOM     35  C   UNL     1      -3.301  51.872  51.394  0.00  0.00    +0.000 A 
ENDBRANCH  30  31
ENDBRANCH  28  30
ENDBRANCH   5  28
TORSDOF 5
ENDMDL
MODEL 2
REMARK VINA RESULT:      -8.3      3.263      4.895
REMARK  Name = 
REMARK  5 active torsions:
REMARK  status: ('A' for Active; 'I' for Inactive)
REMARK    1  A    between atoms: C_6  and  C_10
REMARK    2  A    between atoms: C_14  and  O_18
REMARK    3  A    between atoms: N_17  and  N_20
REMARK    4  A    between atoms: N_20  and  C_23
REMARK    5  A    between atoms: C_23  and  C_26
REMARK                            x       y       z     vdW  Elec       q    Type
REMARK                         _______ _______ _______ _____ _____    ______ ____
ROOT
ATOM      1  C   UNL     1     -11.495  55.927  48.895  0.00  0.00    +0.000 A 
ATOM      2  C   UNL     1     -10.487  55.283  49.788  0.00  0.00    +0.000 A 
ATOM      3  C   UNL     1     -11.563  55.592  47.595  0.00  0.00    +0.000 A 
ATOM      4  O   UNL     1     -10.469  55.639  50.971  0.00  0.00    +0.000 OA
ATOM      5  N   UNL     1      -9.652  54.302  49.247  0.00  0.00    +0.000 N 
ATOM      6  C   UNL     1     -10.671  54.564  47.039  0.00  0.00    +0.000 A 
ATOM      7  C   UNL     1      -9.724  53.937  47.869  0.00  0.00    +0.000 A 
ATOM      8  C   UNL     1     -10.765  54.188  45.688  0.00  0.00    +0.000 A 
ATOM      9  C   UNL     1      -8.881  52.955  47.322  0.00  0.00    +0.000 A 
ATOM     10  C   UNL     1      -9.939  53.196  45.163  0.00  0.00    +0.000 A 
ATOM     11  C   UNL     1      -8.995  52.583  45.980  0.00  0.00    +0.000 A 
ENDROOT
BRANCH   1  17
ATOM     12  S   UNL     1     -13.557  59.215  49.487  0.00  0.00    +0.000 S 
ATOM     13  O   UNL     1     -14.683  59.321  48.582  0.00  0.00    +0.000 OA
ATOM     14  O   UNL     1     -12.747  60.380  49.789  0.00  0.00    +0.000 OA
ATOM     15  N   UNL     1     -12.575  58.063  48.908  0.00  0.00    +0.000 N 
ATOM     16  C   UNL     1     -14.212  58.666  51.019  0.00  0.00    +0.000 A 
ATOM     17  C   UNL     1     -12.475  56.910  49.500  0.00  0.00    +0.000 C 
ATOM     18  C   UNL     1     -13.927  57.370  51.417  0.00  0.00    +0.000 A 
ATOM     19  C   UNL     1     -14.980  59.531  51.800  0.00  0.00    +0.000 A 
ATOM     20  N   UNL     1     -13.174  56.514  50.621  0.00  0.00    +0.000 N 
ATOM     21  C   UNL     1     -14.496  56.907  52.613  0.00  0.00    +0.000 A 
ATOM     22  C   UNL     1     -15.510  59.067  53.002  0.00  0.00    +0.000 A 
ATOM     23  C   UNL     1     -15.276  57.754  53.404  0.00  0.00    +0.000 A 
ATOM     24  H   UNL     1     -12.047  58.238  48.095  0.00  0.00    +0.000 HD
ATOM     25  H   UNL     1     -13.139  55.563  50.873  0.00  0.00    +0.000 HD
ENDBRANCH   1  17
BRANCH   3  26
ATOM     26  O   UNL     1     -12.468  56.132  46.696  0.00  0.00    +0.000 OA
ATOM     27  H   UNL     1     -12.160  56.569  45.927  0.00  0.00    +0.000 HD
ENDBRANCH   3  26
BRANCH   5  28
ATOM     28  N   UNL     1      -8.624  53.698  50.048  0.00  0.00    +0.000 N 
ATOM     29  H   UNL     1      -8.716  52.797  50.435  0.00  0.00    +0.000 HD
BRANCH  28  30
ATOM     30  C   UNL     1      -7.427  54.525  50.248  0.00  0.00    +0.000 C 
BRANCH  30  31
ATOM     31  C   UNL     1      -7.239  54.842  51.702  0.00  0.00    +0.000 A 
ATOM     32  S   UNL     1      -6.840  53.594  52.812  0.00  0.00    +0.000 S 
ATOM     33  C   UNL     1      -7.306  56.072  52.327  0.00  0.00    +0.000 A 
ATOM     34  C   UNL     1      -6.749  54.694  54.115  0.00  0.00    +0.000 A 
ATOM     35  C   UNL     1      -7.023  55.985  53.721  0.00  0.00    +0.000 A 
ENDBRANCH  30  31
ENDBRANCH  28  30
ENDBRANCH   5  28
TORSDOF 5
ENDMDL
MODEL 3
REMARK VINA RESULT:      -8.3      2.157      2.450
REMARK  Name = 
REMARK  5 active torsions:
REMARK  status: ('A' for Active; 'I' for Inactive)
REMARK    1  A    between atoms: C_6  and  C_10
REMARK    2  A    between atoms: C_14  and  O_18
REMARK    3  A    between atoms: N_17  and  N_20
REMARK    4  A    between atoms: N_20  and  C_23
REMARK    5  A    between atoms: C_23  and  C_26
REMARK                            x       y       z     vdW  Elec       q    Type
REMARK                         _______ _______ _______ _____ _____    ______ ____
ROOT
ATOM      1  C   UNL     1     -11.155  54.617  50.863  0.00  0.00    +0.000 A 
ATOM      2  C   UNL     1      -9.759  55.017  50.521  0.00  0.00    +0.000 A 
ATOM      3  C   UNL     1     -11.418  53.375  51.303  0.00  0.00    +0.000 A 
ATOM      4  O   UNL     1      -9.583  56.171  50.115  0.00  0.00    +0.000 OA
ATOM      5  N   UNL     1      -8.737  54.083  50.709  0.00  0.00    +0.000 N 
ATOM      6  C   UNL     1     -10.332  52.401  51.486  0.00  0.00    +0.000 A 
ATOM      7  C   UNL     1      -9.008  52.764  51.182  0.00  0.00    +0.000 A 
ATOM      8  C   UNL     1     -10.601  51.112  51.979  0.00  0.00    +0.000 A 
ATOM      9  C   UNL     1      -7.982  51.822  51.365  0.00  0.00    +0.000 A 
ATOM     10  C   UNL     1      -9.572  50.194  52.178  0.00  0.00    +0.000 A 
ATOM     11  C   UNL     1      -8.264  50.548  51.869  0.00  0.00    +0.000 A 
ENDROOT
BRANCH   1  17
ATOM     12  S   UNL     1     -13.621  57.274  49.353  0.00  0.00    +0.000 S 
ATOM     13  O   UNL     1     -14.756  56.654  48.701  0.00  0.00    +0.000 OA
ATOM     14  O   UNL     1     -12.966  58.420  48.752  0.00  0.00    +0.000 OA
ATOM     15  N   UNL     1     -12.502  56.124  49.579  0.00  0.00    +0.000 N 
ATOM     16  C   UNL     1     -14.191  57.808  50.925  0.00  0.00    +0.000 A 
ATOM     17  C   UNL     1     -12.251  55.659  50.767  0.00  0.00    +0.000 C 
ATOM     18  C   UNL     1     -13.739  57.126  52.042  0.00  0.00    +0.000 A 
ATOM     19  C   UNL     1     -15.060  58.896  51.019  0.00  0.00    +0.000 A 
ATOM     20  N   UNL     1     -12.887  56.032  51.932  0.00  0.00    +0.000 N 
ATOM     21  C   UNL     1     -14.238  57.511  53.296  0.00  0.00    +0.000 A 
ATOM     22  C   UNL     1     -15.520  59.287  52.274  0.00  0.00    +0.000 A 
ATOM     23  C   UNL     1     -15.117  58.591  53.411  0.00  0.00    +0.000 A 
ATOM     24  H   UNL     1     -12.005  55.771  48.805  0.00  0.00    +0.000 HD
ATOM     25  H   UNL     1     -12.728  55.490  52.737  0.00  0.00    +0.000 HD
ENDBRANCH   1  17
BRANCH   3  26
ATOM     26  O   UNL     1     -12.680  52.919  51.649  0.00  0.00    +0.000 OA
ATOM     27  H   UNL     1     -12.989  52.100  51.316  0.00  0.00    +0.000 HD
ENDBRANCH   3  26
BRANCH   5  28
ATOM     28  N   UNL     1      -7.386  54.397  50.336  0.00  0.00    +0.000 N 
ATOM     29  H   UNL     1      -6.921  53.942  49.597  0.00  0.00    +0.000 HD
BRANCH  28  30
ATOM     30  C   UNL     1      -6.749  55.449  51.140  0.00  0.00    +0.000 C 
BRANCH  30  31
ATOM     31  C   UNL     1      -6.339  54.916  52.481  0.00  0.00    +0.000 A 
ATOM     32  S   UNL     1      -7.237  55.331  53.884  0.00  0.00    +0.000 S 
ATOM     33  C   UNL     1      -5.301  54.056  52.781  0.00  0.00    +0.000 A 
ATOM     34  C   UNL     1      -6.249  54.359  54.882  0.00  0.00    +0.000 A 
ATOM     35  C   UNL     1      -5.249  53.735  54.168  0.00  0.00    +0.000 A 
ENDBRANCH  30  31
ENDBRANCH  28  30
ENDBRANCH   5  28
TORSDOF 5
ENDMDL
MODEL 4
REMARK VINA RESULT:      -8.2      3.132      8.368
REMARK  Name = 
REMARK  5 active torsions:
REMARK  status: ('A' for Active; 'I' for Inactive)
REMARK    1  A    between atoms: C_6  and  C_10
REMARK    2  A    between atoms: C_14  and  O_18
REMARK    3  A    between atoms: N_17  and  N_20
REMARK    4  A    between atoms: N_20  and  C_23
REMARK    5  A    between atoms: C_23  and  C_26
REMARK                            x       y       z     vdW  Elec       q    Type
REMARK                         _______ _______ _______ _____ _____    ______ ____
ROOT
ATOM      1  C   UNL     1      -9.100  54.337  49.916  0.00  0.00    +0.000 A 
ATOM      2  C   UNL     1     -10.145  55.398  50.015  0.00  0.00    +0.000 A 
ATOM      3  C   UNL     1      -8.992  53.591  48.804  0.00  0.00    +0.000 A 
ATOM      4  O   UNL     1     -10.199  56.044  51.067  0.00  0.00    +0.000 OA
ATOM      5  N   UNL     1     -10.973  55.616  48.912  0.00  0.00    +0.000 N 
ATOM      6  C   UNL     1      -9.877  53.828  47.655  0.00  0.00    +0.000 A 
ATOM      7  C   UNL     1     -10.859  54.832  47.725  0.00  0.00    +0.000 A 
ATOM      8  C   UNL     1      -9.742  53.072  46.478  0.00  0.00    +0.000 A 
ATOM      9  C   UNL     1     -11.695  55.048  46.616  0.00  0.00    +0.000 A 
ATOM     10  C   UNL     1     -10.562  53.311  45.376  0.00  0.00    +0.000 A 
ATOM     11  C   UNL     1     -11.540  54.296  45.448  0.00  0.00    +0.000 A 
ENDROOT
BRANCH   1  17
ATOM     12  S   UNL     1      -7.696  54.069  53.574  0.00  0.00    +0.000 S 
ATOM     13  O   UNL     1      -7.923  52.759  54.148  0.00  0.00    +0.000 OA
ATOM     14  O   UNL     1      -7.886  55.263  54.374  0.00  0.00    +0.000 OA
ATOM     15  N   UNL     1      -8.639  54.193  52.262  0.00  0.00    +0.000 N 
ATOM     16  C   UNL     1      -6.020  54.091  53.055  0.00  0.00    +0.000 A 
ATOM     17  C   UNL     1      -8.128  54.169  51.067  0.00  0.00    +0.000 C 
ATOM     18  C   UNL     1      -5.763  54.074  51.694  0.00  0.00    +0.000 A 
ATOM     19  C   UNL     1      -4.996  54.139  54.003  0.00  0.00    +0.000 A 
ATOM     20  N   UNL     1      -6.793  54.009  50.761  0.00  0.00    +0.000 N 
ATOM     21  C   UNL     1      -4.425  54.032  51.276  0.00  0.00    +0.000 A 
ATOM     22  C   UNL     1      -3.673  54.131  53.571  0.00  0.00    +0.000 A 
ATOM     23  C   UNL     1      -3.386  54.070  52.210  0.00  0.00    +0.000 A 
ATOM     24  H   UNL     1      -9.613  54.288  52.370  0.00  0.00    +0.000 HD
ATOM     25  H   UNL     1      -6.552  53.837  49.822  0.00  0.00    +0.000 HD
ENDBRANCH   1  17
BRANCH   3  26
ATOM     26  O   UNL     1      -8.049  52.592  48.622  0.00  0.00    +0.000 OA
ATOM     27  H   UNL     1      -7.598  52.517  47.805  0.00  0.00    +0.000 HD
ENDBRANCH   3  26
BRANCH   5  28
ATOM     28  N   UNL     1     -12.035  56.582  48.979  0.00  0.00    +0.000 N 
ATOM     29  H   UNL     1     -11.943  57.496  48.623  0.00  0.00    +0.000 HD
BRANCH  28  30
ATOM     30  C   UNL     1     -13.268  56.104  49.618  0.00  0.00    +0.000 C 
BRANCH  30  31
ATOM     31  C   UNL     1     -13.637  56.978  50.780  0.00  0.00    +0.000 A 
ATOM     32  S   UNL     1     -14.239  58.563  50.508  0.00  0.00    +0.000 S 
ATOM     33  C   UNL     1     -13.598  56.677  52.127  0.00  0.00    +0.000 A 
ATOM     34  C   UNL     1     -14.454  58.837  52.180  0.00  0.00    +0.000 A 
ATOM     35  C   UNL     1     -14.070  57.751  52.935  0.00  0.00    +0.000 A 
ENDBRANCH  30  31
ENDBRANCH  28  30
ENDBRANCH   5  28
TORSDOF 5
ENDMDL
MODEL 5
REMARK VINA RESULT:      -8.1      4.239      5.195
REMARK  Name = 
REMARK  5 active torsions:
REMARK  status: ('A' for Active; 'I' for Inactive)
REMARK    1  A    between atoms: C_6  and  C_10
REMARK    2  A    between atoms: C_14  and  O_18
REMARK    3  A    between atoms: N_17  and  N_20
REMARK    4  A    between atoms: N_20  and  C_23
REMARK    5  A    between atoms: C_23  and  C_26
REMARK                            x       y       z     vdW  Elec       q    Type
REMARK                         _______ _______ _______ _____ _____    ______ ____
ROOT
ATOM      1  C   UNL     1     -12.272  54.255  50.125  0.00  0.00    +0.000 A 
ATOM      2  C   UNL     1     -11.986  53.919  48.699  0.00  0.00    +0.000 A 
ATOM      3  C   UNL     1     -11.740  53.521  51.116  0.00  0.00    +0.000 A 
ATOM      4  O   UNL     1     -12.511  54.626  47.834  0.00  0.00    +0.000 OA
ATOM      5  N   UNL     1     -11.124  52.853  48.431  0.00  0.00    +0.000 N 
ATOM      6  C   UNL     1     -10.841  52.397  50.817  0.00  0.00    +0.000 A 
ATOM      7  C   UNL     1     -10.549  52.074  49.480  0.00  0.00    +0.000 A 
ATOM      8  C   UNL     1     -10.256  51.650  51.853  0.00  0.00    +0.000 A 
ATOM      9  C   UNL     1      -9.687  50.998  49.210  0.00  0.00    +0.000 A 
ATOM     10  C   UNL     1      -9.384  50.600  51.574  0.00  0.00    +0.000 A 
ATOM     11  C   UNL     1      -9.102  50.273  50.253  0.00  0.00    +0.000 A 
ENDROOT
BRANCH   1  17
ATOM     12  S   UNL     1     -15.265  56.481  51.354  0.00  0.00    +0.000 S 
ATOM     13  O   UNL     1     -15.233  56.692  52.786  0.00  0.00    +0.000 OA
ATOM     14  O   UNL     1     -16.521  56.214  50.680  0.00  0.00    +0.000 OA
ATOM     15  N   UNL     1     -14.253  55.260  51.020  0.00  0.00    +0.000 N 
ATOM     16  C   UNL     1     -14.624  57.945  50.630  0.00  0.00    +0.000 A 
ATOM     17  C   UNL     1     -13.118  55.476  50.425  0.00  0.00    +0.000 C 
ATOM     18  C   UNL     1     -13.373  57.881  50.039  0.00  0.00    +0.000 A 
ATOM     19  C   UNL     1     -15.377  59.120  50.647  0.00  0.00    +0.000 A 
ATOM     20  N   UNL     1     -12.626  56.707  50.044  0.00  0.00    +0.000 N 
ATOM     21  C   UNL     1     -12.831  59.062  49.511  0.00  0.00    +0.000 A 
ATOM     22  C   UNL     1     -14.840  60.277  50.088  0.00  0.00    +0.000 A 
ATOM     23  C   UNL     1     -13.566  60.251  49.528  0.00  0.00    +0.000 A 
ATOM     24  H   UNL     1     -14.500  54.341  51.273  0.00  0.00    +0.000 HD
ATOM     25  H   UNL     1     -11.686  56.759  49.758  0.00  0.00    +0.000 HD
ENDBRANCH   1  17
BRANCH   3  26
ATOM     26  O   UNL     1     -11.946  53.764  52.465  0.00  0.00    +0.000 OA
ATOM     27  H   UNL     1     -12.473  54.490  52.735  0.00  0.00    +0.000 HD
ENDBRANCH   3  26
BRANCH   5  28
ATOM     28  N   UNL     1     -10.865  52.449  47.076  0.00  0.00    +0.000 N 
ATOM     29  H   UNL     1     -11.314  51.678  46.659  0.00  0.00    +0.000 HD
BRANCH  28  30
ATOM     30  C   UNL     1      -9.881  53.272  46.361  0.00  0.00    +0.000 C 
BRANCH  30  31
ATOM     31  C   UNL     1      -9.622  52.717  44.991  0.00  0.00    +0.000 A 
ATOM     32  S   UNL     1      -8.247  51.728  44.709  0.00  0.00    +0.000 S 
ATOM     33  C   UNL     1     -10.386  52.857  43.850  0.00  0.00    +0.000 A 
ATOM     34  C   UNL     1      -8.679  51.483  43.075  0.00  0.00    +0.000 A 
ATOM     35  C   UNL     1      -9.841  52.144  42.743  0.00  0.00    +0.000 A 
ENDBRANCH  30  31
ENDBRANCH  28  30
ENDBRANCH   5  28
TORSDOF 5
ENDMDL
MODEL 6
REMARK VINA RESULT:      -8.1      3.654      5.038
REMARK  Name = 
REMARK  5 active torsions:
REMARK  status: ('A' for Active; 'I' for Inactive)
REMARK    1  A    between atoms: C_6  and  C_10
REMARK    2  A    between atoms: C_14  and  O_18
REMARK    3  A    between atoms: N_17  and  N_20
REMARK    4  A    between atoms: N_20  and  C_23
REMARK    5  A    between atoms: C_23  and  C_26
REMARK                            x       y       z     vdW  Elec       q    Type
REMARK                         _______ _______ _______ _____ _____    ______ ____
ROOT
ATOM      1  C   UNL     1     -10.646  55.755  48.311  0.00  0.00    +0.000 A 
ATOM      2  C   UNL     1      -9.201  55.852  48.671  0.00  0.00    +0.000 A 
ATOM      3  C   UNL     1     -11.027  55.097  47.203  0.00  0.00    +0.000 A 
ATOM      4  O   UNL     1      -8.914  56.477  49.697  0.00  0.00    +0.000 OA
ATOM      5  N   UNL     1      -8.270  55.211  47.851  0.00  0.00    +0.000 N 
ATOM      6  C   UNL     1     -10.033  54.435  46.345  0.00  0.00    +0.000 A 
ATOM      7  C   UNL     1      -8.668  54.506  46.676  0.00  0.00    +0.000 A 
ATOM      8  C   UNL     1     -10.433  53.718  45.205  0.00  0.00    +0.000 A 
ATOM      9  C   UNL     1      -7.731  53.865  45.848  0.00  0.00    +0.000 A 
ATOM     10  C   UNL     1      -9.497  53.068  44.404  0.00  0.00    +0.000 A 
ATOM     11  C   UNL     1      -8.146  53.145  44.724  0.00  0.00    +0.000 A 
ENDROOT
BRANCH   1  17
ATOM     12  S   UNL     1     -13.225  56.091  51.253  0.00  0.00    +0.000 S 
ATOM     13  O   UNL     1     -12.571  56.305  52.527  0.00  0.00    +0.000 OA
ATOM     14  O   UNL     1     -14.362  55.197  51.153  0.00  0.00    +0.000 OA
ATOM     15  N   UNL     1     -12.097  55.580  50.208  0.00  0.00    +0.000 N 
ATOM     16  C   UNL     1     -13.795  57.665  50.726  0.00  0.00    +0.000 A 
ATOM     17  C   UNL     1     -11.670  56.353  49.254  0.00  0.00    +0.000 C 
ATOM     18  C   UNL     1     -13.152  58.261  49.654  0.00  0.00    +0.000 A 
ATOM     19  C   UNL     1     -14.873  58.270  51.374  0.00  0.00    +0.000 A 
ATOM     20  N   UNL     1     -12.067  57.655  49.029  0.00  0.00    +0.000 N 
ATOM     21  C   UNL     1     -13.565  59.544  49.267  0.00  0.00    +0.000 A 
ATOM     22  C   UNL     1     -15.294  59.530  50.956  0.00  0.00    +0.000 A 
ATOM     23  C   UNL     1     -14.636  60.171  49.910  0.00  0.00    +0.000 A 
ATOM     24  H   UNL     1     -11.729  54.671  50.296  0.00  0.00    +0.000 HD
ATOM     25  H   UNL     1     -11.550  58.189  48.384  0.00  0.00    +0.000 HD
ENDBRANCH   1  17
BRANCH   3  26
ATOM     26  O   UNL     1     -12.343  54.951  46.795  0.00  0.00    +0.000 OA
ATOM     27  H   UNL     1     -13.020  55.447  47.211  0.00  0.00    +0.000 HD
ENDBRANCH   3  26
BRANCH   5  28
ATOM     28  N   UNL     1      -6.863  55.328  48.119  0.00  0.00    +0.000 N 
ATOM     29  H   UNL     1      -6.264  55.887  47.572  0.00  0.00    +0.000 HD
BRANCH  28  30
ATOM     30  C   UNL     1      -6.383  54.549  49.268  0.00  0.00    +0.000 C 
BRANCH  30  31
ATOM     31  C   UNL     1      -5.506  53.420  48.815  0.00  0.00    +0.000 A 
ATOM     32  S   UNL     1      -5.639  51.876  49.554  0.00  0.00    +0.000 S 
ATOM     33  C   UNL     1      -4.567  53.416  47.803  0.00  0.00    +0.000 A 
ATOM     34  C   UNL     1      -4.456  51.208  48.520  0.00  0.00    +0.000 A 
ATOM     35  C   UNL     1      -3.960  52.138  47.633  0.00  0.00    +0.000 A 
ENDBRANCH  30  31
ENDBRANCH  28  30
ENDBRANCH   5  28
TORSDOF 5
ENDMDL
MODEL 7
REMARK VINA RESULT:      -8.0      2.892      8.261
REMARK  Name = 
REMARK  5 active torsions:
REMARK  status: ('A' for Active; 'I' for Inactive)
REMARK    1  A    between atoms: C_6  and  C_10
REMARK    2  A    between atoms: C_14  and  O_18
REMARK    3  A    between atoms: N_17  and  N_20
REMARK    4  A    between atoms: N_20  and  C_23
REMARK    5  A    between atoms: C_23  and  C_26
REMARK                            x       y       z     vdW  Elec       q    Type
REMARK                         _______ _______ _______ _____ _____    ______ ____
ROOT
ATOM      1  C   UNL     1      -9.674  54.217  50.305  0.00  0.00    +0.000 A 
ATOM      2  C   UNL     1     -10.688  55.301  50.457  0.00  0.00    +0.000 A 
ATOM      3  C   UNL     1      -9.497  53.615  49.117  0.00  0.00    +0.000 A 
ATOM      4  O   UNL     1     -10.810  55.810  51.576  0.00  0.00    +0.000 OA
ATOM      5  N   UNL     1     -11.411  55.695  49.328  0.00  0.00    +0.000 N 
ATOM      6  C   UNL     1     -10.272  54.035  47.940  0.00  0.00    +0.000 A 
ATOM      7  C   UNL     1     -11.222  55.065  48.062  0.00  0.00    +0.000 A 
ATOM      8  C   UNL     1     -10.062  53.430  46.689  0.00  0.00    +0.000 A 
ATOM      9  C   UNL     1     -11.953  55.457  46.927  0.00  0.00    +0.000 A 
ATOM     10  C   UNL     1     -10.777  53.843  45.566  0.00  0.00    +0.000 A 
ATOM     11  C   UNL     1     -11.724  54.854  45.687  0.00  0.00    +0.000 A 
ENDROOT
BRANCH   1  17
ATOM     12  S   UNL     1      -6.597  54.064  52.739  0.00  0.00    +0.000 S 
ATOM     13  O   UNL     1      -6.513  55.238  53.583  0.00  0.00    +0.000 OA
ATOM     14  O   UNL     1      -5.400  53.497  52.150  0.00  0.00    +0.000 OA
ATOM     15  N   UNL     1      -7.630  54.403  51.537  0.00  0.00    +0.000 N 
ATOM     16  C   UNL     1      -7.299  52.799  53.732  0.00  0.00    +0.000 A 
ATOM     17  C   UNL     1      -8.810  53.860  51.497  0.00  0.00    +0.000 C 
ATOM     18  C   UNL     1      -8.594  52.398  53.449  0.00  0.00    +0.000 A 
ATOM     19  C   UNL     1      -6.550  52.220  54.758  0.00  0.00    +0.000 A 
ATOM     20  N   UNL     1      -9.335  52.995  52.434  0.00  0.00    +0.000 N 
ATOM     21  C   UNL     1      -9.180  51.429  54.276  0.00  0.00    +0.000 A 
ATOM     22  C   UNL     1      -7.134  51.234  55.549  0.00  0.00    +0.000 A 
ATOM     23  C   UNL     1      -8.450  50.844  55.315  0.00  0.00    +0.000 A 
ATOM     24  H   UNL     1      -7.360  55.030  50.827  0.00  0.00    +0.000 HD
ATOM     25  H   UNL     1     -10.295  52.787  52.383  0.00  0.00    +0.000 HD
ENDBRANCH   1  17
BRANCH   3  26
ATOM     26  O   UNL     1      -8.576  52.606  48.882  0.00  0.00    +0.000 OA
ATOM     27  H   UNL     1      -7.992  52.665  48.152  0.00  0.00    +0.000 HD
ENDBRANCH   3  26
BRANCH   5  28
ATOM     28  N   UNL     1     -12.442  56.691  49.435  0.00  0.00    +0.000 N 
ATOM     29  H   UNL     1     -12.305  57.626  49.159  0.00  0.00    +0.000 HD
BRANCH  28  30
ATOM     30  C   UNL     1     -13.714  56.209  49.988  0.00  0.00    +0.000 C 
BRANCH  30  31
ATOM     31  C   UNL     1     -14.209  57.131  51.063  0.00  0.00    +0.000 A 
ATOM     32  S   UNL     1     -14.326  58.817  50.764  0.00  0.00    +0.000 S 
ATOM     33  C   UNL     1     -14.647  56.811  52.333  0.00  0.00    +0.000 A 
ATOM     34  C   UNL     1     -14.968  59.113  52.318  0.00  0.00    +0.000 A 
ATOM     35  C   UNL     1     -15.086  57.957  53.057  0.00  0.00    +0.000 A 
ENDBRANCH  30  31
ENDBRANCH  28  30
ENDBRANCH   5  28
TORSDOF 5
ENDMDL
MODEL 8
REMARK VINA RESULT:      -8.0      4.513      7.377
REMARK  Name = 
REMARK  5 active torsions:
REMARK  status: ('A' for Active; 'I' for Inactive)
REMARK    1  A    between atoms: C_6  and  C_10
REMARK    2  A    between atoms: C_14  and  O_18
REMARK    3  A    between atoms: N_17  and  N_20
REMARK    4  A    between atoms: N_20  and  C_23
REMARK    5  A    between atoms: C_23  and  C_26
REMARK                            x       y       z     vdW  Elec       q    Type
REMARK                         _______ _______ _______ _____ _____    ______ ____
ROOT
ATOM      1  C   UNL     1     -11.330  54.708  48.335  0.00  0.00    +0.000 A 
ATOM      2  C   UNL     1     -11.152  54.212  49.731  0.00  0.00    +0.000 A 
ATOM      3  C   UNL     1     -12.192  55.705  48.073  0.00  0.00    +0.000 A 
ATOM      4  O   UNL     1     -10.351  53.288  49.907  0.00  0.00    +0.000 OA
ATOM      5  N   UNL     1     -11.872  54.836  50.753  0.00  0.00    +0.000 N 
ATOM      6  C   UNL     1     -12.948  56.346  49.158  0.00  0.00    +0.000 A 
ATOM      7  C   UNL     1     -12.784  55.900  50.482  0.00  0.00    +0.000 A 
ATOM      8  C   UNL     1     -13.824  57.411  48.890  0.00  0.00    +0.000 A 
ATOM      9  C   UNL     1     -13.513  56.525  51.508  0.00  0.00    +0.000 A 
ATOM     10  C   UNL     1     -14.524  58.038  49.919  0.00  0.00    +0.000 A 
ATOM     11  C   UNL     1     -14.370  57.593  51.227  0.00  0.00    +0.000 A 
ENDROOT
BRANCH   1  17
ATOM     12  S   UNL     1      -8.223  53.955  46.055  0.00  0.00    +0.000 S 
ATOM     13  O   UNL     1      -7.302  53.028  46.680  0.00  0.00    +0.000 OA
ATOM     14  O   UNL     1      -7.724  55.107  45.329  0.00  0.00    +0.000 OA
ATOM     15  N   UNL     1      -9.229  54.490  47.207  0.00  0.00    +0.000 N 
ATOM     16  C   UNL     1      -9.153  53.016  44.900  0.00  0.00    +0.000 A 
ATOM     17  C   UNL     1     -10.472  54.109  47.239  0.00  0.00    +0.000 C 
ATOM     18  C   UNL     1     -10.485  52.771  45.189  0.00  0.00    +0.000 A 
ATOM     19  C   UNL     1      -8.550  52.556  43.729  0.00  0.00    +0.000 A 
ATOM     20  N   UNL     1     -11.068  53.221  46.369  0.00  0.00    +0.000 N 
ATOM     21  C   UNL     1     -11.217  51.971  44.299  0.00  0.00    +0.000 A 
ATOM     22  C   UNL     1      -9.300  51.792  42.837  0.00  0.00    +0.000 A 
ATOM     23  C   UNL     1     -10.629  51.493  43.125  0.00  0.00    +0.000 A 
ATOM     24  H   UNL     1      -8.895  55.113  47.893  0.00  0.00    +0.000 HD
ATOM     25  H   UNL     1     -11.964  52.883  46.598  0.00  0.00    +0.000 HD
ENDBRANCH   1  17
BRANCH   3  26
ATOM     26  O   UNL     1     -12.415  56.232  46.811  0.00  0.00    +0.000 OA
ATOM     27  H   UNL     1     -12.502  55.661  46.073  0.00  0.00    +0.000 HD
ENDBRANCH   3  26
BRANCH   5  28
ATOM     28  N   UNL     1     -11.784  54.356  52.104  0.00  0.00    +0.000 N 
ATOM     29  H   UNL     1     -12.471  53.773  52.505  0.00  0.00    +0.000 HD
BRANCH  28  30
ATOM     30  C   UNL     1     -10.595  54.798  52.844  0.00  0.00    +0.000 C 
BRANCH  30  31
ATOM     31  C   UNL     1      -9.816  53.619  53.349  0.00  0.00    +0.000 A 
ATOM     32  S   UNL     1      -8.104  53.603  53.227  0.00  0.00    +0.000 S 
ATOM     33  C   UNL     1     -10.289  52.482  53.972  0.00  0.00    +0.000 A 
ATOM     34  C   UNL     1      -7.999  52.089  54.010  0.00  0.00    +0.000 A 
ATOM     35  C   UNL     1      -9.239  51.598  54.354  0.00  0.00    +0.000 A 
ENDBRANCH  30  31
ENDBRANCH  28  30
ENDBRANCH   5  28
TORSDOF 5
ENDMDL
MODEL 9
REMARK VINA RESULT:      -7.9      3.771      6.901
REMARK  Name = 
REMARK  5 active torsions:
REMARK  status: ('A' for Active; 'I' for Inactive)
REMARK    1  A    between atoms: C_6  and  C_10
REMARK    2  A    between atoms: C_14  and  O_18
REMARK    3  A    between atoms: N_17  and  N_20
REMARK    4  A    between atoms: N_20  and  C_23
REMARK    5  A    between atoms: C_23  and  C_26
REMARK                            x       y       z     vdW  Elec       q    Type
REMARK                         _______ _______ _______ _____ _____    ______ ____
ROOT
ATOM      1  C   UNL     1     -12.089  55.068  48.995  0.00  0.00    +0.000 A 
ATOM      2  C   UNL     1     -11.543  54.627  50.312  0.00  0.00    +0.000 A 
ATOM      3  C   UNL     1     -13.027  56.028  48.935  0.00  0.00    +0.000 A 
ATOM      4  O   UNL     1     -10.689  53.734  50.302  0.00  0.00    +0.000 OA
ATOM      5  N   UNL     1     -12.004  55.264  51.467  0.00  0.00    +0.000 N 
ATOM      6  C   UNL     1     -13.507  56.683  50.161  0.00  0.00    +0.000 A 
ATOM      7  C   UNL     1     -12.995  56.289  51.410  0.00  0.00    +0.000 A 
ATOM      8  C   UNL     1     -14.463  57.711  50.097  0.00  0.00    +0.000 A 
ATOM      9  C   UNL     1     -13.463  56.927  52.571  0.00  0.00    +0.000 A 
ATOM     10  C   UNL     1     -14.903  58.352  51.254  0.00  0.00    +0.000 A 
ATOM     11  C   UNL     1     -14.404  57.958  52.490  0.00  0.00    +0.000 A 
ENDROOT
BRANCH   1  17
ATOM     12  S   UNL     1     -11.563  52.625  45.966  0.00  0.00    +0.000 S 
ATOM     13  O   UNL     1     -12.501  52.880  44.893  0.00  0.00    +0.000 OA
ATOM     14  O   UNL     1     -11.239  51.264  46.348  0.00  0.00    +0.000 OA
ATOM     15  N   UNL     1     -12.111  53.394  47.283  0.00  0.00    +0.000 N 
ATOM     16  C   UNL     1     -10.050  53.369  45.480  0.00  0.00    +0.000 A 
ATOM     17  C   UNL     1     -11.515  54.458  47.733  0.00  0.00    +0.000 C 
ATOM     18  C   UNL     1      -9.642  54.507  46.156  0.00  0.00    +0.000 A 
ATOM     19  C   UNL     1      -9.293  52.805  44.452  0.00  0.00    +0.000 A 
ATOM     20  N   UNL     1     -10.415  55.068  47.168  0.00  0.00    +0.000 N 
ATOM     21  C   UNL     1      -8.463  55.139  45.733  0.00  0.00    +0.000 A 
ATOM     22  C   UNL     1      -8.108  53.425  44.065  0.00  0.00    +0.000 A 
ATOM     23  C   UNL     1      -7.697  54.595  44.699  0.00  0.00    +0.000 A 
ATOM     24  H   UNL     1     -12.908  53.052  47.750  0.00  0.00    +0.000 HD
ATOM     25  H   UNL     1     -10.160  55.959  47.501  0.00  0.00    +0.000 HD
ENDBRANCH   1  17
BRANCH   3  26
ATOM     26  O   UNL     1     -13.584  56.503  47.759  0.00  0.00    +0.000 OA
ATOM     27  H   UNL     1     -13.029  56.801  47.065  0.00  0.00    +0.000 HD
ENDBRANCH   3  26
BRANCH   5  28
ATOM     28  N   UNL     1     -11.558  54.834  52.763  0.00  0.00    +0.000 N 
ATOM     29  H   UNL     1     -12.171  54.465  53.439  0.00  0.00    +0.000 HD
BRANCH  28  30
ATOM     30  C   UNL     1     -10.117  54.988  53.006  0.00  0.00    +0.000 C 
BRANCH  30  31
ATOM     31  C   UNL     1      -9.517  53.693  53.470  0.00  0.00    +0.000 A 
ATOM     32  S   UNL     1      -7.811  53.529  53.588  0.00  0.00    +0.000 S 
ATOM     33  C   UNL     1     -10.165  52.545  53.879  0.00  0.00    +0.000 A 
ATOM     34  C   UNL     1      -7.943  51.937  54.191  0.00  0.00    +0.000 A 
ATOM     35  C   UNL     1      -9.255  51.530  54.295  0.00  0.00    +0.000 A 
ENDBRANCH  30  31
ENDBRANCH  28  30
ENDBRANCH   5  28
TORSDOF 5
ENDMDL
