MODEL 1
REMARK VINA RESULT:      -8.4      0.000      0.000
REMARK  Name = 
REMARK  6 active torsions:
REMARK  status: ('A' for Active; 'I' for Inactive)
REMARK    1  A    between atoms: C_6  and  C_10
REMARK    2  A    between atoms: C_14  and  O_18
REMARK    3  A    between atoms: N_17  and  N_20
REMARK    4  A    between atoms: N_20  and  C_23
REMARK    5  A    between atoms: C_23  and  C_26
REMARK    6  A    between atoms: C_23  and  C_27
REMARK                            x       y       z     vdW  Elec       q    Type
REMARK                         _______ _______ _______ _____ _____    ______ ____
ROOT
ATOM      1  C   UNL     1     -10.090  54.510  52.237  0.00  0.00    +0.000 A 
ATOM      2  C   UNL     1      -8.706  55.045  52.067  0.00  0.00    +0.000 A 
ATOM      3  C   UNL     1     -10.302  53.417  52.992  0.00  0.00    +0.000 A 
ATOM      4  O   UNL     1      -8.525  55.998  51.302  0.00  0.00    +0.000 OA
ATOM      5  N   UNL     1      -7.690  54.464  52.830  0.00  0.00    +0.000 N 
ATOM      6  C   UNL     1      -9.188  52.744  53.679  0.00  0.00    +0.000 A 
ATOM      7  C   UNL     1      -7.898  53.290  53.604  0.00  0.00    +0.000 A 
ATOM      8  C   UNL     1      -9.399  51.579  54.434  0.00  0.00    +0.000 A 
ATOM      9  C   UNL     1      -6.845  52.662  54.291  0.00  0.00    +0.000 A 
ATOM     10  C   UNL     1      -8.348  50.964  55.112  0.00  0.00    +0.000 A 
ATOM     11  C   UNL     1      -7.069  51.506  55.042  0.00  0.00    +0.000 A 
ENDROOT
BRANCH   1  17
ATOM     12  S   UNL     1     -12.521  56.031  49.549  0.00  0.00    +0.000 S 
ATOM     13  O   UNL     1     -13.390  55.018  48.984  0.00  0.00    +0.000 OA
ATOM     14  O   UNL     1     -11.924  57.041  48.698  0.00  0.00    +0.000 OA
ATOM     15  N   UNL     1     -11.327  55.266  50.330  0.00  0.00    +0.000 N 
ATOM     16  C   UNL     1     -13.485  56.897  50.729  0.00  0.00    +0.000 A 
ATOM     17  C   UNL     1     -11.256  55.271  51.628  0.00  0.00    +0.000 C 
ATOM     18  C   UNL     1     -13.180  56.728  52.069  0.00  0.00    +0.000 A 
ATOM     19  C   UNL     1     -14.522  57.732  50.301  0.00  0.00    +0.000 A 
ATOM     20  N   UNL     1     -12.147  55.887  52.479  0.00  0.00    +0.000 N 
ATOM     21  C   UNL     1     -13.996  57.357  53.015  0.00  0.00    +0.000 A 
ATOM     22  C   UNL     1     -15.302  58.384  51.252  0.00  0.00    +0.000 A 
ATOM     23  C   UNL     1     -15.047  58.187  52.609  0.00  0.00    +0.000 A 
ATOM     24  H   UNL     1     -10.641  54.787  49.812  0.00  0.00    +0.000 HD
ATOM     25  H   UNL     1     -12.046  55.723  53.445  0.00  0.00    +0.000 HD
ENDBRANCH   1  17
BRANCH   3  26
ATOM     26  O   UNL     1     -11.545  52.857  53.229  0.00  0.00    +0.000 OA
ATOM     27  H   UNL     1     -12.315  53.386  53.172  0.00  0.00    +0.000 HD
ENDBRANCH   3  26
BRANCH   5  28
ATOM     28  N   UNL     1      -6.369  55.009  52.765  0.00  0.00    +0.000 N 
ATOM     29  H   UNL     1      -6.096  55.819  53.255  0.00  0.00    +0.000 HD
BRANCH  28  30
ATOM     30  C   UNL     1      -5.453  54.245  51.895  0.00  0.00    +0.000 C 
ATOM     31  C   UNL     1      -5.447  54.732  50.445  0.00  0.00    +0.000 C 
ATOM     32  C   UNL     1      -4.043  54.351  52.479  0.00  0.00    +0.000 C 
ENDBRANCH  28  30
ENDBRANCH   5  28
TORSDOF 4
ENDMDL
MODEL 2
REMARK VINA RESULT:      -8.3      2.966      7.218
REMARK  Name = 
REMARK  6 active torsions:
REMARK  status: ('A' for Active; 'I' for Inactive)
REMARK    1  A    between atoms: C_6  and  C_10
REMARK    2  A    between atoms: C_14  and  O_18
REMARK    3  A    between atoms: N_17  and  N_20
REMARK    4  A    between atoms: N_20  and  C_23
REMARK    5  A    between atoms: C_23  and  C_26
REMARK    6  A    between atoms: C_23  and  C_27
REMARK                            x       y       z     vdW  Elec       q    Type
REMARK                         _______ _______ _______ _____ _____    ______ ____
ROOT
ATOM      1  C   UNL     1     -10.193  55.285  50.724  0.00  0.00    +0.000 A 
ATOM      2  C   UNL     1      -9.760  55.344  49.296  0.00  0.00    +0.000 A 
ATOM      3  C   UNL     1     -11.437  55.666  51.068  0.00  0.00    +0.000 A 
ATOM      4  O   UNL     1      -8.588  55.071  49.017  0.00  0.00    +0.000 OA
ATOM      5  N   UNL     1     -10.728  55.657  48.339  0.00  0.00    +0.000 N 
ATOM      6  C   UNL     1     -12.397  56.121  50.049  0.00  0.00    +0.000 A 
ATOM      7  C   UNL     1     -12.035  56.091  48.694  0.00  0.00    +0.000 A 
ATOM      8  C   UNL     1     -13.683  56.557  50.408  0.00  0.00    +0.000 A 
ATOM      9  C   UNL     1     -12.968  56.494  47.725  0.00  0.00    +0.000 A 
ATOM     10  C   UNL     1     -14.602  56.954  49.438  0.00  0.00    +0.000 A 
ATOM     11  C   UNL     1     -14.245  56.922  48.094  0.00  0.00    +0.000 A 
ENDROOT
BRANCH   1  17
ATOM     12  S   UNL     1      -7.012  54.816  52.985  0.00  0.00    +0.000 S 
ATOM     13  O   UNL     1      -6.979  55.784  54.064  0.00  0.00    +0.000 OA
ATOM     14  O   UNL     1      -5.801  54.485  52.262  0.00  0.00    +0.000 OA
ATOM     15  N   UNL     1      -8.113  55.324  51.912  0.00  0.00    +0.000 N 
ATOM     16  C   UNL     1      -7.583  53.317  53.692  0.00  0.00    +0.000 A 
ATOM     17  C   UNL     1      -9.246  54.703  51.760  0.00  0.00    +0.000 C 
ATOM     18  C   UNL     1      -8.846  52.871  53.341  0.00  0.00    +0.000 A 
ATOM     19  C   UNL     1      -6.762  52.609  54.577  0.00  0.00    +0.000 A 
ATOM     20  N   UNL     1      -9.653  53.591  52.463  0.00  0.00    +0.000 N 
ATOM     21  C   UNL     1      -9.333  51.716  53.963  0.00  0.00    +0.000 A 
ATOM     22  C   UNL     1      -7.244  51.440  55.157  0.00  0.00    +0.000 A 
ATOM     23  C   UNL     1      -8.533  50.999  54.860  0.00  0.00    +0.000 A 
ATOM     24  H   UNL     1      -7.921  56.117  51.363  0.00  0.00    +0.000 HD
ATOM     25  H   UNL     1     -10.580  53.283  52.336  0.00  0.00    +0.000 HD
ENDBRANCH   1  17
BRANCH   3  26
ATOM     26  O   UNL     1     -11.941  55.629  52.356  0.00  0.00    +0.000 OA
ATOM     27  H   UNL     1     -11.364  55.488  53.080  0.00  0.00    +0.000 HD
ENDBRANCH   3  26
BRANCH   5  28
ATOM     28  N   UNL     1     -10.375  55.632  46.954  0.00  0.00    +0.000 N 
ATOM     29  H   UNL     1     -10.137  56.440  46.444  0.00  0.00    +0.000 HD
BRANCH  28  30
ATOM     30  C   UNL     1     -10.401  54.280  46.358  0.00  0.00    +0.000 C 
ATOM     31  C   UNL     1     -11.578  54.061  45.407  0.00  0.00    +0.000 C 
ATOM     32  C   UNL     1      -9.086  54.067  45.606  0.00  0.00    +0.000 C 
ENDBRANCH  28  30
ENDBRANCH   5  28
TORSDOF 4
ENDMDL
MODEL 3
REMARK VINA RESULT:      -8.3      3.859      5.468
REMARK  Name = 
REMARK  6 active torsions:
REMARK  status: ('A' for Active; 'I' for Inactive)
REMARK    1  A    between atoms: C_6  and  C_10
REMARK    2  A    between atoms: C_14  and  O_18
REMARK    3  A    between atoms: N_17  and  N_20
REMARK    4  A    between atoms: N_20  and  C_23
REMARK    5  A    between atoms: C_23  and  C_26
REMARK    6  A    between atoms: C_23  and  C_27
REMARK                            x       y       z     vdW  Elec       q    Type
REMARK                         _______ _______ _______ _____ _____    ______ ____
ROOT
ATOM      1  C   UNL     1     -10.687  55.631  48.067  0.00  0.00    +0.000 A 
ATOM      2  C   UNL     1      -9.220  55.800  48.289  0.00  0.00    +0.000 A 
ATOM      3  C   UNL     1     -11.132  54.916  47.018  0.00  0.00    +0.000 A 
ATOM      4  O   UNL     1      -8.837  56.532  49.209  0.00  0.00    +0.000 OA
ATOM      5  N   UNL     1      -8.354  55.074  47.469  0.00  0.00    +0.000 N 
ATOM      6  C   UNL     1     -10.191  54.270  46.090  0.00  0.00    +0.000 A 
ATOM      7  C   UNL     1      -8.812  54.342  46.340  0.00  0.00    +0.000 A 
ATOM      8  C   UNL     1     -10.650  53.556  44.971  0.00  0.00    +0.000 A 
ATOM      9  C   UNL     1      -7.921  53.694  45.468  0.00  0.00    +0.000 A 
ATOM     10  C   UNL     1      -9.758  52.916  44.112  0.00  0.00    +0.000 A 
ATOM     11  C   UNL     1      -8.391  52.984  44.362  0.00  0.00    +0.000 A 
ENDROOT
BRANCH   1  17
ATOM     12  S   UNL     1     -12.988  55.884  51.245  0.00  0.00    +0.000 S 
ATOM     13  O   UNL     1     -12.208  56.076  52.452  0.00  0.00    +0.000 OA
ATOM     14  O   UNL     1     -14.122  54.981  51.242  0.00  0.00    +0.000 OA
ATOM     15  N   UNL     1     -11.969  55.409  50.079  0.00  0.00    +0.000 N 
ATOM     16  C   UNL     1     -13.620  57.461  50.815  0.00  0.00    +0.000 A 
ATOM     17  C   UNL     1     -11.659  56.195  49.090  0.00  0.00    +0.000 C 
ATOM     18  C   UNL     1     -13.113  58.079  49.684  0.00  0.00    +0.000 A 
ATOM     19  C   UNL     1     -14.610  58.052  51.607  0.00  0.00    +0.000 A 
ATOM     20  N   UNL     1     -12.122  57.480  48.910  0.00  0.00    +0.000 N 
ATOM     21  C   UNL     1     -13.561  59.371  49.384  0.00  0.00    +0.000 A 
ATOM     22  C   UNL     1     -15.075  59.321  51.273  0.00  0.00    +0.000 A 
ATOM     23  C   UNL     1     -14.542  59.985  50.169  0.00  0.00    +0.000 A 
ATOM     24  H   UNL     1     -11.576  54.508  50.120  0.00  0.00    +0.000 HD
ATOM     25  H   UNL     1     -11.725  58.011  48.182  0.00  0.00    +0.000 HD
ENDBRANCH   1  17
BRANCH   3  26
ATOM     26  O   UNL     1     -12.467  54.683  46.738  0.00  0.00    +0.000 OA
ATOM     27  H   UNL     1     -13.078  54.564  47.437  0.00  0.00    +0.000 HD
ENDBRANCH   3  26
BRANCH   5  28
ATOM     28  N   UNL     1      -6.946  55.137  47.711  0.00  0.00    +0.000 N 
ATOM     29  H   UNL     1      -6.327  55.663  47.155  0.00  0.00    +0.000 HD
BRANCH  28  30
ATOM     30  C   UNL     1      -6.506  54.339  48.874  0.00  0.00    +0.000 C 
ATOM     31  C   UNL     1      -6.071  52.920  48.504  0.00  0.00    +0.000 C 
ATOM     32  C   UNL     1      -5.345  55.076  49.544  0.00  0.00    +0.000 C 
ENDBRANCH  28  30
ENDBRANCH   5  28
TORSDOF 4
ENDMDL
MODEL 4
REMARK VINA RESULT:      -8.1      2.600      7.722
REMARK  Name = 
REMARK  6 active torsions:
REMARK  status: ('A' for Active; 'I' for Inactive)
REMARK    1  A    between atoms: C_6  and  C_10
REMARK    2  A    between atoms: C_14  and  O_18
REMARK    3  A    between atoms: N_17  and  N_20
REMARK    4  A    between atoms: N_20  and  C_23
REMARK    5  A    between atoms: C_23  and  C_26
REMARK    6  A    between atoms: C_23  and  C_27
REMARK                            x       y       z     vdW  Elec       q    Type
REMARK                         _______ _______ _______ _____ _____    ______ ____
ROOT
ATOM      1  C   UNL     1     -10.505  54.977  50.921  0.00  0.00    +0.000 A 
ATOM      2  C   UNL     1     -11.685  55.743  51.421  0.00  0.00    +0.000 A 
ATOM      3  C   UNL     1     -10.321  54.809  49.599  0.00  0.00    +0.000 A 
ATOM      4  O   UNL     1     -11.878  55.812  52.640  0.00  0.00    +0.000 OA
ATOM      5  N   UNL     1     -12.485  56.390  50.476  0.00  0.00    +0.000 N 
ATOM      6  C   UNL     1     -11.259  55.391  48.626  0.00  0.00    +0.000 A 
ATOM      7  C   UNL     1     -12.319  56.191  49.078  0.00  0.00    +0.000 A 
ATOM      8  C   UNL     1     -11.094  55.183  47.246  0.00  0.00    +0.000 A 
ATOM      9  C   UNL     1     -13.189  56.772  48.141  0.00  0.00    +0.000 A 
ATOM     10  C   UNL     1     -11.964  55.765  46.325  0.00  0.00    +0.000 A 
ATOM     11  C   UNL     1     -13.013  56.561  46.772  0.00  0.00    +0.000 A 
ENDROOT
BRANCH   1  17
ATOM     12  S   UNL     1      -7.180  54.742  53.005  0.00  0.00    +0.000 S 
ATOM     13  O   UNL     1      -7.134  55.747  54.048  0.00  0.00    +0.000 OA
ATOM     14  O   UNL     1      -5.997  54.444  52.222  0.00  0.00    +0.000 OA
ATOM     15  N   UNL     1      -8.365  55.157  51.982  0.00  0.00    +0.000 N 
ATOM     16  C   UNL     1      -7.633  53.242  53.792  0.00  0.00    +0.000 A 
ATOM     17  C   UNL     1      -9.471  54.478  51.918  0.00  0.00    +0.000 C 
ATOM     18  C   UNL     1      -8.890  52.724  53.531  0.00  0.00    +0.000 A 
ATOM     19  C   UNL     1      -6.729  52.607  54.649  0.00  0.00    +0.000 A 
ATOM     20  N   UNL     1      -9.781  53.373  52.679  0.00  0.00    +0.000 N 
ATOM     21  C   UNL     1      -9.282  51.570  54.217  0.00  0.00    +0.000 A 
ATOM     22  C   UNL     1      -7.117  51.437  55.295  0.00  0.00    +0.000 A 
ATOM     23  C   UNL     1      -8.397  50.924  55.088  0.00  0.00    +0.000 A 
ATOM     24  H   UNL     1      -8.244  55.940  51.397  0.00  0.00    +0.000 HD
ATOM     25  H   UNL     1     -10.697  53.016  52.616  0.00  0.00    +0.000 HD
ENDBRANCH   1  17
BRANCH   3  26
ATOM     26  O   UNL     1      -9.252  54.136  49.035  0.00  0.00    +0.000 OA
ATOM     27  H   UNL     1      -8.858  54.459  48.249  0.00  0.00    +0.000 HD
ENDBRANCH   3  26
BRANCH   5  28
ATOM     28  N   UNL     1     -13.569  57.209  50.921  0.00  0.00    +0.000 N 
ATOM     29  H   UNL     1     -13.566  58.191  50.849  0.00  0.00    +0.000 HD
BRANCH  28  30
ATOM     30  C   UNL     1     -14.693  56.445  51.498  0.00  0.00    +0.000 C 
ATOM     31  C   UNL     1     -15.300  57.105  52.737  0.00  0.00    +0.000 C 
ATOM     32  C   UNL     1     -15.767  56.290  50.419  0.00  0.00    +0.000 C 
ENDBRANCH  28  30
ENDBRANCH   5  28
TORSDOF 4
ENDMDL
MODEL 5
REMARK VINA RESULT:      -8.0      3.104      7.274
REMARK  Name = 
REMARK  6 active torsions:
REMARK  status: ('A' for Active; 'I' for Inactive)
REMARK    1  A    between atoms: C_6  and  C_10
REMARK    2  A    between atoms: C_14  and  O_18
REMARK    3  A    between atoms: N_17  and  N_20
REMARK    4  A    between atoms: N_20  and  C_23
REMARK    5  A    between atoms: C_23  and  C_26
REMARK    6  A    between atoms: C_23  and  C_27
REMARK                            x       y       z     vdW  Elec       q    Type
REMARK                         _______ _______ _______ _____ _____    ______ ____
ROOT
ATOM      1  C   UNL     1     -10.388  54.990  50.512  0.00  0.00    +0.000 A 
ATOM      2  C   UNL     1      -9.906  55.066  49.100  0.00  0.00    +0.000 A 
ATOM      3  C   UNL     1     -11.606  55.460  50.835  0.00  0.00    +0.000 A 
ATOM      4  O   UNL     1      -8.752  54.707  48.844  0.00  0.00    +0.000 OA
ATOM      5  N   UNL     1     -10.815  55.495  48.130  0.00  0.00    +0.000 N 
ATOM      6  C   UNL     1     -12.492  56.031  49.809  0.00  0.00    +0.000 A 
ATOM      7  C   UNL     1     -12.091  56.022  48.465  0.00  0.00    +0.000 A 
ATOM      8  C   UNL     1     -13.749  56.559  50.148  0.00  0.00    +0.000 A 
ATOM      9  C   UNL     1     -12.957  56.539  47.486  0.00  0.00    +0.000 A 
ATOM     10  C   UNL     1     -14.601  57.069  49.170  0.00  0.00    +0.000 A 
ATOM     11  C   UNL     1     -14.205  57.057  47.836  0.00  0.00    +0.000 A 
ENDROOT
BRANCH   1  17
ATOM     12  S   UNL     1      -9.125  52.279  53.064  0.00  0.00    +0.000 S 
ATOM     13  O   UNL     1      -8.554  51.134  52.384  0.00  0.00    +0.000 OA
ATOM     14  O   UNL     1      -9.980  52.094  54.219  0.00  0.00    +0.000 OA
ATOM     15  N   UNL     1      -9.950  53.136  51.964  0.00  0.00    +0.000 N 
ATOM     16  C   UNL     1      -7.770  53.246  53.612  0.00  0.00    +0.000 A 
ATOM     17  C   UNL     1      -9.524  54.293  51.551  0.00  0.00    +0.000 C 
ATOM     18  C   UNL     1      -7.549  54.466  52.995  0.00  0.00    +0.000 A 
ATOM     19  C   UNL     1      -6.956  52.778  54.648  0.00  0.00    +0.000 A 
ATOM     20  N   UNL     1      -8.366  54.916  51.960  0.00  0.00    +0.000 N 
ATOM     21  C   UNL     1      -6.423  55.203  53.378  0.00  0.00    +0.000 A 
ATOM     22  C   UNL     1      -5.862  53.540  55.047  0.00  0.00    +0.000 A 
ATOM     23  C   UNL     1      -5.589  54.747  54.404  0.00  0.00    +0.000 A 
ATOM     24  H   UNL     1     -10.790  52.773  51.602  0.00  0.00    +0.000 HD
ATOM     25  H   UNL     1      -8.097  55.737  51.488  0.00  0.00    +0.000 HD
ENDBRANCH   1  17
BRANCH   3  26
ATOM     26  O   UNL     1     -12.151  55.417  52.106  0.00  0.00    +0.000 OA
ATOM     27  H   UNL     1     -12.323  54.591  52.514  0.00  0.00    +0.000 HD
ENDBRANCH   3  26
BRANCH   5  28
ATOM     28  N   UNL     1     -10.421  55.492  46.755  0.00  0.00    +0.000 N 
ATOM     29  H   UNL     1     -10.183  56.311  46.262  0.00  0.00    +0.000 HD
BRANCH  28  30
ATOM     30  C   UNL     1     -10.404  54.148  46.144  0.00  0.00    +0.000 C 
ATOM     31  C   UNL     1     -11.596  53.886  45.223  0.00  0.00    +0.000 C 
ATOM     32  C   UNL     1      -9.102  54.001  45.354  0.00  0.00    +0.000 C 
ENDBRANCH  28  30
ENDBRANCH   5  28
TORSDOF 4
ENDMDL
MODEL 6
REMARK VINA RESULT:      -7.9      3.517      5.192
REMARK  Name = 
REMARK  6 active torsions:
REMARK  status: ('A' for Active; 'I' for Inactive)
REMARK    1  A    between atoms: C_6  and  C_10
REMARK    2  A    between atoms: C_14  and  O_18
REMARK    3  A    between atoms: N_17  and  N_20
REMARK    4  A    between atoms: N_20  and  C_23
REMARK    5  A    between atoms: C_23  and  C_26
REMARK    6  A    between atoms: C_23  and  C_27
REMARK                            x       y       z     vdW  Elec       q    Type
REMARK                         _______ _______ _______ _____ _____    ______ ____
ROOT
ATOM      1  C   UNL     1     -11.474  56.072  48.719  0.00  0.00    +0.000 A 
ATOM      2  C   UNL     1     -10.315  55.517  49.480  0.00  0.00    +0.000 A 
ATOM      3  C   UNL     1     -11.718  55.656  47.463  0.00  0.00    +0.000 A 
ATOM      4  O   UNL     1     -10.061  55.977  50.598  0.00  0.00    +0.000 OA
ATOM      5  N   UNL     1      -9.606  54.462  48.900  0.00  0.00    +0.000 N 
ATOM      6  C   UNL     1     -10.869  54.636  46.827  0.00  0.00    +0.000 A 
ATOM      7  C   UNL     1      -9.836  54.037  47.563  0.00  0.00    +0.000 A 
ATOM      8  C   UNL     1     -11.096  54.227  45.502  0.00  0.00    +0.000 A 
ATOM      9  C   UNL     1      -9.052  53.040  46.960  0.00  0.00    +0.000 A 
ATOM     10  C   UNL     1     -10.312  53.236  44.914  0.00  0.00    +0.000 A 
ATOM     11  C   UNL     1      -9.289  52.640  45.644  0.00  0.00    +0.000 A 
ENDROOT
BRANCH   1  17
ATOM     12  S   UNL     1     -13.558  59.317  49.481  0.00  0.00    +0.000 S 
ATOM     13  O   UNL     1     -14.705  59.431  48.603  0.00  0.00    +0.000 OA
ATOM     14  O   UNL     1     -12.760  60.485  49.799  0.00  0.00    +0.000 OA
ATOM     15  N   UNL     1     -12.573  58.197  48.851  0.00  0.00    +0.000 N 
ATOM     16  C   UNL     1     -14.170  58.716  51.009  0.00  0.00    +0.000 A 
ATOM     17  C   UNL     1     -12.422  57.035  49.415  0.00  0.00    +0.000 C 
ATOM     18  C   UNL     1     -13.839  57.423  51.379  0.00  0.00    +0.000 A 
ATOM     19  C   UNL     1     -14.962  59.541  51.814  0.00  0.00    +0.000 A 
ATOM     20  N   UNL     1     -13.054  56.612  50.564  0.00  0.00    +0.000 N 
ATOM     21  C   UNL     1     -14.390  56.915  52.561  0.00  0.00    +0.000 A 
ATOM     22  C   UNL     1     -15.471  59.036  53.007  0.00  0.00    +0.000 A 
ATOM     23  C   UNL     1     -15.195  57.720  53.375  0.00  0.00    +0.000 A 
ATOM     24  H   UNL     1     -12.079  58.399  48.024  0.00  0.00    +0.000 HD
ATOM     25  H   UNL     1     -12.941  55.669  50.826  0.00  0.00    +0.000 HD
ENDBRANCH   1  17
BRANCH   3  26
ATOM     26  O   UNL     1     -12.775  56.091  46.684  0.00  0.00    +0.000 OA
ATOM     27  H   UNL     1     -12.762  55.951  45.758  0.00  0.00    +0.000 HD
ENDBRANCH   3  26
BRANCH   5  28
ATOM     28  N   UNL     1      -8.550  53.842  49.637  0.00  0.00    +0.000 N 
ATOM     29  H   UNL     1      -7.600  54.074  49.515  0.00  0.00    +0.000 HD
BRANCH  28  30
ATOM     30  C   UNL     1      -9.014  52.822  50.599  0.00  0.00    +0.000 C 
ATOM     31  C   UNL     1      -8.642  51.395  50.195  0.00  0.00    +0.000 C 
ATOM     32  C   UNL     1      -8.406  53.145  51.966  0.00  0.00    +0.000 C 
ENDBRANCH  28  30
ENDBRANCH   5  28
TORSDOF 4
ENDMDL
MODEL 7
REMARK VINA RESULT:      -7.9      1.593      2.325
REMARK  Name = 
REMARK  6 active torsions:
REMARK  status: ('A' for Active; 'I' for Inactive)
REMARK    1  A    between atoms: C_6  and  C_10
REMARK    2  A    between atoms: C_14  and  O_18
REMARK    3  A    between atoms: N_17  and  N_20
REMARK    4  A    between atoms: N_20  and  C_23
REMARK    5  A    between atoms: C_23  and  C_26
REMARK    6  A    between atoms: C_23  and  C_27
REMARK                            x       y       z     vdW  Elec       q    Type
REMARK                         _______ _______ _______ _____ _____    ______ ____
ROOT
ATOM      1  C   UNL     1     -10.189  54.480  52.070  0.00  0.00    +0.000 A 
ATOM      2  C   UNL     1      -8.793  55.007  51.999  0.00  0.00    +0.000 A 
ATOM      3  C   UNL     1     -10.460  53.388  52.807  0.00  0.00    +0.000 A 
ATOM      4  O   UNL     1      -8.554  55.959  51.248  0.00  0.00    +0.000 OA
ATOM      5  N   UNL     1      -7.837  54.422  52.832  0.00  0.00    +0.000 N 
ATOM      6  C   UNL     1      -9.401  52.710  53.571  0.00  0.00    +0.000 A 
ATOM      7  C   UNL     1      -8.106  53.249  53.589  0.00  0.00    +0.000 A 
ATOM      8  C   UNL     1      -9.672  51.545  54.310  0.00  0.00    +0.000 A 
ATOM      9  C   UNL     1      -7.109  52.615  54.349  0.00  0.00    +0.000 A 
ATOM     10  C   UNL     1      -8.675  50.925  55.061  0.00  0.00    +0.000 A 
ATOM     11  C   UNL     1      -7.391  51.461  55.082  0.00  0.00    +0.000 A 
ENDROOT
BRANCH   1  17
ATOM     12  S   UNL     1     -13.512  56.514  51.545  0.00  0.00    +0.000 S 
ATOM     13  O   UNL     1     -13.373  57.884  51.996  0.00  0.00    +0.000 OA
ATOM     14  O   UNL     1     -14.724  55.770  51.823  0.00  0.00    +0.000 OA
ATOM     15  N   UNL     1     -12.263  55.676  52.147  0.00  0.00    +0.000 N 
ATOM     16  C   UNL     1     -13.357  56.556  49.800  0.00  0.00    +0.000 A 
ATOM     17  C   UNL     1     -11.305  55.247  51.380  0.00  0.00    +0.000 C 
ATOM     18  C   UNL     1     -12.219  56.006  49.234  0.00  0.00    +0.000 A 
ATOM     19  C   UNL     1     -14.370  57.130  49.026  0.00  0.00    +0.000 A 
ATOM     20  N   UNL     1     -11.215  55.444  50.020  0.00  0.00    +0.000 N 
ATOM     21  C   UNL     1     -12.057  56.109  47.848  0.00  0.00    +0.000 A 
ATOM     22  C   UNL     1     -14.215  57.189  47.644  0.00  0.00    +0.000 A 
ATOM     23  C   UNL     1     -13.054  56.689  47.056  0.00  0.00    +0.000 A 
ATOM     24  H   UNL     1     -12.230  55.488  53.112  0.00  0.00    +0.000 HD
ATOM     25  H   UNL     1     -10.383  55.167  49.571  0.00  0.00    +0.000 HD
ENDBRANCH   1  17
BRANCH   3  26
ATOM     26  O   UNL     1     -11.719  52.835  52.956  0.00  0.00    +0.000 OA
ATOM     27  H   UNL     1     -12.453  53.385  53.143  0.00  0.00    +0.000 HD
ENDBRANCH   3  26
BRANCH   5  28
ATOM     28  N   UNL     1      -6.513  54.959  52.861  0.00  0.00    +0.000 N 
ATOM     29  H   UNL     1      -6.276  55.780  53.351  0.00  0.00    +0.000 HD
BRANCH  28  30
ATOM     30  C   UNL     1      -5.534  54.169  52.088  0.00  0.00    +0.000 C 
ATOM     31  C   UNL     1      -5.468  54.563  50.612  0.00  0.00    +0.000 C 
ATOM     32  C   UNL     1      -4.158  54.356  52.732  0.00  0.00    +0.000 C 
ENDBRANCH  28  30
ENDBRANCH   5  28
TORSDOF 4
ENDMDL
MODEL 8
REMARK VINA RESULT:      -7.8      1.253      3.312
REMARK  Name = 
REMARK  6 active torsions:
REMARK  status: ('A' for Active; 'I' for Inactive)
REMARK    1  A    between atoms: C_6  and  C_10
REMARK    2  A    between atoms: C_14  and  O_18
REMARK    3  A    between atoms: N_17  and  N_20
REMARK    4  A    between atoms: N_20  and  C_23
REMARK    5  A    between atoms: C_23  and  C_26
REMARK    6  A    between atoms: C_23  and  C_27
REMARK                            x       y       z     vdW  Elec       q    Type
REMARK                         _______ _______ _______ _____ _____    ______ ____
ROOT
ATOM      1  C   UNL     1      -9.285  54.524  51.886  0.00  0.00    +0.000 A 
ATOM      2  C   UNL     1      -9.346  53.708  53.136  0.00  0.00    +0.000 A 
ATOM      3  C   UNL     1      -8.099  54.786  51.308  0.00  0.00    +0.000 A 
ATOM      4  O   UNL     1     -10.437  53.554  53.694  0.00  0.00    +0.000 OA
ATOM      5  N   UNL     1      -8.161  53.117  53.580  0.00  0.00    +0.000 N 
ATOM      6  C   UNL     1      -6.849  54.259  51.878  0.00  0.00    +0.000 A 
ATOM      7  C   UNL     1      -6.899  53.413  52.996  0.00  0.00    +0.000 A 
ATOM      8  C   UNL     1      -5.604  54.563  51.301  0.00  0.00    +0.000 A 
ATOM      9  C   UNL     1      -5.704  52.886  53.513  0.00  0.00    +0.000 A 
ATOM     10  C   UNL     1      -4.424  54.034  51.821  0.00  0.00    +0.000 A 
ATOM     11  C   UNL     1      -4.474  53.193  52.928  0.00  0.00    +0.000 A 
ENDROOT
BRANCH   1  17
ATOM     12  S   UNL     1     -12.021  55.145  49.133  0.00  0.00    +0.000 S 
ATOM     13  O   UNL     1     -12.719  53.921  48.791  0.00  0.00    +0.000 OA
ATOM     14  O   UNL     1     -11.633  56.080  48.096  0.00  0.00    +0.000 OA
ATOM     15  N   UNL     1     -10.690  54.731  49.957  0.00  0.00    +0.000 N 
ATOM     16  C   UNL     1     -13.084  56.028  50.211  0.00  0.00    +0.000 A 
ATOM     17  C   UNL     1     -10.583  54.968  51.230  0.00  0.00    +0.000 C 
ATOM     18  C   UNL     1     -12.714  56.141  51.540  0.00  0.00    +0.000 A 
ATOM     19  C   UNL     1     -14.262  56.595  49.714  0.00  0.00    +0.000 A 
ATOM     20  N   UNL     1     -11.541  55.565  52.020  0.00  0.00    +0.000 N 
ATOM     21  C   UNL     1     -13.599  56.779  52.417  0.00  0.00    +0.000 A 
ATOM     22  C   UNL     1     -15.114  57.262  50.591  0.00  0.00    +0.000 A 
ATOM     23  C   UNL     1     -14.788  57.343  51.944  0.00  0.00    +0.000 A 
ATOM     24  H   UNL     1      -9.948  54.291  49.484  0.00  0.00    +0.000 HD
ATOM     25  H   UNL     1     -11.384  55.585  52.992  0.00  0.00    +0.000 HD
ENDBRANCH   1  17
BRANCH   3  26
ATOM     26  O   UNL     1      -7.938  55.511  50.141  0.00  0.00    +0.000 OA
ATOM     27  H   UNL     1      -7.397  56.275  50.136  0.00  0.00    +0.000 HD
ENDBRANCH   3  26
BRANCH   5  28
ATOM     28  N   UNL     1      -8.195  52.254  54.719  0.00  0.00    +0.000 N 
ATOM     29  H   UNL     1      -7.716  52.448  55.557  0.00  0.00    +0.000 HD
BRANCH  28  30
ATOM     30  C   UNL     1      -9.016  51.042  54.522  0.00  0.00    +0.000 C 
ATOM     31  C   UNL     1      -8.618  50.235  53.285  0.00  0.00    +0.000 C 
ATOM     32  C   UNL     1      -8.883  50.168  55.771  0.00  0.00    +0.000 C 
ENDBRANCH  28  30
ENDBRANCH   5  28
TORSDOF 4
ENDMDL
MODEL 9
REMARK VINA RESULT:      -7.5      2.571      7.736
REMARK  Name = 
REMARK  6 active torsions:
REMARK  status: ('A' for Active; 'I' for Inactive)
REMARK    1  A    between atoms: C_6  and  C_10
REMARK    2  A    between atoms: C_14  and  O_18
REMARK    3  A    between atoms: N_17  and  N_20
REMARK    4  A    between atoms: N_20  and  C_23
REMARK    5  A    between atoms: C_23  and  C_26
REMARK    6  A    between atoms: C_23  and  C_27
REMARK                            x       y       z     vdW  Elec       q    Type
REMARK                         _______ _______ _______ _____ _____    ______ ____
ROOT
ATOM      1  C   UNL     1     -10.377  55.028  50.410  0.00  0.00    +0.000 A 
ATOM      2  C   UNL     1     -11.551  54.956  51.330  0.00  0.00    +0.000 A 
ATOM      3  C   UNL     1     -10.527  55.500  49.160  0.00  0.00    +0.000 A 
ATOM      4  O   UNL     1     -11.406  54.440  52.443  0.00  0.00    +0.000 OA
ATOM      5  N   UNL     1     -12.749  55.529  50.895  0.00  0.00    +0.000 N 
ATOM      6  C   UNL     1     -11.836  55.974  48.683  0.00  0.00    +0.000 A 
ATOM      7  C   UNL     1     -12.926  56.001  49.566  0.00  0.00    +0.000 A 
ATOM      8  C   UNL     1     -12.007  56.430  47.366  0.00  0.00    +0.000 A 
ATOM      9  C   UNL     1     -14.164  56.487  49.113  0.00  0.00    +0.000 A 
ATOM     10  C   UNL     1     -13.239  56.911  46.927  0.00  0.00    +0.000 A 
ATOM     11  C   UNL     1     -14.320  56.941  47.803  0.00  0.00    +0.000 A 
ENDROOT
BRANCH   1  17
ATOM     12  S   UNL     1      -6.760  53.496  50.565  0.00  0.00    +0.000 S 
ATOM     13  O   UNL     1      -5.820  54.269  49.778  0.00  0.00    +0.000 OA
ATOM     14  O   UNL     1      -6.717  52.047  50.540  0.00  0.00    +0.000 OA
ATOM     15  N   UNL     1      -8.251  53.959  50.134  0.00  0.00    +0.000 N 
ATOM     16  C   UNL     1      -6.499  53.962  52.234  0.00  0.00    +0.000 A 
ATOM     17  C   UNL     1      -9.002  54.652  50.938  0.00  0.00    +0.000 C 
ATOM     18  C   UNL     1      -7.485  54.701  52.865  0.00  0.00    +0.000 A 
ATOM     19  C   UNL     1      -5.322  53.580  52.886  0.00  0.00    +0.000 A 
ATOM     20  N   UNL     1      -8.649  55.079  52.199  0.00  0.00    +0.000 N 
ATOM     21  C   UNL     1      -7.245  55.140  54.172  0.00  0.00    +0.000 A 
ATOM     22  C   UNL     1      -5.113  53.990  54.200  0.00  0.00    +0.000 A 
ATOM     23  C   UNL     1      -6.069  54.779  54.839  0.00  0.00    +0.000 A 
ATOM     24  H   UNL     1      -8.595  53.709  49.247  0.00  0.00    +0.000 HD
ATOM     25  H   UNL     1      -9.264  55.693  52.663  0.00  0.00    +0.000 HD
ENDBRANCH   1  17
BRANCH   3  26
ATOM     26  O   UNL     1      -9.501  55.627  48.241  0.00  0.00    +0.000 OA
ATOM     27  H   UNL     1      -8.737  56.124  48.458  0.00  0.00    +0.000 HD
ENDBRANCH   3  26
BRANCH   5  28
ATOM     28  N   UNL     1     -13.870  55.563  51.782  0.00  0.00    +0.000 N 
ATOM     29  H   UNL     1     -14.238  54.759  52.215  0.00  0.00    +0.000 HD
BRANCH  28  30
ATOM     30  C   UNL     1     -14.423  56.916  51.989  0.00  0.00    +0.000 C 
ATOM     31  C   UNL     1     -15.928  56.920  52.262  0.00  0.00    +0.000 C 
ATOM     32  C   UNL     1     -13.685  57.558  53.166  0.00  0.00    +0.000 C 
ENDBRANCH  28  30
ENDBRANCH   5  28
TORSDOF 4
ENDMDL
