MODEL 1
REMARK VINA RESULT:      -8.1      0.000      0.000
REMARK  Name = 
REMARK  7 active torsions:
REMARK  status: ('A' for Active; 'I' for Inactive)
REMARK    1  A    between atoms: C_6  and  C_10
REMARK    2  A    between atoms: C_14  and  O_18
REMARK    3  A    between atoms: N_17  and  N_20
REMARK    4  A    between atoms: N_20  and  C_23
REMARK    5  A    between atoms: C_23  and  C_26
REMARK    6  A    between atoms: C_26  and  C_28
REMARK    7  A    between atoms: C_28  and  C_29
REMARK                            x       y       z     vdW  Elec       q    Type
REMARK                         _______ _______ _______ _____ _____    ______ ____
ROOT
ATOM      1  C   UNL     1     -10.134  54.541  52.232  0.00  0.00    +0.000 A 
ATOM      2  C   UNL     1      -8.761  55.092  52.030  0.00  0.00    +0.000 A 
ATOM      3  C   UNL     1     -10.322  53.444  52.984  0.00  0.00    +0.000 A 
ATOM      4  O   UNL     1      -8.655  56.079  51.295  0.00  0.00    +0.000 OA
ATOM      5  N   UNL     1      -7.696  54.475  52.695  0.00  0.00    +0.000 N 
ATOM      6  C   UNL     1      -9.188  52.792  53.655  0.00  0.00    +0.000 A 
ATOM      7  C   UNL     1      -7.891  53.313  53.502  0.00  0.00    +0.000 A 
ATOM      8  C   UNL     1      -9.390  51.661  54.465  0.00  0.00    +0.000 A 
ATOM      9  C   UNL     1      -6.820  52.677  54.152  0.00  0.00    +0.000 A 
ATOM     10  C   UNL     1      -8.321  51.050  55.118  0.00  0.00    +0.000 A 
ATOM     11  C   UNL     1      -7.037  51.555  54.959  0.00  0.00    +0.000 A 
ENDROOT
BRANCH   1  17
ATOM     12  S   UNL     1     -12.549  56.074  49.538  0.00  0.00    +0.000 S 
ATOM     13  O   UNL     1     -13.457  55.083  48.990  0.00  0.00    +0.000 OA
ATOM     14  O   UNL     1     -11.929  57.060  48.678  0.00  0.00    +0.000 OA
ATOM     15  N   UNL     1     -11.370  55.280  50.317  0.00  0.00    +0.000 N 
ATOM     16  C   UNL     1     -13.478  56.980  50.722  0.00  0.00    +0.000 A 
ATOM     17  C   UNL     1     -11.307  55.278  51.615  0.00  0.00    +0.000 C 
ATOM     18  C   UNL     1     -13.185  56.787  52.062  0.00  0.00    +0.000 A 
ATOM     19  C   UNL     1     -14.469  57.869  50.299  0.00  0.00    +0.000 A 
ATOM     20  N   UNL     1     -12.202  55.888  52.468  0.00  0.00    +0.000 N 
ATOM     21  C   UNL     1     -13.967  57.457  53.011  0.00  0.00    +0.000 A 
ATOM     22  C   UNL     1     -15.214  58.557  51.253  0.00  0.00    +0.000 A 
ATOM     23  C   UNL     1     -14.970  58.344  52.610  0.00  0.00    +0.000 A 
ATOM     24  H   UNL     1     -10.691  54.791  49.798  0.00  0.00    +0.000 HD
ATOM     25  H   UNL     1     -12.143  55.674  53.427  0.00  0.00    +0.000 HD
ENDBRANCH   1  17
BRANCH   3  26
ATOM     26  O   UNL     1     -11.557  52.861  53.216  0.00  0.00    +0.000 OA
ATOM     27  H   UNL     1     -12.008  53.025  54.021  0.00  0.00    +0.000 HD
ENDBRANCH   3  26
BRANCH   5  28
ATOM     28  N   UNL     1      -6.344  54.941  52.502  0.00  0.00    +0.000 N 
ATOM     29  H   UNL     1      -5.860  55.472  53.175  0.00  0.00    +0.000 HD
BRANCH  28  30
ATOM     30  C   UNL     1      -5.753  54.555  51.214  0.00  0.00    +0.000 C 
BRANCH  30  31
ATOM     31  C   UNL     1      -4.361  53.944  51.391  0.00  0.00    +0.000 C 
BRANCH  31  32
ATOM     32  C   UNL     1      -3.792  54.334  52.762  0.00  0.00    +0.000 C 
ATOM     33  C   UNL     1      -3.300  53.125  53.539  0.00  0.00    +0.000 C 
ENDBRANCH  31  32
ENDBRANCH  30  31
ENDBRANCH  28  30
ENDBRANCH   5  28
TORSDOF 6
ENDMDL
MODEL 2
REMARK VINA RESULT:      -7.9      1.957      2.636
REMARK  Name = 
REMARK  7 active torsions:
REMARK  status: ('A' for Active; 'I' for Inactive)
REMARK    1  A    between atoms: C_6  and  C_10
REMARK    2  A    between atoms: C_14  and  O_18
REMARK    3  A    between atoms: N_17  and  N_20
REMARK    4  A    between atoms: N_20  and  C_23
REMARK    5  A    between atoms: C_23  and  C_26
REMARK    6  A    between atoms: C_26  and  C_28
REMARK    7  A    between atoms: C_28  and  C_29
REMARK                            x       y       z     vdW  Elec       q    Type
REMARK                         _______ _______ _______ _____ _____    ______ ____
ROOT
ATOM      1  C   UNL     1     -11.376  53.938  51.605  0.00  0.00    +0.000 A 
ATOM      2  C   UNL     1     -10.417  54.120  52.736  0.00  0.00    +0.000 A 
ATOM      3  C   UNL     1     -11.506  52.741  51.011  0.00  0.00    +0.000 A 
ATOM      4  O   UNL     1     -10.319  55.256  53.211  0.00  0.00    +0.000 OA
ATOM      5  N   UNL     1      -9.715  53.000  53.195  0.00  0.00    +0.000 N 
ATOM      6  C   UNL     1     -10.741  51.580  51.489  0.00  0.00    +0.000 A 
ATOM      7  C   UNL     1      -9.855  51.723  52.572  0.00  0.00    +0.000 A 
ATOM      8  C   UNL     1     -10.899  50.320  50.884  0.00  0.00    +0.000 A 
ATOM      9  C   UNL     1      -9.133  50.603  53.015  0.00  0.00    +0.000 A 
ATOM     10  C   UNL     1     -10.190  49.213  51.345  0.00  0.00    +0.000 A 
ATOM     11  C   UNL     1      -9.304  49.354  52.407  0.00  0.00    +0.000 A 
ENDROOT
BRANCH   1  17
ATOM     12  S   UNL     1     -12.934  56.790  49.397  0.00  0.00    +0.000 S 
ATOM     13  O   UNL     1     -13.974  56.292  48.514  0.00  0.00    +0.000 OA
ATOM     14  O   UNL     1     -11.975  57.767  48.927  0.00  0.00    +0.000 OA
ATOM     15  N   UNL     1     -12.110  55.510  49.952  0.00  0.00    +0.000 N 
ATOM     16  C   UNL     1     -13.767  57.539  50.750  0.00  0.00    +0.000 A 
ATOM     17  C   UNL     1     -12.231  55.118  51.186  0.00  0.00    +0.000 C 
ATOM     18  C   UNL     1     -13.721  56.896  51.976  0.00  0.00    +0.000 A 
ATOM     19  C   UNL     1     -14.437  58.751  50.572  0.00  0.00    +0.000 A 
ATOM     20  N   UNL     1     -13.058  55.681  52.134  0.00  0.00    +0.000 N 
ATOM     21  C   UNL     1     -14.436  57.455  53.041  0.00  0.00    +0.000 A 
ATOM     22  C   UNL     1     -15.114  59.315  51.650  0.00  0.00    +0.000 A 
ATOM     23  C   UNL     1     -15.122  58.663  52.883  0.00  0.00    +0.000 A 
ATOM     24  H   UNL     1     -11.507  55.021  49.346  0.00  0.00    +0.000 HD
ATOM     25  H   UNL     1     -13.189  55.193  52.980  0.00  0.00    +0.000 HD
ENDBRANCH   1  17
BRANCH   3  26
ATOM     26  O   UNL     1     -12.362  52.485  49.953  0.00  0.00    +0.000 OA
ATOM     27  H   UNL     1     -12.668  53.190  49.417  0.00  0.00    +0.000 HD
ENDBRANCH   3  26
BRANCH   5  28
ATOM     28  N   UNL     1      -8.746  53.129  54.256  0.00  0.00    +0.000 N 
ATOM     29  H   UNL     1      -8.972  52.995  55.205  0.00  0.00    +0.000 HD
BRANCH  28  30
ATOM     30  C   UNL     1      -7.394  53.477  53.798  0.00  0.00    +0.000 C 
BRANCH  30  31
ATOM     31  C   UNL     1      -6.856  54.717  54.514  0.00  0.00    +0.000 C 
BRANCH  31  32
ATOM     32  C   UNL     1      -6.993  55.944  53.604  0.00  0.00    +0.000 C 
ATOM     33  C   UNL     1      -6.993  55.566  52.134  0.00  0.00    +0.000 C 
ENDBRANCH  31  32
ENDBRANCH  30  31
ENDBRANCH  28  30
ENDBRANCH   5  28
TORSDOF 6
ENDMDL
MODEL 3
REMARK VINA RESULT:      -7.8      2.565      8.104
REMARK  Name = 
REMARK  7 active torsions:
REMARK  status: ('A' for Active; 'I' for Inactive)
REMARK    1  A    between atoms: C_6  and  C_10
REMARK    2  A    between atoms: C_14  and  O_18
REMARK    3  A    between atoms: N_17  and  N_20
REMARK    4  A    between atoms: N_20  and  C_23
REMARK    5  A    between atoms: C_23  and  C_26
REMARK    6  A    between atoms: C_26  and  C_28
REMARK    7  A    between atoms: C_28  and  C_29
REMARK                            x       y       z     vdW  Elec       q    Type
REMARK                         _______ _______ _______ _____ _____    ______ ____
ROOT
ATOM      1  C   UNL     1     -10.361  54.998  50.515  0.00  0.00    +0.000 A 
ATOM      2  C   UNL     1     -11.462  55.169  51.510  0.00  0.00    +0.000 A 
ATOM      3  C   UNL     1     -10.555  55.318  49.225  0.00  0.00    +0.000 A 
ATOM      4  O   UNL     1     -11.228  54.820  52.671  0.00  0.00    +0.000 OA
ATOM      5  N   UNL     1     -12.667  55.729  51.072  0.00  0.00    +0.000 N 
ATOM      6  C   UNL     1     -11.837  55.880  48.777  0.00  0.00    +0.000 A 
ATOM      7  C   UNL     1     -12.877  56.077  49.703  0.00  0.00    +0.000 A 
ATOM      8  C   UNL     1     -12.029  56.240  47.432  0.00  0.00    +0.000 A 
ATOM      9  C   UNL     1     -14.094  56.616  49.256  0.00  0.00    +0.000 A 
ATOM     10  C   UNL     1     -13.236  56.790  47.005  0.00  0.00    +0.000 A 
ATOM     11  C   UNL     1     -14.270  56.974  47.915  0.00  0.00    +0.000 A 
ENDROOT
BRANCH   1  17
ATOM     12  S   UNL     1      -7.067  52.877  50.813  0.00  0.00    +0.000 S 
ATOM     13  O   UNL     1      -6.068  53.278  49.838  0.00  0.00    +0.000 OA
ATOM     14  O   UNL     1      -7.288  51.477  51.107  0.00  0.00    +0.000 OA
ATOM     15  N   UNL     1      -8.482  53.519  50.355  0.00  0.00    +0.000 N 
ATOM     16  C   UNL     1      -6.589  53.622  52.330  0.00  0.00    +0.000 A 
ATOM     17  C   UNL     1      -9.012  54.511  51.007  0.00  0.00    +0.000 C 
ATOM     18  C   UNL     1      -7.356  54.672  52.807  0.00  0.00    +0.000 A 
ATOM     19  C   UNL     1      -5.472  53.145  53.020  0.00  0.00    +0.000 A 
ATOM     20  N   UNL     1      -8.459  55.145  52.100  0.00  0.00    +0.000 N 
ATOM     21  C   UNL     1      -6.942  55.311  53.982  0.00  0.00    +0.000 A 
ATOM     22  C   UNL     1      -5.094  53.766  54.208  0.00  0.00    +0.000 A 
ATOM     23  C   UNL     1      -5.822  54.856  54.683  0.00  0.00    +0.000 A 
ATOM     24  H   UNL     1      -8.950  53.152  49.570  0.00  0.00    +0.000 HD
ATOM     25  H   UNL     1      -8.871  55.987  52.401  0.00  0.00    +0.000 HD
ENDBRANCH   1  17
BRANCH   3  26
ATOM     26  O   UNL     1      -9.594  55.182  48.237  0.00  0.00    +0.000 OA
ATOM     27  H   UNL     1      -8.850  54.631  48.379  0.00  0.00    +0.000 HD
ENDBRANCH   3  26
BRANCH   5  28
ATOM     28  N   UNL     1     -13.778  55.877  51.982  0.00  0.00    +0.000 N 
ATOM     29  H   UNL     1     -14.483  55.197  52.080  0.00  0.00    +0.000 HD
BRANCH  28  30
ATOM     30  C   UNL     1     -13.765  57.129  52.750  0.00  0.00    +0.000 C 
BRANCH  30  31
ATOM     31  C   UNL     1     -15.172  57.707  52.913  0.00  0.00    +0.000 C 
BRANCH  31  32
ATOM     32  C   UNL     1     -15.158  59.209  52.598  0.00  0.00    +0.000 C 
ATOM     33  C   UNL     1     -15.042  59.477  51.109  0.00  0.00    +0.000 C 
ENDBRANCH  31  32
ENDBRANCH  30  31
ENDBRANCH  28  30
ENDBRANCH   5  28
TORSDOF 6
ENDMDL
MODEL 4
REMARK VINA RESULT:      -7.7      2.757      7.963
REMARK  Name = 
REMARK  7 active torsions:
REMARK  status: ('A' for Active; 'I' for Inactive)
REMARK    1  A    between atoms: C_6  and  C_10
REMARK    2  A    between atoms: C_14  and  O_18
REMARK    3  A    between atoms: N_17  and  N_20
REMARK    4  A    between atoms: N_20  and  C_23
REMARK    5  A    between atoms: C_23  and  C_26
REMARK    6  A    between atoms: C_26  and  C_28
REMARK    7  A    between atoms: C_28  and  C_29
REMARK                            x       y       z     vdW  Elec       q    Type
REMARK                         _______ _______ _______ _____ _____    ______ ____
ROOT
ATOM      1  C   UNL     1      -9.997  54.583  50.987  0.00  0.00    +0.000 A 
ATOM      2  C   UNL     1     -11.176  55.406  51.390  0.00  0.00    +0.000 A 
ATOM      3  C   UNL     1      -9.757  54.331  49.690  0.00  0.00    +0.000 A 
ATOM      4  O   UNL     1     -11.361  55.567  52.601  0.00  0.00    +0.000 OA
ATOM      5  N   UNL     1     -11.976  55.955  50.382  0.00  0.00    +0.000 N 
ATOM      6  C   UNL     1     -10.622  54.893  48.643  0.00  0.00    +0.000 A 
ATOM      7  C   UNL     1     -11.721  55.696  49.001  0.00  0.00    +0.000 A 
ATOM      8  C   UNL     1     -10.353  54.652  47.285  0.00  0.00    +0.000 A 
ATOM      9  C   UNL     1     -12.536  56.225  47.987  0.00  0.00    +0.000 A 
ATOM     10  C   UNL     1     -11.160  55.198  46.289  0.00  0.00    +0.000 A 
ATOM     11  C   UNL     1     -12.254  55.980  46.639  0.00  0.00    +0.000 A 
ENDROOT
BRANCH   1  17
ATOM     12  S   UNL     1      -6.758  54.147  53.167  0.00  0.00    +0.000 S 
ATOM     13  O   UNL     1      -6.606  55.212  54.142  0.00  0.00    +0.000 OA
ATOM     14  O   UNL     1      -5.611  53.651  52.435  0.00  0.00    +0.000 OA
ATOM     15  N   UNL     1      -7.870  54.624  52.090  0.00  0.00    +0.000 N 
ATOM     16  C   UNL     1      -7.400  52.771  54.051  0.00  0.00    +0.000 A 
ATOM     17  C   UNL     1      -9.055  54.091  52.068  0.00  0.00    +0.000 C 
ATOM     18  C   UNL     1      -8.717  52.410  53.819  0.00  0.00    +0.000 A 
ATOM     19  C   UNL     1      -6.585  52.074  54.945  0.00  0.00    +0.000 A 
ATOM     20  N   UNL     1      -9.521  53.124  52.934  0.00  0.00    +0.000 N 
ATOM     21  C   UNL     1      -9.253  51.355  54.568  0.00  0.00    +0.000 A 
ATOM     22  C   UNL     1      -7.120  51.003  55.656  0.00  0.00    +0.000 A 
ATOM     23  C   UNL     1      -8.458  50.650  55.475  0.00  0.00    +0.000 A 
ATOM     24  H   UNL     1      -7.644  55.328  51.440  0.00  0.00    +0.000 HD
ATOM     25  H   UNL     1     -10.485  52.923  52.925  0.00  0.00    +0.000 HD
ENDBRANCH   1  17
BRANCH   3  26
ATOM     26  O   UNL     1      -8.694  53.572  49.228  0.00  0.00    +0.000 OA
ATOM     27  H   UNL     1      -7.897  53.534  49.719  0.00  0.00    +0.000 HD
ENDBRANCH   3  26
BRANCH   5  28
ATOM     28  N   UNL     1     -13.151  56.722  50.717  0.00  0.00    +0.000 N 
ATOM     29  H   UNL     1     -13.183  57.704  50.658  0.00  0.00    +0.000 HD
BRANCH  28  30
ATOM     30  C   UNL     1     -14.296  55.911  51.152  0.00  0.00    +0.000 C 
BRANCH  30  31
ATOM     31  C   UNL     1     -15.307  56.739  51.947  0.00  0.00    +0.000 C 
BRANCH  31  32
ATOM     32  C   UNL     1     -14.567  57.698  52.890  0.00  0.00    +0.000 C 
ATOM     33  C   UNL     1     -15.015  59.137  52.705  0.00  0.00    +0.000 C 
ENDBRANCH  31  32
ENDBRANCH  30  31
ENDBRANCH  28  30
ENDBRANCH   5  28
TORSDOF 6
ENDMDL
MODEL 5
REMARK VINA RESULT:      -7.7      3.815      5.337
REMARK  Name = 
REMARK  7 active torsions:
REMARK  status: ('A' for Active; 'I' for Inactive)
REMARK    1  A    between atoms: C_6  and  C_10
REMARK    2  A    between atoms: C_14  and  O_18
REMARK    3  A    between atoms: N_17  and  N_20
REMARK    4  A    between atoms: N_20  and  C_23
REMARK    5  A    between atoms: C_23  and  C_26
REMARK    6  A    between atoms: C_26  and  C_28
REMARK    7  A    between atoms: C_28  and  C_29
REMARK                            x       y       z     vdW  Elec       q    Type
REMARK                         _______ _______ _______ _____ _____    ______ ____
ROOT
ATOM      1  C   UNL     1     -10.686  55.636  48.162  0.00  0.00    +0.000 A 
ATOM      2  C   UNL     1      -9.220  55.749  48.426  0.00  0.00    +0.000 A 
ATOM      3  C   UNL     1     -11.132  54.977  47.081  0.00  0.00    +0.000 A 
ATOM      4  O   UNL     1      -8.877  56.402  49.418  0.00  0.00    +0.000 OA
ATOM      5  N   UNL     1      -8.339  55.097  47.557  0.00  0.00    +0.000 N 
ATOM      6  C   UNL     1     -10.192  54.319  46.162  0.00  0.00    +0.000 A 
ATOM      7  C   UNL     1      -8.808  54.388  46.409  0.00  0.00    +0.000 A 
ATOM      8  C   UNL     1     -10.662  53.606  45.046  0.00  0.00    +0.000 A 
ATOM      9  C   UNL     1      -7.925  53.754  45.521  0.00  0.00    +0.000 A 
ATOM     10  C   UNL     1      -9.774  52.966  44.182  0.00  0.00    +0.000 A 
ATOM     11  C   UNL     1      -8.407  53.043  44.417  0.00  0.00    +0.000 A 
ENDROOT
BRANCH   1  17
ATOM     12  S   UNL     1     -13.089  55.963  51.253  0.00  0.00    +0.000 S 
ATOM     13  O   UNL     1     -12.362  56.173  52.492  0.00  0.00    +0.000 OA
ATOM     14  O   UNL     1     -14.232  55.075  51.213  0.00  0.00    +0.000 OA
ATOM     15  N   UNL     1     -12.025  55.456  50.141  0.00  0.00    +0.000 N 
ATOM     16  C   UNL     1     -13.684  57.542  50.768  0.00  0.00    +0.000 A 
ATOM     17  C   UNL     1     -11.649  56.233  49.169  0.00  0.00    +0.000 C 
ATOM     18  C   UNL     1     -13.098  58.146  49.668  0.00  0.00    +0.000 A 
ATOM     19  C   UNL     1     -14.725  58.145  51.479  0.00  0.00    +0.000 A 
ATOM     20  N   UNL     1     -12.053  57.537  48.976  0.00  0.00    +0.000 N 
ATOM     21  C   UNL     1     -13.525  59.432  49.316  0.00  0.00    +0.000 A 
ATOM     22  C   UNL     1     -15.164  59.409  51.095  0.00  0.00    +0.000 A 
ATOM     23  C   UNL     1     -14.557  60.058  50.020  0.00  0.00    +0.000 A 
ATOM     24  H   UNL     1     -11.657  54.545  50.202  0.00  0.00    +0.000 HD
ATOM     25  H   UNL     1     -11.572  58.074  48.306  0.00  0.00    +0.000 HD
ENDBRANCH   1  17
BRANCH   3  26
ATOM     26  O   UNL     1     -12.471  54.831  46.755  0.00  0.00    +0.000 OA
ATOM     27  H   UNL     1     -13.076  54.513  47.395  0.00  0.00    +0.000 HD
ENDBRANCH   3  26
BRANCH   5  28
ATOM     28  N   UNL     1      -6.912  55.209  47.742  0.00  0.00    +0.000 N 
ATOM     29  H   UNL     1      -6.361  55.868  47.260  0.00  0.00    +0.000 HD
BRANCH  28  30
ATOM     30  C   UNL     1      -6.354  54.257  48.711  0.00  0.00    +0.000 C 
BRANCH  30  31
ATOM     31  C   UNL     1      -5.418  54.947  49.706  0.00  0.00    +0.000 C 
BRANCH  31  32
ATOM     32  C   UNL     1      -5.783  54.533  51.137  0.00  0.00    +0.000 C 
ATOM     33  C   UNL     1      -7.134  53.845  51.204  0.00  0.00    +0.000 C 
ENDBRANCH  31  32
ENDBRANCH  30  31
ENDBRANCH  28  30
ENDBRANCH   5  28
TORSDOF 6
ENDMDL
MODEL 6
REMARK VINA RESULT:      -7.6      4.454      5.454
REMARK  Name = 
REMARK  7 active torsions:
REMARK  status: ('A' for Active; 'I' for Inactive)
REMARK    1  A    between atoms: C_6  and  C_10
REMARK    2  A    between atoms: C_14  and  O_18
REMARK    3  A    between atoms: N_17  and  N_20
REMARK    4  A    between atoms: N_20  and  C_23
REMARK    5  A    between atoms: C_23  and  C_26
REMARK    6  A    between atoms: C_26  and  C_28
REMARK    7  A    between atoms: C_28  and  C_29
REMARK                            x       y       z     vdW  Elec       q    Type
REMARK                         _______ _______ _______ _____ _____    ______ ____
ROOT
ATOM      1  C   UNL     1     -12.524  54.281  49.557  0.00  0.00    +0.000 A 
ATOM      2  C   UNL     1     -12.028  54.253  48.148  0.00  0.00    +0.000 A 
ATOM      3  C   UNL     1     -12.234  53.276  50.399  0.00  0.00    +0.000 A 
ATOM      4  O   UNL     1     -12.364  55.190  47.416  0.00  0.00    +0.000 OA
ATOM      5  N   UNL     1     -11.205  53.191  47.757  0.00  0.00    +0.000 N 
ATOM      6  C   UNL     1     -11.390  52.154  49.965  0.00  0.00    +0.000 A 
ATOM      7  C   UNL     1     -10.887  52.123  48.651  0.00  0.00    +0.000 A 
ATOM      8  C   UNL     1     -11.064  51.116  50.856  0.00  0.00    +0.000 A 
ATOM      9  C   UNL     1     -10.082  51.043  48.254  0.00  0.00    +0.000 A 
ATOM     10  C   UNL     1     -10.249  50.060  50.454  0.00  0.00    +0.000 A 
ATOM     11  C   UNL     1      -9.762  50.021  49.153  0.00  0.00    +0.000 A 
ENDROOT
BRANCH   1  17
ATOM     12  S   UNL     1     -15.363  56.458  51.180  0.00  0.00    +0.000 S 
ATOM     13  O   UNL     1     -15.226  56.548  52.623  0.00  0.00    +0.000 OA
ATOM     14  O   UNL     1     -16.666  56.282  50.574  0.00  0.00    +0.000 OA
ATOM     15  N   UNL     1     -14.410  55.250  50.673  0.00  0.00    +0.000 N 
ATOM     16  C   UNL     1     -14.730  57.966  50.540  0.00  0.00    +0.000 A 
ATOM     17  C   UNL     1     -13.311  55.491  50.022  0.00  0.00    +0.000 C 
ATOM     18  C   UNL     1     -13.521  57.927  49.866  0.00  0.00    +0.000 A 
ATOM     19  C   UNL     1     -15.449  59.152  50.708  0.00  0.00    +0.000 A 
ATOM     20  N   UNL     1     -12.810  56.739  49.717  0.00  0.00    +0.000 N 
ATOM     21  C   UNL     1     -12.981  59.136  49.410  0.00  0.00    +0.000 A 
ATOM     22  C   UNL     1     -14.917  60.341  50.216  0.00  0.00    +0.000 A 
ATOM     23  C   UNL     1     -13.678  60.335  49.576  0.00  0.00    +0.000 A 
ATOM     24  H   UNL     1     -14.667  54.318  50.861  0.00  0.00    +0.000 HD
ATOM     25  H   UNL     1     -11.890  56.794  49.371  0.00  0.00    +0.000 HD
ENDBRANCH   1  17
BRANCH   3  26
ATOM     26  O   UNL     1     -12.660  53.216  51.716  0.00  0.00    +0.000 OA
ATOM     27  H   UNL     1     -12.838  52.387  52.113  0.00  0.00    +0.000 HD
ENDBRANCH   3  26
BRANCH   5  28
ATOM     28  N   UNL     1     -10.733  53.094  46.397  0.00  0.00    +0.000 N 
ATOM     29  H   UNL     1     -11.149  52.503  45.729  0.00  0.00    +0.000 HD
BRANCH  28  30
ATOM     30  C   UNL     1      -9.580  53.952  46.097  0.00  0.00    +0.000 C 
BRANCH  30  31
ATOM     31  C   UNL     1      -8.698  53.352  45.000  0.00  0.00    +0.000 C 
BRANCH  31  32
ATOM     32  C   UNL     1      -9.455  52.226  44.282  0.00  0.00    +0.000 C 
ATOM     33  C   UNL     1      -9.824  52.606  42.858  0.00  0.00    +0.000 C 
ENDBRANCH  31  32
ENDBRANCH  30  31
ENDBRANCH  28  30
ENDBRANCH   5  28
TORSDOF 6
ENDMDL
MODEL 7
REMARK VINA RESULT:      -7.6      3.234      7.526
REMARK  Name = 
REMARK  7 active torsions:
REMARK  status: ('A' for Active; 'I' for Inactive)
REMARK    1  A    between atoms: C_6  and  C_10
REMARK    2  A    between atoms: C_14  and  O_18
REMARK    3  A    between atoms: N_17  and  N_20
REMARK    4  A    between atoms: N_20  and  C_23
REMARK    5  A    between atoms: C_23  and  C_26
REMARK    6  A    between atoms: C_26  and  C_28
REMARK    7  A    between atoms: C_28  and  C_29
REMARK                            x       y       z     vdW  Elec       q    Type
REMARK                         _______ _______ _______ _____ _____    ______ ____
ROOT
ATOM      1  C   UNL     1     -10.133  55.216  50.575  0.00  0.00    +0.000 A 
ATOM      2  C   UNL     1      -9.659  55.124  49.162  0.00  0.00    +0.000 A 
ATOM      3  C   UNL     1     -11.353  55.705  50.852  0.00  0.00    +0.000 A 
ATOM      4  O   UNL     1      -8.512  54.701  48.980  0.00  0.00    +0.000 OA
ATOM      5  N   UNL     1     -10.542  55.497  48.142  0.00  0.00    +0.000 N 
ATOM      6  C   UNL     1     -12.258  56.118  49.770  0.00  0.00    +0.000 A 
ATOM      7  C   UNL     1     -11.843  56.011  48.430  0.00  0.00    +0.000 A 
ATOM      8  C   UNL     1     -13.545  56.603  50.060  0.00  0.00    +0.000 A 
ATOM      9  C   UNL     1     -12.722  56.410  47.410  0.00  0.00    +0.000 A 
ATOM     10  C   UNL     1     -14.414  56.979  49.037  0.00  0.00    +0.000 A 
ATOM     11  C   UNL     1     -14.002  56.887  47.713  0.00  0.00    +0.000 A 
ENDROOT
BRANCH   1  17
ATOM     12  S   UNL     1      -7.021  54.819  52.940  0.00  0.00    +0.000 S 
ATOM     13  O   UNL     1      -7.021  55.797  54.014  0.00  0.00    +0.000 OA
ATOM     14  O   UNL     1      -5.793  54.480  52.253  0.00  0.00    +0.000 OA
ATOM     15  N   UNL     1      -8.095  55.311  51.830  0.00  0.00    +0.000 N 
ATOM     16  C   UNL     1      -7.608  53.323  53.650  0.00  0.00    +0.000 A 
ATOM     17  C   UNL     1      -9.229  54.696  51.675  0.00  0.00    +0.000 C 
ATOM     18  C   UNL     1      -8.874  52.888  53.292  0.00  0.00    +0.000 A 
ATOM     19  C   UNL     1      -6.800  52.607  54.537  0.00  0.00    +0.000 A 
ATOM     20  N   UNL     1      -9.672  53.620  52.416  0.00  0.00    +0.000 N 
ATOM     21  C   UNL     1      -9.371  51.732  53.904  0.00  0.00    +0.000 A 
ATOM     22  C   UNL     1      -7.294  51.438  55.109  0.00  0.00    +0.000 A 
ATOM     23  C   UNL     1      -8.584  51.005  54.801  0.00  0.00    +0.000 A 
ATOM     24  H   UNL     1      -7.883  56.087  51.263  0.00  0.00    +0.000 HD
ATOM     25  H   UNL     1     -10.614  53.351  52.319  0.00  0.00    +0.000 HD
ENDBRANCH   1  17
BRANCH   3  26
ATOM     26  O   UNL     1     -11.868  55.835  52.131  0.00  0.00    +0.000 OA
ATOM     27  H   UNL     1     -11.822  55.115  52.730  0.00  0.00    +0.000 HD
ENDBRANCH   3  26
BRANCH   5  28
ATOM     28  N   UNL     1     -10.120  55.468  46.762  0.00  0.00    +0.000 N 
ATOM     29  H   UNL     1      -9.866  56.278  46.264  0.00  0.00    +0.000 HD
BRANCH  28  30
ATOM     30  C   UNL     1     -10.102  54.125  46.167  0.00  0.00    +0.000 C 
BRANCH  30  31
ATOM     31  C   UNL     1     -11.336  53.876  45.297  0.00  0.00    +0.000 C 
BRANCH  31  32
ATOM     32  C   UNL     1     -11.985  52.541  45.685  0.00  0.00    +0.000 C 
ATOM     33  C   UNL     1     -12.198  52.426  47.184  0.00  0.00    +0.000 C 
ENDBRANCH  31  32
ENDBRANCH  30  31
ENDBRANCH  28  30
ENDBRANCH   5  28
TORSDOF 6
ENDMDL
MODEL 8
REMARK VINA RESULT:      -7.5      1.581      2.299
REMARK  Name = 
REMARK  7 active torsions:
REMARK  status: ('A' for Active; 'I' for Inactive)
REMARK    1  A    between atoms: C_6  and  C_10
REMARK    2  A    between atoms: C_14  and  O_18
REMARK    3  A    between atoms: N_17  and  N_20
REMARK    4  A    between atoms: N_20  and  C_23
REMARK    5  A    between atoms: C_23  and  C_26
REMARK    6  A    between atoms: C_26  and  C_28
REMARK    7  A    between atoms: C_28  and  C_29
REMARK                            x       y       z     vdW  Elec       q    Type
REMARK                         _______ _______ _______ _____ _____    ______ ____
ROOT
ATOM      1  C   UNL     1     -10.163  54.588  52.142  0.00  0.00    +0.000 A 
ATOM      2  C   UNL     1      -8.769  55.121  52.085  0.00  0.00    +0.000 A 
ATOM      3  C   UNL     1     -10.436  53.475  52.842  0.00  0.00    +0.000 A 
ATOM      4  O   UNL     1      -8.580  56.126  51.392  0.00  0.00    +0.000 OA
ATOM      5  N   UNL     1      -7.780  54.470  52.831  0.00  0.00    +0.000 N 
ATOM      6  C   UNL     1      -9.380  52.787  53.599  0.00  0.00    +0.000 A 
ATOM      7  C   UNL     1      -8.067  53.290  53.583  0.00  0.00    +0.000 A 
ATOM      8  C   UNL     1      -9.674  51.638  54.354  0.00  0.00    +0.000 A 
ATOM      9  C   UNL     1      -7.072  52.620  54.312  0.00  0.00    +0.000 A 
ATOM     10  C   UNL     1      -8.680  50.993  55.087  0.00  0.00    +0.000 A 
ATOM     11  C   UNL     1      -7.379  51.480  55.064  0.00  0.00    +0.000 A 
ENDROOT
BRANCH   1  17
ATOM     12  S   UNL     1     -13.515  56.545  51.533  0.00  0.00    +0.000 S 
ATOM     13  O   UNL     1     -13.426  57.930  51.961  0.00  0.00    +0.000 OA
ATOM     14  O   UNL     1     -14.710  55.770  51.794  0.00  0.00    +0.000 OA
ATOM     15  N   UNL     1     -12.257  55.752  52.177  0.00  0.00    +0.000 N 
ATOM     16  C   UNL     1     -13.320  56.564  49.788  0.00  0.00    +0.000 A 
ATOM     17  C   UNL     1     -11.261  55.361  51.439  0.00  0.00    +0.000 C 
ATOM     18  C   UNL     1     -12.140  56.065  49.262  0.00  0.00    +0.000 A 
ATOM     19  C   UNL     1     -14.343  57.061  48.977  0.00  0.00    +0.000 A 
ATOM     20  N   UNL     1     -11.124  55.584  50.085  0.00  0.00    +0.000 N 
ATOM     21  C   UNL     1     -11.953  56.137  47.876  0.00  0.00    +0.000 A 
ATOM     22  C   UNL     1     -14.158  57.093  47.597  0.00  0.00    +0.000 A 
ATOM     23  C   UNL     1     -12.959  56.640  47.047  0.00  0.00    +0.000 A 
ATOM     24  H   UNL     1     -12.246  55.563  53.143  0.00  0.00    +0.000 HD
ATOM     25  H   UNL     1     -10.252  55.389  49.672  0.00  0.00    +0.000 HD
ENDBRANCH   1  17
BRANCH   3  26
ATOM     26  O   UNL     1     -11.696  52.907  52.941  0.00  0.00    +0.000 OA
ATOM     27  H   UNL     1     -12.284  53.186  53.614  0.00  0.00    +0.000 HD
ENDBRANCH   3  26
BRANCH   5  28
ATOM     28  N   UNL     1      -6.410  54.918  52.778  0.00  0.00    +0.000 N 
ATOM     29  H   UNL     1      -5.942  55.300  53.556  0.00  0.00    +0.000 HD
BRANCH  28  30
ATOM     30  C   UNL     1      -5.773  54.756  51.464  0.00  0.00    +0.000 C 
BRANCH  30  31
ATOM     31  C   UNL     1      -4.470  53.960  51.563  0.00  0.00    +0.000 C 
BRANCH  31  32
ATOM     32  C   UNL     1      -3.783  54.248  52.904  0.00  0.00    +0.000 C 
ATOM     33  C   UNL     1      -3.303  52.978  53.583  0.00  0.00    +0.000 C 
ENDBRANCH  31  32
ENDBRANCH  30  31
ENDBRANCH  28  30
ENDBRANCH   5  28
TORSDOF 6
ENDMDL
MODEL 9
REMARK VINA RESULT:      -7.4      3.332      5.147
REMARK  Name = 
REMARK  7 active torsions:
REMARK  status: ('A' for Active; 'I' for Inactive)
REMARK    1  A    between atoms: C_6  and  C_10
REMARK    2  A    between atoms: C_14  and  O_18
REMARK    3  A    between atoms: N_17  and  N_20
REMARK    4  A    between atoms: N_20  and  C_23
REMARK    5  A    between atoms: C_23  and  C_26
REMARK    6  A    between atoms: C_26  and  C_28
REMARK    7  A    between atoms: C_28  and  C_29
REMARK                            x       y       z     vdW  Elec       q    Type
REMARK                         _______ _______ _______ _____ _____    ______ ____
ROOT
ATOM      1  C   UNL     1     -11.508  56.071  48.815  0.00  0.00    +0.000 A 
ATOM      2  C   UNL     1     -10.413  55.513  49.664  0.00  0.00    +0.000 A 
ATOM      3  C   UNL     1     -11.638  55.685  47.535  0.00  0.00    +0.000 A 
ATOM      4  O   UNL     1     -10.327  55.940  50.820  0.00  0.00    +0.000 OA
ATOM      5  N   UNL     1      -9.577  54.538  49.110  0.00  0.00    +0.000 N 
ATOM      6  C   UNL     1     -10.735  54.678  46.959  0.00  0.00    +0.000 A 
ATOM      7  C   UNL     1      -9.716  54.118  47.751  0.00  0.00    +0.000 A 
ATOM      8  C   UNL     1     -10.891  54.255  45.628  0.00  0.00    +0.000 A 
ATOM      9  C   UNL     1      -8.863  53.158  47.184  0.00  0.00    +0.000 A 
ATOM     10  C   UNL     1     -10.048  53.287  45.084  0.00  0.00    +0.000 A 
ATOM     11  C   UNL     1      -9.033  52.742  45.859  0.00  0.00    +0.000 A 
ENDROOT
BRANCH   1  17
ATOM     12  S   UNL     1     -13.591  59.333  49.492  0.00  0.00    +0.000 S 
ATOM     13  O   UNL     1     -14.731  59.449  48.601  0.00  0.00    +0.000 OA
ATOM     14  O   UNL     1     -12.787  60.494  49.814  0.00  0.00    +0.000 OA
ATOM     15  N   UNL     1     -12.607  58.199  48.882  0.00  0.00    +0.000 N 
ATOM     16  C   UNL     1     -14.228  58.745  51.020  0.00  0.00    +0.000 A 
ATOM     17  C   UNL     1     -12.493  57.034  49.447  0.00  0.00    +0.000 C 
ATOM     18  C   UNL     1     -13.936  57.442  51.386  0.00  0.00    +0.000 A 
ATOM     19  C   UNL     1     -14.993  59.590  51.828  0.00  0.00    +0.000 A 
ATOM     20  N   UNL     1     -13.182  56.608  50.563  0.00  0.00    +0.000 N 
ATOM     21  C   UNL     1     -14.495  56.948  52.571  0.00  0.00    +0.000 A 
ATOM     22  C   UNL     1     -15.512  59.097  53.022  0.00  0.00    +0.000 A 
ATOM     23  C   UNL     1     -15.272  57.773  53.389  0.00  0.00    +0.000 A 
ATOM     24  H   UNL     1     -12.085  58.396  48.070  0.00  0.00    +0.000 HD
ATOM     25  H   UNL     1     -13.137  55.652  50.795  0.00  0.00    +0.000 HD
ENDBRANCH   1  17
BRANCH   3  26
ATOM     26  O   UNL     1     -12.617  56.157  46.675  0.00  0.00    +0.000 OA
ATOM     27  H   UNL     1     -13.394  56.550  47.021  0.00  0.00    +0.000 HD
ENDBRANCH   3  26
BRANCH   5  28
ATOM     28  N   UNL     1      -8.478  53.997  49.872  0.00  0.00    +0.000 N 
ATOM     29  H   UNL     1      -7.548  54.297  49.754  0.00  0.00    +0.000 HD
BRANCH  28  30
ATOM     30  C   UNL     1      -8.867  52.962  50.839  0.00  0.00    +0.000 C 
BRANCH  30  31
ATOM     31  C   UNL     1      -8.218  53.192  52.205  0.00  0.00    +0.000 C 
BRANCH  31  32
ATOM     32  C   UNL     1      -9.277  53.656  53.214  0.00  0.00    +0.000 C 
ATOM     33  C   UNL     1     -10.204  52.526  53.625  0.00  0.00    +0.000 C 
ENDBRANCH  31  32
ENDBRANCH  30  31
ENDBRANCH  28  30
ENDBRANCH   5  28
TORSDOF 6
ENDMDL
