MODEL 1
REMARK VINA RESULT:      -9.7      0.000      0.000
REMARK  Name = 
REMARK  6 active torsions:
REMARK  status: ('A' for Active; 'I' for Inactive)
REMARK    1  A    between atoms: C_6  and  C_10
REMARK    2  A    between atoms: C_14  and  O_18
REMARK    3  A    between atoms: N_17  and  N_20
REMARK    4  A    between atoms: N_20  and  C_23
REMARK    5  A    between atoms: C_23  and  C_26
REMARK    6  A    between atoms: C_28  and  C_31
REMARK                            x       y       z     vdW  Elec       q    Type
REMARK                         _______ _______ _______ _____ _____    ______ ____
ROOT
ATOM      1  C   UNL     1      -9.071  54.689  50.117  0.00  0.00    +0.000 A 
ATOM      2  C   UNL     1     -10.447  55.210  50.369  0.00  0.00    +0.000 A 
ATOM      3  C   UNL     1      -8.725  54.237  48.900  0.00  0.00    +0.000 A 
ATOM      4  O   UNL     1     -10.678  55.635  51.506  0.00  0.00    +0.000 OA
ATOM      5  N   UNL     1     -11.363  55.201  49.311  0.00  0.00    +0.000 N 
ATOM      6  C   UNL     1      -9.683  54.281  47.787  0.00  0.00    +0.000 A 
ATOM      7  C   UNL     1     -10.984  54.765  48.002  0.00  0.00    +0.000 A 
ATOM      8  C   UNL     1      -9.304  53.868  46.498  0.00  0.00    +0.000 A 
ATOM      9  C   UNL     1     -11.877  54.826  46.917  0.00  0.00    +0.000 A 
ATOM     10  C   UNL     1     -10.194  53.947  45.428  0.00  0.00    +0.000 A 
ATOM     11  C   UNL     1     -11.480  54.427  45.638  0.00  0.00    +0.000 A 
ENDROOT
BRANCH   1  17
ATOM     12  S   UNL     1      -7.204  55.871  53.363  0.00  0.00    +0.000 S 
ATOM     13  O   UNL     1      -7.857  55.412  54.573  0.00  0.00    +0.000 OA
ATOM     14  O   UNL     1      -6.673  57.217  53.283  0.00  0.00    +0.000 OA
ATOM     15  N   UNL     1      -8.246  55.673  52.139  0.00  0.00    +0.000 N 
ATOM     16  C   UNL     1      -5.839  54.797  53.108  0.00  0.00    +0.000 A 
ATOM     17  C   UNL     1      -8.061  54.747  51.248  0.00  0.00    +0.000 C 
ATOM     18  C   UNL     1      -5.906  53.903  52.053  0.00  0.00    +0.000 A 
ATOM     19  C   UNL     1      -4.726  54.868  53.947  0.00  0.00    +0.000 A 
ATOM     20  N   UNL     1      -7.031  53.830  51.237  0.00  0.00    +0.000 N 
ATOM     21  C   UNL     1      -4.848  53.004  51.878  0.00  0.00    +0.000 A 
ATOM     22  C   UNL     1      -3.664  53.990  53.742  0.00  0.00    +0.000 A 
ATOM     23  C   UNL     1      -3.726  53.053  52.713  0.00  0.00    +0.000 A 
ATOM     24  H   UNL     1      -9.030  56.263  52.070  0.00  0.00    +0.000 HD
ATOM     25  H   UNL     1      -7.096  53.072  50.610  0.00  0.00    +0.000 HD
ENDBRANCH   1  17
BRANCH   3  26
ATOM     26  O   UNL     1      -7.471  53.749  48.578  0.00  0.00    +0.000 OA
ATOM     27  H   UNL     1      -7.236  53.618  47.681  0.00  0.00    +0.000 HD
ENDBRANCH   3  26
BRANCH   5  28
ATOM     28  N   UNL     1     -12.719  55.649  49.476  0.00  0.00    +0.000 N 
ATOM     29  H   UNL     1     -13.456  55.014  49.626  0.00  0.00    +0.000 HD
BRANCH  28  30
ATOM     30  C   UNL     1     -12.958  57.095  49.411  0.00  0.00    +0.000 C 
BRANCH  30  31
ATOM     31  C   UNL     1     -13.757  57.577  50.601  0.00  0.00    +0.000 A 
ATOM     32  C   UNL     1     -14.107  58.931  50.780  0.00  0.00    +0.000 A 
ATOM     33  C   UNL     1     -14.146  56.634  51.572  0.00  0.00    +0.000 A 
ATOM     34  C   UNL     1     -14.849  59.297  51.914  0.00  0.00    +0.000 A 
ATOM     35  C   UNL     1     -13.721  60.020  49.813  0.00  0.00    +0.000 C 
ATOM     36  C   UNL     1     -14.881  57.015  52.692  0.00  0.00    +0.000 A 
ATOM     37  C   UNL     1     -15.236  58.348  52.859  0.00  0.00    +0.000 A 
ENDBRANCH  30  31
ENDBRANCH  28  30
ENDBRANCH   5  28
TORSDOF 5
ENDMDL
MODEL 2
REMARK VINA RESULT:      -9.6      1.829      1.931
REMARK  Name = 
REMARK  6 active torsions:
REMARK  status: ('A' for Active; 'I' for Inactive)
REMARK    1  A    between atoms: C_6  and  C_10
REMARK    2  A    between atoms: C_14  and  O_18
REMARK    3  A    between atoms: N_17  and  N_20
REMARK    4  A    between atoms: N_20  and  C_23
REMARK    5  A    between atoms: C_23  and  C_26
REMARK    6  A    between atoms: C_28  and  C_31
REMARK                            x       y       z     vdW  Elec       q    Type
REMARK                         _______ _______ _______ _____ _____    ______ ____
ROOT
ATOM      1  C   UNL     1      -9.660  54.077  50.189  0.00  0.00    +0.000 A 
ATOM      2  C   UNL     1     -10.954  54.802  50.361  0.00  0.00    +0.000 A 
ATOM      3  C   UNL     1      -9.270  53.657  48.974  0.00  0.00    +0.000 A 
ATOM      4  O   UNL     1     -11.228  55.181  51.505  0.00  0.00    +0.000 OA
ATOM      5  N   UNL     1     -11.748  55.018  49.229  0.00  0.00    +0.000 N 
ATOM      6  C   UNL     1     -10.092  53.936  47.788  0.00  0.00    +0.000 A 
ATOM      7  C   UNL     1     -11.314  54.614  47.927  0.00  0.00    +0.000 A 
ATOM      8  C   UNL     1      -9.656  53.553  46.507  0.00  0.00    +0.000 A 
ATOM      9  C   UNL     1     -12.072  54.897  46.777  0.00  0.00    +0.000 A 
ATOM     10  C   UNL     1     -10.409  53.852  45.374  0.00  0.00    +0.000 A 
ATOM     11  C   UNL     1     -11.617  54.525  45.508  0.00  0.00    +0.000 A 
ENDROOT
BRANCH   1  17
ATOM     12  S   UNL     1      -6.666  54.494  52.694  0.00  0.00    +0.000 S 
ATOM     13  O   UNL     1      -6.817  55.657  53.545  0.00  0.00    +0.000 OA
ATOM     14  O   UNL     1      -5.372  54.162  52.130  0.00  0.00    +0.000 OA
ATOM     15  N   UNL     1      -7.719  54.642  51.472  0.00  0.00    +0.000 N 
ATOM     16  C   UNL     1      -7.137  53.111  53.668  0.00  0.00    +0.000 A 
ATOM     17  C   UNL     1      -8.774  53.888  51.405  0.00  0.00    +0.000 C 
ATOM     18  C   UNL     1      -8.328  52.477  53.358  0.00  0.00    +0.000 A 
ATOM     19  C   UNL     1      -6.316  52.676  54.709  0.00  0.00    +0.000 A 
ATOM     20  N   UNL     1      -9.146  52.935  52.330  0.00  0.00    +0.000 N 
ATOM     21  C   UNL     1      -8.740  51.411  54.165  0.00  0.00    +0.000 A 
ATOM     22  C   UNL     1      -6.722  51.592  55.485  0.00  0.00    +0.000 A 
ATOM     23  C   UNL     1      -7.936  50.963  55.220  0.00  0.00    +0.000 A 
ATOM     24  H   UNL     1      -7.555  55.312  50.771  0.00  0.00    +0.000 HD
ATOM     25  H   UNL     1     -10.052  52.553  52.258  0.00  0.00    +0.000 HD
ENDBRANCH   1  17
BRANCH   3  26
ATOM     26  O   UNL     1      -8.085  52.989  48.724  0.00  0.00    +0.000 OA
ATOM     27  H   UNL     1      -7.706  53.011  47.868  0.00  0.00    +0.000 HD
ENDBRANCH   3  26
BRANCH   5  28
ATOM     28  N   UNL     1     -13.025  55.674  49.310  0.00  0.00    +0.000 N 
ATOM     29  H   UNL     1     -13.867  55.164  49.301  0.00  0.00    +0.000 HD
BRANCH  28  30
ATOM     30  C   UNL     1     -13.020  57.138  49.408  0.00  0.00    +0.000 C 
BRANCH  30  31
ATOM     31  C   UNL     1     -13.819  57.615  50.600  0.00  0.00    +0.000 A 
ATOM     32  C   UNL     1     -14.101  58.977  50.827  0.00  0.00    +0.000 A 
ATOM     33  C   UNL     1     -14.280  56.655  51.523  0.00  0.00    +0.000 A 
ATOM     34  C   UNL     1     -14.849  59.337  51.959  0.00  0.00    +0.000 A 
ATOM     35  C   UNL     1     -13.636  60.081  49.914  0.00  0.00    +0.000 C 
ATOM     36  C   UNL     1     -15.020  57.031  52.642  0.00  0.00    +0.000 A 
ATOM     37  C   UNL     1     -15.308  58.373  52.857  0.00  0.00    +0.000 A 
ENDBRANCH  30  31
ENDBRANCH  28  30
ENDBRANCH   5  28
TORSDOF 5
ENDMDL
MODEL 3
REMARK VINA RESULT:      -9.6      2.549      7.082
REMARK  Name = 
REMARK  6 active torsions:
REMARK  status: ('A' for Active; 'I' for Inactive)
REMARK    1  A    between atoms: C_6  and  C_10
REMARK    2  A    between atoms: C_14  and  O_18
REMARK    3  A    between atoms: N_17  and  N_20
REMARK    4  A    between atoms: N_20  and  C_23
REMARK    5  A    between atoms: C_23  and  C_26
REMARK    6  A    between atoms: C_28  and  C_31
REMARK                            x       y       z     vdW  Elec       q    Type
REMARK                         _______ _______ _______ _____ _____    ______ ____
ROOT
ATOM      1  C   UNL     1     -11.660  55.853  48.802  0.00  0.00    +0.000 A 
ATOM      2  C   UNL     1     -10.688  55.140  49.683  0.00  0.00    +0.000 A 
ATOM      3  C   UNL     1     -11.742  55.555  47.496  0.00  0.00    +0.000 A 
ATOM      4  O   UNL     1     -10.693  55.451  50.880  0.00  0.00    +0.000 OA
ATOM      5  N   UNL     1      -9.862  54.168  49.108  0.00  0.00    +0.000 N 
ATOM      6  C   UNL     1     -10.903  54.496  46.917  0.00  0.00    +0.000 A 
ATOM      7  C   UNL     1      -9.980  53.814  47.727  0.00  0.00    +0.000 A 
ATOM      8  C   UNL     1     -11.033  54.138  45.564  0.00  0.00    +0.000 A 
ATOM      9  C   UNL     1      -9.207  52.784  47.161  0.00  0.00    +0.000 A 
ATOM     10  C   UNL     1     -10.271  53.106  45.019  0.00  0.00    +0.000 A 
ATOM     11  C   UNL     1      -9.359  52.429  45.818  0.00  0.00    +0.000 A 
ENDROOT
BRANCH   1  17
ATOM     12  S   UNL     1     -13.558  59.223  49.481  0.00  0.00    +0.000 S 
ATOM     13  O   UNL     1     -14.692  59.405  48.597  0.00  0.00    +0.000 OA
ATOM     14  O   UNL     1     -12.688  60.339  49.795  0.00  0.00    +0.000 OA
ATOM     15  N   UNL     1     -12.644  58.037  48.866  0.00  0.00    +0.000 N 
ATOM     16  C   UNL     1     -14.216  58.677  51.014  0.00  0.00    +0.000 A 
ATOM     17  C   UNL     1     -12.591  56.870  49.435  0.00  0.00    +0.000 C 
ATOM     18  C   UNL     1     -13.991  57.363  51.384  0.00  0.00    +0.000 A 
ATOM     19  C   UNL     1     -14.931  59.562  51.824  0.00  0.00    +0.000 A 
ATOM     20  N   UNL     1     -13.294  56.487  50.558  0.00  0.00    +0.000 N 
ATOM     21  C   UNL     1     -14.562  56.903  52.577  0.00  0.00    +0.000 A 
ATOM     22  C   UNL     1     -15.466  59.101  53.024  0.00  0.00    +0.000 A 
ATOM     23  C   UNL     1     -15.289  57.771  53.399  0.00  0.00    +0.000 A 
ATOM     24  H   UNL     1     -12.120  58.202  48.049  0.00  0.00    +0.000 HD
ATOM     25  H   UNL     1     -13.304  55.530  50.790  0.00  0.00    +0.000 HD
ENDBRANCH   1  17
BRANCH   3  26
ATOM     26  O   UNL     1     -12.619  56.158  46.613  0.00  0.00    +0.000 OA
ATOM     27  H   UNL     1     -13.226  56.802  46.921  0.00  0.00    +0.000 HD
ENDBRANCH   3  26
BRANCH   5  28
ATOM     28  N   UNL     1      -8.873  53.459  49.874  0.00  0.00    +0.000 N 
ATOM     29  H   UNL     1      -9.050  52.561  50.237  0.00  0.00    +0.000 HD
BRANCH  28  30
ATOM     30  C   UNL     1      -7.588  54.132  50.092  0.00  0.00    +0.000 C 
BRANCH  30  31
ATOM     31  C   UNL     1      -7.392  54.494  51.547  0.00  0.00    +0.000 A 
ATOM     32  C   UNL     1      -7.390  55.829  52.001  0.00  0.00    +0.000 A 
ATOM     33  C   UNL     1      -7.188  53.453  52.474  0.00  0.00    +0.000 A 
ATOM     34  C   UNL     1      -7.200  56.081  53.370  0.00  0.00    +0.000 A 
ATOM     35  C   UNL     1      -7.578  57.014  51.090  0.00  0.00    +0.000 C 
ATOM     36  C   UNL     1      -7.000  53.722  53.827  0.00  0.00    +0.000 A 
ATOM     37  C   UNL     1      -7.011  55.037  54.275  0.00  0.00    +0.000 A 
ENDBRANCH  30  31
ENDBRANCH  28  30
ENDBRANCH   5  28
TORSDOF 5
ENDMDL
MODEL 4
REMARK VINA RESULT:      -9.5      2.788      7.868
REMARK  Name = 
REMARK  6 active torsions:
REMARK  status: ('A' for Active; 'I' for Inactive)
REMARK    1  A    between atoms: C_6  and  C_10
REMARK    2  A    between atoms: C_14  and  O_18
REMARK    3  A    between atoms: N_17  and  N_20
REMARK    4  A    between atoms: N_20  and  C_23
REMARK    5  A    between atoms: C_23  and  C_26
REMARK    6  A    between atoms: C_28  and  C_31
REMARK                            x       y       z     vdW  Elec       q    Type
REMARK                         _______ _______ _______ _____ _____    ______ ____
ROOT
ATOM      1  C   UNL     1     -11.170  54.579  50.733  0.00  0.00    +0.000 A 
ATOM      2  C   UNL     1      -9.806  54.969  50.270  0.00  0.00    +0.000 A 
ATOM      3  C   UNL     1     -11.391  53.362  51.255  0.00  0.00    +0.000 A 
ATOM      4  O   UNL     1      -9.678  56.116  49.828  0.00  0.00    +0.000 OA
ATOM      5  N   UNL     1      -8.774  54.031  50.384  0.00  0.00    +0.000 N 
ATOM      6  C   UNL     1     -10.286  52.405  51.415  0.00  0.00    +0.000 A 
ATOM      7  C   UNL     1      -8.995  52.750  50.984  0.00  0.00    +0.000 A 
ATOM      8  C   UNL     1     -10.503  51.155  52.020  0.00  0.00    +0.000 A 
ATOM      9  C   UNL     1      -7.946  51.833  51.172  0.00  0.00    +0.000 A 
ATOM     10  C   UNL     1      -9.451  50.261  52.213  0.00  0.00    +0.000 A 
ATOM     11  C   UNL     1      -8.172  50.600  51.790  0.00  0.00    +0.000 A 
ENDROOT
BRANCH   1  17
ATOM     12  S   UNL     1     -13.694  57.210  49.272  0.00  0.00    +0.000 S 
ATOM     13  O   UNL     1     -14.852  56.584  48.665  0.00  0.00    +0.000 OA
ATOM     14  O   UNL     1     -13.060  58.348  48.639  0.00  0.00    +0.000 OA
ATOM     15  N   UNL     1     -12.569  56.062  49.474  0.00  0.00    +0.000 N 
ATOM     16  C   UNL     1     -14.211  57.763  50.856  0.00  0.00    +0.000 A 
ATOM     17  C   UNL     1     -12.278  55.613  50.658  0.00  0.00    +0.000 C 
ATOM     18  C   UNL     1     -13.724  57.096  51.966  0.00  0.00    +0.000 A 
ATOM     19  C   UNL     1     -15.078  58.852  50.968  0.00  0.00    +0.000 A 
ATOM     20  N   UNL     1     -12.877  56.000  51.838  0.00  0.00    +0.000 N 
ATOM     21  C   UNL     1     -14.177  57.494  53.229  0.00  0.00    +0.000 A 
ATOM     22  C   UNL     1     -15.496  59.259  52.232  0.00  0.00    +0.000 A 
ATOM     23  C   UNL     1     -15.052  58.577  53.364  0.00  0.00    +0.000 A 
ATOM     24  H   UNL     1     -12.098  55.701  48.689  0.00  0.00    +0.000 HD
ATOM     25  H   UNL     1     -12.693  55.465  52.645  0.00  0.00    +0.000 HD
ENDBRANCH   1  17
BRANCH   3  26
ATOM     26  O   UNL     1     -12.619  52.923  51.717  0.00  0.00    +0.000 OA
ATOM     27  H   UNL     1     -13.269  53.544  51.984  0.00  0.00    +0.000 HD
ENDBRANCH   3  26
BRANCH   5  28
ATOM     28  N   UNL     1      -7.439  54.309  49.929  0.00  0.00    +0.000 N 
ATOM     29  H   UNL     1      -7.032  53.804  49.188  0.00  0.00    +0.000 HD
BRANCH  28  30
ATOM     30  C   UNL     1      -6.707  55.379  50.617  0.00  0.00    +0.000 C 
BRANCH  30  31
ATOM     31  C   UNL     1      -6.431  55.021  52.060  0.00  0.00    +0.000 A 
ATOM     32  C   UNL     1      -5.316  54.252  52.449  0.00  0.00    +0.000 A 
ATOM     33  C   UNL     1      -7.338  55.463  53.043  0.00  0.00    +0.000 A 
ATOM     34  C   UNL     1      -5.133  53.962  53.811  0.00  0.00    +0.000 A 
ATOM     35  C   UNL     1      -4.301  53.714  51.475  0.00  0.00    +0.000 C 
ATOM     36  C   UNL     1      -7.141  55.164  54.390  0.00  0.00    +0.000 A 
ATOM     37  C   UNL     1      -6.034  54.417  54.773  0.00  0.00    +0.000 A 
ENDBRANCH  30  31
ENDBRANCH  28  30
ENDBRANCH   5  28
TORSDOF 5
ENDMDL
MODEL 5
REMARK VINA RESULT:      -9.3      2.703      8.267
REMARK  Name = 
REMARK  6 active torsions:
REMARK  status: ('A' for Active; 'I' for Inactive)
REMARK    1  A    between atoms: C_6  and  C_10
REMARK    2  A    between atoms: C_14  and  O_18
REMARK    3  A    between atoms: N_17  and  N_20
REMARK    4  A    between atoms: N_20  and  C_23
REMARK    5  A    between atoms: C_23  and  C_26
REMARK    6  A    between atoms: C_28  and  C_31
REMARK                            x       y       z     vdW  Elec       q    Type
REMARK                         _______ _______ _______ _____ _____    ______ ____
ROOT
ATOM      1  C   UNL     1     -10.083  54.555  52.192  0.00  0.00    +0.000 A 
ATOM      2  C   UNL     1      -8.729  55.159  52.019  0.00  0.00    +0.000 A 
ATOM      3  C   UNL     1     -10.245  53.442  52.924  0.00  0.00    +0.000 A 
ATOM      4  O   UNL     1      -8.667  56.200  51.354  0.00  0.00    +0.000 OA
ATOM      5  N   UNL     1      -7.639  54.527  52.627  0.00  0.00    +0.000 N 
ATOM      6  C   UNL     1      -9.097  52.818  53.598  0.00  0.00    +0.000 A 
ATOM      7  C   UNL     1      -7.813  53.368  53.448  0.00  0.00    +0.000 A 
ATOM      8  C   UNL     1      -9.274  51.689  54.418  0.00  0.00    +0.000 A 
ATOM      9  C   UNL     1      -6.733  52.774  54.124  0.00  0.00    +0.000 A 
ATOM     10  C   UNL     1      -8.197  51.119  55.094  0.00  0.00    +0.000 A 
ATOM     11  C   UNL     1      -6.927  51.662  54.949  0.00  0.00    +0.000 A 
ENDROOT
BRANCH   1  17
ATOM     12  S   UNL     1     -12.528  56.044  49.504  0.00  0.00    +0.000 S 
ATOM     13  O   UNL     1     -13.417  55.041  48.951  0.00  0.00    +0.000 OA
ATOM     14  O   UNL     1     -11.924  57.042  48.643  0.00  0.00    +0.000 OA
ATOM     15  N   UNL     1     -11.337  55.268  50.279  0.00  0.00    +0.000 N 
ATOM     16  C   UNL     1     -13.471  56.934  50.687  0.00  0.00    +0.000 A 
ATOM     17  C   UNL     1     -11.272  55.268  51.576  0.00  0.00    +0.000 C 
ATOM     18  C   UNL     1     -13.171  56.749  52.025  0.00  0.00    +0.000 A 
ATOM     19  C   UNL     1     -14.480  57.803  50.268  0.00  0.00    +0.000 A 
ATOM     20  N   UNL     1     -12.177  55.864  52.429  0.00  0.00    +0.000 N 
ATOM     21  C   UNL     1     -13.956  57.410  52.978  0.00  0.00    +0.000 A 
ATOM     22  C   UNL     1     -15.233  58.481  51.224  0.00  0.00    +0.000 A 
ATOM     23  C   UNL     1     -14.978  58.280  52.579  0.00  0.00    +0.000 A 
ATOM     24  H   UNL     1     -10.651  54.790  49.759  0.00  0.00    +0.000 HD
ATOM     25  H   UNL     1     -12.116  55.648  53.389  0.00  0.00    +0.000 HD
ENDBRANCH   1  17
BRANCH   3  26
ATOM     26  O   UNL     1     -11.462  52.823  53.144  0.00  0.00    +0.000 OA
ATOM     27  H   UNL     1     -11.705  52.072  52.639  0.00  0.00    +0.000 HD
ENDBRANCH   3  26
BRANCH   5  28
ATOM     28  N   UNL     1      -6.296  55.019  52.482  0.00  0.00    +0.000 N 
ATOM     29  H   UNL     1      -6.006  55.857  52.911  0.00  0.00    +0.000 HD
BRANCH  28  30
ATOM     30  C   UNL     1      -5.374  54.219  51.668  0.00  0.00    +0.000 C 
BRANCH  30  31
ATOM     31  C   UNL     1      -5.950  53.935  50.299  0.00  0.00    +0.000 A 
ATOM     32  C   UNL     1      -6.325  52.639  49.889  0.00  0.00    +0.000 A 
ATOM     33  C   UNL     1      -6.097  55.009  49.400  0.00  0.00    +0.000 A 
ATOM     34  C   UNL     1      -6.851  52.460  48.599  0.00  0.00    +0.000 A 
ATOM     35  C   UNL     1      -6.188  51.422  50.766  0.00  0.00    +0.000 C 
ATOM     36  C   UNL     1      -6.619  54.812  48.123  0.00  0.00    +0.000 A 
ATOM     37  C   UNL     1      -7.001  53.537  47.726  0.00  0.00    +0.000 A 
ENDBRANCH  30  31
ENDBRANCH  28  30
ENDBRANCH   5  28
TORSDOF 5
ENDMDL
MODEL 6
REMARK VINA RESULT:      -9.3      1.863      2.230
REMARK  Name = 
REMARK  6 active torsions:
REMARK  status: ('A' for Active; 'I' for Inactive)
REMARK    1  A    between atoms: C_6  and  C_10
REMARK    2  A    between atoms: C_14  and  O_18
REMARK    3  A    between atoms: N_17  and  N_20
REMARK    4  A    between atoms: N_20  and  C_23
REMARK    5  A    between atoms: C_23  and  C_26
REMARK    6  A    between atoms: C_28  and  C_31
REMARK                            x       y       z     vdW  Elec       q    Type
REMARK                         _______ _______ _______ _____ _____    ______ ____
ROOT
ATOM      1  C   UNL     1      -9.757  53.768  49.833  0.00  0.00    +0.000 A 
ATOM      2  C   UNL     1     -10.575  55.016  49.884  0.00  0.00    +0.000 A 
ATOM      3  C   UNL     1      -9.710  53.029  48.713  0.00  0.00    +0.000 A 
ATOM      4  O   UNL     1     -10.544  55.655  50.942  0.00  0.00    +0.000 OA
ATOM      5  N   UNL     1     -11.296  55.383  48.743  0.00  0.00    +0.000 N 
ATOM      6  C   UNL     1     -10.433  53.455  47.506  0.00  0.00    +0.000 A 
ATOM      7  C   UNL     1     -11.211  54.625  47.533  0.00  0.00    +0.000 A 
ATOM      8  C   UNL     1     -10.333  52.718  46.313  0.00  0.00    +0.000 A 
ATOM      9  C   UNL     1     -11.871  55.031  46.359  0.00  0.00    +0.000 A 
ATOM     10  C   UNL     1     -10.981  53.139  45.154  0.00  0.00    +0.000 A 
ATOM     11  C   UNL     1     -11.750  54.296  45.176  0.00  0.00    +0.000 A 
ENDROOT
BRANCH   1  17
ATOM     12  S   UNL     1      -8.485  51.814  52.993  0.00  0.00    +0.000 S 
ATOM     13  O   UNL     1      -7.645  50.686  52.642  0.00  0.00    +0.000 OA
ATOM     14  O   UNL     1      -9.470  51.693  54.049  0.00  0.00    +0.000 OA
ATOM     15  N   UNL     1      -9.253  52.288  51.648  0.00  0.00    +0.000 N 
ATOM     16  C   UNL     1      -7.397  53.097  53.491  0.00  0.00    +0.000 A 
ATOM     17  C   UNL     1      -8.934  53.397  51.052  0.00  0.00    +0.000 C 
ATOM     18  C   UNL     1      -7.257  54.190  52.653  0.00  0.00    +0.000 A 
ATOM     19  C   UNL     1      -6.712  53.003  54.704  0.00  0.00    +0.000 A 
ATOM     20  N   UNL     1      -7.930  54.261  51.437  0.00  0.00    +0.000 N 
ATOM     21  C   UNL     1      -6.348  55.190  53.014  0.00  0.00    +0.000 A 
ATOM     22  C   UNL     1      -5.834  54.021  55.068  0.00  0.00    +0.000 A 
ATOM     23  C   UNL     1      -5.645  55.112  54.222  0.00  0.00    +0.000 A 
ATOM     24  H   UNL     1      -9.972  51.727  51.277  0.00  0.00    +0.000 HD
ATOM     25  H   UNL     1      -7.672  54.975  50.809  0.00  0.00    +0.000 HD
ENDBRANCH   1  17
BRANCH   3  26
ATOM     26  O   UNL     1      -8.971  51.868  48.576  0.00  0.00    +0.000 OA
ATOM     27  H   UNL     1      -8.061  51.915  48.355  0.00  0.00    +0.000 HD
ENDBRANCH   3  26
BRANCH   5  28
ATOM     28  N   UNL     1     -12.139  56.548  48.717  0.00  0.00    +0.000 N 
ATOM     29  H   UNL     1     -11.798  57.422  48.420  0.00  0.00    +0.000 HD
BRANCH  28  30
ATOM     30  C   UNL     1     -13.530  56.377  49.150  0.00  0.00    +0.000 C 
BRANCH  30  31
ATOM     31  C   UNL     1     -13.842  57.233  50.357  0.00  0.00    +0.000 A 
ATOM     32  C   UNL     1     -14.179  58.598  50.251  0.00  0.00    +0.000 A 
ATOM     33  C   UNL     1     -13.774  56.640  51.633  0.00  0.00    +0.000 A 
ATOM     34  C   UNL     1     -14.454  59.323  51.422  0.00  0.00    +0.000 A 
ATOM     35  C   UNL     1     -14.259  59.331  48.937  0.00  0.00    +0.000 C 
ATOM     36  C   UNL     1     -14.048  57.376  52.784  0.00  0.00    +0.000 A 
ATOM     37  C   UNL     1     -14.393  58.717  52.676  0.00  0.00    +0.000 A 
ENDBRANCH  30  31
ENDBRANCH  28  30
ENDBRANCH   5  28
TORSDOF 5
ENDMDL
MODEL 7
REMARK VINA RESULT:      -9.2      2.932      7.244
REMARK  Name = 
REMARK  6 active torsions:
REMARK  status: ('A' for Active; 'I' for Inactive)
REMARK    1  A    between atoms: C_6  and  C_10
REMARK    2  A    between atoms: C_14  and  O_18
REMARK    3  A    between atoms: N_17  and  N_20
REMARK    4  A    between atoms: N_20  and  C_23
REMARK    5  A    between atoms: C_23  and  C_26
REMARK    6  A    between atoms: C_28  and  C_31
REMARK                            x       y       z     vdW  Elec       q    Type
REMARK                         _______ _______ _______ _____ _____    ______ ____
ROOT
ATOM      1  C   UNL     1     -11.234  54.627  48.384  0.00  0.00    +0.000 A 
ATOM      2  C   UNL     1     -10.960  54.190  49.785  0.00  0.00    +0.000 A 
ATOM      3  C   UNL     1     -12.172  55.554  48.130  0.00  0.00    +0.000 A 
ATOM      4  O   UNL     1     -10.063  53.354  49.939  0.00  0.00    +0.000 OA
ATOM      5  N   UNL     1     -11.714  54.761  50.816  0.00  0.00    +0.000 N 
ATOM      6  C   UNL     1     -12.920  56.181  49.229  0.00  0.00    +0.000 A 
ATOM      7  C   UNL     1     -12.680  55.783  50.555  0.00  0.00    +0.000 A 
ATOM      8  C   UNL     1     -13.856  57.197  48.971  0.00  0.00    +0.000 A 
ATOM      9  C   UNL     1     -13.385  56.415  51.594  0.00  0.00    +0.000 A 
ATOM     10  C   UNL     1     -14.537  57.826  50.011  0.00  0.00    +0.000 A 
ATOM     11  C   UNL     1     -14.301  57.435  51.324  0.00  0.00    +0.000 A 
ENDROOT
BRANCH   1  17
ATOM     12  S   UNL     1      -8.169  53.971  46.018  0.00  0.00    +0.000 S 
ATOM     13  O   UNL     1      -7.192  53.083  46.615  0.00  0.00    +0.000 OA
ATOM     14  O   UNL     1      -7.739  55.137  45.271  0.00  0.00    +0.000 OA
ATOM     15  N   UNL     1      -9.158  54.474  47.199  0.00  0.00    +0.000 N 
ATOM     16  C   UNL     1      -9.098  52.994  44.895  0.00  0.00    +0.000 A 
ATOM     17  C   UNL     1     -10.383  54.047  47.270  0.00  0.00    +0.000 C 
ATOM     18  C   UNL     1     -10.409  52.698  45.225  0.00  0.00    +0.000 A 
ATOM     19  C   UNL     1      -8.515  52.548  43.707  0.00  0.00    +0.000 A 
ATOM     20  N   UNL     1     -10.970  53.131  46.423  0.00  0.00    +0.000 N 
ATOM     21  C   UNL     1     -11.138  51.870  44.364  0.00  0.00    +0.000 A 
ATOM     22  C   UNL     1      -9.263  51.752  42.842  0.00  0.00    +0.000 A 
ATOM     23  C   UNL     1     -10.571  51.406  43.172  0.00  0.00    +0.000 A 
ATOM     24  H   UNL     1      -8.826  55.112  47.870  0.00  0.00    +0.000 HD
ATOM     25  H   UNL     1     -11.844  52.759  46.682  0.00  0.00    +0.000 HD
ENDBRANCH   1  17
BRANCH   3  26
ATOM     26  O   UNL     1     -12.481  56.023  46.866  0.00  0.00    +0.000 OA
ATOM     27  H   UNL     1     -12.865  55.448  46.233  0.00  0.00    +0.000 HD
ENDBRANCH   3  26
BRANCH   5  28
ATOM     28  N   UNL     1     -11.542  54.371  52.190  0.00  0.00    +0.000 N 
ATOM     29  H   UNL     1     -12.154  53.733  52.623  0.00  0.00    +0.000 HD
BRANCH  28  30
ATOM     30  C   UNL     1     -10.414  54.963  52.917  0.00  0.00    +0.000 C 
BRANCH  30  31
ATOM     31  C   UNL     1      -9.456  53.902  53.410  0.00  0.00    +0.000 A 
ATOM     32  C   UNL     1      -8.088  54.163  53.636  0.00  0.00    +0.000 A 
ATOM     33  C   UNL     1      -9.953  52.603  53.633  0.00  0.00    +0.000 A 
ATOM     34  C   UNL     1      -7.265  53.121  54.093  0.00  0.00    +0.000 A 
ATOM     35  C   UNL     1      -7.454  55.510  53.408  0.00  0.00    +0.000 C 
ATOM     36  C   UNL     1      -9.120  51.582  54.084  0.00  0.00    +0.000 A 
ATOM     37  C   UNL     1      -7.777  51.844  54.319  0.00  0.00    +0.000 A 
ENDBRANCH  30  31
ENDBRANCH  28  30
ENDBRANCH   5  28
TORSDOF 5
ENDMDL
MODEL 8
REMARK VINA RESULT:      -9.1      3.270      6.261
REMARK  Name = 
REMARK  6 active torsions:
REMARK  status: ('A' for Active; 'I' for Inactive)
REMARK    1  A    between atoms: C_6  and  C_10
REMARK    2  A    between atoms: C_14  and  O_18
REMARK    3  A    between atoms: N_17  and  N_20
REMARK    4  A    between atoms: N_20  and  C_23
REMARK    5  A    between atoms: C_23  and  C_26
REMARK    6  A    between atoms: C_28  and  C_31
REMARK                            x       y       z     vdW  Elec       q    Type
REMARK                         _______ _______ _______ _____ _____    ______ ____
ROOT
ATOM      1  C   UNL     1     -10.039  53.039  48.830  0.00  0.00    +0.000 A 
ATOM      2  C   UNL     1     -11.423  53.556  49.037  0.00  0.00    +0.000 A 
ATOM      3  C   UNL     1      -9.100  53.203  49.777  0.00  0.00    +0.000 A 
ATOM      4  O   UNL     1     -12.237  53.340  48.132  0.00  0.00    +0.000 OA
ATOM      5  N   UNL     1     -11.709  54.224  50.233  0.00  0.00    +0.000 N 
ATOM      6  C   UNL     1      -9.430  53.863  51.049  0.00  0.00    +0.000 A 
ATOM      7  C   UNL     1     -10.726  54.359  51.264  0.00  0.00    +0.000 A 
ATOM      8  C   UNL     1      -8.467  53.979  52.066  0.00  0.00    +0.000 A 
ATOM      9  C   UNL     1     -11.029  54.961  52.498  0.00  0.00    +0.000 A 
ATOM     10  C   UNL     1      -8.784  54.564  53.290  0.00  0.00    +0.000 A 
ATOM     11  C   UNL     1     -10.066  55.055  53.507  0.00  0.00    +0.000 A 
ENDROOT
BRANCH   1  17
ATOM     12  S   UNL     1      -9.164  50.073  46.409  0.00  0.00    +0.000 S 
ATOM     13  O   UNL     1     -10.321  49.257  46.097  0.00  0.00    +0.000 OA
ATOM     14  O   UNL     1      -7.881  49.454  46.673  0.00  0.00    +0.000 OA
ATOM     15  N   UNL     1      -9.545  50.992  47.687  0.00  0.00    +0.000 N 
ATOM     16  C   UNL     1      -8.918  51.124  45.025  0.00  0.00    +0.000 A 
ATOM     17  C   UNL     1      -9.741  52.270  47.557  0.00  0.00    +0.000 C 
ATOM     18  C   UNL     1      -9.199  52.471  45.176  0.00  0.00    +0.000 A 
ATOM     19  C   UNL     1      -8.443  50.598  43.823  0.00  0.00    +0.000 A 
ATOM     20  N   UNL     1      -9.692  52.978  46.375  0.00  0.00    +0.000 N 
ATOM     21  C   UNL     1      -9.061  53.305  44.061  0.00  0.00    +0.000 A 
ATOM     22  C   UNL     1      -8.279  51.445  42.729  0.00  0.00    +0.000 A 
ATOM     23  C   UNL     1      -8.594  52.797  42.844  0.00  0.00    +0.000 A 
ATOM     24  H   UNL     1      -9.629  50.577  48.576  0.00  0.00    +0.000 HD
ATOM     25  H   UNL     1     -10.027  53.904  46.378  0.00  0.00    +0.000 HD
ENDBRANCH   1  17
BRANCH   3  26
ATOM     26  O   UNL     1      -7.799  52.747  49.671  0.00  0.00    +0.000 OA
ATOM     27  H   UNL     1      -7.449  52.174  50.325  0.00  0.00    +0.000 HD
ENDBRANCH   3  26
BRANCH   5  28
ATOM     28  N   UNL     1     -13.005  54.787  50.500  0.00  0.00    +0.000 N 
ATOM     29  H   UNL     1     -13.638  54.352  51.116  0.00  0.00    +0.000 HD
BRANCH  28  30
ATOM     30  C   UNL     1     -13.344  56.040  49.815  0.00  0.00    +0.000 C 
BRANCH  30  31
ATOM     31  C   UNL     1     -13.959  57.041  50.766  0.00  0.00    +0.000 A 
ATOM     32  C   UNL     1     -14.185  58.386  50.408  0.00  0.00    +0.000 A 
ATOM     33  C   UNL     1     -14.299  56.609  52.064  0.00  0.00    +0.000 A 
ATOM     34  C   UNL     1     -14.760  59.253  51.352  0.00  0.00    +0.000 A 
ATOM     35  C   UNL     1     -13.839  58.952  49.056  0.00  0.00    +0.000 C 
ATOM     36  C   UNL     1     -14.866  57.484  52.987  0.00  0.00    +0.000 A 
ATOM     37  C   UNL     1     -15.101  58.805  52.628  0.00  0.00    +0.000 A 
ENDBRANCH  30  31
ENDBRANCH  28  30
ENDBRANCH   5  28
TORSDOF 5
ENDMDL
MODEL 9
REMARK VINA RESULT:      -9.1      2.001      5.491
REMARK  Name = 
REMARK  6 active torsions:
REMARK  status: ('A' for Active; 'I' for Inactive)
REMARK    1  A    between atoms: C_6  and  C_10
REMARK    2  A    between atoms: C_14  and  O_18
REMARK    3  A    between atoms: N_17  and  N_20
REMARK    4  A    between atoms: N_20  and  C_23
REMARK    5  A    between atoms: C_23  and  C_26
REMARK    6  A    between atoms: C_28  and  C_31
REMARK                            x       y       z     vdW  Elec       q    Type
REMARK                         _______ _______ _______ _____ _____    ______ ____
ROOT
ATOM      1  C   UNL     1     -10.006  54.048  51.065  0.00  0.00    +0.000 A 
ATOM      2  C   UNL     1     -10.478  53.754  49.680  0.00  0.00    +0.000 A 
ATOM      3  C   UNL     1     -10.709  54.864  51.867  0.00  0.00    +0.000 A 
ATOM      4  O   UNL     1      -9.790  52.971  49.014  0.00  0.00    +0.000 OA
ATOM      5  N   UNL     1     -11.661  54.359  49.240  0.00  0.00    +0.000 N 
ATOM      6  C   UNL     1     -11.976  55.452  51.408  0.00  0.00    +0.000 A 
ATOM      7  C   UNL     1     -12.438  55.191  50.107  0.00  0.00    +0.000 A 
ATOM      8  C   UNL     1     -12.746  56.254  52.268  0.00  0.00    +0.000 A 
ATOM      9  C   UNL     1     -13.666  55.739  49.698  0.00  0.00    +0.000 A 
ATOM     10  C   UNL     1     -13.969  56.780  51.854  0.00  0.00    +0.000 A 
ATOM     11  C   UNL     1     -14.429  56.522  50.569  0.00  0.00    +0.000 A 
ENDROOT
BRANCH   1  17
ATOM     12  S   UNL     1      -7.670  51.519  52.954  0.00  0.00    +0.000 S 
ATOM     13  O   UNL     1      -7.558  50.250  52.263  0.00  0.00    +0.000 OA
ATOM     14  O   UNL     1      -7.802  51.557  54.397  0.00  0.00    +0.000 OA
ATOM     15  N   UNL     1      -8.931  52.312  52.318  0.00  0.00    +0.000 N 
ATOM     16  C   UNL     1      -6.207  52.412  52.579  0.00  0.00    +0.000 A 
ATOM     17  C   UNL     1      -8.752  53.352  51.560  0.00  0.00    +0.000 C 
ATOM     18  C   UNL     1      -6.314  53.507  51.740  0.00  0.00    +0.000 A 
ATOM     19  C   UNL     1      -4.986  52.018  53.130  0.00  0.00    +0.000 A 
ATOM     20  N   UNL     1      -7.534  53.875  51.182  0.00  0.00    +0.000 N 
ATOM     21  C   UNL     1      -5.143  54.190  51.389  0.00  0.00    +0.000 A 
ATOM     22  C   UNL     1      -3.833  52.726  52.799  0.00  0.00    +0.000 A 
ATOM     23  C   UNL     1      -3.908  53.807  51.924  0.00  0.00    +0.000 A 
ATOM     24  H   UNL     1      -9.845  52.002  52.509  0.00  0.00    +0.000 HD
ATOM     25  H   UNL     1      -7.526  54.555  50.468  0.00  0.00    +0.000 HD
ENDBRANCH   1  17
BRANCH   3  26
ATOM     26  O   UNL     1     -10.350  55.180  53.164  0.00  0.00    +0.000 OA
ATOM     27  H   UNL     1      -9.569  54.821  53.536  0.00  0.00    +0.000 HD
ENDBRANCH   3  26
BRANCH   5  28
ATOM     28  N   UNL     1     -12.168  54.161  47.910  0.00  0.00    +0.000 N 
ATOM     29  H   UNL     1     -12.831  53.461  47.711  0.00  0.00    +0.000 HD
BRANCH  28  30
ATOM     30  C   UNL     1     -11.658  55.050  46.860  0.00  0.00    +0.000 C 
BRANCH  30  31
ATOM     31  C   UNL     1     -10.786  54.300  45.877  0.00  0.00    +0.000 A 
ATOM     32  C   UNL     1      -9.383  54.435  45.852  0.00  0.00    +0.000 A 
ATOM     33  C   UNL     1     -11.411  53.451  44.942  0.00  0.00    +0.000 A 
ATOM     34  C   UNL     1      -8.647  53.704  44.906  0.00  0.00    +0.000 A 
ATOM     35  C   UNL     1      -8.622  55.331  46.793  0.00  0.00    +0.000 C 
ATOM     36  C   UNL     1     -10.664  52.735  44.009  0.00  0.00    +0.000 A 
ATOM     37  C   UNL     1      -9.281  52.859  43.995  0.00  0.00    +0.000 A 
ENDBRANCH  30  31
ENDBRANCH  28  30
ENDBRANCH   5  28
TORSDOF 5
ENDMDL
