MODEL 1
REMARK VINA RESULT:      -8.2      0.000      0.000
REMARK  Name = 
REMARK  5 active torsions:
REMARK  status: ('A' for Active; 'I' for Inactive)
REMARK    1  A    between atoms: C_6  and  C_10
REMARK    2  A    between atoms: C_14  and  O_18
REMARK    3  A    between atoms: N_17  and  N_20
REMARK    4  A    between atoms: N_20  and  C_23
REMARK    5  A    between atoms: C_23  and  C_26
REMARK                            x       y       z     vdW  Elec       q    Type
REMARK                         _______ _______ _______ _____ _____    ______ ____
ROOT
ATOM      1  C   UNL     1     -11.326  53.849  51.563  0.00  0.00    +0.000 A 
ATOM      2  C   UNL     1     -10.375  54.006  52.705  0.00  0.00    +0.000 A 
ATOM      3  C   UNL     1     -11.462  52.658  50.956  0.00  0.00    +0.000 A 
ATOM      4  O   UNL     1     -10.260  55.134  53.194  0.00  0.00    +0.000 OA
ATOM      5  N   UNL     1      -9.705  52.870  53.170  0.00  0.00    +0.000 N 
ATOM      6  C   UNL     1     -10.726  51.482  51.438  0.00  0.00    +0.000 A 
ATOM      7  C   UNL     1      -9.856  51.600  52.536  0.00  0.00    +0.000 A 
ATOM      8  C   UNL     1     -10.893  50.230  50.818  0.00  0.00    +0.000 A 
ATOM      9  C   UNL     1      -9.161  50.463  52.980  0.00  0.00    +0.000 A 
ATOM     10  C   UNL     1     -10.209  49.107  51.277  0.00  0.00    +0.000 A 
ATOM     11  C   UNL     1      -9.340  49.224  52.356  0.00  0.00    +0.000 A 
ENDROOT
BRANCH   1  17
ATOM     12  S   UNL     1     -12.837  56.715  49.347  0.00  0.00    +0.000 S 
ATOM     13  O   UNL     1     -13.872  56.235  48.452  0.00  0.00    +0.000 OA
ATOM     14  O   UNL     1     -11.861  57.682  48.886  0.00  0.00    +0.000 OA
ATOM     15  N   UNL     1     -12.038  55.423  49.907  0.00  0.00    +0.000 N 
ATOM     16  C   UNL     1     -13.675  57.474  50.692  0.00  0.00    +0.000 A 
ATOM     17  C   UNL     1     -12.158  55.043  51.143  0.00  0.00    +0.000 C 
ATOM     18  C   UNL     1     -13.631  56.840  51.923  0.00  0.00    +0.000 A 
ATOM     19  C   UNL     1     -14.344  58.686  50.504  0.00  0.00    +0.000 A 
ATOM     20  N   UNL     1     -12.970  55.625  52.093  0.00  0.00    +0.000 N 
ATOM     21  C   UNL     1     -14.346  57.408  52.983  0.00  0.00    +0.000 A 
ATOM     22  C   UNL     1     -15.015  59.263  51.579  0.00  0.00    +0.000 A 
ATOM     23  C   UNL     1     -15.029  58.616  52.815  0.00  0.00    +0.000 A 
ATOM     24  H   UNL     1     -11.450  54.918  49.300  0.00  0.00    +0.000 HD
ATOM     25  H   UNL     1     -13.092  55.152  52.946  0.00  0.00    +0.000 HD
ENDBRANCH   1  17
BRANCH   3  26
ATOM     26  O   UNL     1     -12.309  52.425  49.888  0.00  0.00    +0.000 OA
ATOM     27  H   UNL     1     -12.301  53.001  49.149  0.00  0.00    +0.000 HD
ENDBRANCH   3  26
BRANCH   5  28
ATOM     28  N   UNL     1      -8.763  52.981  54.256  0.00  0.00    +0.000 N 
ATOM     29  H   UNL     1      -9.007  52.826  55.197  0.00  0.00    +0.000 HD
BRANCH  28  30
ATOM     30  C   UNL     1      -7.407  53.345  53.830  0.00  0.00    +0.000 C 
BRANCH  30  31
ATOM     31  C   UNL     1      -7.009  54.660  54.429  0.00  0.00    +0.000 C 
ATOM     32  C   UNL     1      -6.704  55.872  53.590  0.00  0.00    +0.000 C 
ATOM     33  C   UNL     1      -5.584  55.132  54.267  0.00  0.00    +0.000 C 
ENDBRANCH  30  31
ENDBRANCH  28  30
ENDBRANCH   5  28
TORSDOF 5
ENDMDL
MODEL 2
REMARK VINA RESULT:      -8.2      2.192      2.832
REMARK  Name = 
REMARK  5 active torsions:
REMARK  status: ('A' for Active; 'I' for Inactive)
REMARK    1  A    between atoms: C_6  and  C_10
REMARK    2  A    between atoms: C_14  and  O_18
REMARK    3  A    between atoms: N_17  and  N_20
REMARK    4  A    between atoms: N_20  and  C_23
REMARK    5  A    between atoms: C_23  and  C_26
REMARK                            x       y       z     vdW  Elec       q    Type
REMARK                         _______ _______ _______ _____ _____    ______ ____
ROOT
ATOM      1  C   UNL     1     -10.094  54.553  52.185  0.00  0.00    +0.000 A 
ATOM      2  C   UNL     1      -8.727  55.114  51.964  0.00  0.00    +0.000 A 
ATOM      3  C   UNL     1     -10.260  53.454  52.941  0.00  0.00    +0.000 A 
ATOM      4  O   UNL     1      -8.633  56.098  51.223  0.00  0.00    +0.000 OA
ATOM      5  N   UNL     1      -7.651  54.519  52.628  0.00  0.00    +0.000 N 
ATOM      6  C   UNL     1      -9.113  52.823  53.607  0.00  0.00    +0.000 A 
ATOM      7  C   UNL     1      -7.824  53.359  53.443  0.00  0.00    +0.000 A 
ATOM      8  C   UNL     1      -9.293  51.690  54.422  0.00  0.00    +0.000 A 
ATOM      9  C   UNL     1      -6.740  52.740  54.088  0.00  0.00    +0.000 A 
ATOM     10  C   UNL     1      -8.213  51.093  55.067  0.00  0.00    +0.000 A 
ATOM     11  C   UNL     1      -6.936  51.616  54.898  0.00  0.00    +0.000 A 
ENDROOT
BRANCH   1  17
ATOM     12  S   UNL     1     -12.567  56.022  49.514  0.00  0.00    +0.000 S 
ATOM     13  O   UNL     1     -13.463  55.017  48.976  0.00  0.00    +0.000 OA
ATOM     14  O   UNL     1     -11.971  57.014  48.640  0.00  0.00    +0.000 OA
ATOM     15  N   UNL     1     -11.371  55.250  50.284  0.00  0.00    +0.000 N 
ATOM     16  C   UNL     1     -13.502  56.919  50.700  0.00  0.00    +0.000 A 
ATOM     17  C   UNL     1     -11.281  55.274  51.580  0.00  0.00    +0.000 C 
ATOM     18  C   UNL     1     -13.178  56.755  52.037  0.00  0.00    +0.000 A 
ATOM     19  C   UNL     1     -14.524  57.776  50.282  0.00  0.00    +0.000 A 
ATOM     20  N   UNL     1     -12.165  55.889  52.440  0.00  0.00    +0.000 N 
ATOM     21  C   UNL     1     -13.959  57.420  52.990  0.00  0.00    +0.000 A 
ATOM     22  C   UNL     1     -15.264  58.465  51.239  0.00  0.00    +0.000 A 
ATOM     23  C   UNL     1     -14.991  58.275  52.594  0.00  0.00    +0.000 A 
ATOM     24  H   UNL     1     -10.699  54.755  49.762  0.00  0.00    +0.000 HD
ATOM     25  H   UNL     1     -12.075  55.704  53.402  0.00  0.00    +0.000 HD
ENDBRANCH   1  17
BRANCH   3  26
ATOM     26  O   UNL     1     -11.484  52.862  53.190  0.00  0.00    +0.000 OA
ATOM     27  H   UNL     1     -11.893  52.964  54.027  0.00  0.00    +0.000 HD
ENDBRANCH   3  26
BRANCH   5  28
ATOM     28  N   UNL     1      -6.313  55.016  52.427  0.00  0.00    +0.000 N 
ATOM     29  H   UNL     1      -5.944  55.784  52.920  0.00  0.00    +0.000 HD
BRANCH  28  30
ATOM     30  C   UNL     1      -5.549  54.272  51.418  0.00  0.00    +0.000 C 
BRANCH  30  31
ATOM     31  C   UNL     1      -5.527  55.025  50.123  0.00  0.00    +0.000 C 
ATOM     32  C   UNL     1      -6.284  54.567  48.906  0.00  0.00    +0.000 C 
ATOM     33  C   UNL     1      -4.788  54.430  48.949  0.00  0.00    +0.000 C 
ENDBRANCH  30  31
ENDBRANCH  28  30
ENDBRANCH   5  28
TORSDOF 5
ENDMDL
MODEL 3
REMARK VINA RESULT:      -8.1      3.984      4.908
REMARK  Name = 
REMARK  5 active torsions:
REMARK  status: ('A' for Active; 'I' for Inactive)
REMARK    1  A    between atoms: C_6  and  C_10
REMARK    2  A    between atoms: C_14  and  O_18
REMARK    3  A    between atoms: N_17  and  N_20
REMARK    4  A    between atoms: N_20  and  C_23
REMARK    5  A    between atoms: C_23  and  C_26
REMARK                            x       y       z     vdW  Elec       q    Type
REMARK                         _______ _______ _______ _____ _____    ______ ____
ROOT
ATOM      1  C   UNL     1     -10.663  55.619  48.133  0.00  0.00    +0.000 A 
ATOM      2  C   UNL     1      -9.197  55.722  48.403  0.00  0.00    +0.000 A 
ATOM      3  C   UNL     1     -11.105  54.980  47.036  0.00  0.00    +0.000 A 
ATOM      4  O   UNL     1      -8.849  56.361  49.401  0.00  0.00    +0.000 OA
ATOM      5  N   UNL     1      -8.316  55.068  47.536  0.00  0.00    +0.000 N 
ATOM      6  C   UNL     1     -10.163  54.324  46.120  0.00  0.00    +0.000 A 
ATOM      7  C   UNL     1      -8.782  54.376  46.377  0.00  0.00    +0.000 A 
ATOM      8  C   UNL     1     -10.631  53.631  44.989  0.00  0.00    +0.000 A 
ATOM      9  C   UNL     1      -7.898  53.744  45.487  0.00  0.00    +0.000 A 
ATOM     10  C   UNL     1      -9.745  52.995  44.122  0.00  0.00    +0.000 A 
ATOM     11  C   UNL     1      -8.378  53.055  44.369  0.00  0.00    +0.000 A 
ENDROOT
BRANCH   1  17
ATOM     12  S   UNL     1     -13.017  55.941  51.257  0.00  0.00    +0.000 S 
ATOM     13  O   UNL     1     -12.281  56.179  52.484  0.00  0.00    +0.000 OA
ATOM     14  O   UNL     1     -14.143  55.028  51.245  0.00  0.00    +0.000 OA
ATOM     15  N   UNL     1     -11.958  55.445  50.138  0.00  0.00    +0.000 N 
ATOM     16  C   UNL     1     -13.653  57.503  50.764  0.00  0.00    +0.000 A 
ATOM     17  C   UNL     1     -11.629  56.208  49.140  0.00  0.00    +0.000 C 
ATOM     18  C   UNL     1     -13.111  58.095  49.635  0.00  0.00    +0.000 A 
ATOM     19  C   UNL     1     -14.684  58.100  51.495  0.00  0.00    +0.000 A 
ATOM     20  N   UNL     1     -12.076  57.494  48.924  0.00  0.00    +0.000 N 
ATOM     21  C   UNL     1     -13.571  59.366  49.273  0.00  0.00    +0.000 A 
ATOM     22  C   UNL     1     -15.163  59.346  51.097  0.00  0.00    +0.000 A 
ATOM     23  C   UNL     1     -14.596  59.985  49.994  0.00  0.00    +0.000 A 
ATOM     24  H   UNL     1     -11.557  54.549  50.216  0.00  0.00    +0.000 HD
ATOM     25  H   UNL     1     -11.635  58.022  48.221  0.00  0.00    +0.000 HD
ENDBRANCH   1  17
BRANCH   3  26
ATOM     26  O   UNL     1     -12.440  54.845  46.704  0.00  0.00    +0.000 OA
ATOM     27  H   UNL     1     -12.942  54.134  47.053  0.00  0.00    +0.000 HD
ENDBRANCH   3  26
BRANCH   5  28
ATOM     28  N   UNL     1      -6.893  55.159  47.748  0.00  0.00    +0.000 N 
ATOM     29  H   UNL     1      -6.321  55.816  47.289  0.00  0.00    +0.000 HD
BRANCH  28  30
ATOM     30  C   UNL     1      -6.373  54.182  48.712  0.00  0.00    +0.000 C 
BRANCH  30  31
ATOM     31  C   UNL     1      -5.643  54.881  49.818  0.00  0.00    +0.000 C 
ATOM     32  C   UNL     1      -4.790  54.145  50.816  0.00  0.00    +0.000 C 
ATOM     33  C   UNL     1      -6.123  54.695  51.237  0.00  0.00    +0.000 C 
ENDBRANCH  30  31
ENDBRANCH  28  30
ENDBRANCH   5  28
TORSDOF 5
ENDMDL
MODEL 4
REMARK VINA RESULT:      -8.1      2.937      7.347
REMARK  Name = 
REMARK  5 active torsions:
REMARK  status: ('A' for Active; 'I' for Inactive)
REMARK    1  A    between atoms: C_6  and  C_10
REMARK    2  A    between atoms: C_14  and  O_18
REMARK    3  A    between atoms: N_17  and  N_20
REMARK    4  A    between atoms: N_20  and  C_23
REMARK    5  A    between atoms: C_23  and  C_26
REMARK                            x       y       z     vdW  Elec       q    Type
REMARK                         _______ _______ _______ _____ _____    ______ ____
ROOT
ATOM      1  C   UNL     1     -10.467  54.915  50.510  0.00  0.00    +0.000 A 
ATOM      2  C   UNL     1     -11.610  55.092  51.456  0.00  0.00    +0.000 A 
ATOM      3  C   UNL     1     -10.603  55.250  49.216  0.00  0.00    +0.000 A 
ATOM      4  O   UNL     1     -11.441  54.724  52.623  0.00  0.00    +0.000 OA
ATOM      5  N   UNL     1     -12.781  55.687  50.977  0.00  0.00    +0.000 N 
ATOM      6  C   UNL     1     -11.851  55.846  48.722  0.00  0.00    +0.000 A 
ATOM      7  C   UNL     1     -12.925  56.057  49.605  0.00  0.00    +0.000 A 
ATOM      8  C   UNL     1     -11.979  56.223  47.373  0.00  0.00    +0.000 A 
ATOM      9  C   UNL     1     -14.110  56.627  49.112  0.00  0.00    +0.000 A 
ATOM     10  C   UNL     1     -13.155  56.801  46.900  0.00  0.00    +0.000 A 
ATOM     11  C   UNL     1     -14.222  57.000  47.769  0.00  0.00    +0.000 A 
ENDROOT
BRANCH   1  17
ATOM     12  S   UNL     1      -7.254  52.703  50.949  0.00  0.00    +0.000 S 
ATOM     13  O   UNL     1      -6.224  53.023  49.980  0.00  0.00    +0.000 OA
ATOM     14  O   UNL     1      -7.531  51.322  51.293  0.00  0.00    +0.000 OA
ATOM     15  N   UNL     1      -8.634  53.377  50.438  0.00  0.00    +0.000 N 
ATOM     16  C   UNL     1      -6.774  53.489  52.444  0.00  0.00    +0.000 A 
ATOM     17  C   UNL     1      -9.151  54.398  51.053  0.00  0.00    +0.000 C 
ATOM     18  C   UNL     1      -7.523  54.571  52.876  0.00  0.00    +0.000 A 
ATOM     19  C   UNL     1      -5.676  53.010  53.164  0.00  0.00    +0.000 A 
ATOM     20  N   UNL     1      -8.607  55.045  52.142  0.00  0.00    +0.000 N 
ATOM     21  C   UNL     1      -7.108  55.239  54.034  0.00  0.00    +0.000 A 
ATOM     22  C   UNL     1      -5.301  53.658  54.339  0.00  0.00    +0.000 A 
ATOM     23  C   UNL     1      -6.009  54.782  54.765  0.00  0.00    +0.000 A 
ATOM     24  H   UNL     1      -9.090  53.007  49.648  0.00  0.00    +0.000 HD
ATOM     25  H   UNL     1      -9.011  55.898  52.419  0.00  0.00    +0.000 HD
ENDBRANCH   1  17
BRANCH   3  26
ATOM     26  O   UNL     1      -9.603  55.112  48.271  0.00  0.00    +0.000 OA
ATOM     27  H   UNL     1      -8.706  55.238  48.514  0.00  0.00    +0.000 HD
ENDBRANCH   3  26
BRANCH   5  28
ATOM     28  N   UNL     1     -13.915  55.857  51.850  0.00  0.00    +0.000 N 
ATOM     29  H   UNL     1     -14.645  55.200  51.919  0.00  0.00    +0.000 HD
BRANCH  28  30
ATOM     30  C   UNL     1     -13.884  57.102  52.627  0.00  0.00    +0.000 C 
BRANCH  30  31
ATOM     31  C   UNL     1     -15.096  57.932  52.330  0.00  0.00    +0.000 C 
ATOM     32  C   UNL     1     -15.021  59.234  51.581  0.00  0.00    +0.000 C 
ATOM     33  C   UNL     1     -15.279  59.239  53.062  0.00  0.00    +0.000 C 
ENDBRANCH  30  31
ENDBRANCH  28  30
ENDBRANCH   5  28
TORSDOF 5
ENDMDL
MODEL 5
REMARK VINA RESULT:      -8.0      3.378      7.625
REMARK  Name = 
REMARK  5 active torsions:
REMARK  status: ('A' for Active; 'I' for Inactive)
REMARK    1  A    between atoms: C_6  and  C_10
REMARK    2  A    between atoms: C_14  and  O_18
REMARK    3  A    between atoms: N_17  and  N_20
REMARK    4  A    between atoms: N_20  and  C_23
REMARK    5  A    between atoms: C_23  and  C_26
REMARK                            x       y       z     vdW  Elec       q    Type
REMARK                         _______ _______ _______ _____ _____    ______ ____
ROOT
ATOM      1  C   UNL     1     -10.249  55.187  50.814  0.00  0.00    +0.000 A 
ATOM      2  C   UNL     1      -9.819  55.139  49.383  0.00  0.00    +0.000 A 
ATOM      3  C   UNL     1     -11.462  55.664  51.140  0.00  0.00    +0.000 A 
ATOM      4  O   UNL     1      -8.677  54.733  49.150  0.00  0.00    +0.000 OA
ATOM      5  N   UNL     1     -10.739  55.520  48.402  0.00  0.00    +0.000 N 
ATOM      6  C   UNL     1     -12.405  56.090  50.097  0.00  0.00    +0.000 A 
ATOM      7  C   UNL     1     -12.035  56.015  48.743  0.00  0.00    +0.000 A 
ATOM      8  C   UNL     1     -13.685  56.562  50.440  0.00  0.00    +0.000 A 
ATOM      9  C   UNL     1     -12.951  56.429  47.762  0.00  0.00    +0.000 A 
ATOM     10  C   UNL     1     -14.590  56.955  49.457  0.00  0.00    +0.000 A 
ATOM     11  C   UNL     1     -14.222  56.892  48.118  0.00  0.00    +0.000 A 
ENDROOT
BRANCH   1  17
ATOM     12  S   UNL     1      -7.070  54.767  53.079  0.00  0.00    +0.000 S 
ATOM     13  O   UNL     1      -7.032  55.729  54.163  0.00  0.00    +0.000 OA
ATOM     14  O   UNL     1      -5.863  54.441  52.346  0.00  0.00    +0.000 OA
ATOM     15  N   UNL     1      -8.180  55.274  52.014  0.00  0.00    +0.000 N 
ATOM     16  C   UNL     1      -7.630  53.261  53.788  0.00  0.00    +0.000 A 
ATOM     17  C   UNL     1      -9.308  54.647  51.872  0.00  0.00    +0.000 C 
ATOM     18  C   UNL     1      -8.897  52.817  53.448  0.00  0.00    +0.000 A 
ATOM     19  C   UNL     1      -6.798  52.543  54.652  0.00  0.00    +0.000 A 
ATOM     20  N   UNL     1      -9.720  53.548  52.595  0.00  0.00    +0.000 N 
ATOM     21  C   UNL     1      -9.371  51.649  54.057  0.00  0.00    +0.000 A 
ATOM     22  C   UNL     1      -7.266  51.360  55.216  0.00  0.00    +0.000 A 
ATOM     23  C   UNL     1      -8.559  50.921  54.930  0.00  0.00    +0.000 A 
ATOM     24  H   UNL     1      -7.996  56.070  51.465  0.00  0.00    +0.000 HD
ATOM     25  H   UNL     1     -10.656  53.261  52.503  0.00  0.00    +0.000 HD
ENDBRANCH   1  17
BRANCH   3  26
ATOM     26  O   UNL     1     -11.937  55.755  52.435  0.00  0.00    +0.000 OA
ATOM     27  H   UNL     1     -12.437  56.501  52.701  0.00  0.00    +0.000 HD
ENDBRANCH   3  26
BRANCH   5  28
ATOM     28  N   UNL     1     -10.360  55.508  47.011  0.00  0.00    +0.000 N 
ATOM     29  H   UNL     1     -10.190  56.327  46.493  0.00  0.00    +0.000 HD
BRANCH  28  30
ATOM     30  C   UNL     1     -10.250  54.162  46.438  0.00  0.00    +0.000 C 
BRANCH  30  31
ATOM     31  C   UNL     1     -11.261  53.976  45.348  0.00  0.00    +0.000 C 
ATOM     32  C   UNL     1     -12.030  52.695  45.165  0.00  0.00    +0.000 C 
ATOM     33  C   UNL     1     -10.933  53.051  44.201  0.00  0.00    +0.000 C 
ENDBRANCH  30  31
ENDBRANCH  28  30
ENDBRANCH   5  28
TORSDOF 5
ENDMDL
MODEL 6
REMARK VINA RESULT:      -8.0      3.369      7.681
REMARK  Name = 
REMARK  5 active torsions:
REMARK  status: ('A' for Active; 'I' for Inactive)
REMARK    1  A    between atoms: C_6  and  C_10
REMARK    2  A    between atoms: C_14  and  O_18
REMARK    3  A    between atoms: N_17  and  N_20
REMARK    4  A    between atoms: N_20  and  C_23
REMARK    5  A    between atoms: C_23  and  C_26
REMARK                            x       y       z     vdW  Elec       q    Type
REMARK                         _______ _______ _______ _____ _____    ______ ____
ROOT
ATOM      1  C   UNL     1      -9.641  55.159  50.907  0.00  0.00    +0.000 A 
ATOM      2  C   UNL     1     -10.879  55.286  51.734  0.00  0.00    +0.000 A 
ATOM      3  C   UNL     1      -9.703  55.299  49.572  0.00  0.00    +0.000 A 
ATOM      4  O   UNL     1     -10.768  55.102  52.950  0.00  0.00    +0.000 OA
ATOM      5  N   UNL     1     -12.072  55.634  51.093  0.00  0.00    +0.000 N 
ATOM      6  C   UNL     1     -10.971  55.635  48.911  0.00  0.00    +0.000 A 
ATOM      7  C   UNL     1     -12.139  55.797  49.676  0.00  0.00    +0.000 A 
ATOM      8  C   UNL     1     -11.026  55.809  47.516  0.00  0.00    +0.000 A 
ATOM      9  C   UNL     1     -13.342  56.117  49.024  0.00  0.00    +0.000 A 
ATOM     10  C   UNL     1     -12.222  56.140  46.883  0.00  0.00    +0.000 A 
ATOM     11  C   UNL     1     -13.381  56.291  47.637  0.00  0.00    +0.000 A 
ENDROOT
BRANCH   1  17
ATOM     12  S   UNL     1      -6.748  55.419  53.548  0.00  0.00    +0.000 S 
ATOM     13  O   UNL     1      -7.025  54.655  54.750  0.00  0.00    +0.000 OA
ATOM     14  O   UNL     1      -6.148  56.735  53.639  0.00  0.00    +0.000 OA
ATOM     15  N   UNL     1      -8.136  55.556  52.725  0.00  0.00    +0.000 N 
ATOM     16  C   UNL     1      -5.637  54.443  52.600  0.00  0.00    +0.000 A 
ATOM     17  C   UNL     1      -8.321  54.917  51.610  0.00  0.00    +0.000 C 
ATOM     18  C   UNL     1      -6.110  53.876  51.429  0.00  0.00    +0.000 A 
ATOM     19  C   UNL     1      -4.317  54.272  53.028  0.00  0.00    +0.000 A 
ATOM     20  N   UNL     1      -7.431  54.045  51.021  0.00  0.00    +0.000 N 
ATOM     21  C   UNL     1      -5.247  53.049  50.701  0.00  0.00    +0.000 A 
ATOM     22  C   UNL     1      -3.456  53.482  52.271  0.00  0.00    +0.000 A 
ATOM     23  C   UNL     1      -3.926  52.858  51.115  0.00  0.00    +0.000 A 
ATOM     24  H   UNL     1      -8.850  56.136  53.076  0.00  0.00    +0.000 HD
ATOM     25  H   UNL     1      -7.750  53.505  50.262  0.00  0.00    +0.000 HD
ENDBRANCH   1  17
BRANCH   3  26
ATOM     26  O   UNL     1      -8.611  55.188  48.730  0.00  0.00    +0.000 OA
ATOM     27  H   UNL     1      -7.762  55.010  49.084  0.00  0.00    +0.000 HD
ENDBRANCH   3  26
BRANCH   5  28
ATOM     28  N   UNL     1     -13.293  55.747  51.850  0.00  0.00    +0.000 N 
ATOM     29  H   UNL     1     -13.961  55.026  51.903  0.00  0.00    +0.000 HD
BRANCH  28  30
ATOM     30  C   UNL     1     -13.450  57.036  52.534  0.00  0.00    +0.000 C 
BRANCH  30  31
ATOM     31  C   UNL     1     -14.792  57.629  52.226  0.00  0.00    +0.000 C 
ATOM     32  C   UNL     1     -14.984  58.700  51.186  0.00  0.00    +0.000 C 
ATOM     33  C   UNL     1     -15.072  59.051  52.645  0.00  0.00    +0.000 C 
ENDBRANCH  30  31
ENDBRANCH  28  30
ENDBRANCH   5  28
TORSDOF 5
ENDMDL
MODEL 7
REMARK VINA RESULT:      -7.9      2.958      7.323
REMARK  Name = 
REMARK  5 active torsions:
REMARK  status: ('A' for Active; 'I' for Inactive)
REMARK    1  A    between atoms: C_6  and  C_10
REMARK    2  A    between atoms: C_14  and  O_18
REMARK    3  A    between atoms: N_17  and  N_20
REMARK    4  A    between atoms: N_20  and  C_23
REMARK    5  A    between atoms: C_23  and  C_26
REMARK                            x       y       z     vdW  Elec       q    Type
REMARK                         _______ _______ _______ _____ _____    ______ ____
ROOT
ATOM      1  C   UNL     1      -9.996  54.644  50.881  0.00  0.00    +0.000 A 
ATOM      2  C   UNL     1     -11.346  55.131  51.297  0.00  0.00    +0.000 A 
ATOM      3  C   UNL     1      -9.665  54.596  49.579  0.00  0.00    +0.000 A 
ATOM      4  O   UNL     1     -11.609  55.108  52.503  0.00  0.00    +0.000 OA
ATOM      5  N   UNL     1     -12.211  55.610  50.308  0.00  0.00    +0.000 N 
ATOM      6  C   UNL     1     -10.598  55.075  48.551  0.00  0.00    +0.000 A 
ATOM      7  C   UNL     1     -11.859  55.574  48.925  0.00  0.00    +0.000 A 
ATOM      8  C   UNL     1     -10.238  55.052  47.192  0.00  0.00    +0.000 A 
ATOM      9  C   UNL     1     -12.736  56.027  47.925  0.00  0.00    +0.000 A 
ATOM     10  C   UNL     1     -11.111  55.517  46.211  0.00  0.00    +0.000 A 
ATOM     11  C   UNL     1     -12.362  56.001  46.578  0.00  0.00    +0.000 A 
ENDROOT
BRANCH   1  17
ATOM     12  S   UNL     1      -6.748  54.593  53.084  0.00  0.00    +0.000 S 
ATOM     13  O   UNL     1      -6.733  55.652  54.075  0.00  0.00    +0.000 OA
ATOM     14  O   UNL     1      -5.542  54.260  52.351  0.00  0.00    +0.000 OA
ATOM     15  N   UNL     1      -7.907  54.943  52.010  0.00  0.00    +0.000 N 
ATOM     16  C   UNL     1      -7.212  53.133  53.944  0.00  0.00    +0.000 A 
ATOM     17  C   UNL     1      -9.004  54.251  51.957  0.00  0.00    +0.000 C 
ATOM     18  C   UNL     1      -8.462  52.598  53.682  0.00  0.00    +0.000 A 
ATOM     19  C   UNL     1      -6.324  52.540  54.846  0.00  0.00    +0.000 A 
ATOM     20  N   UNL     1      -9.342  53.205  52.789  0.00  0.00    +0.000 N 
ATOM     21  C   UNL     1      -8.861  51.470  54.409  0.00  0.00    +0.000 A 
ATOM     22  C   UNL     1      -6.718  51.393  55.530  0.00  0.00    +0.000 A 
ATOM     23  C   UNL     1      -7.992  50.866  55.321  0.00  0.00    +0.000 A 
ATOM     24  H   UNL     1      -7.776  55.693  51.385  0.00  0.00    +0.000 HD
ATOM     25  H   UNL     1     -10.264  52.865  52.751  0.00  0.00    +0.000 HD
ENDBRANCH   1  17
BRANCH   3  26
ATOM     26  O   UNL     1      -8.445  54.151  49.106  0.00  0.00    +0.000 OA
ATOM     27  H   UNL     1      -8.113  53.318  49.376  0.00  0.00    +0.000 HD
ENDBRANCH   3  26
BRANCH   5  28
ATOM     28  N   UNL     1     -13.530  56.071  50.662  0.00  0.00    +0.000 N 
ATOM     29  H   UNL     1     -14.331  55.500  50.611  0.00  0.00    +0.000 HD
BRANCH  28  30
ATOM     30  C   UNL     1     -13.571  57.468  51.107  0.00  0.00    +0.000 C 
BRANCH  30  31
ATOM     31  C   UNL     1     -14.121  57.556  52.499  0.00  0.00    +0.000 C 
ATOM     32  C   UNL     1     -15.547  57.206  52.828  0.00  0.00    +0.000 C 
ATOM     33  C   UNL     1     -15.114  58.646  52.821  0.00  0.00    +0.000 C 
ENDBRANCH  30  31
ENDBRANCH  28  30
ENDBRANCH   5  28
TORSDOF 5
ENDMDL
MODEL 8
REMARK VINA RESULT:      -7.8      3.142      4.845
REMARK  Name = 
REMARK  5 active torsions:
REMARK  status: ('A' for Active; 'I' for Inactive)
REMARK    1  A    between atoms: C_6  and  C_10
REMARK    2  A    between atoms: C_14  and  O_18
REMARK    3  A    between atoms: N_17  and  N_20
REMARK    4  A    between atoms: N_20  and  C_23
REMARK    5  A    between atoms: C_23  and  C_26
REMARK                            x       y       z     vdW  Elec       q    Type
REMARK                         _______ _______ _______ _____ _____    ______ ____
ROOT
ATOM      1  C   UNL     1     -12.215  54.246  50.151  0.00  0.00    +0.000 A 
ATOM      2  C   UNL     1     -11.913  53.897  48.729  0.00  0.00    +0.000 A 
ATOM      3  C   UNL     1     -11.698  53.513  51.152  0.00  0.00    +0.000 A 
ATOM      4  O   UNL     1     -12.453  54.578  47.853  0.00  0.00    +0.000 OA
ATOM      5  N   UNL     1     -11.019  52.851  48.480  0.00  0.00    +0.000 N 
ATOM      6  C   UNL     1     -10.784  52.399  50.870  0.00  0.00    +0.000 A 
ATOM      7  C   UNL     1     -10.456  52.079  49.541  0.00  0.00    +0.000 A 
ATOM      8  C   UNL     1     -10.221  51.652  51.921  0.00  0.00    +0.000 A 
ATOM      9  C   UNL     1      -9.581  51.008  49.294  0.00  0.00    +0.000 A 
ATOM     10  C   UNL     1      -9.344  50.602  51.664  0.00  0.00    +0.000 A 
ATOM     11  C   UNL     1      -9.027  50.277  50.349  0.00  0.00    +0.000 A 
ENDROOT
BRANCH   1  17
ATOM     12  S   UNL     1     -15.233  56.454  51.344  0.00  0.00    +0.000 S 
ATOM     13  O   UNL     1     -15.226  56.675  52.777  0.00  0.00    +0.000 OA
ATOM     14  O   UNL     1     -16.477  56.177  50.652  0.00  0.00    +0.000 OA
ATOM     15  N   UNL     1     -14.206  55.244  51.030  0.00  0.00    +0.000 N 
ATOM     16  C   UNL     1     -14.595  57.924  50.624  0.00  0.00    +0.000 A 
ATOM     17  C   UNL     1     -13.074  55.462  50.431  0.00  0.00    +0.000 C 
ATOM     18  C   UNL     1     -13.341  57.866  50.038  0.00  0.00    +0.000 A 
ATOM     19  C   UNL     1     -15.353  59.098  50.642  0.00  0.00    +0.000 A 
ATOM     20  N   UNL     1     -12.592  56.692  50.038  0.00  0.00    +0.000 N 
ATOM     21  C   UNL     1     -12.802  59.048  49.517  0.00  0.00    +0.000 A 
ATOM     22  C   UNL     1     -14.822  60.256  50.081  0.00  0.00    +0.000 A 
ATOM     23  C   UNL     1     -13.540  60.234  49.532  0.00  0.00    +0.000 A 
ATOM     24  H   UNL     1     -14.443  54.326  51.296  0.00  0.00    +0.000 HD
ATOM     25  H   UNL     1     -11.656  56.745  49.738  0.00  0.00    +0.000 HD
ENDBRANCH   1  17
BRANCH   3  26
ATOM     26  O   UNL     1     -11.932  53.758  52.492  0.00  0.00    +0.000 OA
ATOM     27  H   UNL     1     -12.117  54.629  52.785  0.00  0.00    +0.000 HD
ENDBRANCH   3  26
BRANCH   5  28
ATOM     28  N   UNL     1     -10.715  52.468  47.124  0.00  0.00    +0.000 N 
ATOM     29  H   UNL     1     -11.219  51.779  46.634  0.00  0.00    +0.000 HD
BRANCH  28  30
ATOM     30  C   UNL     1      -9.584  53.199  46.540  0.00  0.00    +0.000 C 
BRANCH  30  31
ATOM     31  C   UNL     1      -9.892  53.593  45.128  0.00  0.00    +0.000 C 
ATOM     32  C   UNL     1     -10.308  52.594  44.081  0.00  0.00    +0.000 C 
ATOM     33  C   UNL     1      -8.931  53.194  44.035  0.00  0.00    +0.000 C 
ENDBRANCH  30  31
ENDBRANCH  28  30
ENDBRANCH   5  28
TORSDOF 5
ENDMDL
MODEL 9
REMARK VINA RESULT:      -7.6      3.105      4.112
REMARK  Name = 
REMARK  5 active torsions:
REMARK  status: ('A' for Active; 'I' for Inactive)
REMARK    1  A    between atoms: C_6  and  C_10
REMARK    2  A    between atoms: C_14  and  O_18
REMARK    3  A    between atoms: N_17  and  N_20
REMARK    4  A    between atoms: N_20  and  C_23
REMARK    5  A    between atoms: C_23  and  C_26
REMARK                            x       y       z     vdW  Elec       q    Type
REMARK                         _______ _______ _______ _____ _____    ______ ____
ROOT
ATOM      1  C   UNL     1     -11.511  56.031  48.752  0.00  0.00    +0.000 A 
ATOM      2  C   UNL     1     -10.401  55.467  49.578  0.00  0.00    +0.000 A 
ATOM      3  C   UNL     1     -11.662  55.650  47.472  0.00  0.00    +0.000 A 
ATOM      4  O   UNL     1     -10.284  55.889  50.733  0.00  0.00    +0.000 OA
ATOM      5  N   UNL     1      -9.589  54.479  49.012  0.00  0.00    +0.000 N 
ATOM      6  C   UNL     1     -10.780  54.634  46.883  0.00  0.00    +0.000 A 
ATOM      7  C   UNL     1      -9.754  54.062  47.656  0.00  0.00    +0.000 A 
ATOM      8  C   UNL     1     -10.959  54.216  45.552  0.00  0.00    +0.000 A 
ATOM      9  C   UNL     1      -8.921  53.092  47.073  0.00  0.00    +0.000 A 
ATOM     10  C   UNL     1     -10.136  53.243  44.990  0.00  0.00    +0.000 A 
ATOM     11  C   UNL     1      -9.114  52.684  45.750  0.00  0.00    +0.000 A 
ENDROOT
BRANCH   1  17
ATOM     12  S   UNL     1     -13.568  59.299  49.456  0.00  0.00    +0.000 S 
ATOM     13  O   UNL     1     -14.711  59.436  48.574  0.00  0.00    +0.000 OA
ATOM     14  O   UNL     1     -12.751  60.452  49.780  0.00  0.00    +0.000 OA
ATOM     15  N   UNL     1     -12.601  58.160  48.833  0.00  0.00    +0.000 N 
ATOM     16  C   UNL     1     -14.204  58.710  50.984  0.00  0.00    +0.000 A 
ATOM     17  C   UNL     1     -12.478  56.999  49.401  0.00  0.00    +0.000 C 
ATOM     18  C   UNL     1     -13.904  57.409  51.352  0.00  0.00    +0.000 A 
ATOM     19  C   UNL     1     -14.972  59.553  51.793  0.00  0.00    +0.000 A 
ATOM     20  N   UNL     1     -13.147  56.577  50.530  0.00  0.00    +0.000 N 
ATOM     21  C   UNL     1     -14.458  56.915  52.538  0.00  0.00    +0.000 A 
ATOM     22  C   UNL     1     -15.480  59.061  52.993  0.00  0.00    +0.000 A 
ATOM     23  C   UNL     1     -15.235  57.737  53.358  0.00  0.00    +0.000 A 
ATOM     24  H   UNL     1     -12.097  58.352  48.009  0.00  0.00    +0.000 HD
ATOM     25  H   UNL     1     -13.087  55.625  50.772  0.00  0.00    +0.000 HD
ENDBRANCH   1  17
BRANCH   3  26
ATOM     26  O   UNL     1     -12.652  56.127  46.634  0.00  0.00    +0.000 OA
ATOM     27  H   UNL     1     -12.486  56.219  45.716  0.00  0.00    +0.000 HD
ENDBRANCH   3  26
BRANCH   5  28
ATOM     28  N   UNL     1      -8.494  53.923  49.766  0.00  0.00    +0.000 N 
ATOM     29  H   UNL     1      -7.562  54.223  49.664  0.00  0.00    +0.000 HD
BRANCH  28  30
ATOM     30  C   UNL     1      -8.896  52.867  50.703  0.00  0.00    +0.000 C 
BRANCH  30  31
ATOM     31  C   UNL     1      -8.453  53.209  52.093  0.00  0.00    +0.000 C 
ATOM     32  C   UNL     1      -8.507  52.219  53.226  0.00  0.00    +0.000 C 
ATOM     33  C   UNL     1      -9.497  53.349  53.175  0.00  0.00    +0.000 C 
ENDBRANCH  30  31
ENDBRANCH  28  30
ENDBRANCH   5  28
TORSDOF 5
ENDMDL
