MODEL 1
REMARK VINA RESULT:      -8.8      0.000      0.000
REMARK  Name = 
REMARK  5 active torsions:
REMARK  status: ('A' for Active; 'I' for Inactive)
REMARK    1  A    between atoms: C_6  and  C_10
REMARK    2  A    between atoms: C_14  and  O_18
REMARK    3  A    between atoms: N_17  and  N_20
REMARK    4  A    between atoms: N_20  and  C_23
REMARK    5  A    between atoms: C_23  and  C_26
REMARK                            x       y       z     vdW  Elec       q    Type
REMARK                         _______ _______ _______ _____ _____    ______ ____
ROOT
ATOM      1  C   UNL     1      -9.121  54.352  49.888  0.00  0.00    +0.000 A 
ATOM      2  C   UNL     1     -10.173  55.409  49.968  0.00  0.00    +0.000 A 
ATOM      3  C   UNL     1      -9.006  53.591  48.786  0.00  0.00    +0.000 A 
ATOM      4  O   UNL     1     -10.241  56.066  51.012  0.00  0.00    +0.000 OA
ATOM      5  N   UNL     1     -10.997  55.608  48.858  0.00  0.00    +0.000 N 
ATOM      6  C   UNL     1      -9.886  53.809  47.629  0.00  0.00    +0.000 A 
ATOM      7  C   UNL     1     -10.872  54.811  47.679  0.00  0.00    +0.000 A 
ATOM      8  C   UNL     1      -9.745  53.036  46.464  0.00  0.00    +0.000 A 
ATOM      9  C   UNL     1     -11.703  55.007  46.563  0.00  0.00    +0.000 A 
ATOM     10  C   UNL     1     -10.562  53.253  45.357  0.00  0.00    +0.000 A 
ATOM     11  C   UNL     1     -11.542  54.237  45.408  0.00  0.00    +0.000 A 
ENDROOT
BRANCH   1  17
ATOM     12  S   UNL     1      -7.744  54.099  53.559  0.00  0.00    +0.000 S 
ATOM     13  O   UNL     1      -7.970  52.786  54.138  0.00  0.00    +0.000 OA
ATOM     14  O   UNL     1      -7.945  55.295  54.352  0.00  0.00    +0.000 OA
ATOM     15  N   UNL     1      -8.675  54.214  52.238  0.00  0.00    +0.000 N 
ATOM     16  C   UNL     1      -6.064  54.127  53.053  0.00  0.00    +0.000 A 
ATOM     17  C   UNL     1      -8.155  54.200  51.046  0.00  0.00    +0.000 C 
ATOM     18  C   UNL     1      -5.793  54.117  51.697  0.00  0.00    +0.000 A 
ATOM     19  C   UNL     1      -5.048  54.170  54.014  0.00  0.00    +0.000 A 
ATOM     20  N   UNL     1      -6.815  54.058  50.753  0.00  0.00    +0.000 N 
ATOM     21  C   UNL     1      -4.455  54.077  51.290  0.00  0.00    +0.000 A 
ATOM     22  C   UNL     1      -3.721  54.168  53.594  0.00  0.00    +0.000 A 
ATOM     23  C   UNL     1      -3.423  54.109  52.234  0.00  0.00    +0.000 A 
ATOM     24  H   UNL     1      -9.651  54.298  52.339  0.00  0.00    +0.000 HD
ATOM     25  H   UNL     1      -6.564  53.904  49.813  0.00  0.00    +0.000 HD
ENDBRANCH   1  17
BRANCH   3  26
ATOM     26  O   UNL     1      -8.065  52.590  48.624  0.00  0.00    +0.000 OA
ATOM     27  H   UNL     1      -7.445  52.639  47.923  0.00  0.00    +0.000 HD
ENDBRANCH   3  26
BRANCH   5  28
ATOM     28  N   UNL     1     -12.083  56.548  48.913  0.00  0.00    +0.000 N 
ATOM     29  H   UNL     1     -12.028  57.441  48.501  0.00  0.00    +0.000 HD
BRANCH  28  30
ATOM     30  C   UNL     1     -13.280  56.083  49.626  0.00  0.00    +0.000 C 
BRANCH  30  31
ATOM     31  C   UNL     1     -13.716  57.071  50.675  0.00  0.00    +0.000 A 
ATOM     32  C   UNL     1     -14.185  58.334  50.316  0.00  0.00    +0.000 A 
ATOM     33  C   UNL     1     -13.684  56.762  52.035  0.00  0.00    +0.000 A 
ATOM     34  N   UNL     1     -14.590  59.275  51.200  0.00  0.00    +0.000 NA
ATOM     35  C   UNL     1     -14.092  57.709  52.967  0.00  0.00    +0.000 A 
ATOM     36  C   UNL     1     -14.529  58.940  52.506  0.00  0.00    +0.000 A 
ENDBRANCH  30  31
ENDBRANCH  28  30
ENDBRANCH   5  28
TORSDOF 5
ENDMDL
MODEL 2
REMARK VINA RESULT:      -8.8      2.615      7.337
REMARK  Name = 
REMARK  5 active torsions:
REMARK  status: ('A' for Active; 'I' for Inactive)
REMARK    1  A    between atoms: C_6  and  C_10
REMARK    2  A    between atoms: C_14  and  O_18
REMARK    3  A    between atoms: N_17  and  N_20
REMARK    4  A    between atoms: N_20  and  C_23
REMARK    5  A    between atoms: C_23  and  C_26
REMARK                            x       y       z     vdW  Elec       q    Type
REMARK                         _______ _______ _______ _____ _____    ______ ____
ROOT
ATOM      1  C   UNL     1     -11.417  56.048  48.841  0.00  0.00    +0.000 A 
ATOM      2  C   UNL     1     -10.343  55.476  49.708  0.00  0.00    +0.000 A 
ATOM      3  C   UNL     1     -11.521  55.674  47.554  0.00  0.00    +0.000 A 
ATOM      4  O   UNL     1     -10.286  55.869  50.878  0.00  0.00    +0.000 OA
ATOM      5  N   UNL     1      -9.485  54.521  49.155  0.00  0.00    +0.000 N 
ATOM      6  C   UNL     1     -10.606  54.673  46.987  0.00  0.00    +0.000 A 
ATOM      7  C   UNL     1      -9.598  54.111  47.791  0.00  0.00    +0.000 A 
ATOM      8  C   UNL     1     -10.736  54.259  45.651  0.00  0.00    +0.000 A 
ATOM      9  C   UNL     1      -8.734  53.154  47.233  0.00  0.00    +0.000 A 
ATOM     10  C   UNL     1      -9.885  53.294  45.114  0.00  0.00    +0.000 A 
ATOM     11  C   UNL     1      -8.883  52.745  45.905  0.00  0.00    +0.000 A 
ENDROOT
BRANCH   1  17
ATOM     12  S   UNL     1     -13.563  59.280  49.458  0.00  0.00    +0.000 S 
ATOM     13  O   UNL     1     -14.694  59.366  48.551  0.00  0.00    +0.000 OA
ATOM     14  O   UNL     1     -12.782  60.460  49.770  0.00  0.00    +0.000 OA
ATOM     15  N   UNL     1     -12.554  58.156  48.872  0.00  0.00    +0.000 N 
ATOM     16  C   UNL     1     -14.204  58.703  50.986  0.00  0.00    +0.000 A 
ATOM     17  C   UNL     1     -12.417  57.005  49.460  0.00  0.00    +0.000 C 
ATOM     18  C   UNL     1     -13.883  57.417  51.381  0.00  0.00    +0.000 A 
ATOM     19  C   UNL     1     -15.005  59.542  51.767  0.00  0.00    +0.000 A 
ATOM     20  N   UNL     1     -13.097  56.588  50.585  0.00  0.00    +0.000 N 
ATOM     21  C   UNL     1     -14.442  56.931  52.568  0.00  0.00    +0.000 A 
ATOM     22  C   UNL     1     -15.525  59.058  52.964  0.00  0.00    +0.000 A 
ATOM     23  C   UNL     1     -15.253  57.749  53.359  0.00  0.00    +0.000 A 
ATOM     24  H   UNL     1     -12.036  58.347  48.056  0.00  0.00    +0.000 HD
ATOM     25  H   UNL     1     -13.022  55.640  50.842  0.00  0.00    +0.000 HD
ENDBRANCH   1  17
BRANCH   3  26
ATOM     26  O   UNL     1     -12.482  56.150  46.680  0.00  0.00    +0.000 OA
ATOM     27  H   UNL     1     -12.388  56.009  45.758  0.00  0.00    +0.000 HD
ENDBRANCH   3  26
BRANCH   5  28
ATOM     28  N   UNL     1      -8.379  54.007  49.915  0.00  0.00    +0.000 N 
ATOM     29  H   UNL     1      -8.407  53.126  50.356  0.00  0.00    +0.000 HD
BRANCH  28  30
ATOM     30  C   UNL     1      -7.204  54.886  49.986  0.00  0.00    +0.000 C 
BRANCH  30  31
ATOM     31  C   UNL     1      -6.691  55.008  51.396  0.00  0.00    +0.000 A 
ATOM     32  C   UNL     1      -5.548  54.321  51.803  0.00  0.00    +0.000 A 
ATOM     33  C   UNL     1      -7.323  55.816  52.342  0.00  0.00    +0.000 A 
ATOM     34  N   UNL     1      -5.029  54.377  53.051  0.00  0.00    +0.000 NA
ATOM     35  C   UNL     1      -6.816  55.892  53.633  0.00  0.00    +0.000 A 
ATOM     36  C   UNL     1      -5.680  55.160  53.938  0.00  0.00    +0.000 A 
ENDBRANCH  30  31
ENDBRANCH  28  30
ENDBRANCH   5  28
TORSDOF 5
ENDMDL
MODEL 3
REMARK VINA RESULT:      -8.7      3.728      7.655
REMARK  Name = 
REMARK  5 active torsions:
REMARK  status: ('A' for Active; 'I' for Inactive)
REMARK    1  A    between atoms: C_6  and  C_10
REMARK    2  A    between atoms: C_14  and  O_18
REMARK    3  A    between atoms: N_17  and  N_20
REMARK    4  A    between atoms: N_20  and  C_23
REMARK    5  A    between atoms: C_23  and  C_26
REMARK                            x       y       z     vdW  Elec       q    Type
REMARK                         _______ _______ _______ _____ _____    ______ ____
ROOT
ATOM      1  C   UNL     1     -12.520  54.290  49.552  0.00  0.00    +0.000 A 
ATOM      2  C   UNL     1     -12.014  54.255  48.147  0.00  0.00    +0.000 A 
ATOM      3  C   UNL     1     -12.226  53.293  50.404  0.00  0.00    +0.000 A 
ATOM      4  O   UNL     1     -12.330  55.192  47.405  0.00  0.00    +0.000 OA
ATOM      5  N   UNL     1     -11.200  53.187  47.763  0.00  0.00    +0.000 N 
ATOM      6  C   UNL     1     -11.374  52.172  49.981  0.00  0.00    +0.000 A 
ATOM      7  C   UNL     1     -10.874  52.130  48.667  0.00  0.00    +0.000 A 
ATOM      8  C   UNL     1     -11.040  51.146  50.881  0.00  0.00    +0.000 A 
ATOM      9  C   UNL     1     -10.059  51.052  48.281  0.00  0.00    +0.000 A 
ATOM     10  C   UNL     1     -10.215  50.092  50.492  0.00  0.00    +0.000 A 
ATOM     11  C   UNL     1      -9.727  50.045  49.191  0.00  0.00    +0.000 A 
ENDROOT
BRANCH   1  17
ATOM     12  S   UNL     1     -15.367  56.456  51.177  0.00  0.00    +0.000 S 
ATOM     13  O   UNL     1     -15.233  56.538  52.621  0.00  0.00    +0.000 OA
ATOM     14  O   UNL     1     -16.670  56.275  50.569  0.00  0.00    +0.000 OA
ATOM     15  N   UNL     1     -14.409  55.252  50.668  0.00  0.00    +0.000 N 
ATOM     16  C   UNL     1     -14.739  57.966  50.541  0.00  0.00    +0.000 A 
ATOM     17  C   UNL     1     -13.316  55.497  50.008  0.00  0.00    +0.000 C 
ATOM     18  C   UNL     1     -13.539  57.934  49.855  0.00  0.00    +0.000 A 
ATOM     19  C   UNL     1     -15.457  59.152  50.726  0.00  0.00    +0.000 A 
ATOM     20  N   UNL     1     -12.827  56.747  49.693  0.00  0.00    +0.000 N 
ATOM     21  C   UNL     1     -13.004  59.143  49.400  0.00  0.00    +0.000 A 
ATOM     22  C   UNL     1     -14.932  60.344  50.236  0.00  0.00    +0.000 A 
ATOM     23  C   UNL     1     -13.700  60.342  49.583  0.00  0.00    +0.000 A 
ATOM     24  H   UNL     1     -14.658  54.319  50.862  0.00  0.00    +0.000 HD
ATOM     25  H   UNL     1     -11.914  56.805  49.329  0.00  0.00    +0.000 HD
ENDBRANCH   1  17
BRANCH   3  26
ATOM     26  O   UNL     1     -12.651  53.240  51.719  0.00  0.00    +0.000 OA
ATOM     27  H   UNL     1     -12.198  53.729  52.378  0.00  0.00    +0.000 HD
ENDBRANCH   3  26
BRANCH   5  28
ATOM     28  N   UNL     1     -10.761  53.056  46.400  0.00  0.00    +0.000 N 
ATOM     29  H   UNL     1     -11.046  52.310  45.824  0.00  0.00    +0.000 HD
BRANCH  28  30
ATOM     30  C   UNL     1      -9.859  54.115  45.928  0.00  0.00    +0.000 C 
BRANCH  30  31
ATOM     31  C   UNL     1      -8.539  54.078  46.651  0.00  0.00    +0.000 A 
ATOM     32  C   UNL     1      -7.583  53.110  46.346  0.00  0.00    +0.000 A 
ATOM     33  C   UNL     1      -8.215  55.010  47.638  0.00  0.00    +0.000 A 
ATOM     34  N   UNL     1      -6.379  53.011  46.954  0.00  0.00    +0.000 NA
ATOM     35  C   UNL     1      -6.986  54.932  48.282  0.00  0.00    +0.000 A 
ATOM     36  C   UNL     1      -6.111  53.924  47.912  0.00  0.00    +0.000 A 
ENDBRANCH  30  31
ENDBRANCH  28  30
ENDBRANCH   5  28
TORSDOF 5
ENDMDL
MODEL 4
REMARK VINA RESULT:      -8.7      3.272      8.548
REMARK  Name = 
REMARK  5 active torsions:
REMARK  status: ('A' for Active; 'I' for Inactive)
REMARK    1  A    between atoms: C_6  and  C_10
REMARK    2  A    between atoms: C_14  and  O_18
REMARK    3  A    between atoms: N_17  and  N_20
REMARK    4  A    between atoms: N_20  and  C_23
REMARK    5  A    between atoms: C_23  and  C_26
REMARK                            x       y       z     vdW  Elec       q    Type
REMARK                         _______ _______ _______ _____ _____    ______ ____
ROOT
ATOM      1  C   UNL     1     -10.090  54.588  52.225  0.00  0.00    +0.000 A 
ATOM      2  C   UNL     1      -8.727  55.172  52.048  0.00  0.00    +0.000 A 
ATOM      3  C   UNL     1     -10.261  53.472  52.956  0.00  0.00    +0.000 A 
ATOM      4  O   UNL     1      -8.630  56.189  51.354  0.00  0.00    +0.000 OA
ATOM      5  N   UNL     1      -7.653  54.553  52.693  0.00  0.00    +0.000 N 
ATOM      6  C   UNL     1      -9.119  52.830  53.622  0.00  0.00    +0.000 A 
ATOM      7  C   UNL     1      -7.830  53.374  53.481  0.00  0.00    +0.000 A 
ATOM      8  C   UNL     1      -9.302  51.682  54.412  0.00  0.00    +0.000 A 
ATOM      9  C   UNL     1      -6.751  52.748  54.126  0.00  0.00    +0.000 A 
ATOM     10  C   UNL     1      -8.227  51.081  55.063  0.00  0.00    +0.000 A 
ATOM     11  C   UNL     1      -6.951  51.613  54.918  0.00  0.00    +0.000 A 
ENDROOT
BRANCH   1  17
ATOM     12  S   UNL     1     -12.525  56.116  49.548  0.00  0.00    +0.000 S 
ATOM     13  O   UNL     1     -13.387  55.108  48.954  0.00  0.00    +0.000 OA
ATOM     14  O   UNL     1     -11.929  57.148  48.724  0.00  0.00    +0.000 OA
ATOM     15  N   UNL     1     -11.329  55.340  50.318  0.00  0.00    +0.000 N 
ATOM     16  C   UNL     1     -13.501  56.951  50.743  0.00  0.00    +0.000 A 
ATOM     17  C   UNL     1     -11.275  55.312  51.617  0.00  0.00    +0.000 C 
ATOM     18  C   UNL     1     -13.211  56.743  52.079  0.00  0.00    +0.000 A 
ATOM     19  C   UNL     1     -14.529  57.804  50.330  0.00  0.00    +0.000 A 
ATOM     20  N   UNL     1     -12.195  55.877  52.475  0.00  0.00    +0.000 N 
ATOM     21  C   UNL     1     -14.026  57.357  53.036  0.00  0.00    +0.000 A 
ATOM     22  C   UNL     1     -15.309  58.439  51.293  0.00  0.00    +0.000 A 
ATOM     23  C   UNL     1     -15.065  58.207  52.645  0.00  0.00    +0.000 A 
ATOM     24  H   UNL     1     -10.631  54.884  49.795  0.00  0.00    +0.000 HD
ATOM     25  H   UNL     1     -12.128  55.653  53.432  0.00  0.00    +0.000 HD
ENDBRANCH   1  17
BRANCH   3  26
ATOM     26  O   UNL     1     -11.484  52.862  53.172  0.00  0.00    +0.000 OA
ATOM     27  H   UNL     1     -11.551  51.927  53.151  0.00  0.00    +0.000 HD
ENDBRANCH   3  26
BRANCH   5  28
ATOM     28  N   UNL     1      -6.309  55.018  52.484  0.00  0.00    +0.000 N 
ATOM     29  H   UNL     1      -5.807  55.506  53.177  0.00  0.00    +0.000 HD
BRANCH  28  30
ATOM     30  C   UNL     1      -5.738  54.713  51.166  0.00  0.00    +0.000 C 
BRANCH  30  31
ATOM     31  C   UNL     1      -5.136  53.334  51.131  0.00  0.00    +0.000 A 
ATOM     32  C   UNL     1      -3.906  53.075  51.735  0.00  0.00    +0.000 A 
ATOM     33  C   UNL     1      -5.783  52.264  50.511  0.00  0.00    +0.000 A 
ATOM     34  N   UNL     1      -3.300  51.866  51.742  0.00  0.00    +0.000 NA
ATOM     35  C   UNL     1      -5.184  51.010  50.500  0.00  0.00    +0.000 A 
ATOM     36  C   UNL     1      -3.954  50.862  51.119  0.00  0.00    +0.000 A 
ENDBRANCH  30  31
ENDBRANCH  28  30
ENDBRANCH   5  28
TORSDOF 5
ENDMDL
MODEL 5
REMARK VINA RESULT:      -8.7      3.016      7.641
REMARK  Name = 
REMARK  5 active torsions:
REMARK  status: ('A' for Active; 'I' for Inactive)
REMARK    1  A    between atoms: C_6  and  C_10
REMARK    2  A    between atoms: C_14  and  O_18
REMARK    3  A    between atoms: N_17  and  N_20
REMARK    4  A    between atoms: N_20  and  C_23
REMARK    5  A    between atoms: C_23  and  C_26
REMARK                            x       y       z     vdW  Elec       q    Type
REMARK                         _______ _______ _______ _____ _____    ______ ____
ROOT
ATOM      1  C   UNL     1     -11.167  54.556  50.727  0.00  0.00    +0.000 A 
ATOM      2  C   UNL     1      -9.783  54.917  50.296  0.00  0.00    +0.000 A 
ATOM      3  C   UNL     1     -11.429  53.327  51.206  0.00  0.00    +0.000 A 
ATOM      4  O   UNL     1      -9.605  56.055  49.850  0.00  0.00    +0.000 OA
ATOM      5  N   UNL     1      -8.774  53.962  50.444  0.00  0.00    +0.000 N 
ATOM      6  C   UNL     1     -10.357  52.332  51.347  0.00  0.00    +0.000 A 
ATOM      7  C   UNL     1      -9.044  52.658  50.962  0.00  0.00    +0.000 A 
ATOM      8  C   UNL     1     -10.625  51.059  51.877  0.00  0.00    +0.000 A 
ATOM      9  C   UNL     1      -8.031  51.696  51.107  0.00  0.00    +0.000 A 
ATOM     10  C   UNL     1      -9.608  50.119  52.034  0.00  0.00    +0.000 A 
ATOM     11  C   UNL     1      -8.312  50.437  51.646  0.00  0.00    +0.000 A 
ENDROOT
BRANCH   1  17
ATOM     12  S   UNL     1     -13.625  57.270  49.305  0.00  0.00    +0.000 S 
ATOM     13  O   UNL     1     -14.781  56.675  48.658  0.00  0.00    +0.000 OA
ATOM     14  O   UNL     1     -12.965  58.419  48.717  0.00  0.00    +0.000 OA
ATOM     15  N   UNL     1     -12.518  56.102  49.494  0.00  0.00    +0.000 N 
ATOM     16  C   UNL     1     -14.164  57.781  50.895  0.00  0.00    +0.000 A 
ATOM     17  C   UNL     1     -12.246  55.619  50.670  0.00  0.00    +0.000 C 
ATOM     18  C   UNL     1     -13.699  57.083  51.994  0.00  0.00    +0.000 A 
ATOM     19  C   UNL     1     -15.030  58.873  51.020  0.00  0.00    +0.000 A 
ATOM     20  N   UNL     1     -12.851  55.987  51.853  0.00  0.00    +0.000 N 
ATOM     21  C   UNL     1     -14.175  57.447  53.259  0.00  0.00    +0.000 A 
ATOM     22  C   UNL     1     -15.466  59.248  52.287  0.00  0.00    +0.000 A 
ATOM     23  C   UNL     1     -15.048  58.528  53.406  0.00  0.00    +0.000 A 
ATOM     24  H   UNL     1     -12.043  55.752  48.705  0.00  0.00    +0.000 HD
ATOM     25  H   UNL     1     -12.670  55.440  52.651  0.00  0.00    +0.000 HD
ENDBRANCH   1  17
BRANCH   3  26
ATOM     26  O   UNL     1     -12.678  52.905  51.626  0.00  0.00    +0.000 OA
ATOM     27  H   UNL     1     -13.189  53.447  52.195  0.00  0.00    +0.000 HD
ENDBRANCH   3  26
BRANCH   5  28
ATOM     28  N   UNL     1      -7.445  54.223  49.962  0.00  0.00    +0.000 N 
ATOM     29  H   UNL     1      -7.051  53.728  49.207  0.00  0.00    +0.000 HD
BRANCH  28  30
ATOM     30  C   UNL     1      -6.717  55.283  50.674  0.00  0.00    +0.000 C 
BRANCH  30  31
ATOM     31  C   UNL     1      -6.531  54.943  52.128  0.00  0.00    +0.000 A 
ATOM     32  C   UNL     1      -5.535  54.056  52.534  0.00  0.00    +0.000 A 
ATOM     33  C   UNL     1      -7.332  55.506  53.123  0.00  0.00    +0.000 A 
ATOM     34  N   UNL     1      -5.310  53.699  53.819  0.00  0.00    +0.000 NA
ATOM     35  C   UNL     1      -7.126  55.156  54.453  0.00  0.00    +0.000 A 
ATOM     36  C   UNL     1      -6.116  54.256  54.748  0.00  0.00    +0.000 A 
ENDBRANCH  30  31
ENDBRANCH  28  30
ENDBRANCH   5  28
TORSDOF 5
ENDMDL
MODEL 6
REMARK VINA RESULT:      -8.6      2.306      5.632
REMARK  Name = 
REMARK  5 active torsions:
REMARK  status: ('A' for Active; 'I' for Inactive)
REMARK    1  A    between atoms: C_6  and  C_10
REMARK    2  A    between atoms: C_14  and  O_18
REMARK    3  A    between atoms: N_17  and  N_20
REMARK    4  A    between atoms: N_20  and  C_23
REMARK    5  A    between atoms: C_23  and  C_26
REMARK                            x       y       z     vdW  Elec       q    Type
REMARK                         _______ _______ _______ _____ _____    ______ ____
ROOT
ATOM      1  C   UNL     1     -10.364  55.197  50.886  0.00  0.00    +0.000 A 
ATOM      2  C   UNL     1     -10.034  55.121  49.431  0.00  0.00    +0.000 A 
ATOM      3  C   UNL     1     -11.547  55.693  51.289  0.00  0.00    +0.000 A 
ATOM      4  O   UNL     1      -8.926  54.671  49.122  0.00  0.00    +0.000 OA
ATOM      5  N   UNL     1     -11.000  55.538  48.511  0.00  0.00    +0.000 N 
ATOM      6  C   UNL     1     -12.549  56.134  50.307  0.00  0.00    +0.000 A 
ATOM      7  C   UNL     1     -12.264  56.054  48.932  0.00  0.00    +0.000 A 
ATOM      8  C   UNL     1     -13.798  56.622  50.727  0.00  0.00    +0.000 A 
ATOM      9  C   UNL     1     -13.234  56.477  48.009  0.00  0.00    +0.000 A 
ATOM     10  C   UNL     1     -14.759  57.020  49.801  0.00  0.00    +0.000 A 
ATOM     11  C   UNL     1     -14.476  56.950  48.442  0.00  0.00    +0.000 A 
ENDROOT
BRANCH   1  17
ATOM     12  S   UNL     1      -7.042  54.726  52.929  0.00  0.00    +0.000 S 
ATOM     13  O   UNL     1      -6.904  55.715  53.984  0.00  0.00    +0.000 OA
ATOM     14  O   UNL     1      -5.898  54.348  52.123  0.00  0.00    +0.000 OA
ATOM     15  N   UNL     1      -8.208  55.241  51.929  0.00  0.00    +0.000 N 
ATOM     16  C   UNL     1      -7.594  53.254  53.709  0.00  0.00    +0.000 A 
ATOM     17  C   UNL     1      -9.366  54.650  51.887  0.00  0.00    +0.000 C 
ATOM     18  C   UNL     1      -8.894  52.843  53.474  0.00  0.00    +0.000 A 
ATOM     19  C   UNL     1      -6.723  52.531  54.529  0.00  0.00    +0.000 A 
ATOM     20  N   UNL     1      -9.755  53.583  52.668  0.00  0.00    +0.000 N 
ATOM     21  C   UNL     1      -9.358  51.705  54.142  0.00  0.00    +0.000 A 
ATOM     22  C   UNL     1      -7.186  51.379  55.158  0.00  0.00    +0.000 A 
ATOM     23  C   UNL     1      -8.506  50.972  54.975  0.00  0.00    +0.000 A 
ATOM     24  H   UNL     1      -8.037  56.014  51.343  0.00  0.00    +0.000 HD
ATOM     25  H   UNL     1     -10.706  53.326  52.654  0.00  0.00    +0.000 HD
ENDBRANCH   1  17
BRANCH   3  26
ATOM     26  O   UNL     1     -11.937  55.803  52.612  0.00  0.00    +0.000 OA
ATOM     27  H   UNL     1     -11.298  55.742  53.295  0.00  0.00    +0.000 HD
ENDBRANCH   3  26
BRANCH   5  28
ATOM     28  N   UNL     1     -10.703  55.571  47.105  0.00  0.00    +0.000 N 
ATOM     29  H   UNL     1     -10.070  56.218  46.716  0.00  0.00    +0.000 HD
BRANCH  28  30
ATOM     30  C   UNL     1     -11.408  54.572  46.291  0.00  0.00    +0.000 C 
BRANCH  30  31
ATOM     31  C   UNL     1     -10.463  53.841  45.375  0.00  0.00    +0.000 A 
ATOM     32  C   UNL     1      -9.086  53.881  45.588  0.00  0.00    +0.000 A 
ATOM     33  C   UNL     1     -10.923  53.089  44.293  0.00  0.00    +0.000 A 
ATOM     34  N   UNL     1      -8.176  53.255  44.806  0.00  0.00    +0.000 NA
ATOM     35  C   UNL     1     -10.012  52.436  43.471  0.00  0.00    +0.000 A 
ATOM     36  C   UNL     1      -8.662  52.550  43.763  0.00  0.00    +0.000 A 
ENDBRANCH  30  31
ENDBRANCH  28  30
ENDBRANCH   5  28
TORSDOF 5
ENDMDL
MODEL 7
REMARK VINA RESULT:      -8.6      3.226      8.158
REMARK  Name = 
REMARK  5 active torsions:
REMARK  status: ('A' for Active; 'I' for Inactive)
REMARK    1  A    between atoms: C_6  and  C_10
REMARK    2  A    between atoms: C_14  and  O_18
REMARK    3  A    between atoms: N_17  and  N_20
REMARK    4  A    between atoms: N_20  and  C_23
REMARK    5  A    between atoms: C_23  and  C_26
REMARK                            x       y       z     vdW  Elec       q    Type
REMARK                         _______ _______ _______ _____ _____    ______ ____
ROOT
ATOM      1  C   UNL     1     -11.296  53.988  51.644  0.00  0.00    +0.000 A 
ATOM      2  C   UNL     1     -10.285  54.203  52.722  0.00  0.00    +0.000 A 
ATOM      3  C   UNL     1     -11.457  52.771  51.097  0.00  0.00    +0.000 A 
ATOM      4  O   UNL     1     -10.171  55.346  53.176  0.00  0.00    +0.000 OA
ATOM      5  N   UNL     1      -9.549  53.102  53.168  0.00  0.00    +0.000 N 
ATOM      6  C   UNL     1     -10.669  51.625  51.572  0.00  0.00    +0.000 A 
ATOM      7  C   UNL     1      -9.724  51.803  52.598  0.00  0.00    +0.000 A 
ATOM      8  C   UNL     1     -10.860  50.346  51.022  0.00  0.00    +0.000 A 
ATOM      9  C   UNL     1      -8.982  50.696  53.042  0.00  0.00    +0.000 A 
ATOM     10  C   UNL     1     -10.132  49.252  51.485  0.00  0.00    +0.000 A 
ATOM     11  C   UNL     1      -9.191  49.428  52.493  0.00  0.00    +0.000 A 
ENDROOT
BRANCH   1  17
ATOM     12  S   UNL     1     -12.943  56.782  49.426  0.00  0.00    +0.000 S 
ATOM     13  O   UNL     1     -13.982  56.251  48.561  0.00  0.00    +0.000 OA
ATOM     14  O   UNL     1     -12.008  57.772  48.928  0.00  0.00    +0.000 OA
ATOM     15  N   UNL     1     -12.086  55.526  49.985  0.00  0.00    +0.000 N 
ATOM     16  C   UNL     1     -13.769  57.532  50.781  0.00  0.00    +0.000 A 
ATOM     17  C   UNL     1     -12.172  55.154  51.228  0.00  0.00    +0.000 C 
ATOM     18  C   UNL     1     -13.682  56.917  52.016  0.00  0.00    +0.000 A 
ATOM     19  C   UNL     1     -14.480  58.722  50.592  0.00  0.00    +0.000 A 
ATOM     20  N   UNL     1     -12.985  55.723  52.185  0.00  0.00    +0.000 N 
ATOM     21  C   UNL     1     -14.390  57.476  53.085  0.00  0.00    +0.000 A 
ATOM     22  C   UNL     1     -15.149  59.288  51.672  0.00  0.00    +0.000 A 
ATOM     23  C   UNL     1     -15.114  58.660  52.916  0.00  0.00    +0.000 A 
ATOM     24  H   UNL     1     -11.490  55.035  49.373  0.00  0.00    +0.000 HD
ATOM     25  H   UNL     1     -13.077  55.254  53.046  0.00  0.00    +0.000 HD
ENDBRANCH   1  17
BRANCH   3  26
ATOM     26  O   UNL     1     -12.366  52.481  50.095  0.00  0.00    +0.000 OA
ATOM     27  H   UNL     1     -13.278  52.650  50.226  0.00  0.00    +0.000 HD
ENDBRANCH   3  26
BRANCH   5  28
ATOM     28  N   UNL     1      -8.501  53.268  54.138  0.00  0.00    +0.000 N 
ATOM     29  H   UNL     1      -8.425  52.694  54.934  0.00  0.00    +0.000 HD
BRANCH  28  30
ATOM     30  C   UNL     1      -7.552  54.352  53.855  0.00  0.00    +0.000 C 
BRANCH  30  31
ATOM     31  C   UNL     1      -6.145  53.833  53.723  0.00  0.00    +0.000 A 
ATOM     32  C   UNL     1      -5.051  54.657  53.982  0.00  0.00    +0.000 A 
ATOM     33  C   UNL     1      -5.880  52.514  53.352  0.00  0.00    +0.000 A 
ATOM     34  N   UNL     1      -3.760  54.265  53.881  0.00  0.00    +0.000 NA
ATOM     35  C   UNL     1      -4.564  52.082  53.237  0.00  0.00    +0.000 A 
ATOM     36  C   UNL     1      -3.548  52.985  53.506  0.00  0.00    +0.000 A 
ENDBRANCH  30  31
ENDBRANCH  28  30
ENDBRANCH   5  28
TORSDOF 5
ENDMDL
MODEL 8
REMARK VINA RESULT:      -8.5      3.083      7.190
REMARK  Name = 
REMARK  5 active torsions:
REMARK  status: ('A' for Active; 'I' for Inactive)
REMARK    1  A    between atoms: C_6  and  C_10
REMARK    2  A    between atoms: C_14  and  O_18
REMARK    3  A    between atoms: N_17  and  N_20
REMARK    4  A    between atoms: N_20  and  C_23
REMARK    5  A    between atoms: C_23  and  C_26
REMARK                            x       y       z     vdW  Elec       q    Type
REMARK                         _______ _______ _______ _____ _____    ______ ____
ROOT
ATOM      1  C   UNL     1     -11.242  54.654  48.368  0.00  0.00    +0.000 A 
ATOM      2  C   UNL     1     -10.995  54.189  49.766  0.00  0.00    +0.000 A 
ATOM      3  C   UNL     1     -12.156  55.609  48.122  0.00  0.00    +0.000 A 
ATOM      4  O   UNL     1     -10.155  53.298  49.928  0.00  0.00    +0.000 OA
ATOM      5  N   UNL     1     -11.706  54.799  50.802  0.00  0.00    +0.000 N 
ATOM      6  C   UNL     1     -12.900  56.236  49.224  0.00  0.00    +0.000 A 
ATOM      7  C   UNL     1     -12.670  55.823  50.549  0.00  0.00    +0.000 A 
ATOM      8  C   UNL     1     -13.832  57.257  48.970  0.00  0.00    +0.000 A 
ATOM      9  C   UNL     1     -13.389  56.435  51.589  0.00  0.00    +0.000 A 
ATOM     10  C   UNL     1     -14.525  57.869  50.013  0.00  0.00    +0.000 A 
ATOM     11  C   UNL     1     -14.305  57.456  51.321  0.00  0.00    +0.000 A 
ENDROOT
BRANCH   1  17
ATOM     12  S   UNL     1      -8.176  53.957  46.014  0.00  0.00    +0.000 S 
ATOM     13  O   UNL     1      -7.212  53.057  46.623  0.00  0.00    +0.000 OA
ATOM     14  O   UNL     1      -7.727  55.114  45.264  0.00  0.00    +0.000 OA
ATOM     15  N   UNL     1      -9.166  54.476  47.186  0.00  0.00    +0.000 N 
ATOM     16  C   UNL     1      -9.111  52.985  44.892  0.00  0.00    +0.000 A 
ATOM     17  C   UNL     1     -10.400  54.073  47.249  0.00  0.00    +0.000 C 
ATOM     18  C   UNL     1     -10.429  52.714  45.209  0.00  0.00    +0.000 A 
ATOM     19  C   UNL     1      -8.520  52.518  43.713  0.00  0.00    +0.000 A 
ATOM     20  N   UNL     1     -10.999  53.171  46.395  0.00  0.00    +0.000 N 
ATOM     21  C   UNL     1     -11.161  51.888  44.349  0.00  0.00    +0.000 A 
ATOM     22  C   UNL     1      -9.270  51.728  42.847  0.00  0.00    +0.000 A 
ATOM     23  C   UNL     1     -10.586  51.403  43.170  0.00  0.00    +0.000 A 
ATOM     24  H   UNL     1      -8.828  55.107  47.862  0.00  0.00    +0.000 HD
ATOM     25  H   UNL     1     -11.889  52.828  46.640  0.00  0.00    +0.000 HD
ENDBRANCH   1  17
BRANCH   3  26
ATOM     26  O   UNL     1     -12.451  56.100  46.863  0.00  0.00    +0.000 OA
ATOM     27  H   UNL     1     -12.537  55.511  46.139  0.00  0.00    +0.000 HD
ENDBRANCH   3  26
BRANCH   5  28
ATOM     28  N   UNL     1     -11.575  54.329  52.154  0.00  0.00    +0.000 N 
ATOM     29  H   UNL     1     -12.218  53.702  52.558  0.00  0.00    +0.000 HD
BRANCH  28  30
ATOM     30  C   UNL     1     -10.413  54.848  52.888  0.00  0.00    +0.000 C 
BRANCH  30  31
ATOM     31  C   UNL     1      -9.559  53.732  53.429  0.00  0.00    +0.000 A 
ATOM     32  C   UNL     1      -8.179  53.885  53.556  0.00  0.00    +0.000 A 
ATOM     33  C   UNL     1     -10.109  52.515  53.834  0.00  0.00    +0.000 A 
ATOM     34  N   UNL     1      -7.347  52.929  54.028  0.00  0.00    +0.000 NA
ATOM     35  C   UNL     1      -9.279  51.512  54.321  0.00  0.00    +0.000 A 
ATOM     36  C   UNL     1      -7.918  51.762  54.396  0.00  0.00    +0.000 A 
ENDBRANCH  30  31
ENDBRANCH  28  30
ENDBRANCH   5  28
TORSDOF 5
ENDMDL
MODEL 9
REMARK VINA RESULT:      -8.5      2.498      7.115
REMARK  Name = 
REMARK  5 active torsions:
REMARK  status: ('A' for Active; 'I' for Inactive)
REMARK    1  A    between atoms: C_6  and  C_10
REMARK    2  A    between atoms: C_14  and  O_18
REMARK    3  A    between atoms: N_17  and  N_20
REMARK    4  A    between atoms: N_20  and  C_23
REMARK    5  A    between atoms: C_23  and  C_26
REMARK                            x       y       z     vdW  Elec       q    Type
REMARK                         _______ _______ _______ _____ _____    ______ ____
ROOT
ATOM      1  C   UNL     1     -10.702  55.596  48.122  0.00  0.00    +0.000 A 
ATOM      2  C   UNL     1      -9.237  55.633  48.414  0.00  0.00    +0.000 A 
ATOM      3  C   UNL     1     -11.158  54.991  47.012  0.00  0.00    +0.000 A 
ATOM      4  O   UNL     1      -8.876  56.217  49.441  0.00  0.00    +0.000 OA
ATOM      5  N   UNL     1      -8.370  54.990  47.527  0.00  0.00    +0.000 N 
ATOM      6  C   UNL     1     -10.230  54.325  46.086  0.00  0.00    +0.000 A 
ATOM      7  C   UNL     1      -8.849  54.335  46.351  0.00  0.00    +0.000 A 
ATOM      8  C   UNL     1     -10.710  53.665  44.942  0.00  0.00    +0.000 A 
ATOM      9  C   UNL     1      -7.978  53.692  45.457  0.00  0.00    +0.000 A 
ATOM     10  C   UNL     1      -9.837  53.014  44.072  0.00  0.00    +0.000 A 
ATOM     11  C   UNL     1      -8.471  53.030  44.329  0.00  0.00    +0.000 A 
ENDROOT
BRANCH   1  17
ATOM     12  S   UNL     1     -13.046  55.953  51.255  0.00  0.00    +0.000 S 
ATOM     13  O   UNL     1     -12.294  56.182  52.477  0.00  0.00    +0.000 OA
ATOM     14  O   UNL     1     -14.183  55.054  51.251  0.00  0.00    +0.000 OA
ATOM     15  N   UNL     1     -12.000  55.438  50.130  0.00  0.00    +0.000 N 
ATOM     16  C   UNL     1     -13.663  57.519  50.759  0.00  0.00    +0.000 A 
ATOM     17  C   UNL     1     -11.659  56.199  49.132  0.00  0.00    +0.000 C 
ATOM     18  C   UNL     1     -13.117  58.105  49.632  0.00  0.00    +0.000 A 
ATOM     19  C   UNL     1     -14.683  58.130  51.494  0.00  0.00    +0.000 A 
ATOM     20  N   UNL     1     -12.089  57.491  48.920  0.00  0.00    +0.000 N 
ATOM     21  C   UNL     1     -13.561  59.381  49.268  0.00  0.00    +0.000 A 
ATOM     22  C   UNL     1     -15.143  59.383  51.100  0.00  0.00    +0.000 A 
ATOM     23  C   UNL     1     -14.575  60.014  49.994  0.00  0.00    +0.000 A 
ATOM     24  H   UNL     1     -11.616  54.534  50.202  0.00  0.00    +0.000 HD
ATOM     25  H   UNL     1     -11.640  58.015  48.217  0.00  0.00    +0.000 HD
ENDBRANCH   1  17
BRANCH   3  26
ATOM     26  O   UNL     1     -12.494  54.908  46.662  0.00  0.00    +0.000 OA
ATOM     27  H   UNL     1     -13.157  55.068  47.304  0.00  0.00    +0.000 HD
ENDBRANCH   3  26
BRANCH   5  28
ATOM     28  N   UNL     1      -6.946  55.073  47.709  0.00  0.00    +0.000 N 
ATOM     29  H   UNL     1      -6.439  55.898  47.532  0.00  0.00    +0.000 HD
BRANCH  28  30
ATOM     30  C   UNL     1      -6.302  53.839  48.181  0.00  0.00    +0.000 C 
BRANCH  30  31
ATOM     31  C   UNL     1      -6.124  53.847  49.675  0.00  0.00    +0.000 A 
ATOM     32  C   UNL     1      -4.952  54.335  50.253  0.00  0.00    +0.000 A 
ATOM     33  C   UNL     1      -7.119  53.384  50.538  0.00  0.00    +0.000 A 
ATOM     34  N   UNL     1      -4.717  54.371  51.585  0.00  0.00    +0.000 NA
ATOM     35  C   UNL     1      -6.905  53.405  51.911  0.00  0.00    +0.000 A 
ATOM     36  C   UNL     1      -5.700  53.900  52.382  0.00  0.00    +0.000 A 
ENDBRANCH  30  31
ENDBRANCH  28  30
ENDBRANCH   5  28
TORSDOF 5
ENDMDL
