MODEL 1
REMARK VINA RESULT:      -9.5      0.000      0.000
REMARK  Name = 
REMARK  5 active torsions:
REMARK  status: ('A' for Active; 'I' for Inactive)
REMARK    1  A    between atoms: C_7  and  C_8
REMARK    2  A    between atoms: C_8  and  N_9
REMARK    3  A    between atoms: N_9  and  N_10
REMARK    4  A    between atoms: C_14  and  C_17
REMARK    5  A    between atoms: C_18  and  O_23
REMARK                            x       y       z     vdW  Elec       q    Type
REMARK                         _______ _______ _______ _____ _____    ______ ____
ROOT
ATOM      1  N   UNL     1     -10.160  54.528  49.445  0.00  0.00    +0.000 N 
ATOM      2  C   UNL     1     -11.027  55.363  50.146  0.00  0.00    +0.000 A 
ATOM      3  C   UNL     1     -10.288  53.112  49.511  0.00  0.00    +0.000 A 
ATOM      4  O   UNL     1     -10.906  56.589  50.138  0.00  0.00    +0.000 OA
ATOM      5  C   UNL     1     -12.162  54.712  50.880  0.00  0.00    +0.000 A 
ATOM      6  C   UNL     1     -11.176  52.545  50.442  0.00  0.00    +0.000 A 
ATOM      7  C   UNL     1      -9.611  52.283  48.611  0.00  0.00    +0.000 A 
ATOM      8  C   UNL     1     -12.081  53.411  51.210  0.00  0.00    +0.000 A 
ATOM      9  C   UNL     1     -11.365  51.155  50.453  0.00  0.00    +0.000 A 
ATOM     10  C   UNL     1      -9.866  50.909  48.587  0.00  0.00    +0.000 A 
ATOM     11  C   UNL     1     -10.740  50.344  49.509  0.00  0.00    +0.000 A 
ENDROOT
BRANCH   5  12
ATOM     12  C   UNL     1     -13.365  55.537  51.262  0.00  0.00    +0.000 C 
ATOM     13  N   UNL     1     -13.309  56.382  52.263  0.00  0.00    +0.000 N 
ATOM     14  N   UNL     1     -14.506  55.436  50.477  0.00  0.00    +0.000 N 
ATOM     15  S   UNL     1     -14.617  57.388  52.421  0.00  0.00    +0.000 S 
ATOM     16  C   UNL     1     -14.701  56.709  49.852  0.00  0.00    +0.000 A 
ATOM     17  O   UNL     1     -14.211  58.589  53.100  0.00  0.00    +0.000 OA
ATOM     18  O   UNL     1     -15.763  56.605  52.849  0.00  0.00    +0.000 OA
ATOM     19  C   UNL     1     -14.904  57.804  50.698  0.00  0.00    +0.000 A 
ATOM     20  C   UNL     1     -14.177  56.916  48.584  0.00  0.00    +0.000 A 
ATOM     21  C   UNL     1     -14.764  59.109  50.256  0.00  0.00    +0.000 A 
ATOM     22  C   UNL     1     -13.910  58.211  48.163  0.00  0.00    +0.000 A 
ATOM     23  C   UNL     1     -14.241  59.304  48.974  0.00  0.00    +0.000 A 
ATOM     24  H   UNL     1     -12.541  56.415  52.879  0.00  0.00    +0.000 HD
ATOM     25  H   UNL     1     -15.074  54.639  50.372  0.00  0.00    +0.000 HD
ENDBRANCH   5  12
BRANCH   1  26
ATOM     26  N   UNL     1      -9.409  55.093  48.361  0.00  0.00    +0.000 N 
ATOM     27  H   UNL     1      -8.429  55.172  48.381  0.00  0.00    +0.000 HD
BRANCH  26  28
ATOM     28  C   UNL     1     -10.215  55.545  47.217  0.00  0.00    +0.000 C 
BRANCH  28  35
ATOM     29 BR   UNL     1     -10.010  51.247  42.739  0.00  0.00    +0.000 Br
ATOM     30  C   UNL     1     -10.067  52.581  44.076  0.00  0.00    +0.000 A 
ATOM     31  C   UNL     1      -8.885  53.176  44.513  0.00  0.00    +0.000 A 
ATOM     32  C   UNL     1     -11.291  52.956  44.625  0.00  0.00    +0.000 A 
ATOM     33  C   UNL     1      -8.928  54.147  45.521  0.00  0.00    +0.000 A 
ATOM     34  C   UNL     1     -11.332  53.921  45.633  0.00  0.00    +0.000 A 
ATOM     35  C   UNL     1     -10.151  54.519  46.101  0.00  0.00    +0.000 A 
ENDBRANCH  28  35
ENDBRANCH  26  28
ENDBRANCH   1  26
BRANCH   8  36
ATOM     36  O   UNL     1     -12.924  52.755  52.088  0.00  0.00    +0.000 OA
ATOM     37  H   UNL     1     -12.691  52.680  52.992  0.00  0.00    +0.000 HD
ENDBRANCH   8  36
TORSDOF 5
ENDMDL
MODEL 2
REMARK VINA RESULT:      -9.0      2.462      5.498
REMARK  Name = 
REMARK  5 active torsions:
REMARK  status: ('A' for Active; 'I' for Inactive)
REMARK    1  A    between atoms: C_7  and  C_8
REMARK    2  A    between atoms: C_8  and  N_9
REMARK    3  A    between atoms: N_9  and  N_10
REMARK    4  A    between atoms: C_14  and  C_17
REMARK    5  A    between atoms: C_18  and  O_23
REMARK                            x       y       z     vdW  Elec       q    Type
REMARK                         _______ _______ _______ _____ _____    ______ ____
ROOT
ATOM      1  N   UNL     1     -13.090  55.820  48.748  0.00  0.00    +0.000 N 
ATOM      2  C   UNL     1     -12.609  54.857  49.632  0.00  0.00    +0.000 A 
ATOM      3  C   UNL     1     -13.582  57.070  49.217  0.00  0.00    +0.000 A 
ATOM      4  O   UNL     1     -12.220  53.753  49.249  0.00  0.00    +0.000 OA
ATOM      5  C   UNL     1     -12.531  55.235  51.081  0.00  0.00    +0.000 A 
ATOM      6  C   UNL     1     -13.763  57.262  50.599  0.00  0.00    +0.000 A 
ATOM      7  C   UNL     1     -13.806  58.135  48.339  0.00  0.00    +0.000 A 
ATOM      8  C   UNL     1     -13.287  56.245  51.546  0.00  0.00    +0.000 A 
ATOM      9  C   UNL     1     -14.170  58.519  51.071  0.00  0.00    +0.000 A 
ATOM     10  C   UNL     1     -14.140  59.399  48.832  0.00  0.00    +0.000 A 
ATOM     11  C   UNL     1     -14.325  59.591  50.195  0.00  0.00    +0.000 A 
ENDROOT
BRANCH   5  12
ATOM     12  C   UNL     1     -11.626  54.455  52.001  0.00  0.00    +0.000 C 
ATOM     13  N   UNL     1     -11.640  53.144  52.002  0.00  0.00    +0.000 N 
ATOM     14  N   UNL     1     -10.723  55.159  52.787  0.00  0.00    +0.000 N 
ATOM     15  S   UNL     1     -10.436  52.419  52.882  0.00  0.00    +0.000 S 
ATOM     16  C   UNL     1      -9.411  54.810  52.336  0.00  0.00    +0.000 A 
ATOM     17  O   UNL     1     -10.187  51.106  52.352  0.00  0.00    +0.000 OA
ATOM     18  O   UNL     1     -10.682  52.650  54.295  0.00  0.00    +0.000 OA
ATOM     19  C   UNL     1      -9.046  53.464  52.433  0.00  0.00    +0.000 A 
ATOM     20  C   UNL     1      -8.795  55.615  51.387  0.00  0.00    +0.000 A 
ATOM     21  C   UNL     1      -7.970  52.942  51.736  0.00  0.00    +0.000 A 
ATOM     22  C   UNL     1      -7.797  55.078  50.587  0.00  0.00    +0.000 A 
ATOM     23  C   UNL     1      -7.355  53.764  50.788  0.00  0.00    +0.000 A 
ATOM     24  H   UNL     1     -12.320  52.625  51.514  0.00  0.00    +0.000 HD
ATOM     25  H   UNL     1     -10.946  55.781  53.517  0.00  0.00    +0.000 HD
ENDBRANCH   5  12
BRANCH   1  26
ATOM     26  N   UNL     1     -12.720  55.712  47.366  0.00  0.00    +0.000 N 
ATOM     27  H   UNL     1     -13.376  55.534  46.655  0.00  0.00    +0.000 HD
BRANCH  26  28
ATOM     28  C   UNL     1     -11.286  55.885  47.092  0.00  0.00    +0.000 C 
BRANCH  28  35
ATOM     29 BR   UNL     1      -9.212  51.479  43.237  0.00  0.00    +0.000 Br
ATOM     30  C   UNL     1      -9.854  52.793  44.435  0.00  0.00    +0.000 A 
ATOM     31  C   UNL     1     -11.224  53.020  44.547  0.00  0.00    +0.000 A 
ATOM     32  C   UNL     1      -8.951  53.535  45.192  0.00  0.00    +0.000 A 
ATOM     33  C   UNL     1     -11.695  54.011  45.416  0.00  0.00    +0.000 A 
ATOM     34  C   UNL     1      -9.422  54.527  46.056  0.00  0.00    +0.000 A 
ATOM     35  C   UNL     1     -10.797  54.784  46.169  0.00  0.00    +0.000 A 
ENDBRANCH  28  35
ENDBRANCH  26  28
ENDBRANCH   1  26
BRANCH   8  36
ATOM     36  O   UNL     1     -13.500  56.535  52.882  0.00  0.00    +0.000 OA
ATOM     37  H   UNL     1     -13.060  57.259  53.280  0.00  0.00    +0.000 HD
ENDBRANCH   8  36
TORSDOF 5
ENDMDL
MODEL 3
REMARK VINA RESULT:      -8.9      3.709      6.923
REMARK  Name = 
REMARK  5 active torsions:
REMARK  status: ('A' for Active; 'I' for Inactive)
REMARK    1  A    between atoms: C_7  and  C_8
REMARK    2  A    between atoms: C_8  and  N_9
REMARK    3  A    between atoms: N_9  and  N_10
REMARK    4  A    between atoms: C_14  and  C_17
REMARK    5  A    between atoms: C_18  and  O_23
REMARK                            x       y       z     vdW  Elec       q    Type
REMARK                         _______ _______ _______ _____ _____    ______ ____
ROOT
ATOM      1  N   UNL     1     -11.065  55.210  47.531  0.00  0.00    +0.000 N 
ATOM      2  C   UNL     1     -10.199  55.427  48.599  0.00  0.00    +0.000 A 
ATOM      3  C   UNL     1     -10.626  54.547  46.350  0.00  0.00    +0.000 A 
ATOM      4  O   UNL     1     -10.548  56.037  49.611  0.00  0.00    +0.000 OA
ATOM      5  C   UNL     1      -8.823  54.839  48.497  0.00  0.00    +0.000 A 
ATOM      6  C   UNL     1      -9.255  54.279  46.182  0.00  0.00    +0.000 A 
ATOM      7  C   UNL     1     -11.540  54.084  45.398  0.00  0.00    +0.000 A 
ATOM      8  C   UNL     1      -8.322  54.526  47.290  0.00  0.00    +0.000 A 
ATOM      9  C   UNL     1      -8.829  53.554  45.059  0.00  0.00    +0.000 A 
ATOM     10  C   UNL     1     -11.106  53.302  44.324  0.00  0.00    +0.000 A 
ATOM     11  C   UNL     1      -9.752  53.039  44.152  0.00  0.00    +0.000 A 
ENDROOT
BRANCH   5  12
ATOM     12  C   UNL     1      -8.012  54.635  49.751  0.00  0.00    +0.000 C 
ATOM     13  N   UNL     1      -7.632  55.658  50.479  0.00  0.00    +0.000 N 
ATOM     14  N   UNL     1      -7.746  53.334  50.158  0.00  0.00    +0.000 N 
ATOM     15  S   UNL     1      -6.957  55.279  51.945  0.00  0.00    +0.000 S 
ATOM     16  C   UNL     1      -8.428  53.133  51.400  0.00  0.00    +0.000 A 
ATOM     17  O   UNL     1      -7.138  56.383  52.849  0.00  0.00    +0.000 OA
ATOM     18  O   UNL     1      -5.660  54.666  51.721  0.00  0.00    +0.000 OA
ATOM     19  C   UNL     1      -8.057  53.958  52.466  0.00  0.00    +0.000 A 
ATOM     20  C   UNL     1      -9.700  52.578  51.380  0.00  0.00    +0.000 A 
ATOM     21  C   UNL     1      -8.849  54.105  53.592  0.00  0.00    +0.000 A 
ATOM     22  C   UNL     1     -10.560  52.815  52.443  0.00  0.00    +0.000 A 
ATOM     23  C   UNL     1     -10.126  53.537  53.562  0.00  0.00    +0.000 A 
ATOM     24  H   UNL     1      -7.740  56.588  50.174  0.00  0.00    +0.000 HD
ATOM     25  H   UNL     1      -7.192  52.674  49.681  0.00  0.00    +0.000 HD
ENDBRANCH   5  12
BRANCH   1  26
ATOM     26  N   UNL     1     -12.476  55.292  47.778  0.00  0.00    +0.000 N 
ATOM     27  H   UNL     1     -13.005  54.522  48.087  0.00  0.00    +0.000 HD
BRANCH  26  28
ATOM     28  C   UNL     1     -13.073  56.613  47.533  0.00  0.00    +0.000 C 
BRANCH  28  35
ATOM     29 BR   UNL     1     -15.205  58.988  52.861  0.00  0.00    +0.000 Br
ATOM     30  C   UNL     1     -14.592  58.259  51.229  0.00  0.00    +0.000 A 
ATOM     31  C   UNL     1     -14.603  56.879  51.038  0.00  0.00    +0.000 A 
ATOM     32  C   UNL     1     -14.122  59.106  50.229  0.00  0.00    +0.000 A 
ATOM     33  C   UNL     1     -14.124  56.340  49.837  0.00  0.00    +0.000 A 
ATOM     34  C   UNL     1     -13.641  58.568  49.033  0.00  0.00    +0.000 A 
ATOM     35  C   UNL     1     -13.626  57.179  48.828  0.00  0.00    +0.000 A 
ENDBRANCH  28  35
ENDBRANCH  26  28
ENDBRANCH   1  26
BRANCH   8  36
ATOM     36  O   UNL     1      -6.999  54.217  47.029  0.00  0.00    +0.000 OA
ATOM     37  H   UNL     1      -6.722  54.051  46.149  0.00  0.00    +0.000 HD
ENDBRANCH   8  36
TORSDOF 5
ENDMDL
MODEL 4
REMARK VINA RESULT:      -8.8      3.973      7.184
REMARK  Name = 
REMARK  5 active torsions:
REMARK  status: ('A' for Active; 'I' for Inactive)
REMARK    1  A    between atoms: C_7  and  C_8
REMARK    2  A    between atoms: C_8  and  N_9
REMARK    3  A    between atoms: N_9  and  N_10
REMARK    4  A    between atoms: C_14  and  C_17
REMARK    5  A    between atoms: C_18  and  O_23
REMARK                            x       y       z     vdW  Elec       q    Type
REMARK                         _______ _______ _______ _____ _____    ______ ____
ROOT
ATOM      1  N   UNL     1     -10.404  55.160  48.347  0.00  0.00    +0.000 N 
ATOM      2  C   UNL     1      -9.745  55.408  49.549  0.00  0.00    +0.000 A 
ATOM      3  C   UNL     1      -9.683  54.806  47.172  0.00  0.00    +0.000 A 
ATOM      4  O   UNL     1     -10.347  55.758  50.565  0.00  0.00    +0.000 OA
ATOM      5  C   UNL     1      -8.263  55.178  49.579  0.00  0.00    +0.000 A 
ATOM      6  C   UNL     1      -8.278  54.893  47.175  0.00  0.00    +0.000 A 
ATOM      7  C   UNL     1     -10.338  54.293  46.048  0.00  0.00    +0.000 A 
ATOM      8  C   UNL     1      -7.567  55.178  48.428  0.00  0.00    +0.000 A 
ATOM      9  C   UNL     1      -7.561  54.467  46.047  0.00  0.00    +0.000 A 
ATOM     10  C   UNL     1      -9.605  53.806  44.963  0.00  0.00    +0.000 A 
ATOM     11  C   UNL     1      -8.218  53.895  44.960  0.00  0.00    +0.000 A 
ENDROOT
BRANCH   5  12
ATOM     12  C   UNL     1      -7.572  54.981  50.904  0.00  0.00    +0.000 C 
ATOM     13  N   UNL     1      -7.920  55.685  51.954  0.00  0.00    +0.000 N 
ATOM     14  N   UNL     1      -6.615  53.979  51.003  0.00  0.00    +0.000 N 
ATOM     15  S   UNL     1      -7.249  55.202  53.391  0.00  0.00    +0.000 S 
ATOM     16  C   UNL     1      -7.126  52.997  51.912  0.00  0.00    +0.000 A 
ATOM     17  O   UNL     1      -8.106  55.605  54.473  0.00  0.00    +0.000 OA
ATOM     18  O   UNL     1      -5.829  55.507  53.373  0.00  0.00    +0.000 OA
ATOM     19  C   UNL     1      -7.385  53.420  53.218  0.00  0.00    +0.000 A 
ATOM     20  C   UNL     1      -7.818  51.909  51.398  0.00  0.00    +0.000 A 
ATOM     21  C   UNL     1      -8.182  52.688  54.083  0.00  0.00    +0.000 A 
ATOM     22  C   UNL     1      -8.718  51.234  52.208  0.00  0.00    +0.000 A 
ATOM     23  C   UNL     1      -8.869  51.591  53.554  0.00  0.00    +0.000 A 
ATOM     24  H   UNL     1      -8.537  56.450  51.892  0.00  0.00    +0.000 HD
ATOM     25  H   UNL     1      -5.749  53.950  50.536  0.00  0.00    +0.000 HD
ENDBRANCH   5  12
BRANCH   1  26
ATOM     26  N   UNL     1     -11.808  54.873  48.394  0.00  0.00    +0.000 N 
ATOM     27  H   UNL     1     -12.162  54.012  48.712  0.00  0.00    +0.000 HD
BRANCH  26  28
ATOM     28  C   UNL     1     -12.680  55.962  47.930  0.00  0.00    +0.000 C 
BRANCH  28  35
ATOM     29 BR   UNL     1     -15.138  58.904  52.816  0.00  0.00    +0.000 Br
ATOM     30  C   UNL     1     -14.424  57.997  51.319  0.00  0.00    +0.000 A 
ATOM     31  C   UNL     1     -14.305  56.609  51.340  0.00  0.00    +0.000 A 
ATOM     32  C   UNL     1     -14.012  58.724  50.205  0.00  0.00    +0.000 A 
ATOM     33  C   UNL     1     -13.753  55.943  50.240  0.00  0.00    +0.000 A 
ATOM     34  C   UNL     1     -13.457  58.059  49.109  0.00  0.00    +0.000 A 
ATOM     35  C   UNL     1     -13.311  56.663  49.119  0.00  0.00    +0.000 A 
ENDBRANCH  28  35
ENDBRANCH  26  28
ENDBRANCH   1  26
BRANCH   8  36
ATOM     36  O   UNL     1      -6.189  55.229  48.328  0.00  0.00    +0.000 OA
ATOM     37  H   UNL     1      -5.759  54.845  47.590  0.00  0.00    +0.000 HD
ENDBRANCH   8  36
TORSDOF 5
ENDMDL
MODEL 5
REMARK VINA RESULT:      -8.8      3.537      5.236
REMARK  Name = 
REMARK  5 active torsions:
REMARK  status: ('A' for Active; 'I' for Inactive)
REMARK    1  A    between atoms: C_7  and  C_8
REMARK    2  A    between atoms: C_8  and  N_9
REMARK    3  A    between atoms: N_9  and  N_10
REMARK    4  A    between atoms: C_14  and  C_17
REMARK    5  A    between atoms: C_18  and  O_23
REMARK                            x       y       z     vdW  Elec       q    Type
REMARK                         _______ _______ _______ _____ _____    ______ ____
ROOT
ATOM      1  N   UNL     1     -10.614  53.779  50.216  0.00  0.00    +0.000 N 
ATOM      2  C   UNL     1     -11.964  54.056  50.413  0.00  0.00    +0.000 A 
ATOM      3  C   UNL     1      -9.929  54.237  49.055  0.00  0.00    +0.000 A 
ATOM      4  O   UNL     1     -12.585  53.632  51.388  0.00  0.00    +0.000 OA
ATOM      5  C   UNL     1     -12.635  54.946  49.408  0.00  0.00    +0.000 A 
ATOM      6  C   UNL     1     -10.668  54.811  48.004  0.00  0.00    +0.000 A 
ATOM      7  C   UNL     1      -8.533  54.205  48.979  0.00  0.00    +0.000 A 
ATOM      8  C   UNL     1     -12.100  55.087  48.183  0.00  0.00    +0.000 A 
ATOM      9  C   UNL     1      -9.989  55.337  46.895  0.00  0.00    +0.000 A 
ATOM     10  C   UNL     1      -7.871  54.799  47.901  0.00  0.00    +0.000 A 
ATOM     11  C   UNL     1      -8.597  55.362  46.858  0.00  0.00    +0.000 A 
ENDROOT
BRANCH   5  12
ATOM     12  C   UNL     1     -13.917  55.646  49.781  0.00  0.00    +0.000 C 
ATOM     13  N   UNL     1     -14.401  55.559  50.996  0.00  0.00    +0.000 N 
ATOM     14  N   UNL     1     -14.529  56.448  48.826  0.00  0.00    +0.000 N 
ATOM     15  S   UNL     1     -15.678  56.563  51.329  0.00  0.00    +0.000 S 
ATOM     16  C   UNL     1     -14.469  57.795  49.308  0.00  0.00    +0.000 A 
ATOM     17  O   UNL     1     -15.721  56.821  52.743  0.00  0.00    +0.000 OA
ATOM     18  O   UNL     1     -16.840  56.106  50.589  0.00  0.00    +0.000 OA
ATOM     19  C   UNL     1     -15.118  58.063  50.516  0.00  0.00    +0.000 A 
ATOM     20  C   UNL     1     -13.409  58.599  48.910  0.00  0.00    +0.000 A 
ATOM     21  C   UNL     1     -14.857  59.207  51.252  0.00  0.00    +0.000 A 
ATOM     22  C   UNL     1     -13.047  59.681  49.698  0.00  0.00    +0.000 A 
ATOM     23  C   UNL     1     -13.791  60.011  50.839  0.00  0.00    +0.000 A 
ATOM     24  H   UNL     1     -14.031  54.938  51.665  0.00  0.00    +0.000 HD
ATOM     25  H   UNL     1     -14.928  56.147  47.978  0.00  0.00    +0.000 HD
ENDBRANCH   5  12
BRANCH   1  26
ATOM     26  N   UNL     1      -9.833  53.388  51.354  0.00  0.00    +0.000 N 
ATOM     27  H   UNL     1      -9.476  52.477  51.463  0.00  0.00    +0.000 HD
BRANCH  26  28
ATOM     28  C   UNL     1      -9.606  54.449  52.346  0.00  0.00    +0.000 C 
BRANCH  28  35
ATOM     29 BR   UNL     1      -3.571  54.671  53.796  0.00  0.00    +0.000 Br
ATOM     30  C   UNL     1      -5.403  54.632  53.331  0.00  0.00    +0.000 A 
ATOM     31  C   UNL     1      -6.266  55.603  53.832  0.00  0.00    +0.000 A 
ATOM     32  C   UNL     1      -5.880  53.625  52.496  0.00  0.00    +0.000 A 
ATOM     33  C   UNL     1      -7.627  55.558  53.506  0.00  0.00    +0.000 A 
ATOM     34  C   UNL     1      -7.239  53.577  52.175  0.00  0.00    +0.000 A 
ATOM     35  C   UNL     1      -8.129  54.536  52.684  0.00  0.00    +0.000 A 
ENDBRANCH  28  35
ENDBRANCH  26  28
ENDBRANCH   1  26
BRANCH   8  36
ATOM     36  O   UNL     1     -12.731  55.664  47.096  0.00  0.00    +0.000 OA
ATOM     37  H   UNL     1     -12.223  56.044  46.408  0.00  0.00    +0.000 HD
ENDBRANCH   8  36
TORSDOF 5
ENDMDL
MODEL 6
REMARK VINA RESULT:      -8.4      3.152      5.775
REMARK  Name = 
REMARK  5 active torsions:
REMARK  status: ('A' for Active; 'I' for Inactive)
REMARK    1  A    between atoms: C_7  and  C_8
REMARK    2  A    between atoms: C_8  and  N_9
REMARK    3  A    between atoms: N_9  and  N_10
REMARK    4  A    between atoms: C_14  and  C_17
REMARK    5  A    between atoms: C_18  and  O_23
REMARK                            x       y       z     vdW  Elec       q    Type
REMARK                         _______ _______ _______ _____ _____    ______ ____
ROOT
ATOM      1  N   UNL     1     -11.335  55.232  48.294  0.00  0.00    +0.000 N 
ATOM      2  C   UNL     1     -10.497  54.512  49.142  0.00  0.00    +0.000 A 
ATOM      3  C   UNL     1     -12.317  56.122  48.811  0.00  0.00    +0.000 A 
ATOM      4  O   UNL     1      -9.670  53.704  48.715  0.00  0.00    +0.000 OA
ATOM      5  C   UNL     1     -10.599  54.797  50.611  0.00  0.00    +0.000 A 
ATOM      6  C   UNL     1     -12.574  56.133  50.195  0.00  0.00    +0.000 A 
ATOM      7  C   UNL     1     -12.967  57.043  47.983  0.00  0.00    +0.000 A 
ATOM      8  C   UNL     1     -11.717  55.359  51.103  0.00  0.00    +0.000 A 
ATOM      9  C   UNL     1     -13.482  57.066  50.718  0.00  0.00    +0.000 A 
ATOM     10  C   UNL     1     -13.812  58.012  48.530  0.00  0.00    +0.000 A 
ATOM     11  C   UNL     1     -14.073  58.022  49.895  0.00  0.00    +0.000 A 
ENDROOT
BRANCH   5  12
ATOM     12  C   UNL     1      -9.455  54.421  51.518  0.00  0.00    +0.000 C 
ATOM     13  N   UNL     1      -9.160  53.162  51.740  0.00  0.00    +0.000 N 
ATOM     14  N   UNL     1      -8.674  55.439  52.048  0.00  0.00    +0.000 N 
ATOM     15  S   UNL     1      -7.743  52.895  52.559  0.00  0.00    +0.000 S 
ATOM     16  C   UNL     1      -7.363  55.299  51.490  0.00  0.00    +0.000 A 
ATOM     17  O   UNL     1      -7.244  51.589  52.226  0.00  0.00    +0.000 OA
ATOM     18  O   UNL     1      -7.905  53.336  53.933  0.00  0.00    +0.000 OA
ATOM     19  C   UNL     1      -6.686  54.107  51.760  0.00  0.00    +0.000 A 
ATOM     20  C   UNL     1      -7.045  56.019  50.347  0.00  0.00    +0.000 A 
ATOM     21  C   UNL     1      -5.586  53.703  51.022  0.00  0.00    +0.000 A 
ATOM     22  C   UNL     1      -6.027  55.565  49.521  0.00  0.00    +0.000 A 
ATOM     23  C   UNL     1      -5.272  54.439  49.876  0.00  0.00    +0.000 A 
ATOM     24  H   UNL     1      -9.742  52.426  51.441  0.00  0.00    +0.000 HD
ATOM     25  H   UNL     1      -8.967  56.128  52.688  0.00  0.00    +0.000 HD
ENDBRANCH   5  12
BRANCH   1  26
ATOM     26  N   UNL     1     -10.943  55.377  46.921  0.00  0.00    +0.000 N 
ATOM     27  H   UNL     1     -10.225  55.986  46.638  0.00  0.00    +0.000 HD
BRANCH  26  28
ATOM     28  C   UNL     1     -11.696  54.547  45.970  0.00  0.00    +0.000 C 
BRANCH  28  35
ATOM     29 BR   UNL     1      -7.851  50.776  42.876  0.00  0.00    +0.000 Br
ATOM     30  C   UNL     1      -9.015  51.951  43.792  0.00  0.00    +0.000 A 
ATOM     31  C   UNL     1      -8.491  52.994  44.552  0.00  0.00    +0.000 A 
ATOM     32  C   UNL     1     -10.392  51.759  43.710  0.00  0.00    +0.000 A 
ATOM     33  C   UNL     1      -9.355  53.847  45.249  0.00  0.00    +0.000 A 
ATOM     34  C   UNL     1     -11.253  52.608  44.409  0.00  0.00    +0.000 A 
ATOM     35  C   UNL     1     -10.745  53.654  45.195  0.00  0.00    +0.000 A 
ENDBRANCH  28  35
ENDBRANCH  26  28
ENDBRANCH   1  26
BRANCH   8  36
ATOM     36  O   UNL     1     -12.044  55.447  52.443  0.00  0.00    +0.000 OA
ATOM     37  H   UNL     1     -11.643  56.101  52.981  0.00  0.00    +0.000 HD
ENDBRANCH   8  36
TORSDOF 5
ENDMDL
MODEL 7
REMARK VINA RESULT:      -8.3      3.364      6.127
REMARK  Name = 
REMARK  5 active torsions:
REMARK  status: ('A' for Active; 'I' for Inactive)
REMARK    1  A    between atoms: C_7  and  C_8
REMARK    2  A    between atoms: C_8  and  N_9
REMARK    3  A    between atoms: N_9  and  N_10
REMARK    4  A    between atoms: C_14  and  C_17
REMARK    5  A    between atoms: C_18  and  O_23
REMARK                            x       y       z     vdW  Elec       q    Type
REMARK                         _______ _______ _______ _____ _____    ______ ____
ROOT
ATOM      1  N   UNL     1     -10.986  55.356  49.034  0.00  0.00    +0.000 N 
ATOM      2  C   UNL     1      -9.906  54.660  49.572  0.00  0.00    +0.000 A 
ATOM      3  C   UNL     1     -11.986  55.925  49.871  0.00  0.00    +0.000 A 
ATOM      4  O   UNL     1      -9.054  54.122  48.863  0.00  0.00    +0.000 OA
ATOM      5  C   UNL     1      -9.785  54.632  51.067  0.00  0.00    +0.000 A 
ATOM      6  C   UNL     1     -11.987  55.620  51.244  0.00  0.00    +0.000 A 
ATOM      7  C   UNL     1     -12.910  56.847  49.369  0.00  0.00    +0.000 A 
ATOM      8  C   UNL     1     -10.870  54.865  51.826  0.00  0.00    +0.000 A 
ATOM      9  C   UNL     1     -12.921  56.244  52.086  0.00  0.00    +0.000 A 
ATOM     10  C   UNL     1     -13.784  57.513  50.233  0.00  0.00    +0.000 A 
ATOM     11  C   UNL     1     -13.792  57.210  51.589  0.00  0.00    +0.000 A 
ENDROOT
BRANCH   5  12
ATOM     12  C   UNL     1      -8.451  54.314  51.694  0.00  0.00    +0.000 C 
ATOM     13  N   UNL     1      -7.983  55.039  52.681  0.00  0.00    +0.000 N 
ATOM     14  N   UNL     1      -7.771  53.185  51.255  0.00  0.00    +0.000 N 
ATOM     15  S   UNL     1      -6.630  54.439  53.429  0.00  0.00    +0.000 S 
ATOM     16  C   UNL     1      -7.723  52.268  52.352  0.00  0.00    +0.000 A 
ATOM     17  O   UNL     1      -6.575  54.937  54.776  0.00  0.00    +0.000 OA
ATOM     18  O   UNL     1      -5.505  54.541  52.517  0.00  0.00    +0.000 OA
ATOM     19  C   UNL     1      -7.062  52.697  53.506  0.00  0.00    +0.000 A 
ATOM     20  C   UNL     1      -8.712  51.299  52.455  0.00  0.00    +0.000 A 
ATOM     21  C   UNL     1      -7.233  52.068  54.728  0.00  0.00    +0.000 A 
ATOM     22  C   UNL     1      -8.989  50.741  53.694  0.00  0.00    +0.000 A 
ATOM     23  C   UNL     1      -8.227  51.090  54.817  0.00  0.00    +0.000 A 
ATOM     24  H   UNL     1      -8.406  55.884  52.957  0.00  0.00    +0.000 HD
ATOM     25  H   UNL     1      -7.394  53.044  50.357  0.00  0.00    +0.000 HD
ENDBRANCH   5  12
BRANCH   1  26
ATOM     26  N   UNL     1     -10.876  55.834  47.686  0.00  0.00    +0.000 N 
ATOM     27  H   UNL     1     -10.268  56.565  47.432  0.00  0.00    +0.000 HD
BRANCH  26  28
ATOM     28  C   UNL     1     -11.740  55.151  46.712  0.00  0.00    +0.000 C 
BRANCH  28  35
ATOM     29 BR   UNL     1      -8.342  51.553  42.961  0.00  0.00    +0.000 Br
ATOM     30  C   UNL     1      -9.372  52.677  44.079  0.00  0.00    +0.000 A 
ATOM     31  C   UNL     1      -8.741  53.636  44.869  0.00  0.00    +0.000 A 
ATOM     32  C   UNL     1     -10.756  52.533  44.113  0.00  0.00    +0.000 A 
ATOM     33  C   UNL     1      -9.504  54.450  45.714  0.00  0.00    +0.000 A 
ATOM     34  C   UNL     1     -11.516  53.342  44.960  0.00  0.00    +0.000 A 
ATOM     35  C   UNL     1     -10.899  54.302  45.778  0.00  0.00    +0.000 A 
ENDBRANCH  28  35
ENDBRANCH  26  28
ENDBRANCH   1  26
BRANCH   8  36
ATOM     36  O   UNL     1     -10.959  54.629  53.186  0.00  0.00    +0.000 OA
ATOM     37  H   UNL     1     -10.208  54.750  53.732  0.00  0.00    +0.000 HD
ENDBRANCH   8  36
TORSDOF 5
ENDMDL
MODEL 8
REMARK VINA RESULT:      -8.3      4.668      7.865
REMARK  Name = 
REMARK  5 active torsions:
REMARK  status: ('A' for Active; 'I' for Inactive)
REMARK    1  A    between atoms: C_7  and  C_8
REMARK    2  A    between atoms: C_8  and  N_9
REMARK    3  A    between atoms: N_9  and  N_10
REMARK    4  A    between atoms: C_14  and  C_17
REMARK    5  A    between atoms: C_18  and  O_23
REMARK                            x       y       z     vdW  Elec       q    Type
REMARK                         _______ _______ _______ _____ _____    ______ ____
ROOT
ATOM      1  N   UNL     1      -9.931  54.709  49.914  0.00  0.00    +0.000 N 
ATOM      2  C   UNL     1      -8.940  54.759  50.890  0.00  0.00    +0.000 A 
ATOM      3  C   UNL     1      -9.605  54.776  48.529  0.00  0.00    +0.000 A 
ATOM      4  O   UNL     1      -9.204  54.747  52.093  0.00  0.00    +0.000 OA
ATOM      5  C   UNL     1      -7.515  54.775  50.421  0.00  0.00    +0.000 A 
ATOM      6  C   UNL     1      -8.287  55.088  48.148  0.00  0.00    +0.000 A 
ATOM      7  C   UNL     1     -10.548  54.454  47.548  0.00  0.00    +0.000 A 
ATOM      8  C   UNL     1      -7.233  55.171  49.167  0.00  0.00    +0.000 A 
ATOM      9  C   UNL     1      -7.944  55.075  46.788  0.00  0.00    +0.000 A 
ATOM     10  C   UNL     1     -10.171  54.374  46.205  0.00  0.00    +0.000 A 
ATOM     11  C   UNL     1      -8.872  54.687  45.824  0.00  0.00    +0.000 A 
ENDROOT
BRANCH   5  12
ATOM     12  C   UNL     1      -6.418  54.375  51.374  0.00  0.00    +0.000 C 
ATOM     13  N   UNL     1      -6.073  55.158  52.368  0.00  0.00    +0.000 N 
ATOM     14  N   UNL     1      -5.839  53.122  51.221  0.00  0.00    +0.000 N 
ATOM     15  S   UNL     1      -5.027  54.495  53.470  0.00  0.00    +0.000 S 
ATOM     16  C   UNL     1      -6.175  52.358  52.383  0.00  0.00    +0.000 A 
ATOM     17  O   UNL     1      -5.194  55.154  54.737  0.00  0.00    +0.000 OA
ATOM     18  O   UNL     1      -3.726  54.334  52.845  0.00  0.00    +0.000 OA
ATOM     19  C   UNL     1      -5.727  52.847  53.614  0.00  0.00    +0.000 A 
ATOM     20  C   UNL     1      -7.299  51.543  52.343  0.00  0.00    +0.000 A 
ATOM     21  C   UNL     1      -6.257  52.410  54.816  0.00  0.00    +0.000 A 
ATOM     22  C   UNL     1      -7.924  51.192  53.531  0.00  0.00    +0.000 A 
ATOM     23  C   UNL     1      -7.384  51.585  54.762  0.00  0.00    +0.000 A 
ATOM     24  H   UNL     1      -6.412  56.079  52.452  0.00  0.00    +0.000 HD
ATOM     25  H   UNL     1      -5.298  52.818  50.456  0.00  0.00    +0.000 HD
ENDBRANCH   5  12
BRANCH   1  26
ATOM     26  N   UNL     1     -11.218  54.193  50.284  0.00  0.00    +0.000 N 
ATOM     27  H   UNL     1     -11.675  53.492  49.767  0.00  0.00    +0.000 HD
BRANCH  26  28
ATOM     28  C   UNL     1     -11.801  54.791  51.493  0.00  0.00    +0.000 C 
BRANCH  28  35
ATOM     29 BR   UNL     1     -14.840  59.993  49.983  0.00  0.00    +0.000 Br
ATOM     30  C   UNL     1     -13.947  58.391  50.439  0.00  0.00    +0.000 A 
ATOM     31  C   UNL     1     -14.116  57.839  51.706  0.00  0.00    +0.000 A 
ATOM     32  C   UNL     1     -13.116  57.776  49.506  0.00  0.00    +0.000 A 
ATOM     33  C   UNL     1     -13.435  56.665  52.050  0.00  0.00    +0.000 A 
ATOM     34  C   UNL     1     -12.433  56.607  49.851  0.00  0.00    +0.000 A 
ATOM     35  C   UNL     1     -12.575  56.045  51.129  0.00  0.00    +0.000 A 
ENDBRANCH  28  35
ENDBRANCH  26  28
ENDBRANCH   1  26
BRANCH   8  36
ATOM     36  O   UNL     1      -5.970  55.470  48.689  0.00  0.00    +0.000 OA
ATOM     37  H   UNL     1      -5.498  54.836  48.185  0.00  0.00    +0.000 HD
ENDBRANCH   8  36
TORSDOF 5
ENDMDL
MODEL 9
REMARK VINA RESULT:      -8.3      3.233      4.156
REMARK  Name = 
REMARK  5 active torsions:
REMARK  status: ('A' for Active; 'I' for Inactive)
REMARK    1  A    between atoms: C_7  and  C_8
REMARK    2  A    between atoms: C_8  and  N_9
REMARK    3  A    between atoms: N_9  and  N_10
REMARK    4  A    between atoms: C_14  and  C_17
REMARK    5  A    between atoms: C_18  and  O_23
REMARK                            x       y       z     vdW  Elec       q    Type
REMARK                         _______ _______ _______ _____ _____    ______ ____
ROOT
ATOM      1  N   UNL     1      -6.676  55.345  49.796  0.00  0.00    +0.000 N 
ATOM      2  C   UNL     1      -8.027  55.678  49.733  0.00  0.00    +0.000 A 
ATOM      3  C   UNL     1      -6.122  54.731  50.954  0.00  0.00    +0.000 A 
ATOM      4  O   UNL     1      -8.516  56.250  48.758  0.00  0.00    +0.000 OA
ATOM      5  C   UNL     1      -8.889  55.265  50.889  0.00  0.00    +0.000 A 
ATOM      6  C   UNL     1      -6.903  54.634  52.120  0.00  0.00    +0.000 A 
ATOM      7  C   UNL     1      -4.851  54.149  50.926  0.00  0.00    +0.000 A 
ATOM      8  C   UNL     1      -8.324  55.006  52.081  0.00  0.00    +0.000 A 
ATOM      9  C   UNL     1      -6.390  53.957  53.237  0.00  0.00    +0.000 A 
ATOM     10  C   UNL     1      -4.385  53.416  52.021  0.00  0.00    +0.000 A 
ATOM     11  C   UNL     1      -5.151  53.323  53.177  0.00  0.00    +0.000 A 
ENDROOT
BRANCH   5  12
ATOM     12  C   UNL     1     -10.383  55.176  50.702  0.00  0.00    +0.000 C 
ATOM     13  N   UNL     1     -11.156  56.199  50.977  0.00  0.00    +0.000 N 
ATOM     14  N   UNL     1     -10.908  54.013  50.155  0.00  0.00    +0.000 N 
ATOM     15  S   UNL     1     -12.737  56.045  50.504  0.00  0.00    +0.000 S 
ATOM     16  C   UNL     1     -11.470  54.360  48.885  0.00  0.00    +0.000 A 
ATOM     17  O   UNL     1     -13.300  57.353  50.304  0.00  0.00    +0.000 OA
ATOM     18  O   UNL     1     -13.381  55.043  51.334  0.00  0.00    +0.000 OA
ATOM     19  C   UNL     1     -12.510  55.294  48.889  0.00  0.00    +0.000 A 
ATOM     20  C   UNL     1     -10.686  54.217  47.748  0.00  0.00    +0.000 A 
ATOM     21  C   UNL     1     -12.901  55.962  47.740  0.00  0.00    +0.000 A 
ATOM     22  C   UNL     1     -10.983  54.970  46.622  0.00  0.00    +0.000 A 
ATOM     23  C   UNL     1     -12.107  55.805  46.601  0.00  0.00    +0.000 A 
ATOM     24  H   UNL     1     -10.819  57.002  51.436  0.00  0.00    +0.000 HD
ATOM     25  H   UNL     1     -10.896  53.117  50.565  0.00  0.00    +0.000 HD
ENDBRANCH   5  12
BRANCH   1  26
ATOM     26  N   UNL     1      -5.946  55.253  48.564  0.00  0.00    +0.000 N 
ATOM     27  H   UNL     1      -5.606  56.045  48.090  0.00  0.00    +0.000 HD
BRANCH  26  28
ATOM     28  C   UNL     1      -5.745  53.886  48.062  0.00  0.00    +0.000 C 
BRANCH  28  35
ATOM     29 BR   UNL     1      -9.678  52.592  43.433  0.00  0.00    +0.000 Br
ATOM     30  C   UNL     1      -8.509  53.003  44.860  0.00  0.00    +0.000 A 
ATOM     31  C   UNL     1      -8.009  54.297  44.997  0.00  0.00    +0.000 A 
ATOM     32  C   UNL     1      -8.146  52.007  45.762  0.00  0.00    +0.000 A 
ATOM     33  C   UNL     1      -7.124  54.592  46.040  0.00  0.00    +0.000 A 
ATOM     34  C   UNL     1      -7.259  52.302  46.800  0.00  0.00    +0.000 A 
ATOM     35  C   UNL     1      -6.729  53.594  46.945  0.00  0.00    +0.000 A 
ENDBRANCH  28  35
ENDBRANCH  26  28
ENDBRANCH   1  26
BRANCH   8  36
ATOM     36  O   UNL     1      -9.006  54.861  53.275  0.00  0.00    +0.000 OA
ATOM     37  H   UNL     1      -9.832  55.287  53.396  0.00  0.00    +0.000 HD
ENDBRANCH   8  36
TORSDOF 5
ENDMDL
