MODEL 1
REMARK VINA RESULT:      -8.4      0.000      0.000
REMARK  Name = 
REMARK  5 active torsions:
REMARK  status: ('A' for Active; 'I' for Inactive)
REMARK    1  A    between atoms: C_6  and  C_10
REMARK    2  A    between atoms: C_14  and  O_18
REMARK    3  A    between atoms: N_17  and  N_20
REMARK    4  A    between atoms: N_20  and  C_23
REMARK    5  A    between atoms: C_23  and  C_26
REMARK                            x       y       z     vdW  Elec       q    Type
REMARK                         _______ _______ _______ _____ _____    ______ ____
ROOT
ATOM      1  C   UNL     1     -10.122  54.570  52.171  0.00  0.00    +0.000 A 
ATOM      2  C   UNL     1      -8.760  55.145  51.964  0.00  0.00    +0.000 A 
ATOM      3  C   UNL     1     -10.294  53.471  52.921  0.00  0.00    +0.000 A 
ATOM      4  O   UNL     1      -8.677  56.166  51.275  0.00  0.00    +0.000 OA
ATOM      5  N   UNL     1      -7.679  54.517  52.585  0.00  0.00    +0.000 N 
ATOM      6  C   UNL     1      -9.145  52.827  53.572  0.00  0.00    +0.000 A 
ATOM      7  C   UNL     1      -7.853  53.351  53.392  0.00  0.00    +0.000 A 
ATOM      8  C   UNL     1      -9.328  51.704  54.397  0.00  0.00    +0.000 A 
ATOM      9  C   UNL     1      -6.769  52.729  54.032  0.00  0.00    +0.000 A 
ATOM     10  C   UNL     1      -8.250  51.117  55.052  0.00  0.00    +0.000 A 
ATOM     11  C   UNL     1      -6.971  51.627  54.867  0.00  0.00    +0.000 A 
ENDROOT
BRANCH   1  17
ATOM     12  S   UNL     1     -12.580  56.095  49.524  0.00  0.00    +0.000 S 
ATOM     13  O   UNL     1     -13.480  55.098  48.976  0.00  0.00    +0.000 OA
ATOM     14  O   UNL     1     -11.982  57.096  48.663  0.00  0.00    +0.000 OA
ATOM     15  N   UNL     1     -11.385  55.311  50.280  0.00  0.00    +0.000 N 
ATOM     16  C   UNL     1     -13.504  56.979  50.726  0.00  0.00    +0.000 A 
ATOM     17  C   UNL     1     -11.308  55.295  51.580  0.00  0.00    +0.000 C 
ATOM     18  C   UNL     1     -13.195  56.780  52.063  0.00  0.00    +0.000 A 
ATOM     19  C   UNL     1     -14.512  57.860  50.320  0.00  0.00    +0.000 A 
ATOM     20  N   UNL     1     -12.203  55.881  52.447  0.00  0.00    +0.000 N 
ATOM     21  C   UNL     1     -13.959  57.444  53.024  0.00  0.00    +0.000 A 
ATOM     22  C   UNL     1     -15.244  58.537  51.291  0.00  0.00    +0.000 A 
ATOM     23  C   UNL     1     -14.975  58.323  52.643  0.00  0.00    +0.000 A 
ATOM     24  H   UNL     1     -10.704  54.838  49.748  0.00  0.00    +0.000 HD
ATOM     25  H   UNL     1     -12.137  55.649  53.401  0.00  0.00    +0.000 HD
ENDBRANCH   1  17
BRANCH   3  26
ATOM     26  O   UNL     1     -11.521  52.886  53.182  0.00  0.00    +0.000 OA
ATOM     27  H   UNL     1     -12.295  53.223  52.776  0.00  0.00    +0.000 HD
ENDBRANCH   3  26
BRANCH   5  28
ATOM     28  N   UNL     1      -6.335  54.988  52.378  0.00  0.00    +0.000 N 
ATOM     29  H   UNL     1      -5.828  55.458  53.079  0.00  0.00    +0.000 HD
BRANCH  28  30
ATOM     30  C   UNL     1      -5.769  54.719  51.049  0.00  0.00    +0.000 C 
BRANCH  30  31
ATOM     31  C   UNL     1      -4.978  53.445  51.064  0.00  0.00    +0.000 A 
ATOM     32  S   UNL     1      -5.577  52.057  50.249  0.00  0.00    +0.000 S 
ATOM     33  C   UNL     1      -3.748  53.200  51.643  0.00  0.00    +0.000 A 
ATOM     34  C   UNL     1      -4.199  51.138  50.668  0.00  0.00    +0.000 A 
ATOM     35  C   UNL     1      -3.301  51.867  51.415  0.00  0.00    +0.000 A 
ENDBRANCH  30  31
ENDBRANCH  28  30
ENDBRANCH   5  28
TORSDOF 5
ENDMDL
MODEL 2
REMARK VINA RESULT:      -8.4      3.284      4.892
REMARK  Name = 
REMARK  5 active torsions:
REMARK  status: ('A' for Active; 'I' for Inactive)
REMARK    1  A    between atoms: C_6  and  C_10
REMARK    2  A    between atoms: C_14  and  O_18
REMARK    3  A    between atoms: N_17  and  N_20
REMARK    4  A    between atoms: N_20  and  C_23
REMARK    5  A    between atoms: C_23  and  C_26
REMARK                            x       y       z     vdW  Elec       q    Type
REMARK                         _______ _______ _______ _____ _____    ______ ____
ROOT
ATOM      1  C   UNL     1     -11.477  56.044  48.805  0.00  0.00    +0.000 A 
ATOM      2  C   UNL     1     -10.401  55.471  49.665  0.00  0.00    +0.000 A 
ATOM      3  C   UNL     1     -11.604  55.667  47.524  0.00  0.00    +0.000 A 
ATOM      4  O   UNL     1     -10.352  55.851  50.839  0.00  0.00    +0.000 OA
ATOM      5  N   UNL     1      -9.545  54.522  49.104  0.00  0.00    +0.000 N 
ATOM      6  C   UNL     1     -10.697  54.663  46.951  0.00  0.00    +0.000 A 
ATOM      7  C   UNL     1      -9.676  54.108  47.743  0.00  0.00    +0.000 A 
ATOM      8  C   UNL     1     -10.857  54.231  45.623  0.00  0.00    +0.000 A 
ATOM      9  C   UNL     1      -8.827  53.140  47.181  0.00  0.00    +0.000 A 
ATOM     10  C   UNL     1     -10.030  53.247  45.089  0.00  0.00    +0.000 A 
ATOM     11  C   UNL     1      -9.013  52.705  45.866  0.00  0.00    +0.000 A 
ENDROOT
BRANCH   1  17
ATOM     12  S   UNL     1     -13.556  59.302  49.467  0.00  0.00    +0.000 S 
ATOM     13  O   UNL     1     -14.686  59.423  48.565  0.00  0.00    +0.000 OA
ATOM     14  O   UNL     1     -12.754  60.464  49.798  0.00  0.00    +0.000 OA
ATOM     15  N   UNL     1     -12.569  58.172  48.866  0.00  0.00    +0.000 N 
ATOM     16  C   UNL     1     -14.206  58.713  50.988  0.00  0.00    +0.000 A 
ATOM     17  C   UNL     1     -12.466  57.002  49.429  0.00  0.00    +0.000 C 
ATOM     18  C   UNL     1     -13.920  57.409  51.357  0.00  0.00    +0.000 A 
ATOM     19  C   UNL     1     -14.978  59.561  51.790  0.00  0.00    +0.000 A 
ATOM     20  N   UNL     1     -13.168  56.575  50.534  0.00  0.00    +0.000 N 
ATOM     21  C   UNL     1     -14.474  56.920  52.542  0.00  0.00    +0.000 A 
ATOM     22  C   UNL     1     -15.497  59.066  52.983  0.00  0.00    +0.000 A 
ATOM     23  C   UNL     1     -15.254  57.745  53.355  0.00  0.00    +0.000 A 
ATOM     24  H   UNL     1     -12.038  58.371  48.061  0.00  0.00    +0.000 HD
ATOM     25  H   UNL     1     -13.137  55.616  50.755  0.00  0.00    +0.000 HD
ENDBRANCH   1  17
BRANCH   3  26
ATOM     26  O   UNL     1     -12.584  56.132  46.665  0.00  0.00    +0.000 OA
ATOM     27  H   UNL     1     -12.962  56.978  46.800  0.00  0.00    +0.000 HD
ENDBRANCH   3  26
BRANCH   5  28
ATOM     28  N   UNL     1      -8.452  53.974  49.864  0.00  0.00    +0.000 N 
ATOM     29  H   UNL     1      -8.489  53.075  50.265  0.00  0.00    +0.000 HD
BRANCH  28  30
ATOM     30  C   UNL     1      -7.276  54.845  49.997  0.00  0.00    +0.000 C 
BRANCH  30  31
ATOM     31  C   UNL     1      -6.922  55.028  51.443  0.00  0.00    +0.000 A 
ATOM     32  S   UNL     1      -5.794  53.968  52.187  0.00  0.00    +0.000 S 
ATOM     33  C   UNL     1      -7.365  55.995  52.324  0.00  0.00    +0.000 A 
ATOM     34  C   UNL     1      -5.898  54.801  53.676  0.00  0.00    +0.000 A 
ATOM     35  C   UNL     1      -6.774  55.861  53.613  0.00  0.00    +0.000 A 
ENDBRANCH  30  31
ENDBRANCH  28  30
ENDBRANCH   5  28
TORSDOF 5
ENDMDL
MODEL 3
REMARK VINA RESULT:      -8.3      2.160      2.454
REMARK  Name = 
REMARK  5 active torsions:
REMARK  status: ('A' for Active; 'I' for Inactive)
REMARK    1  A    between atoms: C_6  and  C_10
REMARK    2  A    between atoms: C_14  and  O_18
REMARK    3  A    between atoms: N_17  and  N_20
REMARK    4  A    between atoms: N_20  and  C_23
REMARK    5  A    between atoms: C_23  and  C_26
REMARK                            x       y       z     vdW  Elec       q    Type
REMARK                         _______ _______ _______ _____ _____    ______ ____
ROOT
ATOM      1  C   UNL     1     -11.174  54.619  50.847  0.00  0.00    +0.000 A 
ATOM      2  C   UNL     1      -9.779  55.025  50.507  0.00  0.00    +0.000 A 
ATOM      3  C   UNL     1     -11.438  53.381  51.291  0.00  0.00    +0.000 A 
ATOM      4  O   UNL     1      -9.606  56.184  50.118  0.00  0.00    +0.000 OA
ATOM      5  N   UNL     1      -8.759  54.087  50.679  0.00  0.00    +0.000 N 
ATOM      6  C   UNL     1     -10.351  52.409  51.473  0.00  0.00    +0.000 A 
ATOM      7  C   UNL     1      -9.029  52.769  51.159  0.00  0.00    +0.000 A 
ATOM      8  C   UNL     1     -10.618  51.126  51.983  0.00  0.00    +0.000 A 
ATOM      9  C   UNL     1      -8.002  51.830  51.351  0.00  0.00    +0.000 A 
ATOM     10  C   UNL     1      -9.587  50.216  52.200  0.00  0.00    +0.000 A 
ATOM     11  C   UNL     1      -8.281  50.566  51.880  0.00  0.00    +0.000 A 
ENDROOT
BRANCH   1  17
ATOM     12  S   UNL     1     -13.630  57.276  49.335  0.00  0.00    +0.000 S 
ATOM     13  O   UNL     1     -14.767  56.658  48.680  0.00  0.00    +0.000 OA
ATOM     14  O   UNL     1     -12.973  58.423  48.740  0.00  0.00    +0.000 OA
ATOM     15  N   UNL     1     -12.514  56.128  49.563  0.00  0.00    +0.000 N 
ATOM     16  C   UNL     1     -14.201  57.807  50.908  0.00  0.00    +0.000 A 
ATOM     17  C   UNL     1     -12.270  55.655  50.752  0.00  0.00    +0.000 C 
ATOM     18  C   UNL     1     -13.759  57.121  52.028  0.00  0.00    +0.000 A 
ATOM     19  C   UNL     1     -15.069  58.901  51.000  0.00  0.00    +0.000 A 
ATOM     20  N   UNL     1     -12.914  56.021  51.913  0.00  0.00    +0.000 N 
ATOM     21  C   UNL     1     -14.250  57.509  53.276  0.00  0.00    +0.000 A 
ATOM     22  C   UNL     1     -15.523  59.293  52.256  0.00  0.00    +0.000 A 
ATOM     23  C   UNL     1     -15.122  58.593  53.393  0.00  0.00    +0.000 A 
ATOM     24  H   UNL     1     -12.012  55.780  48.791  0.00  0.00    +0.000 HD
ATOM     25  H   UNL     1     -12.767  55.468  52.713  0.00  0.00    +0.000 HD
ENDBRANCH   1  17
BRANCH   3  26
ATOM     26  O   UNL     1     -12.696  52.930  51.650  0.00  0.00    +0.000 OA
ATOM     27  H   UNL     1     -12.796  52.088  52.048  0.00  0.00    +0.000 HD
ENDBRANCH   3  26
BRANCH   5  28
ATOM     28  N   UNL     1      -7.402  54.398  50.315  0.00  0.00    +0.000 N 
ATOM     29  H   UNL     1      -6.934  53.931  49.585  0.00  0.00    +0.000 HD
BRANCH  28  30
ATOM     30  C   UNL     1      -6.764  55.460  51.104  0.00  0.00    +0.000 C 
BRANCH  30  31
ATOM     31  C   UNL     1      -6.359  54.941  52.451  0.00  0.00    +0.000 A 
ATOM     32  S   UNL     1      -7.243  55.408  53.848  0.00  0.00    +0.000 S 
ATOM     33  C   UNL     1      -5.339  54.065  52.766  0.00  0.00    +0.000 A 
ATOM     34  C   UNL     1      -6.267  54.442  54.865  0.00  0.00    +0.000 A 
ATOM     35  C   UNL     1      -5.286  53.780  54.161  0.00  0.00    +0.000 A 
ENDBRANCH  30  31
ENDBRANCH  28  30
ENDBRANCH   5  28
TORSDOF 5
ENDMDL
MODEL 4
REMARK VINA RESULT:      -8.2      3.134      8.356
REMARK  Name = 
REMARK  5 active torsions:
REMARK  status: ('A' for Active; 'I' for Inactive)
REMARK    1  A    between atoms: C_6  and  C_10
REMARK    2  A    between atoms: C_14  and  O_18
REMARK    3  A    between atoms: N_17  and  N_20
REMARK    4  A    between atoms: N_20  and  C_23
REMARK    5  A    between atoms: C_23  and  C_26
REMARK                            x       y       z     vdW  Elec       q    Type
REMARK                         _______ _______ _______ _____ _____    ______ ____
ROOT
ATOM      1  C   UNL     1      -9.149  54.337  49.901  0.00  0.00    +0.000 A 
ATOM      2  C   UNL     1     -10.190  55.403  49.998  0.00  0.00    +0.000 A 
ATOM      3  C   UNL     1      -9.037  53.589  48.793  0.00  0.00    +0.000 A 
ATOM      4  O   UNL     1     -10.227  56.063  51.041  0.00  0.00    +0.000 OA
ATOM      5  N   UNL     1     -11.027  55.607  48.900  0.00  0.00    +0.000 N 
ATOM      6  C   UNL     1      -9.922  53.823  47.645  0.00  0.00    +0.000 A 
ATOM      7  C   UNL     1     -10.910  54.822  47.713  0.00  0.00    +0.000 A 
ATOM      8  C   UNL     1      -9.776  53.072  46.465  0.00  0.00    +0.000 A 
ATOM      9  C   UNL     1     -11.739  55.039  46.600  0.00  0.00    +0.000 A 
ATOM     10  C   UNL     1     -10.582  53.320  45.358  0.00  0.00    +0.000 A 
ATOM     11  C   UNL     1     -11.565  54.300  45.426  0.00  0.00    +0.000 A 
ENDROOT
BRANCH   1  17
ATOM     12  S   UNL     1      -7.751  54.089  53.556  0.00  0.00    +0.000 S 
ATOM     13  O   UNL     1      -7.977  52.780  54.140  0.00  0.00    +0.000 OA
ATOM     14  O   UNL     1      -7.939  55.289  54.349  0.00  0.00    +0.000 OA
ATOM     15  N   UNL     1      -8.690  54.207  52.245  0.00  0.00    +0.000 N 
ATOM     16  C   UNL     1      -6.075  54.110  53.036  0.00  0.00    +0.000 A 
ATOM     17  C   UNL     1      -8.179  54.170  51.047  0.00  0.00    +0.000 C 
ATOM     18  C   UNL     1      -5.814  54.079  51.675  0.00  0.00    +0.000 A 
ATOM     19  C   UNL     1      -5.051  54.167  53.988  0.00  0.00    +0.000 A 
ATOM     20  N   UNL     1      -6.847  54.000  50.745  0.00  0.00    +0.000 N 
ATOM     21  C   UNL     1      -4.482  54.046  51.258  0.00  0.00    +0.000 A 
ATOM     22  C   UNL     1      -3.729  54.164  53.553  0.00  0.00    +0.000 A 
ATOM     23  C   UNL     1      -3.443  54.094  52.190  0.00  0.00    +0.000 A 
ATOM     24  H   UNL     1      -9.664  54.309  52.354  0.00  0.00    +0.000 HD
ATOM     25  H   UNL     1      -6.609  53.809  49.809  0.00  0.00    +0.000 HD
ENDBRANCH   1  17
BRANCH   3  26
ATOM     26  O   UNL     1      -8.089  52.598  48.612  0.00  0.00    +0.000 OA
ATOM     27  H   UNL     1      -8.333  51.696  48.690  0.00  0.00    +0.000 HD
ENDBRANCH   3  26
BRANCH   5  28
ATOM     28  N   UNL     1     -12.087  56.580  48.952  0.00  0.00    +0.000 N 
ATOM     29  H   UNL     1     -11.983  57.491  48.593  0.00  0.00    +0.000 HD
BRANCH  28  30
ATOM     30  C   UNL     1     -13.335  56.120  49.576  0.00  0.00    +0.000 C 
BRANCH  30  31
ATOM     31  C   UNL     1     -13.679  56.980  50.756  0.00  0.00    +0.000 A 
ATOM     32  S   UNL     1     -14.288  58.567  50.509  0.00  0.00    +0.000 S 
ATOM     33  C   UNL     1     -13.608  56.668  52.099  0.00  0.00    +0.000 A 
ATOM     34  C   UNL     1     -14.456  58.832  52.188  0.00  0.00    +0.000 A 
ATOM     35  C   UNL     1     -14.054  57.740  52.925  0.00  0.00    +0.000 A 
ENDBRANCH  30  31
ENDBRANCH  28  30
ENDBRANCH   5  28
TORSDOF 5
ENDMDL
MODEL 5
REMARK VINA RESULT:      -8.1      4.112      5.523
REMARK  Name = 
REMARK  5 active torsions:
REMARK  status: ('A' for Active; 'I' for Inactive)
REMARK    1  A    between atoms: C_6  and  C_10
REMARK    2  A    between atoms: C_14  and  O_18
REMARK    3  A    between atoms: N_17  and  N_20
REMARK    4  A    between atoms: N_20  and  C_23
REMARK    5  A    between atoms: C_23  and  C_26
REMARK                            x       y       z     vdW  Elec       q    Type
REMARK                         _______ _______ _______ _____ _____    ______ ____
ROOT
ATOM      1  C   UNL     1     -10.359  54.930  47.775  0.00  0.00    +0.000 A 
ATOM      2  C   UNL     1      -8.869  55.019  47.774  0.00  0.00    +0.000 A 
ATOM      3  C   UNL     1     -11.014  54.397  46.732  0.00  0.00    +0.000 A 
ATOM      4  O   UNL     1      -8.331  55.506  48.773  0.00  0.00    +0.000 OA
ATOM      5  N   UNL     1      -8.180  54.518  46.668  0.00  0.00    +0.000 N 
ATOM      6  C   UNL     1     -10.272  53.869  45.579  0.00  0.00    +0.000 A 
ATOM      7  C   UNL     1      -8.868  53.942  45.556  0.00  0.00    +0.000 A 
ATOM      8  C   UNL     1     -10.953  53.268  44.506  0.00  0.00    +0.000 A 
ATOM      9  C   UNL     1      -8.176  53.420  44.451  0.00  0.00    +0.000 A 
ATOM     10  C   UNL     1     -10.253  52.725  43.432  0.00  0.00    +0.000 A 
ATOM     11  C   UNL     1      -8.866  52.805  43.403  0.00  0.00    +0.000 A 
ENDROOT
BRANCH   1  17
ATOM     12  S   UNL     1     -11.790  54.977  51.425  0.00  0.00    +0.000 S 
ATOM     13  O   UNL     1     -10.813  55.446  52.390  0.00  0.00    +0.000 OA
ATOM     14  O   UNL     1     -12.653  53.855  51.742  0.00  0.00    +0.000 OA
ATOM     15  N   UNL     1     -10.999  54.626  50.059  0.00  0.00    +0.000 N 
ATOM     16  C   UNL     1     -12.856  56.335  51.110  0.00  0.00    +0.000 A 
ATOM     17  C   UNL     1     -11.108  55.384  49.006  0.00  0.00    +0.000 C 
ATOM     18  C   UNL     1     -12.770  56.958  49.875  0.00  0.00    +0.000 A 
ATOM     19  C   UNL     1     -13.766  56.748  52.090  0.00  0.00    +0.000 A 
ATOM     20  N   UNL     1     -11.843  56.545  48.922  0.00  0.00    +0.000 N 
ATOM     21  C   UNL     1     -13.582  58.069  49.637  0.00  0.00    +0.000 A 
ATOM     22  C   UNL     1     -14.589  57.838  51.824  0.00  0.00    +0.000 A 
ATOM     23  C   UNL     1     -14.492  58.505  50.603  0.00  0.00    +0.000 A 
ATOM     24  H   UNL     1     -10.425  53.826  50.024  0.00  0.00    +0.000 HD
ATOM     25  H   UNL     1     -11.703  57.121  48.136  0.00  0.00    +0.000 HD
ENDBRANCH   1  17
BRANCH   3  26
ATOM     26  O   UNL     1     -12.388  54.257  46.660  0.00  0.00    +0.000 OA
ATOM     27  H   UNL     1     -12.834  54.416  45.852  0.00  0.00    +0.000 HD
ENDBRANCH   3  26
BRANCH   5  28
ATOM     28  N   UNL     1      -6.748  54.626  46.581  0.00  0.00    +0.000 N 
ATOM     29  H   UNL     1      -6.301  55.433  46.238  0.00  0.00    +0.000 HD
BRANCH  28  30
ATOM     30  C   UNL     1      -5.997  53.449  47.042  0.00  0.00    +0.000 C 
BRANCH  30  31
ATOM     31  C   UNL     1      -5.683  53.568  48.503  0.00  0.00    +0.000 A 
ATOM     32  S   UNL     1      -6.413  52.490  49.624  0.00  0.00    +0.000 S 
ATOM     33  C   UNL     1      -4.821  54.444  49.132  0.00  0.00    +0.000 A 
ATOM     34  C   UNL     1      -5.578  53.193  50.939  0.00  0.00    +0.000 A 
ATOM     35  C   UNL     1      -4.763  54.227  50.538  0.00  0.00    +0.000 A 
ENDBRANCH  30  31
ENDBRANCH  28  30
ENDBRANCH   5  28
TORSDOF 5
ENDMDL
MODEL 6
REMARK VINA RESULT:      -8.1      4.228      5.197
REMARK  Name = 
REMARK  5 active torsions:
REMARK  status: ('A' for Active; 'I' for Inactive)
REMARK    1  A    between atoms: C_6  and  C_10
REMARK    2  A    between atoms: C_14  and  O_18
REMARK    3  A    between atoms: N_17  and  N_20
REMARK    4  A    between atoms: N_20  and  C_23
REMARK    5  A    between atoms: C_23  and  C_26
REMARK                            x       y       z     vdW  Elec       q    Type
REMARK                         _______ _______ _______ _____ _____    ______ ____
ROOT
ATOM      1  C   UNL     1     -12.302  54.306  50.120  0.00  0.00    +0.000 A 
ATOM      2  C   UNL     1     -12.026  53.973  48.692  0.00  0.00    +0.000 A 
ATOM      3  C   UNL     1     -11.757  53.583  51.110  0.00  0.00    +0.000 A 
ATOM      4  O   UNL     1     -12.549  54.690  47.833  0.00  0.00    +0.000 OA
ATOM      5  N   UNL     1     -11.174  52.902  48.419  0.00  0.00    +0.000 N 
ATOM      6  C   UNL     1     -10.857  52.463  50.803  0.00  0.00    +0.000 A 
ATOM      7  C   UNL     1     -10.581  52.131  49.465  0.00  0.00    +0.000 A 
ATOM      8  C   UNL     1     -10.247  51.733  51.838  0.00  0.00    +0.000 A 
ATOM      9  C   UNL     1      -9.709  51.065  49.192  0.00  0.00    +0.000 A 
ATOM     10  C   UNL     1      -9.358  50.700  51.554  0.00  0.00    +0.000 A 
ATOM     11  C   UNL     1      -9.092  50.364  50.232  0.00  0.00    +0.000 A 
ENDROOT
BRANCH   1  17
ATOM     12  S   UNL     1     -15.306  56.503  51.355  0.00  0.00    +0.000 S 
ATOM     13  O   UNL     1     -15.277  56.712  52.791  0.00  0.00    +0.000 OA
ATOM     14  O   UNL     1     -16.560  56.234  50.678  0.00  0.00    +0.000 OA
ATOM     15  N   UNL     1     -14.288  55.294  51.017  0.00  0.00    +0.000 N 
ATOM     16  C   UNL     1     -14.673  57.973  50.635  0.00  0.00    +0.000 A 
ATOM     17  C   UNL     1     -13.149  55.520  50.427  0.00  0.00    +0.000 C 
ATOM     18  C   UNL     1     -13.418  57.925  50.050  0.00  0.00    +0.000 A 
ATOM     19  C   UNL     1     -15.439  59.144  50.655  0.00  0.00    +0.000 A 
ATOM     20  N   UNL     1     -12.662  56.755  50.061  0.00  0.00    +0.000 N 
ATOM     21  C   UNL     1     -12.889  59.103  49.519  0.00  0.00    +0.000 A 
ATOM     22  C   UNL     1     -14.909  60.302  50.094  0.00  0.00    +0.000 A 
ATOM     23  C   UNL     1     -13.632  60.285  49.534  0.00  0.00    +0.000 A 
ATOM     24  H   UNL     1     -14.533  54.372  51.260  0.00  0.00    +0.000 HD
ATOM     25  H   UNL     1     -11.719  56.814  49.789  0.00  0.00    +0.000 HD
ENDBRANCH   1  17
BRANCH   3  26
ATOM     26  O   UNL     1     -11.942  53.836  52.458  0.00  0.00    +0.000 OA
ATOM     27  H   UNL     1     -11.419  53.391  53.094  0.00  0.00    +0.000 HD
ENDBRANCH   3  26
BRANCH   5  28
ATOM     28  N   UNL     1     -10.913  52.495  47.063  0.00  0.00    +0.000 N 
ATOM     29  H   UNL     1     -11.335  51.701  46.662  0.00  0.00    +0.000 HD
BRANCH  28  30
ATOM     30  C   UNL     1      -9.976  53.346  46.317  0.00  0.00    +0.000 C 
BRANCH  30  31
ATOM     31  C   UNL     1      -9.677  52.746  44.976  0.00  0.00    +0.000 A 
ATOM     32  S   UNL     1      -8.293  51.748  44.776  0.00  0.00    +0.000 S 
ATOM     33  C   UNL     1     -10.400  52.849  43.804  0.00  0.00    +0.000 A 
ATOM     34  C   UNL     1      -8.663  51.457  43.133  0.00  0.00    +0.000 A 
ATOM     35  C   UNL     1      -9.812  52.106  42.741  0.00  0.00    +0.000 A 
ENDBRANCH  30  31
ENDBRANCH  28  30
ENDBRANCH   5  28
TORSDOF 5
ENDMDL
MODEL 7
REMARK VINA RESULT:      -8.0      2.835      8.274
REMARK  Name = 
REMARK  5 active torsions:
REMARK  status: ('A' for Active; 'I' for Inactive)
REMARK    1  A    between atoms: C_6  and  C_10
REMARK    2  A    between atoms: C_14  and  O_18
REMARK    3  A    between atoms: N_17  and  N_20
REMARK    4  A    between atoms: N_20  and  C_23
REMARK    5  A    between atoms: C_23  and  C_26
REMARK                            x       y       z     vdW  Elec       q    Type
REMARK                         _______ _______ _______ _____ _____    ______ ____
ROOT
ATOM      1  C   UNL     1      -9.806  54.022  50.543  0.00  0.00    +0.000 A 
ATOM      2  C   UNL     1     -11.086  54.754  50.774  0.00  0.00    +0.000 A 
ATOM      3  C   UNL     1      -9.410  53.710  49.299  0.00  0.00    +0.000 A 
ATOM      4  O   UNL     1     -11.381  55.021  51.943  0.00  0.00    +0.000 OA
ATOM      5  N   UNL     1     -11.847  55.118  49.661  0.00  0.00    +0.000 N 
ATOM      6  C   UNL     1     -10.221  54.107  48.140  0.00  0.00    +0.000 A 
ATOM      7  C   UNL     1     -11.430  54.798  48.333  0.00  0.00    +0.000 A 
ATOM      8  C   UNL     1      -9.785  53.823  46.834  0.00  0.00    +0.000 A 
ATOM      9  C   UNL     1     -12.185  55.179  47.211  0.00  0.00    +0.000 A 
ATOM     10  C   UNL     1     -10.526  54.236  45.730  0.00  0.00    +0.000 A 
ATOM     11  C   UNL     1     -11.727  54.910  45.919  0.00  0.00    +0.000 A 
ENDROOT
BRANCH   1  17
ATOM     12  S   UNL     1      -6.735  54.030  52.980  0.00  0.00    +0.000 S 
ATOM     13  O   UNL     1      -6.726  55.195  53.845  0.00  0.00    +0.000 OA
ATOM     14  O   UNL     1      -5.503  53.547  52.388  0.00  0.00    +0.000 OA
ATOM     15  N   UNL     1      -7.782  54.318  51.783  0.00  0.00    +0.000 N 
ATOM     16  C   UNL     1      -7.358  52.707  53.950  0.00  0.00    +0.000 A 
ATOM     17  C   UNL     1      -8.931  53.706  51.733  0.00  0.00    +0.000 C 
ATOM     18  C   UNL     1      -8.628  52.230  53.664  0.00  0.00    +0.000 A 
ATOM     19  C   UNL     1      -6.571  52.159  54.969  0.00  0.00    +0.000 A 
ATOM     20  N   UNL     1      -9.403  52.804  52.660  0.00  0.00    +0.000 N 
ATOM     21  C   UNL     1      -9.147  51.210  54.463  0.00  0.00    +0.000 A 
ATOM     22  C   UNL     1      -7.093  51.122  55.737  0.00  0.00    +0.000 A 
ATOM     23  C   UNL     1      -8.383  50.653  55.491  0.00  0.00    +0.000 A 
ATOM     24  H   UNL     1      -7.548  54.967  51.080  0.00  0.00    +0.000 HD
ATOM     25  H   UNL     1     -10.352  52.548  52.608  0.00  0.00    +0.000 HD
ENDBRANCH   1  17
BRANCH   3  26
ATOM     26  O   UNL     1      -8.231  53.054  48.995  0.00  0.00    +0.000 OA
ATOM     27  H   UNL     1      -8.241  52.137  48.803  0.00  0.00    +0.000 HD
ENDBRANCH   3  26
BRANCH   5  28
ATOM     28  N   UNL     1     -13.118  55.774  49.820  0.00  0.00    +0.000 N 
ATOM     29  H   UNL     1     -13.964  55.274  49.873  0.00  0.00    +0.000 HD
BRANCH  28  30
ATOM     30  C   UNL     1     -13.066  57.240  49.900  0.00  0.00    +0.000 C 
BRANCH  30  31
ATOM     31  C   UNL     1     -13.838  57.728  51.090  0.00  0.00    +0.000 A 
ATOM     32  S   UNL     1     -14.512  59.308  51.082  0.00  0.00    +0.000 S 
ATOM     33  C   UNL     1     -14.140  57.054  52.256  0.00  0.00    +0.000 A 
ATOM     34  C   UNL     1     -15.203  59.088  52.629  0.00  0.00    +0.000 A 
ATOM     35  C   UNL     1     -14.927  57.842  53.145  0.00  0.00    +0.000 A 
ENDBRANCH  30  31
ENDBRANCH  28  30
ENDBRANCH   5  28
TORSDOF 5
ENDMDL
MODEL 8
REMARK VINA RESULT:      -8.0      3.492      7.287
REMARK  Name = 
REMARK  5 active torsions:
REMARK  status: ('A' for Active; 'I' for Inactive)
REMARK    1  A    between atoms: C_6  and  C_10
REMARK    2  A    between atoms: C_14  and  O_18
REMARK    3  A    between atoms: N_17  and  N_20
REMARK    4  A    between atoms: N_20  and  C_23
REMARK    5  A    between atoms: C_23  and  C_26
REMARK                            x       y       z     vdW  Elec       q    Type
REMARK                         _______ _______ _______ _____ _____    ______ ____
ROOT
ATOM      1  C   UNL     1     -10.412  55.212  50.946  0.00  0.00    +0.000 A 
ATOM      2  C   UNL     1     -10.100  55.098  49.492  0.00  0.00    +0.000 A 
ATOM      3  C   UNL     1     -11.584  55.720  51.357  0.00  0.00    +0.000 A 
ATOM      4  O   UNL     1      -9.009  54.607  49.185  0.00  0.00    +0.000 OA
ATOM      5  N   UNL     1     -11.066  55.517  48.575  0.00  0.00    +0.000 N 
ATOM      6  C   UNL     1     -12.592  56.150  50.379  0.00  0.00    +0.000 A 
ATOM      7  C   UNL     1     -12.320  56.051  49.002  0.00  0.00    +0.000 A 
ATOM      8  C   UNL     1     -13.839  56.638  50.805  0.00  0.00    +0.000 A 
ATOM      9  C   UNL     1     -13.301  56.455  48.082  0.00  0.00    +0.000 A 
ATOM     10  C   UNL     1     -14.815  57.004  49.883  0.00  0.00    +0.000 A 
ATOM     11  C   UNL     1     -14.545  56.917  48.522  0.00  0.00    +0.000 A 
ENDROOT
BRANCH   1  17
ATOM     12  S   UNL     1      -7.079  54.762  52.962  0.00  0.00    +0.000 S 
ATOM     13  O   UNL     1      -6.947  55.739  54.027  0.00  0.00    +0.000 OA
ATOM     14  O   UNL     1      -5.934  54.405  52.148  0.00  0.00    +0.000 OA
ATOM     15  N   UNL     1      -8.253  55.271  51.974  0.00  0.00    +0.000 N 
ATOM     16  C   UNL     1      -7.612  53.275  53.728  0.00  0.00    +0.000 A 
ATOM     17  C   UNL     1      -9.411  54.676  51.944  0.00  0.00    +0.000 C 
ATOM     18  C   UNL     1      -8.915  52.858  53.507  0.00  0.00    +0.000 A 
ATOM     19  C   UNL     1      -6.723  52.545  54.524  0.00  0.00    +0.000 A 
ATOM     20  N   UNL     1      -9.790  53.612  52.729  0.00  0.00    +0.000 N 
ATOM     21  C   UNL     1      -9.358  51.703  54.153  0.00  0.00    +0.000 A 
ATOM     22  C   UNL     1      -7.172  51.378  55.135  0.00  0.00    +0.000 A 
ATOM     23  C   UNL     1      -8.491  50.961  54.958  0.00  0.00    +0.000 A 
ATOM     24  H   UNL     1      -8.089  56.044  51.385  0.00  0.00    +0.000 HD
ATOM     25  H   UNL     1     -10.744  53.367  52.742  0.00  0.00    +0.000 HD
ENDBRANCH   1  17
BRANCH   3  26
ATOM     26  O   UNL     1     -11.963  55.842  52.682  0.00  0.00    +0.000 OA
ATOM     27  H   UNL     1     -12.228  55.084  53.165  0.00  0.00    +0.000 HD
ENDBRANCH   3  26
BRANCH   5  28
ATOM     28  N   UNL     1     -10.803  55.485  47.161  0.00  0.00    +0.000 N 
ATOM     29  H   UNL     1     -10.348  56.223  46.694  0.00  0.00    +0.000 HD
BRANCH  28  30
ATOM     30  C   UNL     1     -11.259  54.276  46.461  0.00  0.00    +0.000 C 
BRANCH  30  31
ATOM     31  C   UNL     1     -10.215  53.808  45.490  0.00  0.00    +0.000 A 
ATOM     32  S   UNL     1     -10.658  52.774  44.192  0.00  0.00    +0.000 S 
ATOM     33  C   UNL     1      -8.871  54.121  45.452  0.00  0.00    +0.000 A 
ATOM     34  C   UNL     1      -9.061  52.748  43.585  0.00  0.00    +0.000 A 
ATOM     35  C   UNL     1      -8.206  53.506  44.353  0.00  0.00    +0.000 A 
ENDBRANCH  30  31
ENDBRANCH  28  30
ENDBRANCH   5  28
TORSDOF 5
ENDMDL
MODEL 9
REMARK VINA RESULT:      -7.9      4.521      7.372
REMARK  Name = 
REMARK  5 active torsions:
REMARK  status: ('A' for Active; 'I' for Inactive)
REMARK    1  A    between atoms: C_6  and  C_10
REMARK    2  A    between atoms: C_14  and  O_18
REMARK    3  A    between atoms: N_17  and  N_20
REMARK    4  A    between atoms: N_20  and  C_23
REMARK    5  A    between atoms: C_23  and  C_26
REMARK                            x       y       z     vdW  Elec       q    Type
REMARK                         _______ _______ _______ _____ _____    ______ ____
ROOT
ATOM      1  C   UNL     1     -11.307  54.704  48.330  0.00  0.00    +0.000 A 
ATOM      2  C   UNL     1     -11.120  54.213  49.726  0.00  0.00    +0.000 A 
ATOM      3  C   UNL     1     -12.163  55.702  48.064  0.00  0.00    +0.000 A 
ATOM      4  O   UNL     1     -10.305  53.302  49.901  0.00  0.00    +0.000 OA
ATOM      5  N   UNL     1     -11.847  54.832  50.745  0.00  0.00    +0.000 N 
ATOM      6  C   UNL     1     -12.915  56.346  49.149  0.00  0.00    +0.000 A 
ATOM      7  C   UNL     1     -12.755  55.901  50.473  0.00  0.00    +0.000 A 
ATOM      8  C   UNL     1     -13.777  57.423  48.880  0.00  0.00    +0.000 A 
ATOM      9  C   UNL     1     -13.473  56.537  51.499  0.00  0.00    +0.000 A 
ATOM     10  C   UNL     1     -14.457  58.067  49.910  0.00  0.00    +0.000 A 
ATOM     11  C   UNL     1     -14.308  57.621  51.218  0.00  0.00    +0.000 A 
ENDROOT
BRANCH   1  17
ATOM     12  S   UNL     1      -8.212  53.955  46.042  0.00  0.00    +0.000 S 
ATOM     13  O   UNL     1      -7.289  53.020  46.658  0.00  0.00    +0.000 OA
ATOM     14  O   UNL     1      -7.714  55.107  45.316  0.00  0.00    +0.000 OA
ATOM     15  N   UNL     1      -9.213  54.487  47.195  0.00  0.00    +0.000 N 
ATOM     16  C   UNL     1      -9.150  53.023  44.887  0.00  0.00    +0.000 A 
ATOM     17  C   UNL     1     -10.457  54.104  47.234  0.00  0.00    +0.000 C 
ATOM     18  C   UNL     1     -10.482  52.772  45.179  0.00  0.00    +0.000 A 
ATOM     19  C   UNL     1      -8.550  52.569  43.707  0.00  0.00    +0.000 A 
ATOM     20  N   UNL     1     -11.054  53.215  46.369  0.00  0.00    +0.000 N 
ATOM     21  C   UNL     1     -11.218  51.991  44.287  0.00  0.00    +0.000 A 
ATOM     22  C   UNL     1      -9.309  51.817  42.814  0.00  0.00    +0.000 A 
ATOM     23  C   UNL     1     -10.639  51.520  43.107  0.00  0.00    +0.000 A 
ATOM     24  H   UNL     1      -8.876  55.111  47.878  0.00  0.00    +0.000 HD
ATOM     25  H   UNL     1     -11.943  52.869  46.608  0.00  0.00    +0.000 HD
ENDBRANCH   1  17
BRANCH   3  26
ATOM     26  O   UNL     1     -12.380  56.232  46.804  0.00  0.00    +0.000 OA
ATOM     27  H   UNL     1     -13.104  55.935  46.289  0.00  0.00    +0.000 HD
ENDBRANCH   3  26
BRANCH   5  28
ATOM     28  N   UNL     1     -11.754  54.366  52.104  0.00  0.00    +0.000 N 
ATOM     29  H   UNL     1     -12.444  53.795  52.512  0.00  0.00    +0.000 HD
BRANCH  28  30
ATOM     30  C   UNL     1     -10.558  54.800  52.839  0.00  0.00    +0.000 C 
BRANCH  30  31
ATOM     31  C   UNL     1      -9.800  53.612  53.353  0.00  0.00    +0.000 A 
ATOM     32  S   UNL     1      -8.088  53.573  53.230  0.00  0.00    +0.000 S 
ATOM     33  C   UNL     1     -10.289  52.482  53.978  0.00  0.00    +0.000 A 
ATOM     34  C   UNL     1      -8.003  52.054  54.009  0.00  0.00    +0.000 A 
ATOM     35  C   UNL     1      -9.250  51.583  54.354  0.00  0.00    +0.000 A 
ENDBRANCH  30  31
ENDBRANCH  28  30
ENDBRANCH   5  28
TORSDOF 5
ENDMDL
