MODEL 1
REMARK VINA RESULT:      -9.4      0.000      0.000
REMARK  Name = 
REMARK  5 active torsions:
REMARK  status: ('A' for Active; 'I' for Inactive)
REMARK    1  A    between atoms: C_7  and  C_8
REMARK    2  A    between atoms: C_8  and  N_9
REMARK    3  A    between atoms: N_9  and  N_10
REMARK    4  A    between atoms: C_14  and  C_17
REMARK    5  A    between atoms: C_18  and  O_23
REMARK                            x       y       z     vdW  Elec       q    Type
REMARK                         _______ _______ _______ _____ _____    ______ ____
ROOT
ATOM      1  N   UNL     1     -10.070  54.494  49.423  0.00  0.00    +0.000 N 
ATOM      2  C   UNL     1     -10.978  55.339  50.058  0.00  0.00    +0.000 A 
ATOM      3  C   UNL     1     -10.157  53.080  49.549  0.00  0.00    +0.000 A 
ATOM      4  O   UNL     1     -10.899  56.566  49.973  0.00  0.00    +0.000 OA
ATOM      5  C   UNL     1     -12.106  54.698  50.811  0.00  0.00    +0.000 A 
ATOM      6  C   UNL     1     -11.061  52.528  50.474  0.00  0.00    +0.000 A 
ATOM      7  C   UNL     1      -9.415  52.227  48.722  0.00  0.00    +0.000 A 
ATOM      8  C   UNL     1     -12.018  53.404  51.169  0.00  0.00    +0.000 A 
ATOM      9  C   UNL     1     -11.192  51.132  50.563  0.00  0.00    +0.000 A 
ATOM     10  C   UNL     1      -9.608  50.846  48.771  0.00  0.00    +0.000 A 
ATOM     11  C   UNL     1     -10.490  50.298  49.696  0.00  0.00    +0.000 A 
ENDROOT
BRANCH   5  12
ATOM     12  C   UNL     1     -13.310  55.524  51.176  0.00  0.00    +0.000 C 
ATOM     13  N   UNL     1     -13.274  56.333  52.213  0.00  0.00    +0.000 N 
ATOM     14  N   UNL     1     -14.428  55.469  50.351  0.00  0.00    +0.000 N 
ATOM     15  S   UNL     1     -14.575  57.328  52.390  0.00  0.00    +0.000 S 
ATOM     16  C   UNL     1     -14.622  56.764  49.796  0.00  0.00    +0.000 A 
ATOM     17  O   UNL     1     -14.170  58.506  53.138  0.00  0.00    +0.000 OA
ATOM     18  O   UNL     1     -15.744  56.549  52.756  0.00  0.00    +0.000 OA
ATOM     19  C   UNL     1     -14.827  57.825  50.688  0.00  0.00    +0.000 A 
ATOM     20  C   UNL     1     -14.132  57.025  48.520  0.00  0.00    +0.000 A 
ATOM     21  C   UNL     1     -14.705  59.148  50.290  0.00  0.00    +0.000 A 
ATOM     22  C   UNL     1     -13.907  58.343  48.138  0.00  0.00    +0.000 A 
ATOM     23  C   UNL     1     -14.231  59.399  49.002  0.00  0.00    +0.000 A 
ATOM     24  H   UNL     1     -12.518  56.342  52.844  0.00  0.00    +0.000 HD
ATOM     25  H   UNL     1     -14.987  54.676  50.182  0.00  0.00    +0.000 HD
ENDBRANCH   5  12
BRANCH   1  26
ATOM     26  N   UNL     1      -9.294  55.037  48.349  0.00  0.00    +0.000 N 
ATOM     27  H   UNL     1      -8.313  55.105  48.383  0.00  0.00    +0.000 HD
BRANCH  26  28
ATOM     28  C   UNL     1     -10.079  55.486  47.189  0.00  0.00    +0.000 C 
BRANCH  28  35
ATOM     29 BR   UNL     1      -9.878  51.166  42.730  0.00  0.00    +0.000 Br
ATOM     30  C   UNL     1      -9.932  52.495  44.073  0.00  0.00    +0.000 A 
ATOM     31  C   UNL     1      -8.747  53.076  44.523  0.00  0.00    +0.000 A 
ATOM     32  C   UNL     1     -11.157  52.883  44.611  0.00  0.00    +0.000 A 
ATOM     33  C   UNL     1      -8.788  54.048  45.528  0.00  0.00    +0.000 A 
ATOM     34  C   UNL     1     -11.196  53.849  45.618  0.00  0.00    +0.000 A 
ATOM     35  C   UNL     1     -10.013  54.437  46.095  0.00  0.00    +0.000 A 
ENDBRANCH  28  35
ENDBRANCH  26  28
ENDBRANCH   1  26
BRANCH   8  36
ATOM     36  O   UNL     1     -12.876  52.760  52.040  0.00  0.00    +0.000 OA
ATOM     37  H   UNL     1     -13.416  53.259  52.622  0.00  0.00    +0.000 HD
ENDBRANCH   8  36
TORSDOF 5
ENDMDL
MODEL 2
REMARK VINA RESULT:      -9.0      2.452      5.569
REMARK  Name = 
REMARK  5 active torsions:
REMARK  status: ('A' for Active; 'I' for Inactive)
REMARK    1  A    between atoms: C_7  and  C_8
REMARK    2  A    between atoms: C_8  and  N_9
REMARK    3  A    between atoms: N_9  and  N_10
REMARK    4  A    between atoms: C_14  and  C_17
REMARK    5  A    between atoms: C_18  and  O_23
REMARK                            x       y       z     vdW  Elec       q    Type
REMARK                         _______ _______ _______ _____ _____    ______ ____
ROOT
ATOM      1  N   UNL     1     -13.020  55.810  48.765  0.00  0.00    +0.000 N 
ATOM      2  C   UNL     1     -12.514  54.861  49.652  0.00  0.00    +0.000 A 
ATOM      3  C   UNL     1     -13.524  57.059  49.221  0.00  0.00    +0.000 A 
ATOM      4  O   UNL     1     -12.094  53.767  49.268  0.00  0.00    +0.000 OA
ATOM      5  C   UNL     1     -12.441  55.241  51.100  0.00  0.00    +0.000 A 
ATOM      6  C   UNL     1     -13.685  57.270  50.602  0.00  0.00    +0.000 A 
ATOM      7  C   UNL     1     -13.795  58.105  48.330  0.00  0.00    +0.000 A 
ATOM      8  C   UNL     1     -13.173  56.275  51.556  0.00  0.00    +0.000 A 
ATOM      9  C   UNL     1     -14.129  58.522  51.062  0.00  0.00    +0.000 A 
ATOM     10  C   UNL     1     -14.166  59.364  48.805  0.00  0.00    +0.000 A 
ATOM     11  C   UNL     1     -14.340  59.571  50.169  0.00  0.00    +0.000 A 
ENDROOT
BRANCH   5  12
ATOM     12  C   UNL     1     -11.565  54.442  52.027  0.00  0.00    +0.000 C 
ATOM     13  N   UNL     1     -11.593  53.127  52.002  0.00  0.00    +0.000 N 
ATOM     14  N   UNL     1     -10.677  55.122  52.853  0.00  0.00    +0.000 N 
ATOM     15  S   UNL     1     -10.450  52.369  52.915  0.00  0.00    +0.000 S 
ATOM     16  C   UNL     1      -9.359  54.749  52.473  0.00  0.00    +0.000 A 
ATOM     17  O   UNL     1     -10.201  51.049  52.360  0.00  0.00    +0.000 OA
ATOM     18  O   UNL     1     -10.734  52.570  54.325  0.00  0.00    +0.000 OA
ATOM     19  C   UNL     1      -9.024  53.390  52.550  0.00  0.00    +0.000 A 
ATOM     20  C   UNL     1      -8.648  55.584  51.616  0.00  0.00    +0.000 A 
ATOM     21  C   UNL     1      -7.905  52.876  51.913  0.00  0.00    +0.000 A 
ATOM     22  C   UNL     1      -7.583  55.060  50.891  0.00  0.00    +0.000 A 
ATOM     23  C   UNL     1      -7.188  53.726  51.070  0.00  0.00    +0.000 A 
ATOM     24  H   UNL     1     -12.255  52.627  51.471  0.00  0.00    +0.000 HD
ATOM     25  H   UNL     1     -10.918  55.749  53.573  0.00  0.00    +0.000 HD
ENDBRANCH   5  12
BRANCH   1  26
ATOM     26  N   UNL     1     -12.679  55.676  47.381  0.00  0.00    +0.000 N 
ATOM     27  H   UNL     1     -13.344  55.466  46.686  0.00  0.00    +0.000 HD
BRANCH  26  28
ATOM     28  C   UNL     1     -11.254  55.878  47.076  0.00  0.00    +0.000 C 
BRANCH  28  35
ATOM     29 BR   UNL     1      -9.242  51.464  43.196  0.00  0.00    +0.000 Br
ATOM     30  C   UNL     1      -9.863  52.792  44.388  0.00  0.00    +0.000 A 
ATOM     31  C   UNL     1     -11.232  53.022  44.520  0.00  0.00    +0.000 A 
ATOM     32  C   UNL     1      -8.948  53.539  45.126  0.00  0.00    +0.000 A 
ATOM     33  C   UNL     1     -11.689  54.016  45.391  0.00  0.00    +0.000 A 
ATOM     34  C   UNL     1      -9.405  54.536  45.991  0.00  0.00    +0.000 A 
ATOM     35  C   UNL     1     -10.779  54.792  46.128  0.00  0.00    +0.000 A 
ENDBRANCH  28  35
ENDBRANCH  26  28
ENDBRANCH   1  26
BRANCH   8  36
ATOM     36  O   UNL     1     -13.362  56.587  52.889  0.00  0.00    +0.000 OA
ATOM     37  H   UNL     1     -12.635  56.586  53.479  0.00  0.00    +0.000 HD
ENDBRANCH   8  36
TORSDOF 5
ENDMDL
MODEL 3
REMARK VINA RESULT:      -8.9      4.033      7.511
REMARK  Name = 
REMARK  5 active torsions:
REMARK  status: ('A' for Active; 'I' for Inactive)
REMARK    1  A    between atoms: C_7  and  C_8
REMARK    2  A    between atoms: C_8  and  N_9
REMARK    3  A    between atoms: N_9  and  N_10
REMARK    4  A    between atoms: C_14  and  C_17
REMARK    5  A    between atoms: C_18  and  O_23
REMARK                            x       y       z     vdW  Elec       q    Type
REMARK                         _______ _______ _______ _____ _____    ______ ____
ROOT
ATOM      1  N   UNL     1     -11.042  55.485  47.708  0.00  0.00    +0.000 N 
ATOM      2  C   UNL     1     -10.241  55.897  48.771  0.00  0.00    +0.000 A 
ATOM      3  C   UNL     1     -10.491  54.823  46.576  0.00  0.00    +0.000 A 
ATOM      4  O   UNL     1     -10.705  56.490  49.747  0.00  0.00    +0.000 OA
ATOM      5  C   UNL     1      -8.785  55.540  48.717  0.00  0.00    +0.000 A 
ATOM      6  C   UNL     1      -9.093  54.745  46.440  0.00  0.00    +0.000 A 
ATOM      7  C   UNL     1     -11.310  54.187  45.633  0.00  0.00    +0.000 A 
ATOM      8  C   UNL     1      -8.228  55.190  47.543  0.00  0.00    +0.000 A 
ATOM      9  C   UNL     1      -8.544  54.044  45.354  0.00  0.00    +0.000 A 
ATOM     10  C   UNL     1     -10.749  53.435  44.601  0.00  0.00    +0.000 A 
ATOM     11  C   UNL     1      -9.368  53.368  44.455  0.00  0.00    +0.000 A 
ENDROOT
BRANCH   5  12
ATOM     12  C   UNL     1      -7.965  55.604  49.977  0.00  0.00    +0.000 C 
ATOM     13  N   UNL     1      -8.424  55.093  51.099  0.00  0.00    +0.000 N 
ATOM     14  N   UNL     1      -6.685  56.146  49.910  0.00  0.00    +0.000 N 
ATOM     15  S   UNL     1      -7.356  55.045  52.353  0.00  0.00    +0.000 S 
ATOM     16  C   UNL     1      -5.760  55.116  50.232  0.00  0.00    +0.000 A 
ATOM     17  O   UNL     1      -7.744  53.980  53.263  0.00  0.00    +0.000 OA
ATOM     18  O   UNL     1      -7.083  56.393  52.818  0.00  0.00    +0.000 OA
ATOM     19  C   UNL     1      -5.879  54.512  51.492  0.00  0.00    +0.000 A 
ATOM     20  C   UNL     1      -5.139  54.426  49.196  0.00  0.00    +0.000 A 
ATOM     21  C   UNL     1      -5.260  53.306  51.785  0.00  0.00    +0.000 A 
ATOM     22  C   UNL     1      -4.600  53.168  49.448  0.00  0.00    +0.000 A 
ATOM     23  C   UNL     1      -4.624  52.631  50.743  0.00  0.00    +0.000 A 
ATOM     24  H   UNL     1      -9.347  54.761  51.184  0.00  0.00    +0.000 HD
ATOM     25  H   UNL     1      -6.461  57.077  49.680  0.00  0.00    +0.000 HD
ENDBRANCH   5  12
BRANCH   1  26
ATOM     26  N   UNL     1     -12.452  55.389  47.935  0.00  0.00    +0.000 N 
ATOM     27  H   UNL     1     -12.882  54.571  48.273  0.00  0.00    +0.000 HD
BRANCH  26  28
ATOM     28  C   UNL     1     -13.211  56.610  47.622  0.00  0.00    +0.000 C 
BRANCH  28  35
ATOM     29 BR   UNL     1     -15.337  59.173  52.865  0.00  0.00    +0.000 Br
ATOM     30  C   UNL     1     -14.709  58.387  51.265  0.00  0.00    +0.000 A 
ATOM     31  C   UNL     1     -14.809  57.009  51.083  0.00  0.00    +0.000 A 
ATOM     32  C   UNL     1     -14.146  59.191  50.277  0.00  0.00    +0.000 A 
ATOM     33  C   UNL     1     -14.329  56.428  49.904  0.00  0.00    +0.000 A 
ATOM     34  C   UNL     1     -13.663  58.609  49.103  0.00  0.00    +0.000 A 
ATOM     35  C   UNL     1     -13.741  57.221  48.906  0.00  0.00    +0.000 A 
ENDBRANCH  28  35
ENDBRANCH  26  28
ENDBRANCH   1  26
BRANCH   8  36
ATOM     36  O   UNL     1      -6.871  55.051  47.318  0.00  0.00    +0.000 OA
ATOM     37  H   UNL     1      -6.305  54.782  48.014  0.00  0.00    +0.000 HD
ENDBRANCH   8  36
TORSDOF 5
ENDMDL
MODEL 4
REMARK VINA RESULT:      -8.8      3.512      5.213
REMARK  Name = 
REMARK  5 active torsions:
REMARK  status: ('A' for Active; 'I' for Inactive)
REMARK    1  A    between atoms: C_7  and  C_8
REMARK    2  A    between atoms: C_8  and  N_9
REMARK    3  A    between atoms: N_9  and  N_10
REMARK    4  A    between atoms: C_14  and  C_17
REMARK    5  A    between atoms: C_18  and  O_23
REMARK                            x       y       z     vdW  Elec       q    Type
REMARK                         _______ _______ _______ _____ _____    ______ ____
ROOT
ATOM      1  N   UNL     1     -10.558  53.769  50.170  0.00  0.00    +0.000 N 
ATOM      2  C   UNL     1     -11.900  54.085  50.371  0.00  0.00    +0.000 A 
ATOM      3  C   UNL     1      -9.857  54.209  49.013  0.00  0.00    +0.000 A 
ATOM      4  O   UNL     1     -12.523  53.691  51.360  0.00  0.00    +0.000 OA
ATOM      5  C   UNL     1     -12.557  54.981  49.364  0.00  0.00    +0.000 A 
ATOM      6  C   UNL     1     -10.574  54.817  47.967  0.00  0.00    +0.000 A 
ATOM      7  C   UNL     1      -8.462  54.115  48.925  0.00  0.00    +0.000 A 
ATOM      8  C   UNL     1     -11.996  55.145  48.152  0.00  0.00    +0.000 A 
ATOM      9  C   UNL     1      -9.880  55.305  46.847  0.00  0.00    +0.000 A 
ATOM     10  C   UNL     1      -7.781  54.667  47.841  0.00  0.00    +0.000 A 
ATOM     11  C   UNL     1      -8.488  55.255  46.798  0.00  0.00    +0.000 A 
ENDROOT
BRANCH   5  12
ATOM     12  C   UNL     1     -13.851  55.663  49.719  0.00  0.00    +0.000 C 
ATOM     13  N   UNL     1     -14.362  55.538  50.925  0.00  0.00    +0.000 N 
ATOM     14  N   UNL     1     -14.450  56.486  48.771  0.00  0.00    +0.000 N 
ATOM     15  S   UNL     1     -15.666  56.490  51.252  0.00  0.00    +0.000 S 
ATOM     16  C   UNL     1     -14.460  57.809  49.288  0.00  0.00    +0.000 A 
ATOM     17  O   UNL     1     -15.745  56.708  52.687  0.00  0.00    +0.000 OA
ATOM     18  O   UNL     1     -16.809  56.041  50.478  0.00  0.00    +0.000 OA
ATOM     19  C   UNL     1     -15.135  58.026  50.497  0.00  0.00    +0.000 A 
ATOM     20  C   UNL     1     -13.454  58.688  48.897  0.00  0.00    +0.000 A 
ATOM     21  C   UNL     1     -14.941  59.176  51.247  0.00  0.00    +0.000 A 
ATOM     22  C   UNL     1     -13.176  59.796  49.691  0.00  0.00    +0.000 A 
ATOM     23  C   UNL     1     -13.943  60.060  50.835  0.00  0.00    +0.000 A 
ATOM     24  H   UNL     1     -13.988  54.915  51.590  0.00  0.00    +0.000 HD
ATOM     25  H   UNL     1     -14.805  56.201  47.897  0.00  0.00    +0.000 HD
ENDBRANCH   5  12
BRANCH   1  26
ATOM     26  N   UNL     1      -9.799  53.333  51.302  0.00  0.00    +0.000 N 
ATOM     27  H   UNL     1      -9.453  52.415  51.389  0.00  0.00    +0.000 HD
BRANCH  26  28
ATOM     28  C   UNL     1      -9.577  54.363  52.328  0.00  0.00    +0.000 C 
BRANCH  28  35
ATOM     29 BR   UNL     1      -3.540  54.690  53.757  0.00  0.00    +0.000 Br
ATOM     30  C   UNL     1      -5.378  54.572  53.333  0.00  0.00    +0.000 A 
ATOM     31  C   UNL     1      -5.837  53.543  52.511  0.00  0.00    +0.000 A 
ATOM     32  C   UNL     1      -6.265  55.519  53.840  0.00  0.00    +0.000 A 
ATOM     33  C   UNL     1      -7.195  53.468  52.185  0.00  0.00    +0.000 A 
ATOM     34  C   UNL     1      -7.620  55.445  53.510  0.00  0.00    +0.000 A 
ATOM     35  C   UNL     1      -8.099  54.425  52.673  0.00  0.00    +0.000 A 
ENDBRANCH  28  35
ENDBRANCH  26  28
ENDBRANCH   1  26
BRANCH   8  36
ATOM     36  O   UNL     1     -12.602  55.759  47.072  0.00  0.00    +0.000 OA
ATOM     37  H   UNL     1     -13.512  55.981  47.108  0.00  0.00    +0.000 HD
ENDBRANCH   8  36
TORSDOF 5
ENDMDL
MODEL 5
REMARK VINA RESULT:      -8.7      3.716      7.047
REMARK  Name = 
REMARK  5 active torsions:
REMARK  status: ('A' for Active; 'I' for Inactive)
REMARK    1  A    between atoms: C_7  and  C_8
REMARK    2  A    between atoms: C_8  and  N_9
REMARK    3  A    between atoms: N_9  and  N_10
REMARK    4  A    between atoms: C_14  and  C_17
REMARK    5  A    between atoms: C_18  and  O_23
REMARK                            x       y       z     vdW  Elec       q    Type
REMARK                         _______ _______ _______ _____ _____    ______ ____
ROOT
ATOM      1  N   UNL     1     -11.027  55.041  47.545  0.00  0.00    +0.000 N 
ATOM      2  C   UNL     1     -10.154  55.223  48.617  0.00  0.00    +0.000 A 
ATOM      3  C   UNL     1     -10.605  54.410  46.343  0.00  0.00    +0.000 A 
ATOM      4  O   UNL     1     -10.504  55.788  49.655  0.00  0.00    +0.000 OA
ATOM      5  C   UNL     1      -8.775  54.650  48.488  0.00  0.00    +0.000 A 
ATOM      6  C   UNL     1      -9.239  54.127  46.159  0.00  0.00    +0.000 A 
ATOM      7  C   UNL     1     -11.528  53.999  45.372  0.00  0.00    +0.000 A 
ATOM      8  C   UNL     1      -8.298  54.328  47.271  0.00  0.00    +0.000 A 
ATOM      9  C   UNL     1      -8.824  53.453  44.999  0.00  0.00    +0.000 A 
ATOM     10  C   UNL     1     -11.109  53.268  44.260  0.00  0.00    +0.000 A 
ATOM     11  C   UNL     1      -9.758  53.001  44.068  0.00  0.00    +0.000 A 
ENDROOT
BRANCH   5  12
ATOM     12  C   UNL     1      -7.935  54.469  49.723  0.00  0.00    +0.000 C 
ATOM     13  N   UNL     1      -7.626  55.501  50.478  0.00  0.00    +0.000 N 
ATOM     14  N   UNL     1      -7.559  53.180  50.088  0.00  0.00    +0.000 N 
ATOM     15  S   UNL     1      -6.878  55.148  51.903  0.00  0.00    +0.000 S 
ATOM     16  C   UNL     1      -8.159  52.891  51.343  0.00  0.00    +0.000 A 
ATOM     17  O   UNL     1      -7.135  56.222  52.849  0.00  0.00    +0.000 OA
ATOM     18  O   UNL     1      -5.538  54.653  51.646  0.00  0.00    +0.000 OA
ATOM     19  C   UNL     1      -7.838  53.727  52.421  0.00  0.00    +0.000 A 
ATOM     20  C   UNL     1      -9.349  52.169  51.366  0.00  0.00    +0.000 A 
ATOM     21  C   UNL     1      -8.593  53.743  53.584  0.00  0.00    +0.000 A 
ATOM     22  C   UNL     1     -10.170  52.253  52.485  0.00  0.00    +0.000 A 
ATOM     23  C   UNL     1      -9.774  53.001  53.603  0.00  0.00    +0.000 A 
ATOM     24  H   UNL     1      -7.830  56.426  50.207  0.00  0.00    +0.000 HD
ATOM     25  H   UNL     1      -6.979  52.576  49.569  0.00  0.00    +0.000 HD
ENDBRANCH   5  12
BRANCH   1  26
ATOM     26  N   UNL     1     -12.431  55.146  47.805  0.00  0.00    +0.000 N 
ATOM     27  H   UNL     1     -12.967  54.392  48.140  0.00  0.00    +0.000 HD
BRANCH  26  28
ATOM     28  C   UNL     1     -13.011  56.470  47.531  0.00  0.00    +0.000 C 
BRANCH  28  35
ATOM     29 BR   UNL     1     -15.168  58.973  52.791  0.00  0.00    +0.000 Br
ATOM     30  C   UNL     1     -14.530  58.203  51.187  0.00  0.00    +0.000 A 
ATOM     31  C   UNL     1     -14.465  56.816  51.060  0.00  0.00    +0.000 A 
ATOM     32  C   UNL     1     -14.124  59.027  50.140  0.00  0.00    +0.000 A 
ATOM     33  C   UNL     1     -13.978  56.249  49.879  0.00  0.00    +0.000 A 
ATOM     34  C   UNL     1     -13.633  58.459  48.962  0.00  0.00    +0.000 A 
ATOM     35  C   UNL     1     -13.546  57.066  48.821  0.00  0.00    +0.000 A 
ENDBRANCH  28  35
ENDBRANCH  26  28
ENDBRANCH   1  26
BRANCH   8  36
ATOM     36  O   UNL     1      -6.984  54.000  46.994  0.00  0.00    +0.000 OA
ATOM     37  H   UNL     1      -6.768  53.140  46.691  0.00  0.00    +0.000 HD
ENDBRANCH   8  36
TORSDOF 5
ENDMDL
MODEL 6
REMARK VINA RESULT:      -8.6      4.485      7.726
REMARK  Name = 
REMARK  5 active torsions:
REMARK  status: ('A' for Active; 'I' for Inactive)
REMARK    1  A    between atoms: C_7  and  C_8
REMARK    2  A    between atoms: C_8  and  N_9
REMARK    3  A    between atoms: N_9  and  N_10
REMARK    4  A    between atoms: C_14  and  C_17
REMARK    5  A    between atoms: C_18  and  O_23
REMARK                            x       y       z     vdW  Elec       q    Type
REMARK                         _______ _______ _______ _____ _____    ______ ____
ROOT
ATOM      1  N   UNL     1      -9.643  54.996  48.759  0.00  0.00    +0.000 N 
ATOM      2  C   UNL     1      -8.811  55.056  49.876  0.00  0.00    +0.000 A 
ATOM      3  C   UNL     1      -9.128  54.711  47.464  0.00  0.00    +0.000 A 
ATOM      4  O   UNL     1      -9.245  55.324  50.999  0.00  0.00    +0.000 OA
ATOM      5  C   UNL     1      -7.363  54.723  49.677  0.00  0.00    +0.000 A 
ATOM      6  C   UNL     1      -7.735  54.668  47.275  0.00  0.00    +0.000 A 
ATOM      7  C   UNL     1      -9.977  54.401  46.394  0.00  0.00    +0.000 A 
ATOM      8  C   UNL     1      -6.838  54.747  48.438  0.00  0.00    +0.000 A 
ATOM      9  C   UNL     1      -7.220  54.331  46.012  0.00  0.00    +0.000 A 
ATOM     10  C   UNL     1      -9.451  53.998  45.166  0.00  0.00    +0.000 A 
ATOM     11  C   UNL     1      -8.074  53.970  44.971  0.00  0.00    +0.000 A 
ENDROOT
BRANCH   5  12
ATOM     12  C   UNL     1      -6.513  54.392  50.874  0.00  0.00    +0.000 C 
ATOM     13  N   UNL     1      -6.395  55.248  51.866  0.00  0.00    +0.000 N 
ATOM     14  N   UNL     1      -5.921  53.135  50.940  0.00  0.00    +0.000 N 
ATOM     15  S   UNL     1      -5.607  54.691  53.202  0.00  0.00    +0.000 S 
ATOM     16  C   UNL     1      -6.470  52.454  52.061  0.00  0.00    +0.000 A 
ATOM     17  O   UNL     1      -6.053  55.445  54.362  0.00  0.00    +0.000 OA
ATOM     18  O   UNL     1      -4.199  54.505  52.900  0.00  0.00    +0.000 OA
ATOM     19  C   UNL     1      -6.307  53.047  53.320  0.00  0.00    +0.000 A 
ATOM     20  C   UNL     1      -7.515  51.559  51.854  0.00  0.00    +0.000 A 
ATOM     21  C   UNL     1      -7.061  52.654  54.416  0.00  0.00    +0.000 A 
ATOM     22  C   UNL     1      -8.346  51.231  52.919  0.00  0.00    +0.000 A 
ATOM     23  C   UNL     1      -8.095  51.742  54.201  0.00  0.00    +0.000 A 
ATOM     24  H   UNL     1      -6.755  56.163  51.813  0.00  0.00    +0.000 HD
ATOM     25  H   UNL     1      -5.241  52.781  50.322  0.00  0.00    +0.000 HD
ENDBRANCH   5  12
BRANCH   1  26
ATOM     26  N   UNL     1     -11.049  54.845  48.983  0.00  0.00    +0.000 N 
ATOM     27  H   UNL     1     -11.434  54.057  49.430  0.00  0.00    +0.000 HD
BRANCH  26  28
ATOM     28  C   UNL     1     -11.874  55.959  48.491  0.00  0.00    +0.000 C 
BRANCH  28  35
ATOM     29 BR   UNL     1     -15.120  58.439  53.171  0.00  0.00    +0.000 Br
ATOM     30  C   UNL     1     -14.146  57.669  51.746  0.00  0.00    +0.000 A 
ATOM     31  C   UNL     1     -13.530  56.430  51.916  0.00  0.00    +0.000 A 
ATOM     32  C   UNL     1     -14.045  58.347  50.534  0.00  0.00    +0.000 A 
ATOM     33  C   UNL     1     -12.796  55.869  50.865  0.00  0.00    +0.000 A 
ATOM     34  C   UNL     1     -13.308  57.788  49.487  0.00  0.00    +0.000 A 
ATOM     35  C   UNL     1     -12.669  56.549  49.643  0.00  0.00    +0.000 A 
ENDBRANCH  28  35
ENDBRANCH  26  28
ENDBRANCH   1  26
BRANCH   8  36
ATOM     36  O   UNL     1      -5.489  54.675  48.145  0.00  0.00    +0.000 OA
ATOM     37  H   UNL     1      -5.201  54.684  47.254  0.00  0.00    +0.000 HD
ENDBRANCH   8  36
TORSDOF 5
ENDMDL
MODEL 7
REMARK VINA RESULT:      -8.5      3.108      5.870
REMARK  Name = 
REMARK  5 active torsions:
REMARK  status: ('A' for Active; 'I' for Inactive)
REMARK    1  A    between atoms: C_7  and  C_8
REMARK    2  A    between atoms: C_8  and  N_9
REMARK    3  A    between atoms: N_9  and  N_10
REMARK    4  A    between atoms: C_14  and  C_17
REMARK    5  A    between atoms: C_18  and  O_23
REMARK                            x       y       z     vdW  Elec       q    Type
REMARK                         _______ _______ _______ _____ _____    ______ ____
ROOT
ATOM      1  N   UNL     1     -11.342  55.255  48.275  0.00  0.00    +0.000 N 
ATOM      2  C   UNL     1     -10.475  54.560  49.117  0.00  0.00    +0.000 A 
ATOM      3  C   UNL     1     -12.332  56.136  48.792  0.00  0.00    +0.000 A 
ATOM      4  O   UNL     1      -9.628  53.778  48.681  0.00  0.00    +0.000 OA
ATOM      5  C   UNL     1     -10.567  54.843  50.587  0.00  0.00    +0.000 A 
ATOM      6  C   UNL     1     -12.563  56.171  50.179  0.00  0.00    +0.000 A 
ATOM      7  C   UNL     1     -13.028  57.020  47.957  0.00  0.00    +0.000 A 
ATOM      8  C   UNL     1     -11.670  55.432  51.084  0.00  0.00    +0.000 A 
ATOM      9  C   UNL     1     -13.499  57.079  50.700  0.00  0.00    +0.000 A 
ATOM     10  C   UNL     1     -13.901  57.966  48.497  0.00  0.00    +0.000 A 
ATOM     11  C   UNL     1     -14.143  57.991  49.866  0.00  0.00    +0.000 A 
ENDROOT
BRANCH   5  12
ATOM     12  C   UNL     1      -9.431  54.438  51.487  0.00  0.00    +0.000 C 
ATOM     13  N   UNL     1      -9.195  53.167  51.733  0.00  0.00    +0.000 N 
ATOM     14  N   UNL     1      -8.594  55.430  51.986  0.00  0.00    +0.000 N 
ATOM     15  S   UNL     1      -7.809  52.844  52.564  0.00  0.00    +0.000 S 
ATOM     16  C   UNL     1      -7.292  55.204  51.462  0.00  0.00    +0.000 A 
ATOM     17  O   UNL     1      -7.376  51.492  52.253  0.00  0.00    +0.000 OA
ATOM     18  O   UNL     1      -7.933  53.317  53.931  0.00  0.00    +0.000 OA
ATOM     19  C   UNL     1      -6.683  53.976  51.752  0.00  0.00    +0.000 A 
ATOM     20  C   UNL     1      -6.887  55.923  50.341  0.00  0.00    +0.000 A 
ATOM     21  C   UNL     1      -5.579  53.522  51.044  0.00  0.00    +0.000 A 
ATOM     22  C   UNL     1      -5.848  55.431  49.560  0.00  0.00    +0.000 A 
ATOM     23  C   UNL     1      -5.171  54.261  49.933  0.00  0.00    +0.000 A 
ATOM     24  H   UNL     1      -9.809  52.455  51.441  0.00  0.00    +0.000 HD
ATOM     25  H   UNL     1      -8.856  56.158  52.596  0.00  0.00    +0.000 HD
ENDBRANCH   5  12
BRANCH   1  26
ATOM     26  N   UNL     1     -10.981  55.368  46.895  0.00  0.00    +0.000 N 
ATOM     27  H   UNL     1     -10.266  55.967  46.580  0.00  0.00    +0.000 HD
BRANCH  26  28
ATOM     28  C   UNL     1     -11.762  54.520  45.982  0.00  0.00    +0.000 C 
BRANCH  28  35
ATOM     29 BR   UNL     1      -7.873  50.865  42.804  0.00  0.00    +0.000 Br
ATOM     30  C   UNL     1      -9.061  51.960  43.783  0.00  0.00    +0.000 A 
ATOM     31  C   UNL     1     -10.431  51.702  43.751  0.00  0.00    +0.000 A 
ATOM     32  C   UNL     1      -8.562  53.025  44.529  0.00  0.00    +0.000 A 
ATOM     33  C   UNL     1     -11.310  52.524  44.463  0.00  0.00    +0.000 A 
ATOM     34  C   UNL     1      -9.441  53.848  45.236  0.00  0.00    +0.000 A 
ATOM     35  C   UNL     1     -10.825  53.613  45.205  0.00  0.00    +0.000 A 
ENDBRANCH  28  35
ENDBRANCH  26  28
ENDBRANCH   1  26
BRANCH   8  36
ATOM     36  O   UNL     1     -11.971  55.548  52.429  0.00  0.00    +0.000 OA
ATOM     37  H   UNL     1     -12.855  55.448  52.722  0.00  0.00    +0.000 HD
ENDBRANCH   8  36
TORSDOF 5
ENDMDL
MODEL 8
REMARK VINA RESULT:      -8.4      3.178      4.045
REMARK  Name = 
REMARK  5 active torsions:
REMARK  status: ('A' for Active; 'I' for Inactive)
REMARK    1  A    between atoms: C_7  and  C_8
REMARK    2  A    between atoms: C_8  and  N_9
REMARK    3  A    between atoms: N_9  and  N_10
REMARK    4  A    between atoms: C_14  and  C_17
REMARK    5  A    between atoms: C_18  and  O_23
REMARK                            x       y       z     vdW  Elec       q    Type
REMARK                         _______ _______ _______ _____ _____    ______ ____
ROOT
ATOM      1  N   UNL     1      -6.677  55.290  49.708  0.00  0.00    +0.000 N 
ATOM      2  C   UNL     1      -8.039  55.572  49.632  0.00  0.00    +0.000 A 
ATOM      3  C   UNL     1      -6.094  54.756  50.891  0.00  0.00    +0.000 A 
ATOM      4  O   UNL     1      -8.550  56.055  48.620  0.00  0.00    +0.000 OA
ATOM      5  C   UNL     1      -8.886  55.210  50.815  0.00  0.00    +0.000 A 
ATOM      6  C   UNL     1      -6.868  54.680  52.063  0.00  0.00    +0.000 A 
ATOM      7  C   UNL     1      -4.792  54.237  50.892  0.00  0.00    +0.000 A 
ATOM      8  C   UNL     1      -8.304  54.990  52.009  0.00  0.00    +0.000 A 
ATOM      9  C   UNL     1      -6.316  54.101  53.218  0.00  0.00    +0.000 A 
ATOM     10  C   UNL     1      -4.284  53.601  52.025  0.00  0.00    +0.000 A 
ATOM     11  C   UNL     1      -5.041  53.539  53.190  0.00  0.00    +0.000 A 
ENDROOT
BRANCH   5  12
ATOM     12  C   UNL     1     -10.380  55.125  50.652  0.00  0.00    +0.000 C 
ATOM     13  N   UNL     1     -11.150  56.122  51.031  0.00  0.00    +0.000 N 
ATOM     14  N   UNL     1     -10.916  54.005  50.025  0.00  0.00    +0.000 N 
ATOM     15  S   UNL     1     -12.740  55.994  50.617  0.00  0.00    +0.000 S 
ATOM     16  C   UNL     1     -11.546  54.438  48.827  0.00  0.00    +0.000 A 
ATOM     17  O   UNL     1     -13.317  57.326  50.541  0.00  0.00    +0.000 OA
ATOM     18  O   UNL     1     -13.363  54.929  51.381  0.00  0.00    +0.000 OA
ATOM     19  C   UNL     1     -12.584  55.374  48.944  0.00  0.00    +0.000 A 
ATOM     20  C   UNL     1     -10.847  54.335  47.628  0.00  0.00    +0.000 A 
ATOM     21  C   UNL     1     -13.042  56.097  47.853  0.00  0.00    +0.000 A 
ATOM     22  C   UNL     1     -11.229  55.129  46.552  0.00  0.00    +0.000 A 
ATOM     23  C   UNL     1     -12.345  55.973  46.651  0.00  0.00    +0.000 A 
ATOM     24  H   UNL     1     -10.799  56.894  51.530  0.00  0.00    +0.000 HD
ATOM     25  H   UNL     1     -10.869  53.078  50.354  0.00  0.00    +0.000 HD
ENDBRANCH   5  12
BRANCH   1  26
ATOM     26  N   UNL     1      -5.949  55.182  48.480  0.00  0.00    +0.000 N 
ATOM     27  H   UNL     1      -5.589  55.965  48.005  0.00  0.00    +0.000 HD
BRANCH  26  28
ATOM     28  C   UNL     1      -5.780  53.808  47.984  0.00  0.00    +0.000 C 
BRANCH  28  35
ATOM     29 BR   UNL     1      -9.939  52.613  43.527  0.00  0.00    +0.000 Br
ATOM     30  C   UNL     1      -8.687  52.991  44.891  0.00  0.00    +0.000 A 
ATOM     31  C   UNL     1      -8.103  54.255  44.968  0.00  0.00    +0.000 A 
ATOM     32  C   UNL     1      -8.350  52.001  45.811  0.00  0.00    +0.000 A 
ATOM     33  C   UNL     1      -7.164  54.527  45.968  0.00  0.00    +0.000 A 
ATOM     34  C   UNL     1      -7.409  52.272  46.807  0.00  0.00    +0.000 A 
ATOM     35  C   UNL     1      -6.799  53.534  46.892  0.00  0.00    +0.000 A 
ENDBRANCH  28  35
ENDBRANCH  26  28
ENDBRANCH   1  26
BRANCH   8  36
ATOM     36  O   UNL     1      -8.978  54.865  53.210  0.00  0.00    +0.000 OA
ATOM     37  H   UNL     1      -9.361  54.045  53.449  0.00  0.00    +0.000 HD
ENDBRANCH   8  36
TORSDOF 5
ENDMDL
MODEL 9
REMARK VINA RESULT:      -8.2      3.032      4.480
REMARK  Name = 
REMARK  5 active torsions:
REMARK  status: ('A' for Active; 'I' for Inactive)
REMARK    1  A    between atoms: C_7  and  C_8
REMARK    2  A    between atoms: C_8  and  N_9
REMARK    3  A    between atoms: N_9  and  N_10
REMARK    4  A    between atoms: C_14  and  C_17
REMARK    5  A    between atoms: C_18  and  O_23
REMARK                            x       y       z     vdW  Elec       q    Type
REMARK                         _______ _______ _______ _____ _____    ______ ____
ROOT
ATOM      1  N   UNL     1      -9.442  55.134  51.006  0.00  0.00    +0.000 N 
ATOM      2  C   UNL     1     -10.731  55.305  51.509  0.00  0.00    +0.000 A 
ATOM      3  C   UNL     1      -9.200  55.008  49.610  0.00  0.00    +0.000 A 
ATOM      4  O   UNL     1     -10.953  55.393  52.718  0.00  0.00    +0.000 OA
ATOM      5  C   UNL     1     -11.846  55.439  50.516  0.00  0.00    +0.000 A 
ATOM      6  C   UNL     1     -10.292  54.872  48.734  0.00  0.00    +0.000 A 
ATOM      7  C   UNL     1      -7.904  55.091  49.084  0.00  0.00    +0.000 A 
ATOM      8  C   UNL     1     -11.661  55.031  49.247  0.00  0.00    +0.000 A 
ATOM      9  C   UNL     1     -10.062  54.804  47.350  0.00  0.00    +0.000 A 
ATOM     10  C   UNL     1      -7.698  55.096  47.704  0.00  0.00    +0.000 A 
ATOM     11  C   UNL     1      -8.774  54.944  46.837  0.00  0.00    +0.000 A 
ENDROOT
BRANCH   5  12
ATOM     12  C   UNL     1     -13.167  56.005  50.965  0.00  0.00    +0.000 C 
ATOM     13  N   UNL     1     -13.298  56.515  52.170  0.00  0.00    +0.000 N 
ATOM     14  N   UNL     1     -14.217  56.044  50.054  0.00  0.00    +0.000 N 
ATOM     15  S   UNL     1     -14.726  57.281  52.471  0.00  0.00    +0.000 S 
ATOM     16  C   UNL     1     -14.542  57.409  49.825  0.00  0.00    +0.000 A 
ATOM     17  O   UNL     1     -14.522  58.262  53.524  0.00  0.00    +0.000 OA
ATOM     18  O   UNL     1     -15.804  56.311  52.521  0.00  0.00    +0.000 OA
ATOM     19  C   UNL     1     -14.936  58.173  50.932  0.00  0.00    +0.000 A 
ATOM     20  C   UNL     1     -14.014  58.045  48.705  0.00  0.00    +0.000 A 
ATOM     21  C   UNL     1     -14.963  59.559  50.891  0.00  0.00    +0.000 A 
ATOM     22  C   UNL     1     -13.938  59.433  48.688  0.00  0.00    +0.000 A 
ATOM     23  C   UNL     1     -14.448  60.186  49.756  0.00  0.00    +0.000 A 
ATOM     24  H   UNL     1     -12.589  56.442  52.850  0.00  0.00    +0.000 HD
ATOM     25  H   UNL     1     -14.657  55.265  49.641  0.00  0.00    +0.000 HD
ENDBRANCH   5  12
BRANCH   1  26
ATOM     26  N   UNL     1      -8.344  55.467  51.862  0.00  0.00    +0.000 N 
ATOM     27  H   UNL     1      -7.922  56.356  51.864  0.00  0.00    +0.000 HD
BRANCH  26  28
ATOM     28  C   UNL     1      -7.893  54.375  52.739  0.00  0.00    +0.000 C 
BRANCH  28  35
ATOM     29 BR   UNL     1      -3.449  51.145  49.840  0.00  0.00    +0.000 Br
ATOM     30  C   UNL     1      -4.801  52.114  50.738  0.00  0.00    +0.000 A 
ATOM     31  C   UNL     1      -6.046  51.527  50.960  0.00  0.00    +0.000 A 
ATOM     32  C   UNL     1      -4.547  53.414  51.169  0.00  0.00    +0.000 A 
ATOM     33  C   UNL     1      -7.050  52.252  51.610  0.00  0.00    +0.000 A 
ATOM     34  C   UNL     1      -5.552  54.138  51.814  0.00  0.00    +0.000 A 
ATOM     35  C   UNL     1      -6.816  53.570  52.034  0.00  0.00    +0.000 A 
ENDBRANCH  28  35
ENDBRANCH  26  28
ENDBRANCH   1  26
BRANCH   8  36
ATOM     36  O   UNL     1     -12.661  54.899  48.301  0.00  0.00    +0.000 OA
ATOM     37  H   UNL     1     -12.662  55.444  47.539  0.00  0.00    +0.000 HD
ENDBRANCH   8  36
TORSDOF 5
ENDMDL
