MODEL 1
REMARK VINA RESULT:      -8.3      0.000      0.000
REMARK  Name = 
REMARK  5 active torsions:
REMARK  status: ('A' for Active; 'I' for Inactive)
REMARK    1  A    between atoms: C_6  and  C_10
REMARK    2  A    between atoms: C_14  and  O_18
REMARK    3  A    between atoms: N_17  and  N_20
REMARK    4  A    between atoms: N_20  and  C_23
REMARK    5  A    between atoms: C_23  and  C_26
REMARK                            x       y       z     vdW  Elec       q    Type
REMARK                         _______ _______ _______ _____ _____    ______ ____
ROOT
ATOM      1  C   UNL     1     -11.348  53.919  51.556  0.00  0.00    +0.000 A 
ATOM      2  C   UNL     1     -10.393  54.086  52.691  0.00  0.00    +0.000 A 
ATOM      3  C   UNL     1     -11.485  52.726  50.952  0.00  0.00    +0.000 A 
ATOM      4  O   UNL     1     -10.288  55.214  53.182  0.00  0.00    +0.000 OA
ATOM      5  N   UNL     1      -9.701  52.958  53.145  0.00  0.00    +0.000 N 
ATOM      6  C   UNL     1     -10.728  51.557  51.425  0.00  0.00    +0.000 A 
ATOM      7  C   UNL     1      -9.846  51.686  52.513  0.00  0.00    +0.000 A 
ATOM      8  C   UNL     1     -10.892  50.303  50.811  0.00  0.00    +0.000 A 
ATOM      9  C   UNL     1      -9.136  50.557  52.953  0.00  0.00    +0.000 A 
ATOM     10  C   UNL     1     -10.194  49.188  51.269  0.00  0.00    +0.000 A 
ATOM     11  C   UNL     1      -9.314  49.315  52.337  0.00  0.00    +0.000 A 
ENDROOT
BRANCH   1  17
ATOM     12  S   UNL     1     -12.899  56.785  49.364  0.00  0.00    +0.000 S 
ATOM     13  O   UNL     1     -13.931  56.306  48.471  0.00  0.00    +0.000 OA
ATOM     14  O   UNL     1     -11.929  57.764  48.907  0.00  0.00    +0.000 OA
ATOM     15  N   UNL     1     -12.083  55.497  49.911  0.00  0.00    +0.000 N 
ATOM     16  C   UNL     1     -13.733  57.529  50.717  0.00  0.00    +0.000 A 
ATOM     17  C   UNL     1     -12.196  55.105  51.147  0.00  0.00    +0.000 C 
ATOM     18  C   UNL     1     -13.682  56.885  51.942  0.00  0.00    +0.000 A 
ATOM     19  C   UNL     1     -14.411  58.738  50.541  0.00  0.00    +0.000 A 
ATOM     20  N   UNL     1     -13.012  55.674  52.100  0.00  0.00    +0.000 N 
ATOM     21  C   UNL     1     -14.397  57.440  53.009  0.00  0.00    +0.000 A 
ATOM     22  C   UNL     1     -15.089  59.299  51.621  0.00  0.00    +0.000 A 
ATOM     23  C   UNL     1     -15.092  58.645  52.852  0.00  0.00    +0.000 A 
ATOM     24  H   UNL     1     -11.491  55.003  49.298  0.00  0.00    +0.000 HD
ATOM     25  H   UNL     1     -13.129  55.191  52.950  0.00  0.00    +0.000 HD
ENDBRANCH   1  17
BRANCH   3  26
ATOM     26  O   UNL     1     -12.341  52.483  49.892  0.00  0.00    +0.000 OA
ATOM     27  H   UNL     1     -12.247  51.701  49.384  0.00  0.00    +0.000 HD
ENDBRANCH   3  26
BRANCH   5  28
ATOM     28  N   UNL     1      -8.748  53.076  54.223  0.00  0.00    +0.000 N 
ATOM     29  H   UNL     1      -8.984  52.926  55.167  0.00  0.00    +0.000 HD
BRANCH  28  30
ATOM     30  C   UNL     1      -7.396  53.439  53.785  0.00  0.00    +0.000 C 
BRANCH  30  31
ATOM     31  C   UNL     1      -6.970  54.728  54.418  0.00  0.00    +0.000 C 
ATOM     32  C   UNL     1      -6.799  56.001  53.632  0.00  0.00    +0.000 C 
ATOM     33  C   UNL     1      -5.588  55.260  54.126  0.00  0.00    +0.000 C 
ENDBRANCH  30  31
ENDBRANCH  28  30
ENDBRANCH   5  28
TORSDOF 5
ENDMDL
MODEL 2
REMARK VINA RESULT:      -8.2      2.207      2.806
REMARK  Name = 
REMARK  5 active torsions:
REMARK  status: ('A' for Active; 'I' for Inactive)
REMARK    1  A    between atoms: C_6  and  C_10
REMARK    2  A    between atoms: C_14  and  O_18
REMARK    3  A    between atoms: N_17  and  N_20
REMARK    4  A    between atoms: N_20  and  C_23
REMARK    5  A    between atoms: C_23  and  C_26
REMARK                            x       y       z     vdW  Elec       q    Type
REMARK                         _______ _______ _______ _____ _____    ______ ____
ROOT
ATOM      1  C   UNL     1     -10.111  54.541  52.193  0.00  0.00    +0.000 A 
ATOM      2  C   UNL     1      -8.746  55.103  51.971  0.00  0.00    +0.000 A 
ATOM      3  C   UNL     1     -10.281  53.448  52.956  0.00  0.00    +0.000 A 
ATOM      4  O   UNL     1      -8.652  56.089  51.233  0.00  0.00    +0.000 OA
ATOM      5  N   UNL     1      -7.668  54.502  52.628  0.00  0.00    +0.000 N 
ATOM      6  C   UNL     1      -9.131  52.812  53.616  0.00  0.00    +0.000 A 
ATOM      7  C   UNL     1      -7.841  53.344  53.445  0.00  0.00    +0.000 A 
ATOM      8  C   UNL     1      -9.313  51.684  54.437  0.00  0.00    +0.000 A 
ATOM      9  C   UNL     1      -6.757  52.725  54.089  0.00  0.00    +0.000 A 
ATOM     10  C   UNL     1      -8.231  51.090  55.083  0.00  0.00    +0.000 A 
ATOM     11  C   UNL     1      -6.953  51.608  54.906  0.00  0.00    +0.000 A 
ENDROOT
BRANCH   1  17
ATOM     12  S   UNL     1     -12.576  56.033  49.524  0.00  0.00    +0.000 S 
ATOM     13  O   UNL     1     -13.475  55.039  48.980  0.00  0.00    +0.000 OA
ATOM     14  O   UNL     1     -11.971  57.028  48.657  0.00  0.00    +0.000 OA
ATOM     15  N   UNL     1     -11.383  55.252  50.292  0.00  0.00    +0.000 N 
ATOM     16  C   UNL     1     -13.505  56.931  50.712  0.00  0.00    +0.000 A 
ATOM     17  C   UNL     1     -11.296  55.267  51.590  0.00  0.00    +0.000 C 
ATOM     18  C   UNL     1     -13.189  56.756  52.049  0.00  0.00    +0.000 A 
ATOM     19  C   UNL     1     -14.520  57.797  50.297  0.00  0.00    +0.000 A 
ATOM     20  N   UNL     1     -12.181  55.880  52.449  0.00  0.00    +0.000 N 
ATOM     21  C   UNL     1     -13.966  57.420  53.004  0.00  0.00    +0.000 A 
ATOM     22  C   UNL     1     -15.264  58.480  51.256  0.00  0.00    +0.000 A 
ATOM     23  C   UNL     1     -14.994  58.284  52.609  0.00  0.00    +0.000 A 
ATOM     24  H   UNL     1     -10.712  54.758  49.767  0.00  0.00    +0.000 HD
ATOM     25  H   UNL     1     -12.096  55.686  53.410  0.00  0.00    +0.000 HD
ENDBRANCH   1  17
BRANCH   3  26
ATOM     26  O   UNL     1     -11.507  52.858  53.211  0.00  0.00    +0.000 OA
ATOM     27  H   UNL     1     -11.674  51.983  52.920  0.00  0.00    +0.000 HD
ENDBRANCH   3  26
BRANCH   5  28
ATOM     28  N   UNL     1      -6.327  54.994  52.423  0.00  0.00    +0.000 N 
ATOM     29  H   UNL     1      -5.953  55.755  52.924  0.00  0.00    +0.000 HD
BRANCH  28  30
ATOM     30  C   UNL     1      -5.571  54.258  51.404  0.00  0.00    +0.000 C 
BRANCH  30  31
ATOM     31  C   UNL     1      -5.540  55.029  50.120  0.00  0.00    +0.000 C 
ATOM     32  C   UNL     1      -6.303  54.598  48.896  0.00  0.00    +0.000 C 
ATOM     33  C   UNL     1      -4.808  54.442  48.937  0.00  0.00    +0.000 C 
ENDBRANCH  30  31
ENDBRANCH  28  30
ENDBRANCH   5  28
TORSDOF 5
ENDMDL
MODEL 3
REMARK VINA RESULT:      -8.1      3.990      4.871
REMARK  Name = 
REMARK  5 active torsions:
REMARK  status: ('A' for Active; 'I' for Inactive)
REMARK    1  A    between atoms: C_6  and  C_10
REMARK    2  A    between atoms: C_14  and  O_18
REMARK    3  A    between atoms: N_17  and  N_20
REMARK    4  A    between atoms: N_20  and  C_23
REMARK    5  A    between atoms: C_23  and  C_26
REMARK                            x       y       z     vdW  Elec       q    Type
REMARK                         _______ _______ _______ _____ _____    ______ ____
ROOT
ATOM      1  C   UNL     1     -10.663  55.626  48.145  0.00  0.00    +0.000 A 
ATOM      2  C   UNL     1      -9.199  55.717  48.425  0.00  0.00    +0.000 A 
ATOM      3  C   UNL     1     -11.108  54.986  47.051  0.00  0.00    +0.000 A 
ATOM      4  O   UNL     1      -8.853  56.348  49.428  0.00  0.00    +0.000 OA
ATOM      5  N   UNL     1      -8.318  55.066  47.556  0.00  0.00    +0.000 N 
ATOM      6  C   UNL     1     -10.164  54.330  46.133  0.00  0.00    +0.000 A 
ATOM      7  C   UNL     1      -8.783  54.378  46.395  0.00  0.00    +0.000 A 
ATOM      8  C   UNL     1     -10.632  53.637  45.003  0.00  0.00    +0.000 A 
ATOM      9  C   UNL     1      -7.898  53.741  45.509  0.00  0.00    +0.000 A 
ATOM     10  C   UNL     1      -9.744  52.995  44.142  0.00  0.00    +0.000 A 
ATOM     11  C   UNL     1      -8.378  53.050  44.392  0.00  0.00    +0.000 A 
ENDROOT
BRANCH   1  17
ATOM     12  S   UNL     1     -13.020  55.949  51.270  0.00  0.00    +0.000 S 
ATOM     13  O   UNL     1     -12.290  56.190  52.496  0.00  0.00    +0.000 OA
ATOM     14  O   UNL     1     -14.145  55.032  51.255  0.00  0.00    +0.000 OA
ATOM     15  N   UNL     1     -11.959  55.452  50.152  0.00  0.00    +0.000 N 
ATOM     16  C   UNL     1     -13.662  57.506  50.772  0.00  0.00    +0.000 A 
ATOM     17  C   UNL     1     -11.627  56.217  49.153  0.00  0.00    +0.000 C 
ATOM     18  C   UNL     1     -13.116  58.101  49.647  0.00  0.00    +0.000 A 
ATOM     19  C   UNL     1     -14.696  58.100  51.499  0.00  0.00    +0.000 A 
ATOM     20  N   UNL     1     -12.077  57.501  48.939  0.00  0.00    +0.000 N 
ATOM     21  C   UNL     1     -13.579  59.369  49.282  0.00  0.00    +0.000 A 
ATOM     22  C   UNL     1     -15.173  59.347  51.104  0.00  0.00    +0.000 A 
ATOM     23  C   UNL     1     -14.608  59.987  50.002  0.00  0.00    +0.000 A 
ATOM     24  H   UNL     1     -11.557  54.556  50.231  0.00  0.00    +0.000 HD
ATOM     25  H   UNL     1     -11.633  58.031  48.238  0.00  0.00    +0.000 HD
ENDBRANCH   1  17
BRANCH   3  26
ATOM     26  O   UNL     1     -12.444  54.857  46.712  0.00  0.00    +0.000 OA
ATOM     27  H   UNL     1     -13.057  55.517  46.967  0.00  0.00    +0.000 HD
ENDBRANCH   3  26
BRANCH   5  28
ATOM     28  N   UNL     1      -6.893  55.148  47.771  0.00  0.00    +0.000 N 
ATOM     29  H   UNL     1      -6.319  55.804  47.312  0.00  0.00    +0.000 HD
BRANCH  28  30
ATOM     30  C   UNL     1      -6.378  54.170  48.735  0.00  0.00    +0.000 C 
BRANCH  30  31
ATOM     31  C   UNL     1      -5.641  54.864  49.840  0.00  0.00    +0.000 C 
ATOM     32  C   UNL     1      -4.701  54.142  50.767  0.00  0.00    +0.000 C 
ATOM     33  C   UNL     1      -6.045  54.589  51.268  0.00  0.00    +0.000 C 
ENDBRANCH  30  31
ENDBRANCH  28  30
ENDBRANCH   5  28
TORSDOF 5
ENDMDL
MODEL 4
REMARK VINA RESULT:      -8.1      2.912      7.347
REMARK  Name = 
REMARK  5 active torsions:
REMARK  status: ('A' for Active; 'I' for Inactive)
REMARK    1  A    between atoms: C_6  and  C_10
REMARK    2  A    between atoms: C_14  and  O_18
REMARK    3  A    between atoms: N_17  and  N_20
REMARK    4  A    between atoms: N_20  and  C_23
REMARK    5  A    between atoms: C_23  and  C_26
REMARK                            x       y       z     vdW  Elec       q    Type
REMARK                         _______ _______ _______ _____ _____    ______ ____
ROOT
ATOM      1  C   UNL     1     -10.471  54.904  50.511  0.00  0.00    +0.000 A 
ATOM      2  C   UNL     1     -11.610  55.087  51.458  0.00  0.00    +0.000 A 
ATOM      3  C   UNL     1     -10.601  55.243  49.216  0.00  0.00    +0.000 A 
ATOM      4  O   UNL     1     -11.440  54.726  52.626  0.00  0.00    +0.000 OA
ATOM      5  N   UNL     1     -12.783  55.677  50.976  0.00  0.00    +0.000 N 
ATOM      6  C   UNL     1     -11.852  55.836  48.721  0.00  0.00    +0.000 A 
ATOM      7  C   UNL     1     -12.927  56.045  49.604  0.00  0.00    +0.000 A 
ATOM      8  C   UNL     1     -11.978  56.215  47.373  0.00  0.00    +0.000 A 
ATOM      9  C   UNL     1     -14.112  56.618  49.112  0.00  0.00    +0.000 A 
ATOM     10  C   UNL     1     -13.154  56.798  46.903  0.00  0.00    +0.000 A 
ATOM     11  C   UNL     1     -14.221  56.996  47.771  0.00  0.00    +0.000 A 
ENDROOT
BRANCH   1  17
ATOM     12  S   UNL     1      -7.268  52.679  50.970  0.00  0.00    +0.000 S 
ATOM     13  O   UNL     1      -6.236  52.982  50.002  0.00  0.00    +0.000 OA
ATOM     14  O   UNL     1      -7.556  51.302  51.329  0.00  0.00    +0.000 OA
ATOM     15  N   UNL     1      -8.645  53.355  50.452  0.00  0.00    +0.000 N 
ATOM     16  C   UNL     1      -6.786  53.474  52.459  0.00  0.00    +0.000 A 
ATOM     17  C   UNL     1      -9.156  54.389  51.056  0.00  0.00    +0.000 C 
ATOM     18  C   UNL     1      -7.526  54.567  52.878  0.00  0.00    +0.000 A 
ATOM     19  C   UNL     1      -5.693  52.994  53.186  0.00  0.00    +0.000 A 
ATOM     20  N   UNL     1      -8.606  55.041  52.137  0.00  0.00    +0.000 N 
ATOM     21  C   UNL     1      -7.109  55.243  54.030  0.00  0.00    +0.000 A 
ATOM     22  C   UNL     1      -5.310  53.654  54.351  0.00  0.00    +0.000 A 
ATOM     23  C   UNL     1      -6.011  54.785  54.767  0.00  0.00    +0.000 A 
ATOM     24  H   UNL     1      -9.103  52.978  49.666  0.00  0.00    +0.000 HD
ATOM     25  H   UNL     1      -9.003  55.902  52.403  0.00  0.00    +0.000 HD
ENDBRANCH   1  17
BRANCH   3  26
ATOM     26  O   UNL     1      -9.601  55.103  48.270  0.00  0.00    +0.000 OA
ATOM     27  H   UNL     1      -9.292  54.250  48.038  0.00  0.00    +0.000 HD
ENDBRANCH   3  26
BRANCH   5  28
ATOM     28  N   UNL     1     -13.920  55.850  51.848  0.00  0.00    +0.000 N 
ATOM     29  H   UNL     1     -14.651  55.193  51.913  0.00  0.00    +0.000 HD
BRANCH  28  30
ATOM     30  C   UNL     1     -13.889  57.092  52.629  0.00  0.00    +0.000 C 
BRANCH  30  31
ATOM     31  C   UNL     1     -15.096  57.927  52.328  0.00  0.00    +0.000 C 
ATOM     32  C   UNL     1     -15.013  59.235  51.587  0.00  0.00    +0.000 C 
ATOM     33  C   UNL     1     -15.278  59.232  53.066  0.00  0.00    +0.000 C 
ENDBRANCH  30  31
ENDBRANCH  28  30
ENDBRANCH   5  28
TORSDOF 5
ENDMDL
MODEL 5
REMARK VINA RESULT:      -8.0      3.424      7.630
REMARK  Name = 
REMARK  5 active torsions:
REMARK  status: ('A' for Active; 'I' for Inactive)
REMARK    1  A    between atoms: C_6  and  C_10
REMARK    2  A    between atoms: C_14  and  O_18
REMARK    3  A    between atoms: N_17  and  N_20
REMARK    4  A    between atoms: N_20  and  C_23
REMARK    5  A    between atoms: C_23  and  C_26
REMARK                            x       y       z     vdW  Elec       q    Type
REMARK                         _______ _______ _______ _____ _____    ______ ____
ROOT
ATOM      1  C   UNL     1     -10.200  55.247  50.709  0.00  0.00    +0.000 A 
ATOM      2  C   UNL     1      -9.760  55.176  49.284  0.00  0.00    +0.000 A 
ATOM      3  C   UNL     1     -11.418  55.720  51.022  0.00  0.00    +0.000 A 
ATOM      4  O   UNL     1      -8.617  54.764  49.064  0.00  0.00    +0.000 OA
ATOM      5  N   UNL     1     -10.670  55.554  48.292  0.00  0.00    +0.000 N 
ATOM      6  C   UNL     1     -12.351  56.139  49.966  0.00  0.00    +0.000 A 
ATOM      7  C   UNL     1     -11.967  56.052  48.616  0.00  0.00    +0.000 A 
ATOM      8  C   UNL     1     -13.635  56.609  50.293  0.00  0.00    +0.000 A 
ATOM      9  C   UNL     1     -12.875  56.453  47.621  0.00  0.00    +0.000 A 
ATOM     10  C   UNL     1     -14.532  56.987  49.295  0.00  0.00    +0.000 A 
ATOM     11  C   UNL     1     -14.151  56.912  47.960  0.00  0.00    +0.000 A 
ENDROOT
BRANCH   1  17
ATOM     12  S   UNL     1      -7.029  54.838  52.991  0.00  0.00    +0.000 S 
ATOM     13  O   UNL     1      -6.987  55.807  54.064  0.00  0.00    +0.000 OA
ATOM     14  O   UNL     1      -5.821  54.497  52.261  0.00  0.00    +0.000 OA
ATOM     15  N   UNL     1      -8.133  55.338  51.916  0.00  0.00    +0.000 N 
ATOM     16  C   UNL     1      -7.595  53.340  53.710  0.00  0.00    +0.000 A 
ATOM     17  C   UNL     1      -9.268  54.716  51.778  0.00  0.00    +0.000 C 
ATOM     18  C   UNL     1      -8.865  52.901  53.376  0.00  0.00    +0.000 A 
ATOM     19  C   UNL     1      -6.768  52.627  54.581  0.00  0.00    +0.000 A 
ATOM     20  N   UNL     1      -9.683  53.629  52.515  0.00  0.00    +0.000 N 
ATOM     21  C   UNL     1      -9.346  51.742  53.995  0.00  0.00    +0.000 A 
ATOM     22  C   UNL     1      -7.245  51.455  55.163  0.00  0.00    +0.000 A 
ATOM     23  C   UNL     1      -8.538  51.018  54.878  0.00  0.00    +0.000 A 
ATOM     24  H   UNL     1      -7.942  56.127  51.358  0.00  0.00    +0.000 HD
ATOM     25  H   UNL     1     -10.623  53.348  52.427  0.00  0.00    +0.000 HD
ENDBRANCH   1  17
BRANCH   3  26
ATOM     26  O   UNL     1     -11.905  55.825  52.313  0.00  0.00    +0.000 OA
ATOM     27  H   UNL     1     -12.742  56.218  52.468  0.00  0.00    +0.000 HD
ENDBRANCH   3  26
BRANCH   5  28
ATOM     28  N   UNL     1     -10.280  55.528  46.902  0.00  0.00    +0.000 N 
ATOM     29  H   UNL     1     -10.106  56.344  46.379  0.00  0.00    +0.000 HD
BRANCH  28  30
ATOM     30  C   UNL     1     -10.164  54.178  46.340  0.00  0.00    +0.000 C 
BRANCH  30  31
ATOM     31  C   UNL     1     -11.239  53.942  45.323  0.00  0.00    +0.000 C 
ATOM     32  C   UNL     1     -12.002  52.648  45.234  0.00  0.00    +0.000 C 
ATOM     33  C   UNL     1     -10.971  52.979  44.192  0.00  0.00    +0.000 C 
ENDBRANCH  30  31
ENDBRANCH  28  30
ENDBRANCH   5  28
TORSDOF 5
ENDMDL
MODEL 6
REMARK VINA RESULT:      -7.9      3.265      7.623
REMARK  Name = 
REMARK  5 active torsions:
REMARK  status: ('A' for Active; 'I' for Inactive)
REMARK    1  A    between atoms: C_6  and  C_10
REMARK    2  A    between atoms: C_14  and  O_18
REMARK    3  A    between atoms: N_17  and  N_20
REMARK    4  A    between atoms: N_20  and  C_23
REMARK    5  A    between atoms: C_23  and  C_26
REMARK                            x       y       z     vdW  Elec       q    Type
REMARK                         _______ _______ _______ _____ _____    ______ ____
ROOT
ATOM      1  C   UNL     1     -10.202  55.339  50.796  0.00  0.00    +0.000 A 
ATOM      2  C   UNL     1     -11.369  55.424  51.724  0.00  0.00    +0.000 A 
ATOM      3  C   UNL     1     -10.354  55.597  49.486  0.00  0.00    +0.000 A 
ATOM      4  O   UNL     1     -11.172  55.143  52.910  0.00  0.00    +0.000 OA
ATOM      5  N   UNL     1     -12.599  55.840  51.203  0.00  0.00    +0.000 N 
ATOM      6  C   UNL     1     -11.662  56.005  48.952  0.00  0.00    +0.000 A 
ATOM      7  C   UNL     1     -12.767  56.121  49.814  0.00  0.00    +0.000 A 
ATOM      8  C   UNL     1     -11.814  56.301  47.585  0.00  0.00    +0.000 A 
ATOM      9  C   UNL     1     -14.007  56.517  49.284  0.00  0.00    +0.000 A 
ATOM     10  C   UNL     1     -13.046  56.710  47.077  0.00  0.00    +0.000 A 
ATOM     11  C   UNL     1     -14.142  56.814  47.925  0.00  0.00    +0.000 A 
ENDROOT
BRANCH   1  17
ATOM     12  S   UNL     1      -7.166  55.240  53.286  0.00  0.00    +0.000 S 
ATOM     13  O   UNL     1      -7.355  54.286  54.357  0.00  0.00    +0.000 OA
ATOM     14  O   UNL     1      -6.588  56.544  53.558  0.00  0.00    +0.000 OA
ATOM     15  N   UNL     1      -8.602  55.474  52.573  0.00  0.00    +0.000 N 
ATOM     16  C   UNL     1      -6.093  54.469  52.130  0.00  0.00    +0.000 A 
ATOM     17  C   UNL     1      -8.842  55.018  51.378  0.00  0.00    +0.000 C 
ATOM     18  C   UNL     1      -6.623  54.084  50.911  0.00  0.00    +0.000 A 
ATOM     19  C   UNL     1      -4.747  54.271  52.451  0.00  0.00    +0.000 A 
ATOM     20  N   UNL     1      -7.970  54.278  50.610  0.00  0.00    +0.000 N 
ATOM     21  C   UNL     1      -5.789  53.413  50.011  0.00  0.00    +0.000 A 
ATOM     22  C   UNL     1      -3.918  53.633  51.532  0.00  0.00    +0.000 A 
ATOM     23  C   UNL     1      -4.441  53.194  50.316  0.00  0.00    +0.000 A 
ATOM     24  H   UNL     1      -9.305  55.969  53.053  0.00  0.00    +0.000 HD
ATOM     25  H   UNL     1      -8.323  53.858  49.793  0.00  0.00    +0.000 HD
ENDBRANCH   1  17
BRANCH   3  26
ATOM     26  O   UNL     1      -9.331  55.538  48.556  0.00  0.00    +0.000 OA
ATOM     27  H   UNL     1      -9.336  56.114  47.817  0.00  0.00    +0.000 HD
ENDBRANCH   3  26
BRANCH   5  28
ATOM     28  N   UNL     1     -13.761  55.911  52.056  0.00  0.00    +0.000 N 
ATOM     29  H   UNL     1     -14.437  55.197  52.102  0.00  0.00    +0.000 HD
BRANCH  28  30
ATOM     30  C   UNL     1     -13.844  57.143  52.849  0.00  0.00    +0.000 C 
BRANCH  30  31
ATOM     31  C   UNL     1     -15.045  57.943  52.445  0.00  0.00    +0.000 C 
ATOM     32  C   UNL     1     -14.940  59.229  51.670  0.00  0.00    +0.000 C 
ATOM     33  C   UNL     1     -15.300  59.265  53.128  0.00  0.00    +0.000 C 
ENDBRANCH  30  31
ENDBRANCH  28  30
ENDBRANCH   5  28
TORSDOF 5
ENDMDL
MODEL 7
REMARK VINA RESULT:      -7.7      3.050      7.346
REMARK  Name = 
REMARK  5 active torsions:
REMARK  status: ('A' for Active; 'I' for Inactive)
REMARK    1  A    between atoms: C_6  and  C_10
REMARK    2  A    between atoms: C_14  and  O_18
REMARK    3  A    between atoms: N_17  and  N_20
REMARK    4  A    between atoms: N_20  and  C_23
REMARK    5  A    between atoms: C_23  and  C_26
REMARK                            x       y       z     vdW  Elec       q    Type
REMARK                         _______ _______ _______ _____ _____    ______ ____
ROOT
ATOM      1  C   UNL     1      -9.916  54.395  50.944  0.00  0.00    +0.000 A 
ATOM      2  C   UNL     1     -11.068  55.271  51.312  0.00  0.00    +0.000 A 
ATOM      3  C   UNL     1      -9.672  54.098  49.656  0.00  0.00    +0.000 A 
ATOM      4  O   UNL     1     -11.260  55.479  52.514  0.00  0.00    +0.000 OA
ATOM      5  N   UNL     1     -11.837  55.820  50.281  0.00  0.00    +0.000 N 
ATOM      6  C   UNL     1     -10.509  54.662  48.587  0.00  0.00    +0.000 A 
ATOM      7  C   UNL     1     -11.580  55.514  48.910  0.00  0.00    +0.000 A 
ATOM      8  C   UNL     1     -10.236  54.373  47.238  0.00  0.00    +0.000 A 
ATOM      9  C   UNL     1     -12.365  56.047  47.874  0.00  0.00    +0.000 A 
ATOM     10  C   UNL     1     -11.012  54.922  46.219  0.00  0.00    +0.000 A 
ATOM     11  C   UNL     1     -12.079  55.756  46.538  0.00  0.00    +0.000 A 
ENDROOT
BRANCH   1  17
ATOM     12  S   UNL     1      -6.714  53.930  53.170  0.00  0.00    +0.000 S 
ATOM     13  O   UNL     1      -6.524  55.018  54.105  0.00  0.00    +0.000 OA
ATOM     14  O   UNL     1      -5.581  53.367  52.458  0.00  0.00    +0.000 OA
ATOM     15  N   UNL     1      -7.803  54.409  52.070  0.00  0.00    +0.000 N 
ATOM     16  C   UNL     1      -7.406  52.609  54.096  0.00  0.00    +0.000 A 
ATOM     17  C   UNL     1      -9.002  53.905  52.047  0.00  0.00    +0.000 C 
ATOM     18  C   UNL     1      -8.729  52.275  53.858  0.00  0.00    +0.000 A 
ATOM     19  C   UNL     1      -6.624  51.925  55.030  0.00  0.00    +0.000 A 
ATOM     20  N   UNL     1      -9.500  52.974  52.931  0.00  0.00    +0.000 N 
ATOM     21  C   UNL     1      -9.305  51.265  54.637  0.00  0.00    +0.000 A 
ATOM     22  C   UNL     1      -7.199  50.897  55.774  0.00  0.00    +0.000 A 
ATOM     23  C   UNL     1      -8.542  50.575  55.585  0.00  0.00    +0.000 A 
ATOM     24  H   UNL     1      -7.552  55.094  51.408  0.00  0.00    +0.000 HD
ATOM     25  H   UNL     1     -10.467  52.790  52.907  0.00  0.00    +0.000 HD
ENDBRANCH   1  17
BRANCH   3  26
ATOM     26  O   UNL     1      -8.632  53.292  49.225  0.00  0.00    +0.000 OA
ATOM     27  H   UNL     1      -8.506  53.140  48.310  0.00  0.00    +0.000 HD
ENDBRANCH   3  26
BRANCH   5  28
ATOM     28  N   UNL     1     -12.976  56.651  50.589  0.00  0.00    +0.000 N 
ATOM     29  H   UNL     1     -12.963  57.632  50.504  0.00  0.00    +0.000 HD
BRANCH  28  30
ATOM     30  C   UNL     1     -14.155  55.903  51.041  0.00  0.00    +0.000 C 
BRANCH  30  31
ATOM     31  C   UNL     1     -15.271  56.844  51.380  0.00  0.00    +0.000 C 
ATOM     32  C   UNL     1     -15.031  58.270  51.799  0.00  0.00    +0.000 C 
ATOM     33  C   UNL     1     -15.461  57.255  52.820  0.00  0.00    +0.000 C 
ENDBRANCH  30  31
ENDBRANCH  28  30
ENDBRANCH   5  28
TORSDOF 5
ENDMDL
MODEL 8
REMARK VINA RESULT:      -7.7      2.958      4.279
REMARK  Name = 
REMARK  5 active torsions:
REMARK  status: ('A' for Active; 'I' for Inactive)
REMARK    1  A    between atoms: C_6  and  C_10
REMARK    2  A    between atoms: C_14  and  O_18
REMARK    3  A    between atoms: N_17  and  N_20
REMARK    4  A    between atoms: N_20  and  C_23
REMARK    5  A    between atoms: C_23  and  C_26
REMARK                            x       y       z     vdW  Elec       q    Type
REMARK                         _______ _______ _______ _____ _____    ______ ____
ROOT
ATOM      1  C   UNL     1     -12.240  54.275  50.152  0.00  0.00    +0.000 A 
ATOM      2  C   UNL     1     -11.972  53.914  48.728  0.00  0.00    +0.000 A 
ATOM      3  C   UNL     1     -11.684  53.566  51.149  0.00  0.00    +0.000 A 
ATOM      4  O   UNL     1     -12.540  54.582  47.858  0.00  0.00    +0.000 OA
ATOM      5  N   UNL     1     -11.082  52.868  48.467  0.00  0.00    +0.000 N 
ATOM      6  C   UNL     1     -10.772  52.450  50.855  0.00  0.00    +0.000 A 
ATOM      7  C   UNL     1     -10.483  52.114  49.521  0.00  0.00    +0.000 A 
ATOM      8  C   UNL     1     -10.169  51.726  51.899  0.00  0.00    +0.000 A 
ATOM      9  C   UNL     1      -9.605  51.048  49.261  0.00  0.00    +0.000 A 
ATOM     10  C   UNL     1      -9.287  50.682  51.627  0.00  0.00    +0.000 A 
ATOM     11  C   UNL     1      -9.008  50.341  50.308  0.00  0.00    +0.000 A 
ENDROOT
BRANCH   1  17
ATOM     12  S   UNL     1     -15.260  56.475  51.361  0.00  0.00    +0.000 S 
ATOM     13  O   UNL     1     -15.249  56.700  52.790  0.00  0.00    +0.000 OA
ATOM     14  O   UNL     1     -16.506  56.191  50.673  0.00  0.00    +0.000 OA
ATOM     15  N   UNL     1     -14.230  55.266  51.042  0.00  0.00    +0.000 N 
ATOM     16  C   UNL     1     -14.633  57.944  50.632  0.00  0.00    +0.000 A 
ATOM     17  C   UNL     1     -13.098  55.488  50.439  0.00  0.00    +0.000 C 
ATOM     18  C   UNL     1     -13.380  57.892  50.044  0.00  0.00    +0.000 A 
ATOM     19  C   UNL     1     -15.397  59.114  50.650  0.00  0.00    +0.000 A 
ATOM     20  N   UNL     1     -12.625  56.721  50.045  0.00  0.00    +0.000 N 
ATOM     21  C   UNL     1     -12.848  59.074  49.518  0.00  0.00    +0.000 A 
ATOM     22  C   UNL     1     -14.871  60.276  50.091  0.00  0.00    +0.000 A 
ATOM     23  C   UNL     1     -13.593  60.259  49.535  0.00  0.00    +0.000 A 
ATOM     24  H   UNL     1     -14.464  54.348  51.310  0.00  0.00    +0.000 HD
ATOM     25  H   UNL     1     -11.690  56.777  49.744  0.00  0.00    +0.000 HD
ENDBRANCH   1  17
BRANCH   3  26
ATOM     26  O   UNL     1     -11.881  53.826  52.494  0.00  0.00    +0.000 OA
ATOM     27  H   UNL     1     -12.659  53.525  52.921  0.00  0.00    +0.000 HD
ENDBRANCH   3  26
BRANCH   5  28
ATOM     28  N   UNL     1     -10.813  52.466  47.107  0.00  0.00    +0.000 N 
ATOM     29  H   UNL     1     -11.035  51.573  46.758  0.00  0.00    +0.000 HD
BRANCH  28  30
ATOM     30  C   UNL     1     -10.181  53.509  46.292  0.00  0.00    +0.000 C 
BRANCH  30  31
ATOM     31  C   UNL     1      -8.861  53.904  46.881  0.00  0.00    +0.000 C 
ATOM     32  C   UNL     1      -8.588  55.287  47.407  0.00  0.00    +0.000 C 
ATOM     33  C   UNL     1      -7.973  54.849  46.108  0.00  0.00    +0.000 C 
ENDBRANCH  30  31
ENDBRANCH  28  30
ENDBRANCH   5  28
TORSDOF 5
ENDMDL
MODEL 9
REMARK VINA RESULT:      -7.6      4.695      5.725
REMARK  Name = 
REMARK  5 active torsions:
REMARK  status: ('A' for Active; 'I' for Inactive)
REMARK    1  A    between atoms: C_6  and  C_10
REMARK    2  A    between atoms: C_14  and  O_18
REMARK    3  A    between atoms: N_17  and  N_20
REMARK    4  A    between atoms: N_20  and  C_23
REMARK    5  A    between atoms: C_23  and  C_26
REMARK                            x       y       z     vdW  Elec       q    Type
REMARK                         _______ _______ _______ _____ _____    ______ ____
ROOT
ATOM      1  C   UNL     1     -10.246  54.818  47.640  0.00  0.00    +0.000 A 
ATOM      2  C   UNL     1      -8.757  54.916  47.602  0.00  0.00    +0.000 A 
ATOM      3  C   UNL     1     -10.919  54.285  46.606  0.00  0.00    +0.000 A 
ATOM      4  O   UNL     1      -8.199  55.447  48.568  0.00  0.00    +0.000 OA
ATOM      5  N   UNL     1      -8.087  54.382  46.497  0.00  0.00    +0.000 N 
ATOM      6  C   UNL     1     -10.199  53.754  45.440  0.00  0.00    +0.000 A 
ATOM      7  C   UNL     1      -8.794  53.809  45.398  0.00  0.00    +0.000 A 
ATOM      8  C   UNL     1     -10.902  53.172  44.370  0.00  0.00    +0.000 A 
ATOM      9  C   UNL     1      -8.124  53.291  44.277  0.00  0.00    +0.000 A 
ATOM     10  C   UNL     1     -10.224  52.646  43.272  0.00  0.00    +0.000 A 
ATOM     11  C   UNL     1      -8.836  52.709  43.224  0.00  0.00    +0.000 A 
ENDROOT
BRANCH   1  17
ATOM     12  S   UNL     1     -11.565  54.893  51.339  0.00  0.00    +0.000 S 
ATOM     13  O   UNL     1     -10.571  55.371  52.275  0.00  0.00    +0.000 OA
ATOM     14  O   UNL     1     -12.415  53.767  51.682  0.00  0.00    +0.000 OA
ATOM     15  N   UNL     1     -10.808  54.539  49.951  0.00  0.00    +0.000 N 
ATOM     16  C   UNL     1     -12.649  56.244  51.049  0.00  0.00    +0.000 A 
ATOM     17  C   UNL     1     -10.967  55.276  48.891  0.00  0.00    +0.000 C 
ATOM     18  C   UNL     1     -12.610  56.849  49.804  0.00  0.00    +0.000 A 
ATOM     19  C   UNL     1     -13.520  56.669  52.055  0.00  0.00    +0.000 A 
ATOM     20  N   UNL     1     -11.728  56.421  48.814  0.00  0.00    +0.000 N 
ATOM     21  C   UNL     1     -13.426  57.965  49.588  0.00  0.00    +0.000 A 
ATOM     22  C   UNL     1     -14.353  57.759  51.815  0.00  0.00    +0.000 A 
ATOM     23  C   UNL     1     -14.298  58.414  50.586  0.00  0.00    +0.000 A 
ATOM     24  H   UNL     1     -10.217  53.752  49.911  0.00  0.00    +0.000 HD
ATOM     25  H   UNL     1     -11.642  56.976  48.005  0.00  0.00    +0.000 HD
ENDBRANCH   1  17
BRANCH   3  26
ATOM     26  O   UNL     1     -12.297  54.160  46.554  0.00  0.00    +0.000 OA
ATOM     27  H   UNL     1     -12.707  53.822  45.783  0.00  0.00    +0.000 HD
ENDBRANCH   3  26
BRANCH   5  28
ATOM     28  N   UNL     1      -6.650  54.477  46.405  0.00  0.00    +0.000 N 
ATOM     29  H   UNL     1      -6.191  55.021  45.724  0.00  0.00    +0.000 HD
BRANCH  28  30
ATOM     30  C   UNL     1      -5.934  53.692  47.416  0.00  0.00    +0.000 C 
BRANCH  30  31
ATOM     31  C   UNL     1      -6.193  52.229  47.221  0.00  0.00    +0.000 C 
ATOM     32  C   UNL     1      -6.870  51.379  48.262  0.00  0.00    +0.000 C 
ATOM     33  C   UNL     1      -5.393  51.235  48.028  0.00  0.00    +0.000 C 
ENDBRANCH  30  31
ENDBRANCH  28  30
ENDBRANCH   5  28
TORSDOF 5
ENDMDL
