MODEL 1
REMARK VINA RESULT:      -8.3      0.000      0.000
REMARK  Name = 
REMARK  5 active torsions:
REMARK  status: ('A' for Active; 'I' for Inactive)
REMARK    1  A    between atoms: C_6  and  C_10
REMARK    2  A    between atoms: C_14  and  O_18
REMARK    3  A    between atoms: N_17  and  N_20
REMARK    4  A    between atoms: N_20  and  C_23
REMARK    5  A    between atoms: C_23  and  C_26
REMARK                            x       y       z     vdW  Elec       q    Type
REMARK                         _______ _______ _______ _____ _____    ______ ____
ROOT
ATOM      1  C   UNL     1     -11.347  53.906  51.564  0.00  0.00    +0.000 A 
ATOM      2  C   UNL     1     -10.385  54.068  52.695  0.00  0.00    +0.000 A 
ATOM      3  C   UNL     1     -11.496  52.715  50.962  0.00  0.00    +0.000 A 
ATOM      4  O   UNL     1     -10.268  55.196  53.182  0.00  0.00    +0.000 OA
ATOM      5  N   UNL     1      -9.704  52.935  53.151  0.00  0.00    +0.000 N 
ATOM      6  C   UNL     1     -10.745  51.540  51.433  0.00  0.00    +0.000 A 
ATOM      7  C   UNL     1      -9.860  51.663  52.520  0.00  0.00    +0.000 A 
ATOM      8  C   UNL     1     -10.918  50.287  50.819  0.00  0.00    +0.000 A 
ATOM      9  C   UNL     1      -9.157  50.529  52.959  0.00  0.00    +0.000 A 
ATOM     10  C   UNL     1     -10.226  49.167  51.275  0.00  0.00    +0.000 A 
ATOM     11  C   UNL     1      -9.344  49.289  52.341  0.00  0.00    +0.000 A 
ENDROOT
BRANCH   1  17
ATOM     12  S   UNL     1     -12.870  56.796  49.385  0.00  0.00    +0.000 S 
ATOM     13  O   UNL     1     -13.895  56.321  48.474  0.00  0.00    +0.000 OA
ATOM     14  O   UNL     1     -11.899  57.778  48.945  0.00  0.00    +0.000 OA
ATOM     15  N   UNL     1     -12.061  55.500  49.927  0.00  0.00    +0.000 N 
ATOM     16  C   UNL     1     -13.720  57.525  50.735  0.00  0.00    +0.000 A 
ATOM     17  C   UNL     1     -12.188  55.100  51.155  0.00  0.00    +0.000 C 
ATOM     18  C   UNL     1     -13.679  56.872  51.955  0.00  0.00    +0.000 A 
ATOM     19  C   UNL     1     -14.395  58.736  50.564  0.00  0.00    +0.000 A 
ATOM     20  N   UNL     1     -13.014  55.659  52.109  0.00  0.00    +0.000 N 
ATOM     21  C   UNL     1     -14.403  57.418  53.021  0.00  0.00    +0.000 A 
ATOM     22  C   UNL     1     -15.081  59.287  51.643  0.00  0.00    +0.000 A 
ATOM     23  C   UNL     1     -15.093  58.623  52.869  0.00  0.00    +0.000 A 
ATOM     24  H   UNL     1     -11.465  55.011  49.317  0.00  0.00    +0.000 HD
ATOM     25  H   UNL     1     -13.140  55.169  52.953  0.00  0.00    +0.000 HD
ENDBRANCH   1  17
BRANCH   3  26
ATOM     26  O   UNL     1     -12.354  52.477  49.904  0.00  0.00    +0.000 OA
ATOM     27  H   UNL     1     -12.782  51.648  49.826  0.00  0.00    +0.000 HD
ENDBRANCH   3  26
BRANCH   5  28
ATOM     28  N   UNL     1      -8.750  53.048  54.227  0.00  0.00    +0.000 N 
ATOM     29  H   UNL     1      -8.981  52.882  55.169  0.00  0.00    +0.000 HD
BRANCH  28  30
ATOM     30  C   UNL     1      -7.402  53.432  53.791  0.00  0.00    +0.000 C 
BRANCH  30  31
ATOM     31  C   UNL     1      -6.995  54.722  54.434  0.00  0.00    +0.000 C 
ATOM     32  C   UNL     1      -6.713  55.969  53.641  0.00  0.00    +0.000 C 
ATOM     33  C   UNL     1      -5.575  55.206  54.261  0.00  0.00    +0.000 C 
ENDBRANCH  30  31
ENDBRANCH  28  30
ENDBRANCH   5  28
TORSDOF 5
ENDMDL
MODEL 2
REMARK VINA RESULT:      -8.2      2.226      2.841
REMARK  Name = 
REMARK  5 active torsions:
REMARK  status: ('A' for Active; 'I' for Inactive)
REMARK    1  A    between atoms: C_6  and  C_10
REMARK    2  A    between atoms: C_14  and  O_18
REMARK    3  A    between atoms: N_17  and  N_20
REMARK    4  A    between atoms: N_20  and  C_23
REMARK    5  A    between atoms: C_23  and  C_26
REMARK                            x       y       z     vdW  Elec       q    Type
REMARK                         _______ _______ _______ _____ _____    ______ ____
ROOT
ATOM      1  C   UNL     1     -10.075  54.544  52.173  0.00  0.00    +0.000 A 
ATOM      2  C   UNL     1      -8.712  55.110  51.947  0.00  0.00    +0.000 A 
ATOM      3  C   UNL     1     -10.242  53.453  52.938  0.00  0.00    +0.000 A 
ATOM      4  O   UNL     1      -8.623  56.092  51.204  0.00  0.00    +0.000 OA
ATOM      5  N   UNL     1      -7.633  54.518  52.609  0.00  0.00    +0.000 N 
ATOM      6  C   UNL     1      -9.089  52.822  53.600  0.00  0.00    +0.000 A 
ATOM      7  C   UNL     1      -7.800  53.361  53.429  0.00  0.00    +0.000 A 
ATOM      8  C   UNL     1      -9.265  51.694  54.421  0.00  0.00    +0.000 A 
ATOM      9  C   UNL     1      -6.714  52.748  54.074  0.00  0.00    +0.000 A 
ATOM     10  C   UNL     1      -8.181  51.105  55.068  0.00  0.00    +0.000 A 
ATOM     11  C   UNL     1      -6.906  51.630  54.892  0.00  0.00    +0.000 A 
ENDROOT
BRANCH   1  17
ATOM     12  S   UNL     1     -12.549  56.023  49.505  0.00  0.00    +0.000 S 
ATOM     13  O   UNL     1     -13.439  55.017  48.957  0.00  0.00    +0.000 OA
ATOM     14  O   UNL     1     -11.954  57.022  48.639  0.00  0.00    +0.000 OA
ATOM     15  N   UNL     1     -11.350  55.248  50.272  0.00  0.00    +0.000 N 
ATOM     16  C   UNL     1     -13.487  56.908  50.694  0.00  0.00    +0.000 A 
ATOM     17  C   UNL     1     -11.265  55.263  51.567  0.00  0.00    +0.000 C 
ATOM     18  C   UNL     1     -13.168  56.736  52.029  0.00  0.00    +0.000 A 
ATOM     19  C   UNL     1     -14.509  57.766  50.279  0.00  0.00    +0.000 A 
ATOM     20  N   UNL     1     -12.157  55.868  52.429  0.00  0.00    +0.000 N 
ATOM     21  C   UNL     1     -13.950  57.394  52.985  0.00  0.00    +0.000 A 
ATOM     22  C   UNL     1     -15.256  58.443  51.239  0.00  0.00    +0.000 A 
ATOM     23  C   UNL     1     -14.983  58.250  52.593  0.00  0.00    +0.000 A 
ATOM     24  H   UNL     1     -10.676  54.760  49.747  0.00  0.00    +0.000 HD
ATOM     25  H   UNL     1     -12.071  55.674  53.391  0.00  0.00    +0.000 HD
ENDBRANCH   1  17
BRANCH   3  26
ATOM     26  O   UNL     1     -11.464  52.857  53.192  0.00  0.00    +0.000 OA
ATOM     27  H   UNL     1     -12.224  53.127  52.715  0.00  0.00    +0.000 HD
ENDBRANCH   3  26
BRANCH   5  28
ATOM     28  N   UNL     1      -6.295  55.019  52.405  0.00  0.00    +0.000 N 
ATOM     29  H   UNL     1      -5.933  55.797  52.887  0.00  0.00    +0.000 HD
BRANCH  28  30
ATOM     30  C   UNL     1      -5.521  54.263  51.414  0.00  0.00    +0.000 C 
BRANCH  30  31
ATOM     31  C   UNL     1      -5.497  54.993  50.106  0.00  0.00    +0.000 C 
ATOM     32  C   UNL     1      -6.253  54.514  48.896  0.00  0.00    +0.000 C 
ATOM     33  C   UNL     1      -4.756  54.378  48.942  0.00  0.00    +0.000 C 
ENDBRANCH  30  31
ENDBRANCH  28  30
ENDBRANCH   5  28
TORSDOF 5
ENDMDL
MODEL 3
REMARK VINA RESULT:      -8.1      3.977      4.863
REMARK  Name = 
REMARK  5 active torsions:
REMARK  status: ('A' for Active; 'I' for Inactive)
REMARK    1  A    between atoms: C_6  and  C_10
REMARK    2  A    between atoms: C_14  and  O_18
REMARK    3  A    between atoms: N_17  and  N_20
REMARK    4  A    between atoms: N_20  and  C_23
REMARK    5  A    between atoms: C_23  and  C_26
REMARK                            x       y       z     vdW  Elec       q    Type
REMARK                         _______ _______ _______ _____ _____    ______ ____
ROOT
ATOM      1  C   UNL     1     -10.657  55.638  48.172  0.00  0.00    +0.000 A 
ATOM      2  C   UNL     1      -9.194  55.737  48.457  0.00  0.00    +0.000 A 
ATOM      3  C   UNL     1     -11.095  54.994  47.078  0.00  0.00    +0.000 A 
ATOM      4  O   UNL     1      -8.855  56.373  49.459  0.00  0.00    +0.000 OA
ATOM      5  N   UNL     1      -8.307  55.085  47.596  0.00  0.00    +0.000 N 
ATOM      6  C   UNL     1     -10.144  54.341  46.164  0.00  0.00    +0.000 A 
ATOM      7  C   UNL     1      -8.764  54.393  46.433  0.00  0.00    +0.000 A 
ATOM      8  C   UNL     1     -10.604  53.646  45.031  0.00  0.00    +0.000 A 
ATOM      9  C   UNL     1      -7.874  53.758  45.553  0.00  0.00    +0.000 A 
ATOM     10  C   UNL     1      -9.710  53.007  44.174  0.00  0.00    +0.000 A 
ATOM     11  C   UNL     1      -8.346  53.067  44.433  0.00  0.00    +0.000 A 
ENDROOT
BRANCH   1  17
ATOM     12  S   UNL     1     -13.033  55.967  51.281  0.00  0.00    +0.000 S 
ATOM     13  O   UNL     1     -12.305  56.207  52.512  0.00  0.00    +0.000 OA
ATOM     14  O   UNL     1     -14.157  55.051  51.264  0.00  0.00    +0.000 OA
ATOM     15  N   UNL     1     -11.964  55.466  50.171  0.00  0.00    +0.000 N 
ATOM     16  C   UNL     1     -13.669  57.522  50.778  0.00  0.00    +0.000 A 
ATOM     17  C   UNL     1     -11.630  56.228  49.174  0.00  0.00    +0.000 C 
ATOM     18  C   UNL     1     -13.120  58.113  49.653  0.00  0.00    +0.000 A 
ATOM     19  C   UNL     1     -14.707  58.119  51.498  0.00  0.00    +0.000 A 
ATOM     20  N   UNL     1     -12.077  57.515  48.953  0.00  0.00    +0.000 N 
ATOM     21  C   UNL     1     -13.582  59.381  49.281  0.00  0.00    +0.000 A 
ATOM     22  C   UNL     1     -15.182  59.364  51.096  0.00  0.00    +0.000 A 
ATOM     23  C   UNL     1     -14.613  59.999  49.992  0.00  0.00    +0.000 A 
ATOM     24  H   UNL     1     -11.563  54.572  50.253  0.00  0.00    +0.000 HD
ATOM     25  H   UNL     1     -11.630  58.044  48.253  0.00  0.00    +0.000 HD
ENDBRANCH   1  17
BRANCH   3  26
ATOM     26  O   UNL     1     -12.428  54.862  46.732  0.00  0.00    +0.000 OA
ATOM     27  H   UNL     1     -13.087  55.292  47.239  0.00  0.00    +0.000 HD
ENDBRANCH   3  26
BRANCH   5  28
ATOM     28  N   UNL     1      -6.885  55.171  47.821  0.00  0.00    +0.000 N 
ATOM     29  H   UNL     1      -6.308  55.827  47.368  0.00  0.00    +0.000 HD
BRANCH  28  30
ATOM     30  C   UNL     1      -6.374  54.190  48.785  0.00  0.00    +0.000 C 
BRANCH  30  31
ATOM     31  C   UNL     1      -5.652  54.884  49.900  0.00  0.00    +0.000 C 
ATOM     32  C   UNL     1      -4.734  54.160  50.846  0.00  0.00    +0.000 C 
ATOM     33  C   UNL     1      -6.084  54.620  51.323  0.00  0.00    +0.000 C 
ENDBRANCH  30  31
ENDBRANCH  28  30
ENDBRANCH   5  28
TORSDOF 5
ENDMDL
MODEL 4
REMARK VINA RESULT:      -8.1      2.928      7.351
REMARK  Name = 
REMARK  5 active torsions:
REMARK  status: ('A' for Active; 'I' for Inactive)
REMARK    1  A    between atoms: C_6  and  C_10
REMARK    2  A    between atoms: C_14  and  O_18
REMARK    3  A    between atoms: N_17  and  N_20
REMARK    4  A    between atoms: N_20  and  C_23
REMARK    5  A    between atoms: C_23  and  C_26
REMARK                            x       y       z     vdW  Elec       q    Type
REMARK                         _______ _______ _______ _____ _____    ______ ____
ROOT
ATOM      1  C   UNL     1     -10.454  54.917  50.507  0.00  0.00    +0.000 A 
ATOM      2  C   UNL     1     -11.586  55.096  51.464  0.00  0.00    +0.000 A 
ATOM      3  C   UNL     1     -10.596  55.252  49.214  0.00  0.00    +0.000 A 
ATOM      4  O   UNL     1     -11.403  54.735  52.631  0.00  0.00    +0.000 OA
ATOM      5  N   UNL     1     -12.764  55.683  50.993  0.00  0.00    +0.000 N 
ATOM      6  C   UNL     1     -11.855  55.838  48.728  0.00  0.00    +0.000 A 
ATOM      7  C   UNL     1     -12.922  56.048  49.621  0.00  0.00    +0.000 A 
ATOM      8  C   UNL     1     -11.996  56.212  47.380  0.00  0.00    +0.000 A 
ATOM      9  C   UNL     1     -14.113  56.614  49.140  0.00  0.00    +0.000 A 
ATOM     10  C   UNL     1     -13.179  56.788  46.919  0.00  0.00    +0.000 A 
ATOM     11  C   UNL     1     -14.237  56.985  47.797  0.00  0.00    +0.000 A 
ENDROOT
BRANCH   1  17
ATOM     12  S   UNL     1      -7.214  52.736  50.917  0.00  0.00    +0.000 S 
ATOM     13  O   UNL     1      -6.187  53.082  49.953  0.00  0.00    +0.000 OA
ATOM     14  O   UNL     1      -7.475  51.346  51.238  0.00  0.00    +0.000 OA
ATOM     15  N   UNL     1      -8.603  53.401  50.412  0.00  0.00    +0.000 N 
ATOM     16  C   UNL     1      -6.747  53.502  52.424  0.00  0.00    +0.000 A 
ATOM     17  C   UNL     1      -9.130  54.406  51.041  0.00  0.00    +0.000 C 
ATOM     18  C   UNL     1      -7.508  54.568  52.871  0.00  0.00    +0.000 A 
ATOM     19  C   UNL     1      -5.647  53.023  53.140  0.00  0.00    +0.000 A 
ATOM     20  N   UNL     1      -8.593  55.044  52.142  0.00  0.00    +0.000 N 
ATOM     21  C   UNL     1      -7.106  55.221  54.042  0.00  0.00    +0.000 A 
ATOM     22  C   UNL     1      -5.280  53.659  54.322  0.00  0.00    +0.000 A 
ATOM     23  C   UNL     1      -6.004  54.765  54.769  0.00  0.00    +0.000 A 
ATOM     24  H   UNL     1      -9.053  53.038  49.616  0.00  0.00    +0.000 HD
ATOM     25  H   UNL     1      -9.006  55.891  52.430  0.00  0.00    +0.000 HD
ENDBRANCH   1  17
BRANCH   3  26
ATOM     26  O   UNL     1      -9.606  55.112  48.258  0.00  0.00    +0.000 OA
ATOM     27  H   UNL     1      -9.241  54.267  48.084  0.00  0.00    +0.000 HD
ENDBRANCH   3  26
BRANCH   5  28
ATOM     28  N   UNL     1     -13.891  55.856  51.877  0.00  0.00    +0.000 N 
ATOM     29  H   UNL     1     -14.610  55.191  51.966  0.00  0.00    +0.000 HD
BRANCH  28  30
ATOM     30  C   UNL     1     -13.867  57.115  52.632  0.00  0.00    +0.000 C 
BRANCH  30  31
ATOM     31  C   UNL     1     -15.096  57.920  52.339  0.00  0.00    +0.000 C 
ATOM     32  C   UNL     1     -15.056  59.204  51.557  0.00  0.00    +0.000 C 
ATOM     33  C   UNL     1     -15.284  59.244  53.042  0.00  0.00    +0.000 C 
ENDBRANCH  30  31
ENDBRANCH  28  30
ENDBRANCH   5  28
TORSDOF 5
ENDMDL
MODEL 5
REMARK VINA RESULT:      -8.0      3.423      7.637
REMARK  Name = 
REMARK  5 active torsions:
REMARK  status: ('A' for Active; 'I' for Inactive)
REMARK    1  A    between atoms: C_6  and  C_10
REMARK    2  A    between atoms: C_14  and  O_18
REMARK    3  A    between atoms: N_17  and  N_20
REMARK    4  A    between atoms: N_20  and  C_23
REMARK    5  A    between atoms: C_23  and  C_26
REMARK                            x       y       z     vdW  Elec       q    Type
REMARK                         _______ _______ _______ _____ _____    ______ ____
ROOT
ATOM      1  C   UNL     1     -10.199  55.234  50.731  0.00  0.00    +0.000 A 
ATOM      2  C   UNL     1      -9.765  55.154  49.305  0.00  0.00    +0.000 A 
ATOM      3  C   UNL     1     -11.410  55.721  51.048  0.00  0.00    +0.000 A 
ATOM      4  O   UNL     1      -8.627  54.731  49.082  0.00  0.00    +0.000 OA
ATOM      5  N   UNL     1     -10.676  55.533  48.314  0.00  0.00    +0.000 N 
ATOM      6  C   UNL     1     -12.344  56.147  49.994  0.00  0.00    +0.000 A 
ATOM      7  C   UNL     1     -11.967  56.047  48.642  0.00  0.00    +0.000 A 
ATOM      8  C   UNL     1     -13.621  56.634  50.324  0.00  0.00    +0.000 A 
ATOM      9  C   UNL     1     -12.875  56.452  47.650  0.00  0.00    +0.000 A 
ATOM     10  C   UNL     1     -14.518  57.018  49.329  0.00  0.00    +0.000 A 
ATOM     11  C   UNL     1     -14.143  56.930  47.994  0.00  0.00    +0.000 A 
ENDROOT
BRANCH   1  17
ATOM     12  S   UNL     1      -7.033  54.808  53.016  0.00  0.00    +0.000 S 
ATOM     13  O   UNL     1      -6.990  55.782  54.090  0.00  0.00    +0.000 OA
ATOM     14  O   UNL     1      -5.825  54.465  52.291  0.00  0.00    +0.000 OA
ATOM     15  N   UNL     1      -8.134  55.316  51.940  0.00  0.00    +0.000 N 
ATOM     16  C   UNL     1      -7.608  53.315  53.734  0.00  0.00    +0.000 A 
ATOM     17  C   UNL     1      -9.267  54.698  51.801  0.00  0.00    +0.000 C 
ATOM     18  C   UNL     1      -8.877  52.879  53.395  0.00  0.00    +0.000 A 
ATOM     19  C   UNL     1      -6.785  52.598  54.607  0.00  0.00    +0.000 A 
ATOM     20  N   UNL     1      -9.691  53.610  52.536  0.00  0.00    +0.000 N 
ATOM     21  C   UNL     1      -9.363  51.720  54.010  0.00  0.00    +0.000 A 
ATOM     22  C   UNL     1      -7.268  51.426  55.183  0.00  0.00    +0.000 A 
ATOM     23  C   UNL     1      -8.561  50.992  54.892  0.00  0.00    +0.000 A 
ATOM     24  H   UNL     1      -7.940  56.104  51.384  0.00  0.00    +0.000 HD
ATOM     25  H   UNL     1     -10.632  53.332  52.446  0.00  0.00    +0.000 HD
ENDBRANCH   1  17
BRANCH   3  26
ATOM     26  O   UNL     1     -11.889  55.839  52.340  0.00  0.00    +0.000 OA
ATOM     27  H   UNL     1     -12.080  56.686  52.692  0.00  0.00    +0.000 HD
ENDBRANCH   3  26
BRANCH   5  28
ATOM     28  N   UNL     1     -10.293  55.492  46.924  0.00  0.00    +0.000 N 
ATOM     29  H   UNL     1     -10.109  56.301  46.394  0.00  0.00    +0.000 HD
BRANCH  28  30
ATOM     30  C   UNL     1     -10.202  54.136  46.371  0.00  0.00    +0.000 C 
BRANCH  30  31
ATOM     31  C   UNL     1     -11.238  53.938  45.307  0.00  0.00    +0.000 C 
ATOM     32  C   UNL     1     -12.030  52.666  45.174  0.00  0.00    +0.000 C 
ATOM     33  C   UNL     1     -10.948  52.977  44.178  0.00  0.00    +0.000 C 
ENDBRANCH  30  31
ENDBRANCH  28  30
ENDBRANCH   5  28
TORSDOF 5
ENDMDL
MODEL 6
REMARK VINA RESULT:      -7.8      3.201      4.493
REMARK  Name = 
REMARK  5 active torsions:
REMARK  status: ('A' for Active; 'I' for Inactive)
REMARK    1  A    between atoms: C_6  and  C_10
REMARK    2  A    between atoms: C_14  and  O_18
REMARK    3  A    between atoms: N_17  and  N_20
REMARK    4  A    between atoms: N_20  and  C_23
REMARK    5  A    between atoms: C_23  and  C_26
REMARK                            x       y       z     vdW  Elec       q    Type
REMARK                         _______ _______ _______ _____ _____    ______ ____
ROOT
ATOM      1  C   UNL     1     -12.421  54.310  49.813  0.00  0.00    +0.000 A 
ATOM      2  C   UNL     1     -12.124  54.087  48.367  0.00  0.00    +0.000 A 
ATOM      3  C   UNL     1     -11.924  53.482  50.746  0.00  0.00    +0.000 A 
ATOM      4  O   UNL     1     -12.640  54.862  47.556  0.00  0.00    +0.000 OA
ATOM      5  N   UNL     1     -11.262  53.041  48.023  0.00  0.00    +0.000 N 
ATOM      6  C   UNL     1     -11.046  52.365  50.363  0.00  0.00    +0.000 A 
ATOM      7  C   UNL     1     -10.725  52.158  49.009  0.00  0.00    +0.000 A 
ATOM      8  C   UNL     1     -10.506  51.513  51.342  0.00  0.00    +0.000 A 
ATOM      9  C   UNL     1      -9.880  51.091  48.664  0.00  0.00    +0.000 A 
ATOM     10  C   UNL     1      -9.656  50.467  50.987  0.00  0.00    +0.000 A 
ATOM     11  C   UNL     1      -9.347  50.255  49.649  0.00  0.00    +0.000 A 
ENDROOT
BRANCH   1  17
ATOM     12  S   UNL     1     -15.344  56.499  51.257  0.00  0.00    +0.000 S 
ATOM     13  O   UNL     1     -15.275  56.635  52.700  0.00  0.00    +0.000 OA
ATOM     14  O   UNL     1     -16.621  56.284  50.604  0.00  0.00    +0.000 OA
ATOM     15  N   UNL     1     -14.355  55.289  50.832  0.00  0.00    +0.000 N 
ATOM     16  C   UNL     1     -14.709  57.994  50.596  0.00  0.00    +0.000 A 
ATOM     17  C   UNL     1     -13.244  55.523  50.202  0.00  0.00    +0.000 C 
ATOM     18  C   UNL     1     -13.482  57.950  49.956  0.00  0.00    +0.000 A 
ATOM     19  C   UNL     1     -15.443  59.177  50.710  0.00  0.00    +0.000 A 
ATOM     20  N   UNL     1     -12.754  56.768  49.862  0.00  0.00    +0.000 N 
ATOM     21  C   UNL     1     -12.942  59.149  49.479  0.00  0.00    +0.000 A 
ATOM     22  C   UNL     1     -14.911  60.357  50.198  0.00  0.00    +0.000 A 
ATOM     23  C   UNL     1     -13.656  60.345  49.591  0.00  0.00    +0.000 A 
ATOM     24  H   UNL     1     -14.600  54.362  51.054  0.00  0.00    +0.000 HD
ATOM     25  H   UNL     1     -11.829  56.822  49.529  0.00  0.00    +0.000 HD
ENDBRANCH   1  17
BRANCH   3  26
ATOM     26  O   UNL     1     -12.156  53.608  52.104  0.00  0.00    +0.000 OA
ATOM     27  H   UNL     1     -11.438  53.738  52.691  0.00  0.00    +0.000 HD
ENDBRANCH   3  26
BRANCH   5  28
ATOM     28  N   UNL     1     -10.963  52.775  46.637  0.00  0.00    +0.000 N 
ATOM     29  H   UNL     1     -11.232  51.947  46.179  0.00  0.00    +0.000 HD
BRANCH  28  30
ATOM     30  C   UNL     1     -10.221  53.852  45.971  0.00  0.00    +0.000 C 
BRANCH  30  31
ATOM     31  C   UNL     1      -8.803  53.881  46.452  0.00  0.00    +0.000 C 
ATOM     32  C   UNL     1      -8.197  55.088  47.116  0.00  0.00    +0.000 C 
ATOM     33  C   UNL     1      -7.799  54.732  45.710  0.00  0.00    +0.000 C 
ENDBRANCH  30  31
ENDBRANCH  28  30
ENDBRANCH   5  28
TORSDOF 5
ENDMDL
MODEL 7
REMARK VINA RESULT:      -7.7      3.094      7.635
REMARK  Name = 
REMARK  5 active torsions:
REMARK  status: ('A' for Active; 'I' for Inactive)
REMARK    1  A    between atoms: C_6  and  C_10
REMARK    2  A    between atoms: C_14  and  O_18
REMARK    3  A    between atoms: N_17  and  N_20
REMARK    4  A    between atoms: N_20  and  C_23
REMARK    5  A    between atoms: C_23  and  C_26
REMARK                            x       y       z     vdW  Elec       q    Type
REMARK                         _______ _______ _______ _____ _____    ______ ____
ROOT
ATOM      1  C   UNL     1      -9.818  53.959  50.641  0.00  0.00    +0.000 A 
ATOM      2  C   UNL     1     -11.032  54.299  51.440  0.00  0.00    +0.000 A 
ATOM      3  C   UNL     1      -9.760  54.254  49.332  0.00  0.00    +0.000 A 
ATOM      4  O   UNL     1     -11.037  53.969  52.630  0.00  0.00    +0.000 OA
ATOM      5  N   UNL     1     -12.068  54.992  50.807  0.00  0.00    +0.000 N 
ATOM      6  C   UNL     1     -10.874  54.953  48.673  0.00  0.00    +0.000 A 
ATOM      7  C   UNL     1     -12.013  55.314  49.417  0.00  0.00    +0.000 A 
ATOM      8  C   UNL     1     -10.804  55.284  47.308  0.00  0.00    +0.000 A 
ATOM      9  C   UNL     1     -13.063  55.986  48.771  0.00  0.00    +0.000 A 
ATOM     10  C   UNL     1     -11.847  55.965  46.684  0.00  0.00    +0.000 A 
ATOM     11  C   UNL     1     -12.977  56.312  47.414  0.00  0.00    +0.000 A 
ENDROOT
BRANCH   1  17
ATOM     12  S   UNL     1      -7.715  51.532  52.901  0.00  0.00    +0.000 S 
ATOM     13  O   UNL     1      -7.419  50.275  52.239  0.00  0.00    +0.000 OA
ATOM     14  O   UNL     1      -8.097  51.549  54.299  0.00  0.00    +0.000 OA
ATOM     15  N   UNL     1      -8.885  52.266  52.054  0.00  0.00    +0.000 N 
ATOM     16  C   UNL     1      -6.256  52.499  52.785  0.00  0.00    +0.000 A 
ATOM     17  C   UNL     1      -8.636  53.330  51.354  0.00  0.00    +0.000 C 
ATOM     18  C   UNL     1      -6.276  53.604  51.952  0.00  0.00    +0.000 A 
ATOM     19  C   UNL     1      -5.127  52.153  53.533  0.00  0.00    +0.000 A 
ATOM     20  N   UNL     1      -7.402  53.930  51.203  0.00  0.00    +0.000 N 
ATOM     21  C   UNL     1      -5.097  54.345  51.811  0.00  0.00    +0.000 A 
ATOM     22  C   UNL     1      -3.973  52.920  53.410  0.00  0.00    +0.000 A 
ATOM     23  C   UNL     1      -3.954  54.012  52.542  0.00  0.00    +0.000 A 
ATOM     24  H   UNL     1      -9.798  51.900  52.072  0.00  0.00    +0.000 HD
ATOM     25  H   UNL     1      -7.313  54.634  50.521  0.00  0.00    +0.000 HD
ENDBRANCH   1  17
BRANCH   3  26
ATOM     26  O   UNL     1      -8.681  53.967  48.515  0.00  0.00    +0.000 OA
ATOM     27  H   UNL     1      -7.845  54.350  48.693  0.00  0.00    +0.000 HD
ENDBRANCH   3  26
BRANCH   5  28
ATOM     28  N   UNL     1     -13.269  55.323  51.534  0.00  0.00    +0.000 N 
ATOM     29  H   UNL     1     -14.053  54.729  51.576  0.00  0.00    +0.000 HD
BRANCH  28  30
ATOM     30  C   UNL     1     -13.217  56.625  52.208  0.00  0.00    +0.000 C 
BRANCH  30  31
ATOM     31  C   UNL     1     -14.512  57.356  52.029  0.00  0.00    +0.000 C 
ATOM     32  C   UNL     1     -14.615  58.855  52.105  0.00  0.00    +0.000 C 
ATOM     33  C   UNL     1     -15.150  58.014  53.231  0.00  0.00    +0.000 C 
ENDBRANCH  30  31
ENDBRANCH  28  30
ENDBRANCH   5  28
TORSDOF 5
ENDMDL
MODEL 8
REMARK VINA RESULT:      -7.7      3.263      3.973
REMARK  Name = 
REMARK  5 active torsions:
REMARK  status: ('A' for Active; 'I' for Inactive)
REMARK    1  A    between atoms: C_6  and  C_10
REMARK    2  A    between atoms: C_14  and  O_18
REMARK    3  A    between atoms: N_17  and  N_20
REMARK    4  A    between atoms: N_20  and  C_23
REMARK    5  A    between atoms: C_23  and  C_26
REMARK                            x       y       z     vdW  Elec       q    Type
REMARK                         _______ _______ _______ _____ _____    ______ ____
ROOT
ATOM      1  C   UNL     1     -11.399  55.942  48.955  0.00  0.00    +0.000 A 
ATOM      2  C   UNL     1     -10.412  55.304  49.876  0.00  0.00    +0.000 A 
ATOM      3  C   UNL     1     -11.428  55.613  47.654  0.00  0.00    +0.000 A 
ATOM      4  O   UNL     1     -10.412  55.676  51.053  0.00  0.00    +0.000 OA
ATOM      5  N   UNL     1      -9.574  54.311  49.360  0.00  0.00    +0.000 N 
ATOM      6  C   UNL     1     -10.515  54.590  47.121  0.00  0.00    +0.000 A 
ATOM      7  C   UNL     1      -9.601  53.951  47.979  0.00  0.00    +0.000 A 
ATOM      8  C   UNL     1     -10.561  54.227  45.763  0.00  0.00    +0.000 A 
ATOM      9  C   UNL     1      -8.742  52.972  47.453  0.00  0.00    +0.000 A 
ATOM     10  C   UNL     1      -9.714  53.243  45.258  0.00  0.00    +0.000 A 
ATOM     11  C   UNL     1      -8.803  52.619  46.101  0.00  0.00    +0.000 A 
ENDROOT
BRANCH   1  17
ATOM     12  S   UNL     1     -13.543  59.194  49.460  0.00  0.00    +0.000 S 
ATOM     13  O   UNL     1     -14.673  59.259  48.552  0.00  0.00    +0.000 OA
ATOM     14  O   UNL     1     -12.758  60.381  49.734  0.00  0.00    +0.000 OA
ATOM     15  N   UNL     1     -12.539  58.048  48.908  0.00  0.00    +0.000 N 
ATOM     16  C   UNL     1     -14.187  58.671  51.004  0.00  0.00    +0.000 A 
ATOM     17  C   UNL     1     -12.401  56.921  49.537  0.00  0.00    +0.000 C 
ATOM     18  C   UNL     1     -13.866  57.398  51.443  0.00  0.00    +0.000 A 
ATOM     19  C   UNL     1     -14.985  59.536  51.758  0.00  0.00    +0.000 A 
ATOM     20  N   UNL     1     -13.082  56.541  50.676  0.00  0.00    +0.000 N 
ATOM     21  C   UNL     1     -14.425  56.953  52.646  0.00  0.00    +0.000 A 
ATOM     22  C   UNL     1     -15.504  59.093  52.972  0.00  0.00    +0.000 A 
ATOM     23  C   UNL     1     -15.232  57.798  53.411  0.00  0.00    +0.000 A 
ATOM     24  H   UNL     1     -12.026  58.209  48.084  0.00  0.00    +0.000 HD
ATOM     25  H   UNL     1     -13.007  55.603  50.966  0.00  0.00    +0.000 HD
ENDBRANCH   1  17
BRANCH   3  26
ATOM     26  O   UNL     1     -12.301  56.160  46.730  0.00  0.00    +0.000 OA
ATOM     27  H   UNL     1     -13.100  55.718  46.523  0.00  0.00    +0.000 HD
ENDBRANCH   3  26
BRANCH   5  28
ATOM     28  N   UNL     1      -8.590  53.682  50.208  0.00  0.00    +0.000 N 
ATOM     29  H   UNL     1      -8.670  52.754  50.526  0.00  0.00    +0.000 HD
BRANCH  28  30
ATOM     30  C   UNL     1      -7.459  54.551  50.553  0.00  0.00    +0.000 C 
BRANCH  30  31
ATOM     31  C   UNL     1      -6.189  54.007  49.972  0.00  0.00    +0.000 C 
ATOM     32  C   UNL     1      -4.837  54.303  50.561  0.00  0.00    +0.000 C 
ATOM     33  C   UNL     1      -5.246  54.955  49.269  0.00  0.00    +0.000 C 
ENDBRANCH  30  31
ENDBRANCH  28  30
ENDBRANCH   5  28
TORSDOF 5
ENDMDL
MODEL 9
REMARK VINA RESULT:      -7.7      3.098      7.342
REMARK  Name = 
REMARK  5 active torsions:
REMARK  status: ('A' for Active; 'I' for Inactive)
REMARK    1  A    between atoms: C_6  and  C_10
REMARK    2  A    between atoms: C_14  and  O_18
REMARK    3  A    between atoms: N_17  and  N_20
REMARK    4  A    between atoms: N_20  and  C_23
REMARK    5  A    between atoms: C_23  and  C_26
REMARK                            x       y       z     vdW  Elec       q    Type
REMARK                         _______ _______ _______ _____ _____    ______ ____
ROOT
ATOM      1  C   UNL     1      -9.829  54.290  50.901  0.00  0.00    +0.000 A 
ATOM      2  C   UNL     1     -10.946  55.216  51.251  0.00  0.00    +0.000 A 
ATOM      3  C   UNL     1      -9.600  53.952  49.621  0.00  0.00    +0.000 A 
ATOM      4  O   UNL     1     -11.126  55.458  52.449  0.00  0.00    +0.000 OA
ATOM      5  N   UNL     1     -11.695  55.772  50.210  0.00  0.00    +0.000 N 
ATOM      6  C   UNL     1     -10.421  54.521  48.540  0.00  0.00    +0.000 A 
ATOM      7  C   UNL     1     -11.456  55.423  48.846  0.00  0.00    +0.000 A 
ATOM      8  C   UNL     1     -10.166  54.187  47.198  0.00  0.00    +0.000 A 
ATOM      9  C   UNL     1     -12.224  55.960  47.800  0.00  0.00    +0.000 A 
ATOM     10  C   UNL     1     -10.926  54.739  46.169  0.00  0.00    +0.000 A 
ATOM     11  C   UNL     1     -11.956  55.622  46.470  0.00  0.00    +0.000 A 
ENDROOT
BRANCH   1  17
ATOM     12  S   UNL     1      -6.639  53.739  53.124  0.00  0.00    +0.000 S 
ATOM     13  O   UNL     1      -6.389  54.851  54.021  0.00  0.00    +0.000 OA
ATOM     14  O   UNL     1      -5.538  53.100  52.429  0.00  0.00    +0.000 OA
ATOM     15  N   UNL     1      -7.709  54.236  52.014  0.00  0.00    +0.000 N 
ATOM     16  C   UNL     1      -7.389  52.487  54.097  0.00  0.00    +0.000 A 
ATOM     17  C   UNL     1      -8.928  53.791  52.014  0.00  0.00    +0.000 C 
ATOM     18  C   UNL     1      -8.727  52.208  53.874  0.00  0.00    +0.000 A 
ATOM     19  C   UNL     1      -6.636  51.797  55.050  0.00  0.00    +0.000 A 
ATOM     20  N   UNL     1      -9.469  52.913  52.932  0.00  0.00    +0.000 N 
ATOM     21  C   UNL     1      -9.346  51.252  54.687  0.00  0.00    +0.000 A 
ATOM     22  C   UNL     1      -7.255  50.822  55.827  0.00  0.00    +0.000 A 
ATOM     23  C   UNL     1      -8.613  50.556  55.652  0.00  0.00    +0.000 A 
ATOM     24  H   UNL     1      -7.431  54.886  51.330  0.00  0.00    +0.000 HD
ATOM     25  H   UNL     1     -10.444  52.776  52.918  0.00  0.00    +0.000 HD
ENDBRANCH   1  17
BRANCH   3  26
ATOM     26  O   UNL     1      -8.596  53.095  49.208  0.00  0.00    +0.000 OA
ATOM     27  H   UNL     1      -8.297  52.415  49.779  0.00  0.00    +0.000 HD
ENDBRANCH   3  26
BRANCH   5  28
ATOM     28  N   UNL     1     -12.798  56.656  50.503  0.00  0.00    +0.000 N 
ATOM     29  H   UNL     1     -12.743  57.633  50.403  0.00  0.00    +0.000 HD
BRANCH  28  30
ATOM     30  C   UNL     1     -14.008  55.965  50.962  0.00  0.00    +0.000 C 
BRANCH  30  31
ATOM     31  C   UNL     1     -15.078  56.959  51.298  0.00  0.00    +0.000 C 
ATOM     32  C   UNL     1     -14.820  58.169  52.154  0.00  0.00    +0.000 C 
ATOM     33  C   UNL     1     -15.604  57.013  52.713  0.00  0.00    +0.000 C 
ENDBRANCH  30  31
ENDBRANCH  28  30
ENDBRANCH   5  28
TORSDOF 5
ENDMDL
