MODEL 1
REMARK VINA RESULT:      -8.4      0.000      0.000
REMARK  Name = 
REMARK  5 active torsions:
REMARK  status: ('A' for Active; 'I' for Inactive)
REMARK    1  A    between atoms: C_6  and  C_10
REMARK    2  A    between atoms: C_14  and  O_18
REMARK    3  A    between atoms: N_17  and  N_20
REMARK    4  A    between atoms: N_20  and  C_23
REMARK    5  A    between atoms: C_23  and  C_26
REMARK                            x       y       z     vdW  Elec       q    Type
REMARK                         _______ _______ _______ _____ _____    ______ ____
ROOT
ATOM      1  C   UNL     1     -10.090  54.589  52.198  0.00  0.00    +0.000 A 
ATOM      2  C   UNL     1      -8.720  55.150  52.029  0.00  0.00    +0.000 A 
ATOM      3  C   UNL     1     -10.294  53.456  52.893  0.00  0.00    +0.000 A 
ATOM      4  O   UNL     1      -8.564  56.217  51.429  0.00  0.00    +0.000 OA
ATOM      5  N   UNL     1      -7.660  54.423  52.578  0.00  0.00    +0.000 N 
ATOM      6  C   UNL     1      -9.171  52.794  53.579  0.00  0.00    +0.000 A 
ATOM      7  C   UNL     1      -7.875  53.323  53.453  0.00  0.00    +0.000 A 
ATOM      8  C   UNL     1      -9.368  51.651  54.370  0.00  0.00    +0.000 A 
ATOM      9  C   UNL     1      -6.824  52.750  54.184  0.00  0.00    +0.000 A 
ATOM     10  C   UNL     1      -8.305  51.055  55.047  0.00  0.00    +0.000 A 
ATOM     11  C   UNL     1      -7.036  51.615  54.967  0.00  0.00    +0.000 A 
ENDROOT
BRANCH   1  17
ATOM     12  S   UNL     1     -12.543  56.089  49.561  0.00  0.00    +0.000 S 
ATOM     13  O   UNL     1     -13.434  55.091  48.998  0.00  0.00    +0.000 OA
ATOM     14  O   UNL     1     -11.942  57.098  48.711  0.00  0.00    +0.000 OA
ATOM     15  N   UNL     1     -11.358  55.304  50.330  0.00  0.00    +0.000 N 
ATOM     16  C   UNL     1     -13.492  56.962  50.756  0.00  0.00    +0.000 A 
ATOM     17  C   UNL     1     -11.270  55.321  51.625  0.00  0.00    +0.000 C 
ATOM     18  C   UNL     1     -13.195  56.760  52.096  0.00  0.00    +0.000 A 
ATOM     19  C   UNL     1     -14.510  57.826  50.339  0.00  0.00    +0.000 A 
ATOM     20  N   UNL     1     -12.159  55.916  52.495  0.00  0.00    +0.000 N 
ATOM     21  C   UNL     1     -14.010  57.385  53.047  0.00  0.00    +0.000 A 
ATOM     22  C   UNL     1     -15.283  58.477  51.298  0.00  0.00    +0.000 A 
ATOM     23  C   UNL     1     -15.043  58.243  52.652  0.00  0.00    +0.000 A 
ATOM     24  H   UNL     1     -10.691  54.803  49.808  0.00  0.00    +0.000 HD
ATOM     25  H   UNL     1     -12.056  55.734  53.456  0.00  0.00    +0.000 HD
ENDBRANCH   1  17
BRANCH   3  26
ATOM     26  O   UNL     1     -11.532  52.866  53.082  0.00  0.00    +0.000 OA
ATOM     27  H   UNL     1     -12.274  53.395  53.296  0.00  0.00    +0.000 HD
ENDBRANCH   3  26
BRANCH   5  28
ATOM     28  N   UNL     1      -6.330  54.903  52.332  0.00  0.00    +0.000 N 
ATOM     29  H   UNL     1      -5.791  55.395  52.994  0.00  0.00    +0.000 HD
BRANCH  28  30
ATOM     30  C   UNL     1      -5.863  54.573  50.972  0.00  0.00    +0.000 C 
BRANCH  30  31
ATOM     31  C   UNL     1      -4.778  53.491  51.005  0.00  0.00    +0.000 C 
ATOM     32  C   UNL     1      -5.367  52.077  50.961  0.00  0.00    +0.000 C 
ATOM     33  C   UNL     1      -3.956  53.448  52.295  0.00  0.00    +0.000 C 
ATOM     34  C   UNL     1      -4.261  51.169  51.495  0.00  0.00    +0.000 C 
ATOM     35  C   UNL     1      -3.300  52.073  52.264  0.00  0.00    +0.000 C 
ENDBRANCH  30  31
ENDBRANCH  28  30
ENDBRANCH   5  28
TORSDOF 5
ENDMDL
MODEL 2
REMARK VINA RESULT:      -8.3      3.367      4.939
REMARK  Name = 
REMARK  5 active torsions:
REMARK  status: ('A' for Active; 'I' for Inactive)
REMARK    1  A    between atoms: C_6  and  C_10
REMARK    2  A    between atoms: C_14  and  O_18
REMARK    3  A    between atoms: N_17  and  N_20
REMARK    4  A    between atoms: N_20  and  C_23
REMARK    5  A    between atoms: C_23  and  C_26
REMARK                            x       y       z     vdW  Elec       q    Type
REMARK                         _______ _______ _______ _____ _____    ______ ____
ROOT
ATOM      1  C   UNL     1     -11.606  56.097  48.641  0.00  0.00    +0.000 A 
ATOM      2  C   UNL     1     -10.410  55.558  49.347  0.00  0.00    +0.000 A 
ATOM      3  C   UNL     1     -11.894  55.724  47.381  0.00  0.00    +0.000 A 
ATOM      4  O   UNL     1     -10.195  55.877  50.520  0.00  0.00    +0.000 OA
ATOM      5  N   UNL     1      -9.580  54.692  48.629  0.00  0.00    +0.000 N 
ATOM      6  C   UNL     1     -11.077  54.701  46.706  0.00  0.00    +0.000 A 
ATOM      7  C   UNL     1      -9.960  54.161  47.366  0.00  0.00    +0.000 A 
ATOM      8  C   UNL     1     -11.398  54.241  45.419  0.00  0.00    +0.000 A 
ATOM      9  C   UNL     1      -9.241  53.119  46.761  0.00  0.00    +0.000 A 
ATOM     10  C   UNL     1     -10.642  53.244  44.804  0.00  0.00    +0.000 A 
ATOM     11  C   UNL     1      -9.573  52.672  45.483  0.00  0.00    +0.000 A 
ENDROOT
BRANCH   1  17
ATOM     12  S   UNL     1     -13.589  59.347  49.493  0.00  0.00    +0.000 S 
ATOM     13  O   UNL     1     -14.755  59.526  48.647  0.00  0.00    +0.000 OA
ATOM     14  O   UNL     1     -12.744  60.477  49.826  0.00  0.00    +0.000 OA
ATOM     15  N   UNL     1     -12.666  58.207  48.814  0.00  0.00    +0.000 N 
ATOM     16  C   UNL     1     -14.196  58.726  51.022  0.00  0.00    +0.000 A 
ATOM     17  C   UNL     1     -12.534  57.036  49.358  0.00  0.00    +0.000 C 
ATOM     18  C   UNL     1     -13.927  57.402  51.338  0.00  0.00    +0.000 A 
ATOM     19  C   UNL     1     -14.924  59.564  51.873  0.00  0.00    +0.000 A 
ATOM     20  N   UNL     1     -13.176  56.587  50.492  0.00  0.00    +0.000 N 
ATOM     21  C   UNL     1     -14.487  56.885  52.512  0.00  0.00    +0.000 A 
ATOM     22  C   UNL     1     -15.436  59.046  53.060  0.00  0.00    +0.000 A 
ATOM     23  C   UNL     1     -15.231  57.702  53.371  0.00  0.00    +0.000 A 
ATOM     24  H   UNL     1     -12.196  58.404  47.971  0.00  0.00    +0.000 HD
ATOM     25  H   UNL     1     -13.100  55.633  50.718  0.00  0.00    +0.000 HD
ENDBRANCH   1  17
BRANCH   3  26
ATOM     26  O   UNL     1     -12.976  56.191  46.655  0.00  0.00    +0.000 OA
ATOM     27  H   UNL     1     -12.850  56.844  45.996  0.00  0.00    +0.000 HD
ENDBRANCH   3  26
BRANCH   5  28
ATOM     28  N   UNL     1      -8.373  54.250  49.268  0.00  0.00    +0.000 N 
ATOM     29  H   UNL     1      -8.311  53.439  49.824  0.00  0.00    +0.000 HD
BRANCH  28  30
ATOM     30  C   UNL     1      -7.237  55.150  48.993  0.00  0.00    +0.000 C 
BRANCH  30  31
ATOM     31  C   UNL     1      -6.275  55.211  50.185  0.00  0.00    +0.000 C 
ATOM     32  C   UNL     1      -5.027  54.349  49.970  0.00  0.00    +0.000 C 
ATOM     33  C   UNL     1      -6.834  54.633  51.487  0.00  0.00    +0.000 C 
ATOM     34  C   UNL     1      -4.458  54.117  51.368  0.00  0.00    +0.000 C 
ATOM     35  C   UNL     1      -5.596  54.402  52.345  0.00  0.00    +0.000 C 
ENDBRANCH  30  31
ENDBRANCH  28  30
ENDBRANCH   5  28
TORSDOF 5
ENDMDL
MODEL 3
REMARK VINA RESULT:      -8.2      3.299      8.391
REMARK  Name = 
REMARK  5 active torsions:
REMARK  status: ('A' for Active; 'I' for Inactive)
REMARK    1  A    between atoms: C_6  and  C_10
REMARK    2  A    between atoms: C_14  and  O_18
REMARK    3  A    between atoms: N_17  and  N_20
REMARK    4  A    between atoms: N_20  and  C_23
REMARK    5  A    between atoms: C_23  and  C_26
REMARK                            x       y       z     vdW  Elec       q    Type
REMARK                         _______ _______ _______ _____ _____    ______ ____
ROOT
ATOM      1  C   UNL     1      -9.056  54.257  49.858  0.00  0.00    +0.000 A 
ATOM      2  C   UNL     1     -10.117  55.302  49.895  0.00  0.00    +0.000 A 
ATOM      3  C   UNL     1      -8.927  53.437  48.799  0.00  0.00    +0.000 A 
ATOM      4  O   UNL     1     -10.182  56.075  50.855  0.00  0.00    +0.000 OA
ATOM      5  N   UNL     1     -10.996  55.358  48.810  0.00  0.00    +0.000 N 
ATOM      6  C   UNL     1      -9.781  53.619  47.613  0.00  0.00    +0.000 A 
ATOM      7  C   UNL     1     -10.770  54.617  47.618  0.00  0.00    +0.000 A 
ATOM      8  C   UNL     1      -9.619  52.824  46.467  0.00  0.00    +0.000 A 
ATOM      9  C   UNL     1     -11.515  54.852  46.454  0.00  0.00    +0.000 A 
ATOM     10  C   UNL     1     -10.406  53.030  45.334  0.00  0.00    +0.000 A 
ATOM     11  C   UNL     1     -11.343  54.056  45.323  0.00  0.00    +0.000 A 
ENDROOT
BRANCH   1  17
ATOM     12  S   UNL     1      -7.692  54.109  53.510  0.00  0.00    +0.000 S 
ATOM     13  O   UNL     1      -7.915  52.818  54.136  0.00  0.00    +0.000 OA
ATOM     14  O   UNL     1      -7.897  55.332  54.261  0.00  0.00    +0.000 OA
ATOM     15  N   UNL     1      -8.611  54.169  52.182  0.00  0.00    +0.000 N 
ATOM     16  C   UNL     1      -6.005  54.118  53.015  0.00  0.00    +0.000 A 
ATOM     17  C   UNL     1      -8.082  54.142  50.997  0.00  0.00    +0.000 C 
ATOM     18  C   UNL     1      -5.727  54.045  51.657  0.00  0.00    +0.000 A 
ATOM     19  C   UNL     1      -4.997  54.196  53.981  0.00  0.00    +0.000 A 
ATOM     20  N   UNL     1      -6.744  53.996  50.705  0.00  0.00    +0.000 N 
ATOM     21  C   UNL     1      -4.384  53.961  51.271  0.00  0.00    +0.000 A 
ATOM     22  C   UNL     1      -3.665  54.158  53.576  0.00  0.00    +0.000 A 
ATOM     23  C   UNL     1      -3.359  54.024  52.222  0.00  0.00    +0.000 A 
ATOM     24  H   UNL     1      -9.590  54.228  52.273  0.00  0.00    +0.000 HD
ATOM     25  H   UNL     1      -6.490  53.846  49.766  0.00  0.00    +0.000 HD
ENDBRANCH   1  17
BRANCH   3  26
ATOM     26  O   UNL     1      -7.978  52.434  48.697  0.00  0.00    +0.000 OA
ATOM     27  H   UNL     1      -8.153  51.676  48.176  0.00  0.00    +0.000 HD
ENDBRANCH   3  26
BRANCH   5  28
ATOM     28  N   UNL     1     -12.081  56.295  48.886  0.00  0.00    +0.000 N 
ATOM     29  H   UNL     1     -12.026  57.227  48.572  0.00  0.00    +0.000 HD
BRANCH  28  30
ATOM     30  C   UNL     1     -13.290  55.698  49.486  0.00  0.00    +0.000 C 
BRANCH  30  31
ATOM     31  C   UNL     1     -13.980  56.680  50.439  0.00  0.00    +0.000 C 
ATOM     32  C   UNL     1     -13.364  56.659  51.841  0.00  0.00    +0.000 C 
ATOM     33  C   UNL     1     -15.446  56.358  50.736  0.00  0.00    +0.000 C 
ATOM     34  C   UNL     1     -14.428  57.266  52.752  0.00  0.00    +0.000 C 
ATOM     35  C   UNL     1     -15.749  57.165  51.993  0.00  0.00    +0.000 C 
ENDBRANCH  30  31
ENDBRANCH  28  30
ENDBRANCH   5  28
TORSDOF 5
ENDMDL
MODEL 4
REMARK VINA RESULT:      -8.2      3.510      5.015
REMARK  Name = 
REMARK  5 active torsions:
REMARK  status: ('A' for Active; 'I' for Inactive)
REMARK    1  A    between atoms: C_6  and  C_10
REMARK    2  A    between atoms: C_14  and  O_18
REMARK    3  A    between atoms: N_17  and  N_20
REMARK    4  A    between atoms: N_20  and  C_23
REMARK    5  A    between atoms: C_23  and  C_26
REMARK                            x       y       z     vdW  Elec       q    Type
REMARK                         _______ _______ _______ _____ _____    ______ ____
ROOT
ATOM      1  C   UNL     1     -10.609  55.750  48.331  0.00  0.00    +0.000 A 
ATOM      2  C   UNL     1      -9.173  55.752  48.728  0.00  0.00    +0.000 A 
ATOM      3  C   UNL     1     -11.009  55.182  47.179  0.00  0.00    +0.000 A 
ATOM      4  O   UNL     1      -8.839  56.234  49.814  0.00  0.00    +0.000 OA
ATOM      5  N   UNL     1      -8.262  55.187  47.832  0.00  0.00    +0.000 N 
ATOM      6  C   UNL     1     -10.040  54.471  46.328  0.00  0.00    +0.000 A 
ATOM      7  C   UNL     1      -8.685  54.439  46.699  0.00  0.00    +0.000 A 
ATOM      8  C   UNL     1     -10.442  53.808  45.157  0.00  0.00    +0.000 A 
ATOM      9  C   UNL     1      -7.781  53.680  45.941  0.00  0.00    +0.000 A 
ATOM     10  C   UNL     1      -9.524  53.104  44.379  0.00  0.00    +0.000 A 
ATOM     11  C   UNL     1      -8.196  53.027  44.781  0.00  0.00    +0.000 A 
ENDROOT
BRANCH   1  17
ATOM     12  S   UNL     1     -13.130  56.073  51.292  0.00  0.00    +0.000 S 
ATOM     13  O   UNL     1     -12.471  56.338  52.558  0.00  0.00    +0.000 OA
ATOM     14  O   UNL     1     -14.236  55.138  51.223  0.00  0.00    +0.000 OA
ATOM     15  N   UNL     1     -11.995  55.594  50.245  0.00  0.00    +0.000 N 
ATOM     16  C   UNL     1     -13.764  57.620  50.747  0.00  0.00    +0.000 A 
ATOM     17  C   UNL     1     -11.638  56.347  49.249  0.00  0.00    +0.000 C 
ATOM     18  C   UNL     1     -13.155  58.225  49.658  0.00  0.00    +0.000 A 
ATOM     19  C   UNL     1     -14.851  58.198  51.412  0.00  0.00    +0.000 A 
ATOM     20  N   UNL     1     -12.091  57.622  48.988  0.00  0.00    +0.000 N 
ATOM     21  C   UNL     1     -13.603  59.497  49.283  0.00  0.00    +0.000 A 
ATOM     22  C   UNL     1     -15.314  59.444  50.997  0.00  0.00    +0.000 A 
ATOM     23  C   UNL     1     -14.679  60.100  49.943  0.00  0.00    +0.000 A 
ATOM     24  H   UNL     1     -11.567  54.715  50.363  0.00  0.00    +0.000 HD
ATOM     25  H   UNL     1     -11.634  58.139  48.287  0.00  0.00    +0.000 HD
ENDBRANCH   1  17
BRANCH   3  26
ATOM     26  O   UNL     1     -12.319  55.153  46.734  0.00  0.00    +0.000 OA
ATOM     27  H   UNL     1     -12.514  55.341  45.838  0.00  0.00    +0.000 HD
ENDBRANCH   3  26
BRANCH   5  28
ATOM     28  N   UNL     1      -6.868  55.277  48.162  0.00  0.00    +0.000 N 
ATOM     29  H   UNL     1      -6.285  56.023  47.888  0.00  0.00    +0.000 HD
BRANCH  28  30
ATOM     30  C   UNL     1      -6.409  54.123  48.959  0.00  0.00    +0.000 C 
BRANCH  30  31
ATOM     31  C   UNL     1      -5.693  54.579  50.235  0.00  0.00    +0.000 C 
ATOM     32  C   UNL     1      -4.408  53.785  50.495  0.00  0.00    +0.000 C 
ATOM     33  C   UNL     1      -6.476  54.341  51.528  0.00  0.00    +0.000 C 
ATOM     34  C   UNL     1      -4.110  53.988  51.979  0.00  0.00    +0.000 C 
ATOM     35  C   UNL     1      -5.418  54.446  52.619  0.00  0.00    +0.000 C 
ENDBRANCH  30  31
ENDBRANCH  28  30
ENDBRANCH   5  28
TORSDOF 5
ENDMDL
MODEL 5
REMARK VINA RESULT:      -8.2      3.286      4.975
REMARK  Name = 
REMARK  5 active torsions:
REMARK  status: ('A' for Active; 'I' for Inactive)
REMARK    1  A    between atoms: C_6  and  C_10
REMARK    2  A    between atoms: C_14  and  O_18
REMARK    3  A    between atoms: N_17  and  N_20
REMARK    4  A    between atoms: N_20  and  C_23
REMARK    5  A    between atoms: C_23  and  C_26
REMARK                            x       y       z     vdW  Elec       q    Type
REMARK                         _______ _______ _______ _____ _____    ______ ____
ROOT
ATOM      1  C   UNL     1     -11.641  55.942  48.838  0.00  0.00    +0.000 A 
ATOM      2  C   UNL     1     -10.597  55.260  49.652  0.00  0.00    +0.000 A 
ATOM      3  C   UNL     1     -11.794  55.662  47.531  0.00  0.00    +0.000 A 
ATOM      4  O   UNL     1     -10.510  55.498  50.860  0.00  0.00    +0.000 OA
ATOM      5  N   UNL     1      -9.756  54.361  48.990  0.00  0.00    +0.000 N 
ATOM      6  C   UNL     1     -10.984  54.605  46.900  0.00  0.00    +0.000 A 
ATOM      7  C   UNL     1     -10.012  53.932  47.659  0.00  0.00    +0.000 A 
ATOM      8  C   UNL     1     -11.173  54.243  45.557  0.00  0.00    +0.000 A 
ATOM      9  C   UNL     1      -9.311  52.862  47.085  0.00  0.00    +0.000 A 
ATOM     10  C   UNL     1     -10.430  53.215  44.980  0.00  0.00    +0.000 A 
ATOM     11  C   UNL     1      -9.510  52.513  45.749  0.00  0.00    +0.000 A 
ENDROOT
BRANCH   1  17
ATOM     12  S   UNL     1     -13.607  59.248  49.494  0.00  0.00    +0.000 S 
ATOM     13  O   UNL     1     -14.755  59.397  48.618  0.00  0.00    +0.000 OA
ATOM     14  O   UNL     1     -12.757  60.385  49.787  0.00  0.00    +0.000 OA
ATOM     15  N   UNL     1     -12.683  58.068  48.888  0.00  0.00    +0.000 N 
ATOM     16  C   UNL     1     -14.248  58.708  51.040  0.00  0.00    +0.000 A 
ATOM     17  C   UNL     1     -12.573  56.924  49.491  0.00  0.00    +0.000 C 
ATOM     18  C   UNL     1     -13.998  57.398  51.424  0.00  0.00    +0.000 A 
ATOM     19  C   UNL     1     -14.983  59.593  51.835  0.00  0.00    +0.000 A 
ATOM     20  N   UNL     1     -13.240  56.536  50.633  0.00  0.00    +0.000 N 
ATOM     21  C   UNL     1     -14.586  56.944  52.611  0.00  0.00    +0.000 A 
ATOM     22  C   UNL     1     -15.522  59.137  53.036  0.00  0.00    +0.000 A 
ATOM     23  C   UNL     1     -15.336  57.809  53.415  0.00  0.00    +0.000 A 
ATOM     24  H   UNL     1     -12.195  58.219  48.046  0.00  0.00    +0.000 HD
ATOM     25  H   UNL     1     -13.178  55.593  50.906  0.00  0.00    +0.000 HD
ENDBRANCH   1  17
BRANCH   3  26
ATOM     26  O   UNL     1     -12.729  56.262  46.706  0.00  0.00    +0.000 OA
ATOM     27  H   UNL     1     -13.010  55.830  45.924  0.00  0.00    +0.000 HD
ENDBRANCH   3  26
BRANCH   5  28
ATOM     28  N   UNL     1      -8.684  53.779  49.746  0.00  0.00    +0.000 N 
ATOM     29  H   UNL     1      -8.724  52.885  50.159  0.00  0.00    +0.000 HD
BRANCH  28  30
ATOM     30  C   UNL     1      -7.513  54.672  49.829  0.00  0.00    +0.000 C 
BRANCH  30  31
ATOM     31  C   UNL     1      -7.018  54.806  51.273  0.00  0.00    +0.000 C 
ATOM     32  C   UNL     1      -7.716  53.825  52.220  0.00  0.00    +0.000 C 
ATOM     33  C   UNL     1      -7.328  56.152  51.932  0.00  0.00    +0.000 C 
ATOM     34  C   UNL     1      -7.508  54.404  53.618  0.00  0.00    +0.000 C 
ATOM     35  C   UNL     1      -7.155  55.877  53.421  0.00  0.00    +0.000 C 
ENDBRANCH  30  31
ENDBRANCH  28  30
ENDBRANCH   5  28
TORSDOF 5
ENDMDL
MODEL 6
REMARK VINA RESULT:      -8.0      2.958      8.289
REMARK  Name = 
REMARK  5 active torsions:
REMARK  status: ('A' for Active; 'I' for Inactive)
REMARK    1  A    between atoms: C_6  and  C_10
REMARK    2  A    between atoms: C_14  and  O_18
REMARK    3  A    between atoms: N_17  and  N_20
REMARK    4  A    between atoms: N_20  and  C_23
REMARK    5  A    between atoms: C_23  and  C_26
REMARK                            x       y       z     vdW  Elec       q    Type
REMARK                         _______ _______ _______ _____ _____    ______ ____
ROOT
ATOM      1  C   UNL     1      -9.831  54.013  50.715  0.00  0.00    +0.000 A 
ATOM      2  C   UNL     1     -10.816  55.097  50.988  0.00  0.00    +0.000 A 
ATOM      3  C   UNL     1      -9.677  53.512  49.476  0.00  0.00    +0.000 A 
ATOM      4  O   UNL     1     -10.903  55.574  52.122  0.00  0.00    +0.000 OA
ATOM      5  N   UNL     1     -11.602  55.530  49.916  0.00  0.00    +0.000 N 
ATOM      6  C   UNL     1     -10.421  54.091  48.344  0.00  0.00    +0.000 A 
ATOM      7  C   UNL     1     -11.335  55.132  48.577  0.00  0.00    +0.000 A 
ATOM      8  C   UNL     1     -10.225  53.635  47.031  0.00  0.00    +0.000 A 
ATOM      9  C   UNL     1     -11.968  55.748  47.488  0.00  0.00    +0.000 A 
ATOM     10  C   UNL     1     -10.904  54.217  45.961  0.00  0.00    +0.000 A 
ATOM     11  C   UNL     1     -11.764  55.285  46.189  0.00  0.00    +0.000 A 
ENDROOT
BRANCH   1  17
ATOM     12  S   UNL     1      -6.635  53.321  52.842  0.00  0.00    +0.000 S 
ATOM     13  O   UNL     1      -6.235  54.468  53.637  0.00  0.00    +0.000 OA
ATOM     14  O   UNL     1      -5.638  52.522  52.157  0.00  0.00    +0.000 OA
ATOM     15  N   UNL     1      -7.709  53.837  51.751  0.00  0.00    +0.000 N 
ATOM     16  C   UNL     1      -7.455  52.230  53.951  0.00  0.00    +0.000 A 
ATOM     17  C   UNL     1      -8.960  53.500  51.827  0.00  0.00    +0.000 C 
ATOM     18  C   UNL     1      -8.829  52.085  53.821  0.00  0.00    +0.000 A 
ATOM     19  C   UNL     1      -6.720  51.544  54.923  0.00  0.00    +0.000 A 
ATOM     20  N   UNL     1      -9.544  52.755  52.828  0.00  0.00    +0.000 N 
ATOM     21  C   UNL     1      -9.492  51.287  54.761  0.00  0.00    +0.000 A 
ATOM     22  C   UNL     1      -7.390  50.718  55.822  0.00  0.00    +0.000 A 
ATOM     23  C   UNL     1      -8.778  50.602  55.750  0.00  0.00    +0.000 A 
ATOM     24  H   UNL     1      -7.409  54.417  51.014  0.00  0.00    +0.000 HD
ATOM     25  H   UNL     1     -10.525  52.692  52.845  0.00  0.00    +0.000 HD
ENDBRANCH   1  17
BRANCH   3  26
ATOM     26  O   UNL     1      -8.796  52.496  49.147  0.00  0.00    +0.000 OA
ATOM     27  H   UNL     1      -8.655  52.272  48.249  0.00  0.00    +0.000 HD
ENDBRANCH   3  26
BRANCH   5  28
ATOM     28  N   UNL     1     -12.621  56.501  50.194  0.00  0.00    +0.000 N 
ATOM     29  H   UNL     1     -12.548  57.457  49.965  0.00  0.00    +0.000 HD
BRANCH  28  30
ATOM     30  C   UNL     1     -13.793  55.902  50.860  0.00  0.00    +0.000 C 
BRANCH  30  31
ATOM     31  C   UNL     1     -14.744  56.981  51.390  0.00  0.00    +0.000 C 
ATOM     32  C   UNL     1     -14.655  58.281  50.582  0.00  0.00    +0.000 C 
ATOM     33  C   UNL     1     -14.430  57.470  52.805  0.00  0.00    +0.000 C 
ATOM     34  C   UNL     1     -15.238  59.357  51.496  0.00  0.00    +0.000 C 
ATOM     35  C   UNL     1     -15.188  58.788  52.912  0.00  0.00    +0.000 C 
ENDBRANCH  30  31
ENDBRANCH  28  30
ENDBRANCH   5  28
TORSDOF 5
ENDMDL
MODEL 7
REMARK VINA RESULT:      -8.0      2.869      8.626
REMARK  Name = 
REMARK  5 active torsions:
REMARK  status: ('A' for Active; 'I' for Inactive)
REMARK    1  A    between atoms: C_6  and  C_10
REMARK    2  A    between atoms: C_14  and  O_18
REMARK    3  A    between atoms: N_17  and  N_20
REMARK    4  A    between atoms: N_20  and  C_23
REMARK    5  A    between atoms: C_23  and  C_26
REMARK                            x       y       z     vdW  Elec       q    Type
REMARK                         _______ _______ _______ _____ _____    ______ ____
ROOT
ATOM      1  C   UNL     1      -9.529  53.780  50.474  0.00  0.00    +0.000 A 
ATOM      2  C   UNL     1     -10.719  54.192  51.270  0.00  0.00    +0.000 A 
ATOM      3  C   UNL     1      -9.487  53.971  49.143  0.00  0.00    +0.000 A 
ATOM      4  O   UNL     1     -10.713  54.052  52.497  0.00  0.00    +0.000 OA
ATOM      5  N   UNL     1     -11.801  54.733  50.570  0.00  0.00    +0.000 N 
ATOM      6  C   UNL     1     -10.585  54.674  48.459  0.00  0.00    +0.000 A 
ATOM      7  C   UNL     1     -11.705  55.093  49.198  0.00  0.00    +0.000 A 
ATOM      8  C   UNL     1     -10.533  54.949  47.083  0.00  0.00    +0.000 A 
ATOM      9  C   UNL     1     -12.703  55.847  48.565  0.00  0.00    +0.000 A 
ATOM     10  C   UNL     1     -11.560  55.651  46.453  0.00  0.00    +0.000 A 
ATOM     11  C   UNL     1     -12.638  56.114  47.198  0.00  0.00    +0.000 A 
ENDROOT
BRANCH   1  17
ATOM     12  S   UNL     1      -7.394  51.350  52.654  0.00  0.00    +0.000 S 
ATOM     13  O   UNL     1      -7.056  50.124  51.954  0.00  0.00    +0.000 OA
ATOM     14  O   UNL     1      -7.792  51.312  54.048  0.00  0.00    +0.000 OA
ATOM     15  N   UNL     1      -8.563  52.084  51.813  0.00  0.00    +0.000 N 
ATOM     16  C   UNL     1      -5.952  52.355  52.587  0.00  0.00    +0.000 A 
ATOM     17  C   UNL     1      -8.336  53.187  51.168  0.00  0.00    +0.000 C 
ATOM     18  C   UNL     1      -5.981  53.479  51.774  0.00  0.00    +0.000 A 
ATOM     19  C   UNL     1      -4.826  52.007  53.340  0.00  0.00    +0.000 A 
ATOM     20  N   UNL     1      -7.121  53.827  51.050  0.00  0.00    +0.000 N 
ATOM     21  C   UNL     1      -4.804  54.226  51.651  0.00  0.00    +0.000 A 
ATOM     22  C   UNL     1      -3.677  52.788  53.242  0.00  0.00    +0.000 A 
ATOM     23  C   UNL     1      -3.662  53.888  52.385  0.00  0.00    +0.000 A 
ATOM     24  H   UNL     1      -9.463  51.687  51.789  0.00  0.00    +0.000 HD
ATOM     25  H   UNL     1      -7.054  54.576  50.416  0.00  0.00    +0.000 HD
ENDBRANCH   1  17
BRANCH   3  26
ATOM     26  O   UNL     1      -8.425  53.603  48.333  0.00  0.00    +0.000 OA
ATOM     27  H   UNL     1      -8.297  52.703  48.110  0.00  0.00    +0.000 HD
ENDBRANCH   3  26
BRANCH   5  28
ATOM     28  N   UNL     1     -12.988  55.036  51.317  0.00  0.00    +0.000 N 
ATOM     29  H   UNL     1     -13.805  54.486  51.299  0.00  0.00    +0.000 HD
BRANCH  28  30
ATOM     30  C   UNL     1     -12.842  56.267  52.117  0.00  0.00    +0.000 C 
BRANCH  30  31
ATOM     31  C   UNL     1     -14.101  57.137  52.033  0.00  0.00    +0.000 C 
ATOM     32  C   UNL     1     -14.019  58.170  50.904  0.00  0.00    +0.000 C 
ATOM     33  C   UNL     1     -14.346  58.027  53.254  0.00  0.00    +0.000 C 
ATOM     34  C   UNL     1     -15.056  59.233  51.262  0.00  0.00    +0.000 C 
ATOM     35  C   UNL     1     -15.340  59.068  52.753  0.00  0.00    +0.000 C 
ENDBRANCH  30  31
ENDBRANCH  28  30
ENDBRANCH   5  28
TORSDOF 5
ENDMDL
MODEL 8
REMARK VINA RESULT:      -8.0      1.792      2.294
REMARK  Name = 
REMARK  5 active torsions:
REMARK  status: ('A' for Active; 'I' for Inactive)
REMARK    1  A    between atoms: C_6  and  C_10
REMARK    2  A    between atoms: C_14  and  O_18
REMARK    3  A    between atoms: N_17  and  N_20
REMARK    4  A    between atoms: N_20  and  C_23
REMARK    5  A    between atoms: C_23  and  C_26
REMARK                            x       y       z     vdW  Elec       q    Type
REMARK                         _______ _______ _______ _____ _____    ______ ____
ROOT
ATOM      1  C   UNL     1     -11.298  54.070  51.640  0.00  0.00    +0.000 A 
ATOM      2  C   UNL     1     -10.302  54.243  52.734  0.00  0.00    +0.000 A 
ATOM      3  C   UNL     1     -11.446  52.886  51.019  0.00  0.00    +0.000 A 
ATOM      4  O   UNL     1     -10.220  55.325  53.323  0.00  0.00    +0.000 OA
ATOM      5  N   UNL     1      -9.499  53.143  53.048  0.00  0.00    +0.000 N 
ATOM      6  C   UNL     1     -10.683  51.711  51.472  0.00  0.00    +0.000 A 
ATOM      7  C   UNL     1      -9.758  51.848  52.520  0.00  0.00    +0.000 A 
ATOM      8  C   UNL     1     -10.871  50.448  50.888  0.00  0.00    +0.000 A 
ATOM      9  C   UNL     1      -9.105  50.710  53.015  0.00  0.00    +0.000 A 
ATOM     10  C   UNL     1     -10.173  49.333  51.351  0.00  0.00    +0.000 A 
ATOM     11  C   UNL     1      -9.302  49.462  52.426  0.00  0.00    +0.000 A 
ENDROOT
BRANCH   1  17
ATOM     12  S   UNL     1     -13.009  56.796  49.435  0.00  0.00    +0.000 S 
ATOM     13  O   UNL     1     -14.069  56.255  48.604  0.00  0.00    +0.000 OA
ATOM     14  O   UNL     1     -12.088  57.779  48.901  0.00  0.00    +0.000 OA
ATOM     15  N   UNL     1     -12.150  55.549  49.998  0.00  0.00    +0.000 N 
ATOM     16  C   UNL     1     -13.813  57.570  50.794  0.00  0.00    +0.000 A 
ATOM     17  C   UNL     1     -12.187  55.218  51.253  0.00  0.00    +0.000 C 
ATOM     18  C   UNL     1     -13.710  56.967  52.039  0.00  0.00    +0.000 A 
ATOM     19  C   UNL     1     -14.526  58.757  50.596  0.00  0.00    +0.000 A 
ATOM     20  N   UNL     1     -12.972  55.798  52.226  0.00  0.00    +0.000 N 
ATOM     21  C   UNL     1     -14.425  57.535  53.101  0.00  0.00    +0.000 A 
ATOM     22  C   UNL     1     -15.194  59.334  51.673  0.00  0.00    +0.000 A 
ATOM     23  C   UNL     1     -15.156  58.714  52.922  0.00  0.00    +0.000 A 
ATOM     24  H   UNL     1     -11.587  55.030  49.379  0.00  0.00    +0.000 HD
ATOM     25  H   UNL     1     -13.014  55.361  53.106  0.00  0.00    +0.000 HD
ENDBRANCH   1  17
BRANCH   3  26
ATOM     26  O   UNL     1     -12.337  52.651  49.986  0.00  0.00    +0.000 OA
ATOM     27  H   UNL     1     -12.018  52.466  49.125  0.00  0.00    +0.000 HD
ENDBRANCH   3  26
BRANCH   5  28
ATOM     28  N   UNL     1      -8.470  53.333  54.030  0.00  0.00    +0.000 N 
ATOM     29  H   UNL     1      -8.498  52.951  54.937  0.00  0.00    +0.000 HD
BRANCH  28  30
ATOM     30  C   UNL     1      -7.363  54.166  53.521  0.00  0.00    +0.000 C 
BRANCH  30  31
ATOM     31  C   UNL     1      -6.093  53.335  53.312  0.00  0.00    +0.000 C 
ATOM     32  C   UNL     1      -6.081  52.622  51.956  0.00  0.00    +0.000 C 
ATOM     33  C   UNL     1      -5.929  52.163  54.283  0.00  0.00    +0.000 C 
ATOM     34  C   UNL     1      -5.063  51.494  52.108  0.00  0.00    +0.000 C 
ATOM     35  C   UNL     1      -4.890  51.274  53.609  0.00  0.00    +0.000 C 
ENDBRANCH  30  31
ENDBRANCH  28  30
ENDBRANCH   5  28
TORSDOF 5
ENDMDL
MODEL 9
REMARK VINA RESULT:      -7.8      3.781      7.442
REMARK  Name = 
REMARK  5 active torsions:
REMARK  status: ('A' for Active; 'I' for Inactive)
REMARK    1  A    between atoms: C_6  and  C_10
REMARK    2  A    between atoms: C_14  and  O_18
REMARK    3  A    between atoms: N_17  and  N_20
REMARK    4  A    between atoms: N_20  and  C_23
REMARK    5  A    between atoms: C_23  and  C_26
REMARK                            x       y       z     vdW  Elec       q    Type
REMARK                         _______ _______ _______ _____ _____    ______ ____
ROOT
ATOM      1  C   UNL     1     -10.297  55.085  50.726  0.00  0.00    +0.000 A 
ATOM      2  C   UNL     1      -9.974  54.973  49.275  0.00  0.00    +0.000 A 
ATOM      3  C   UNL     1     -11.424  55.690  51.140  0.00  0.00    +0.000 A 
ATOM      4  O   UNL     1      -8.958  54.370  48.919  0.00  0.00    +0.000 OA
ATOM      5  N   UNL     1     -10.863  55.566  48.375  0.00  0.00    +0.000 N 
ATOM      6  C   UNL     1     -12.408  56.177  50.158  0.00  0.00    +0.000 A 
ATOM      7  C   UNL     1     -12.133  56.057  48.785  0.00  0.00    +0.000 A 
ATOM      8  C   UNL     1     -13.625  56.747  50.563  0.00  0.00    +0.000 A 
ATOM      9  C   UNL     1     -13.112  56.431  47.853  0.00  0.00    +0.000 A 
ATOM     10  C   UNL     1     -14.568  57.168  49.626  0.00  0.00    +0.000 A 
ATOM     11  C   UNL     1     -14.317  56.995  48.270  0.00  0.00    +0.000 A 
ENDROOT
BRANCH   1  17
ATOM     12  S   UNL     1      -7.045  54.355  52.755  0.00  0.00    +0.000 S 
ATOM     13  O   UNL     1      -6.771  55.373  53.752  0.00  0.00    +0.000 OA
ATOM     14  O   UNL     1      -5.969  53.803  51.956  0.00  0.00    +0.000 OA
ATOM     15  N   UNL     1      -8.168  54.946  51.754  0.00  0.00    +0.000 N 
ATOM     16  C   UNL     1      -7.746  53.001  53.631  0.00  0.00    +0.000 A 
ATOM     17  C   UNL     1      -9.376  54.472  51.743  0.00  0.00    +0.000 C 
ATOM     18  C   UNL     1      -9.096  52.739  53.450  0.00  0.00    +0.000 A 
ATOM     19  C   UNL     1      -6.942  52.230  54.477  0.00  0.00    +0.000 A 
ATOM     20  N   UNL     1      -9.878  53.500  52.582  0.00  0.00    +0.000 N 
ATOM     21  C   UNL     1      -9.671  51.718  54.217  0.00  0.00    +0.000 A 
ATOM     22  C   UNL     1      -7.521  51.188  55.198  0.00  0.00    +0.000 A 
ATOM     23  C   UNL     1      -8.888  50.943  55.080  0.00  0.00    +0.000 A 
ATOM     24  H   UNL     1      -7.932  55.679  51.140  0.00  0.00    +0.000 HD
ATOM     25  H   UNL     1     -10.847  53.333  52.567  0.00  0.00    +0.000 HD
ENDBRANCH   1  17
BRANCH   3  26
ATOM     26  O   UNL     1     -11.787  55.845  52.467  0.00  0.00    +0.000 OA
ATOM     27  H   UNL     1     -11.498  56.596  52.946  0.00  0.00    +0.000 HD
ENDBRANCH   3  26
BRANCH   5  28
ATOM     28  N   UNL     1     -10.507  55.552  46.985  0.00  0.00    +0.000 N 
ATOM     29  H   UNL     1      -9.810  56.125  46.590  0.00  0.00    +0.000 HD
BRANCH  28  30
ATOM     30  C   UNL     1     -11.303  54.576  46.217  0.00  0.00    +0.000 C 
BRANCH  30  31
ATOM     31  C   UNL     1     -10.409  53.502  45.586  0.00  0.00    +0.000 C 
ATOM     32  C   UNL     1      -9.007  54.030  45.263  0.00  0.00    +0.000 C 
ATOM     33  C   UNL     1     -10.879  53.003  44.218  0.00  0.00    +0.000 C 
ATOM     34  C   UNL     1      -8.445  53.057  44.230  0.00  0.00    +0.000 C 
ATOM     35  C   UNL     1      -9.645  52.324  43.636  0.00  0.00    +0.000 C 
ENDBRANCH  30  31
ENDBRANCH  28  30
ENDBRANCH   5  28
TORSDOF 5
ENDMDL
