MODEL 1
REMARK VINA RESULT:      -8.8      0.000      0.000
REMARK  Name = 
REMARK  5 active torsions:
REMARK  status: ('A' for Active; 'I' for Inactive)
REMARK    1  A    between atoms: C_6  and  C_10
REMARK    2  A    between atoms: C_14  and  O_18
REMARK    3  A    between atoms: N_17  and  N_20
REMARK    4  A    between atoms: N_20  and  C_23
REMARK    5  A    between atoms: C_23  and  C_26
REMARK                            x       y       z     vdW  Elec       q    Type
REMARK                         _______ _______ _______ _____ _____    ______ ____
ROOT
ATOM      1  C   UNL     1     -11.433  56.047  48.836  0.00  0.00    +0.000 A 
ATOM      2  C   UNL     1     -10.352  55.479  49.696  0.00  0.00    +0.000 A 
ATOM      3  C   UNL     1     -11.549  55.671  47.551  0.00  0.00    +0.000 A 
ATOM      4  O   UNL     1     -10.296  55.871  50.866  0.00  0.00    +0.000 OA
ATOM      5  N   UNL     1      -9.493  54.530  49.135  0.00  0.00    +0.000 N 
ATOM      6  C   UNL     1     -10.639  54.669  46.980  0.00  0.00    +0.000 A 
ATOM      7  C   UNL     1      -9.621  54.114  47.775  0.00  0.00    +0.000 A 
ATOM      8  C   UNL     1     -10.788  54.244  45.648  0.00  0.00    +0.000 A 
ATOM      9  C   UNL     1      -8.766  53.152  47.213  0.00  0.00    +0.000 A 
ATOM     10  C   UNL     1      -9.949  53.271  45.110  0.00  0.00    +0.000 A 
ATOM     11  C   UNL     1      -8.936  52.727  45.891  0.00  0.00    +0.000 A 
ENDROOT
BRANCH   1  17
ATOM     12  S   UNL     1     -13.567  59.282  49.461  0.00  0.00    +0.000 S 
ATOM     13  O   UNL     1     -14.696  59.361  48.553  0.00  0.00    +0.000 OA
ATOM     14  O   UNL     1     -12.792  60.465  49.772  0.00  0.00    +0.000 OA
ATOM     15  N   UNL     1     -12.553  58.161  48.879  0.00  0.00    +0.000 N 
ATOM     16  C   UNL     1     -14.207  58.705  50.990  0.00  0.00    +0.000 A 
ATOM     17  C   UNL     1     -12.430  57.003  49.457  0.00  0.00    +0.000 C 
ATOM     18  C   UNL     1     -13.895  57.413  51.378  0.00  0.00    +0.000 A 
ATOM     19  C   UNL     1     -14.993  59.548  51.778  0.00  0.00    +0.000 A 
ATOM     20  N   UNL     1     -13.120  56.580  50.573  0.00  0.00    +0.000 N 
ATOM     21  C   UNL     1     -14.449  56.928  52.567  0.00  0.00    +0.000 A 
ATOM     22  C   UNL     1     -15.511  59.064  52.977  0.00  0.00    +0.000 A 
ATOM     23  C   UNL     1     -15.246  57.751  53.367  0.00  0.00    +0.000 A 
ATOM     24  H   UNL     1     -12.022  58.359  48.074  0.00  0.00    +0.000 HD
ATOM     25  H   UNL     1     -13.062  55.628  50.818  0.00  0.00    +0.000 HD
ENDBRANCH   1  17
BRANCH   3  26
ATOM     26  O   UNL     1     -12.519  56.142  46.685  0.00  0.00    +0.000 OA
ATOM     27  H   UNL     1     -13.009  56.910  46.903  0.00  0.00    +0.000 HD
ENDBRANCH   3  26
BRANCH   5  28
ATOM     28  N   UNL     1      -8.379  54.015  49.885  0.00  0.00    +0.000 N 
ATOM     29  H   UNL     1      -8.401  53.132  50.316  0.00  0.00    +0.000 HD
BRANCH  28  30
ATOM     30  C   UNL     1      -7.206  54.897  49.962  0.00  0.00    +0.000 C 
BRANCH  30  31
ATOM     31  C   UNL     1      -6.701  55.015  51.375  0.00  0.00    +0.000 A 
ATOM     32  C   UNL     1      -5.573  54.308  51.793  0.00  0.00    +0.000 A 
ATOM     33  C   UNL     1      -7.326  55.838  52.315  0.00  0.00    +0.000 A 
ATOM     34  N   UNL     1      -5.067  54.354  53.044  0.00  0.00    +0.000 NA
ATOM     35  C   UNL     1      -6.828  55.904  53.612  0.00  0.00    +0.000 A 
ATOM     36  C   UNL     1      -5.712  55.148  53.928  0.00  0.00    +0.000 A 
ENDBRANCH  30  31
ENDBRANCH  28  30
ENDBRANCH   5  28
TORSDOF 5
ENDMDL
MODEL 2
REMARK VINA RESULT:      -8.8      2.614      7.318
REMARK  Name = 
REMARK  5 active torsions:
REMARK  status: ('A' for Active; 'I' for Inactive)
REMARK    1  A    between atoms: C_6  and  C_10
REMARK    2  A    between atoms: C_14  and  O_18
REMARK    3  A    between atoms: N_17  and  N_20
REMARK    4  A    between atoms: N_20  and  C_23
REMARK    5  A    between atoms: C_23  and  C_26
REMARK                            x       y       z     vdW  Elec       q    Type
REMARK                         _______ _______ _______ _____ _____    ______ ____
ROOT
ATOM      1  C   UNL     1      -9.131  54.334  49.888  0.00  0.00    +0.000 A 
ATOM      2  C   UNL     1     -10.176  55.398  49.954  0.00  0.00    +0.000 A 
ATOM      3  C   UNL     1      -9.014  53.560  48.795  0.00  0.00    +0.000 A 
ATOM      4  O   UNL     1     -10.235  56.070  50.988  0.00  0.00    +0.000 OA
ATOM      5  N   UNL     1     -11.001  55.582  48.840  0.00  0.00    +0.000 N 
ATOM      6  C   UNL     1      -9.887  53.772  47.633  0.00  0.00    +0.000 A 
ATOM      7  C   UNL     1     -10.871  54.774  47.670  0.00  0.00    +0.000 A 
ATOM      8  C   UNL     1      -9.736  52.991  46.473  0.00  0.00    +0.000 A 
ATOM      9  C   UNL     1     -11.692  54.966  46.546  0.00  0.00    +0.000 A 
ATOM     10  C   UNL     1     -10.540  53.207  45.357  0.00  0.00    +0.000 A 
ATOM     11  C   UNL     1     -11.519  54.192  45.393  0.00  0.00    +0.000 A 
ENDROOT
BRANCH   1  17
ATOM     12  S   UNL     1      -7.763  54.109  53.561  0.00  0.00    +0.000 S 
ATOM     13  O   UNL     1      -7.996  52.799  54.138  0.00  0.00    +0.000 OA
ATOM     14  O   UNL     1      -7.961  55.305  54.353  0.00  0.00    +0.000 OA
ATOM     15  N   UNL     1      -8.689  54.228  52.237  0.00  0.00    +0.000 N 
ATOM     16  C   UNL     1      -6.081  54.131  53.060  0.00  0.00    +0.000 A 
ATOM     17  C   UNL     1      -8.168  54.187  51.048  0.00  0.00    +0.000 C 
ATOM     18  C   UNL     1      -5.808  54.101  51.703  0.00  0.00    +0.000 A 
ATOM     19  C   UNL     1      -5.070  54.193  54.020  0.00  0.00    +0.000 A 
ATOM     20  N   UNL     1      -6.829  54.025  50.758  0.00  0.00    +0.000 N 
ATOM     21  C   UNL     1      -4.469  54.060  51.299  0.00  0.00    +0.000 A 
ATOM     22  C   UNL     1      -3.740  54.187  53.604  0.00  0.00    +0.000 A 
ATOM     23  C   UNL     1      -3.440  54.112  52.243  0.00  0.00    +0.000 A 
ATOM     24  H   UNL     1      -9.663  54.332  52.335  0.00  0.00    +0.000 HD
ATOM     25  H   UNL     1      -6.579  53.846  49.822  0.00  0.00    +0.000 HD
ENDBRANCH   1  17
BRANCH   3  26
ATOM     26  O   UNL     1      -8.074  52.556  48.646  0.00  0.00    +0.000 OA
ATOM     27  H   UNL     1      -7.851  52.011  49.375  0.00  0.00    +0.000 HD
ENDBRANCH   3  26
BRANCH   5  28
ATOM     28  N   UNL     1     -12.083  56.528  48.878  0.00  0.00    +0.000 N 
ATOM     29  H   UNL     1     -12.019  57.415  48.460  0.00  0.00    +0.000 HD
BRANCH  28  30
ATOM     30  C   UNL     1     -13.293  56.079  49.582  0.00  0.00    +0.000 C 
BRANCH  30  31
ATOM     31  C   UNL     1     -13.708  57.063  50.641  0.00  0.00    +0.000 A 
ATOM     32  C   UNL     1     -14.153  58.340  50.297  0.00  0.00    +0.000 A 
ATOM     33  C   UNL     1     -13.678  56.739  52.000  0.00  0.00    +0.000 A 
ATOM     34  N   UNL     1     -14.533  59.279  51.189  0.00  0.00    +0.000 NA
ATOM     35  C   UNL     1     -14.061  57.689  52.943  0.00  0.00    +0.000 A 
ATOM     36  C   UNL     1     -14.472  58.933  52.495  0.00  0.00    +0.000 A 
ENDBRANCH  30  31
ENDBRANCH  28  30
ENDBRANCH   5  28
TORSDOF 5
ENDMDL
MODEL 3
REMARK VINA RESULT:      -8.6      3.123      4.866
REMARK  Name = 
REMARK  5 active torsions:
REMARK  status: ('A' for Active; 'I' for Inactive)
REMARK    1  A    between atoms: C_6  and  C_10
REMARK    2  A    between atoms: C_14  and  O_18
REMARK    3  A    between atoms: N_17  and  N_20
REMARK    4  A    between atoms: N_20  and  C_23
REMARK    5  A    between atoms: C_23  and  C_26
REMARK                            x       y       z     vdW  Elec       q    Type
REMARK                         _______ _______ _______ _____ _____    ______ ____
ROOT
ATOM      1  C   UNL     1     -10.110  54.554  52.217  0.00  0.00    +0.000 A 
ATOM      2  C   UNL     1      -8.747  55.139  52.045  0.00  0.00    +0.000 A 
ATOM      3  C   UNL     1     -10.286  53.438  52.945  0.00  0.00    +0.000 A 
ATOM      4  O   UNL     1      -8.653  56.162  51.359  0.00  0.00    +0.000 OA
ATOM      5  N   UNL     1      -7.675  54.513  52.687  0.00  0.00    +0.000 N 
ATOM      6  C   UNL     1      -9.147  52.796  53.616  0.00  0.00    +0.000 A 
ATOM      7  C   UNL     1      -7.857  53.337  53.476  0.00  0.00    +0.000 A 
ATOM      8  C   UNL     1      -9.337  51.655  54.414  0.00  0.00    +0.000 A 
ATOM      9  C   UNL     1      -6.782  52.713  54.131  0.00  0.00    +0.000 A 
ATOM     10  C   UNL     1      -8.268  51.060  55.077  0.00  0.00    +0.000 A 
ATOM     11  C   UNL     1      -6.990  51.586  54.934  0.00  0.00    +0.000 A 
ENDROOT
BRANCH   1  17
ATOM     12  S   UNL     1     -12.557  56.049  49.536  0.00  0.00    +0.000 S 
ATOM     13  O   UNL     1     -13.433  55.033  48.985  0.00  0.00    +0.000 OA
ATOM     14  O   UNL     1     -11.969  57.054  48.675  0.00  0.00    +0.000 OA
ATOM     15  N   UNL     1     -11.355  55.288  50.310  0.00  0.00    +0.000 N 
ATOM     16  C   UNL     1     -13.509  56.925  50.723  0.00  0.00    +0.000 A 
ATOM     17  C   UNL     1     -11.294  55.276  51.608  0.00  0.00    +0.000 C 
ATOM     18  C   UNL     1     -13.209  56.736  52.061  0.00  0.00    +0.000 A 
ATOM     19  C   UNL     1     -14.521  57.789  50.303  0.00  0.00    +0.000 A 
ATOM     20  N   UNL     1     -12.205  55.858  52.464  0.00  0.00    +0.000 N 
ATOM     21  C   UNL     1     -14.002  57.385  53.014  0.00  0.00    +0.000 A 
ATOM     22  C   UNL     1     -15.281  58.457  51.261  0.00  0.00    +0.000 A 
ATOM     23  C   UNL     1     -15.026  58.248  52.617  0.00  0.00    +0.000 A 
ATOM     24  H   UNL     1     -10.659  54.828  49.788  0.00  0.00    +0.000 HD
ATOM     25  H   UNL     1     -12.140  55.641  53.423  0.00  0.00    +0.000 HD
ENDBRANCH   1  17
BRANCH   3  26
ATOM     26  O   UNL     1     -11.510  52.831  53.160  0.00  0.00    +0.000 OA
ATOM     27  H   UNL     1     -11.935  52.913  53.990  0.00  0.00    +0.000 HD
ENDBRANCH   3  26
BRANCH   5  28
ATOM     28  N   UNL     1      -6.329  54.976  52.486  0.00  0.00    +0.000 N 
ATOM     29  H   UNL     1      -5.817  55.425  53.196  0.00  0.00    +0.000 HD
BRANCH  28  30
ATOM     30  C   UNL     1      -5.768  54.732  51.149  0.00  0.00    +0.000 C 
BRANCH  30  31
ATOM     31  C   UNL     1      -5.183  53.350  51.044  0.00  0.00    +0.000 A 
ATOM     32  C   UNL     1      -3.897  53.079  51.513  0.00  0.00    +0.000 A 
ATOM     33  C   UNL     1      -5.900  52.287  50.489  0.00  0.00    +0.000 A 
ATOM     34  N   UNL     1      -3.302  51.869  51.444  0.00  0.00    +0.000 NA
ATOM     35  C   UNL     1      -5.311  51.029  50.403  0.00  0.00    +0.000 A 
ATOM     36  C   UNL     1      -4.023  50.872  50.884  0.00  0.00    +0.000 A 
ENDBRANCH  30  31
ENDBRANCH  28  30
ENDBRANCH   5  28
TORSDOF 5
ENDMDL
MODEL 4
REMARK VINA RESULT:      -8.6      3.015      4.271
REMARK  Name = 
REMARK  5 active torsions:
REMARK  status: ('A' for Active; 'I' for Inactive)
REMARK    1  A    between atoms: C_6  and  C_10
REMARK    2  A    between atoms: C_14  and  O_18
REMARK    3  A    between atoms: N_17  and  N_20
REMARK    4  A    between atoms: N_20  and  C_23
REMARK    5  A    between atoms: C_23  and  C_26
REMARK                            x       y       z     vdW  Elec       q    Type
REMARK                         _______ _______ _______ _____ _____    ______ ____
ROOT
ATOM      1  C   UNL     1     -12.518  54.316  49.560  0.00  0.00    +0.000 A 
ATOM      2  C   UNL     1     -12.009  54.284  48.157  0.00  0.00    +0.000 A 
ATOM      3  C   UNL     1     -12.227  53.319  50.413  0.00  0.00    +0.000 A 
ATOM      4  O   UNL     1     -12.319  55.227  47.422  0.00  0.00    +0.000 OA
ATOM      5  N   UNL     1     -11.201  53.210  47.772  0.00  0.00    +0.000 N 
ATOM      6  C   UNL     1     -11.372  52.200  49.992  0.00  0.00    +0.000 A 
ATOM      7  C   UNL     1     -10.874  52.157  48.678  0.00  0.00    +0.000 A 
ATOM      8  C   UNL     1     -11.031  51.180  50.897  0.00  0.00    +0.000 A 
ATOM      9  C   UNL     1     -10.053  51.082  48.297  0.00  0.00    +0.000 A 
ATOM     10  C   UNL     1     -10.197  50.134  50.514  0.00  0.00    +0.000 A 
ATOM     11  C   UNL     1      -9.710  50.083  49.213  0.00  0.00    +0.000 A 
ENDROOT
BRANCH   1  17
ATOM     12  S   UNL     1     -15.363  56.472  51.194  0.00  0.00    +0.000 S 
ATOM     13  O   UNL     1     -15.212  56.552  52.634  0.00  0.00    +0.000 OA
ATOM     14  O   UNL     1     -16.673  56.290  50.604  0.00  0.00    +0.000 OA
ATOM     15  N   UNL     1     -14.409  55.271  50.672  0.00  0.00    +0.000 N 
ATOM     16  C   UNL     1     -14.747  57.984  50.551  0.00  0.00    +0.000 A 
ATOM     17  C   UNL     1     -13.314  55.520  50.019  0.00  0.00    +0.000 C 
ATOM     18  C   UNL     1     -13.544  57.955  49.866  0.00  0.00    +0.000 A 
ATOM     19  C   UNL     1     -15.473  59.163  50.727  0.00  0.00    +0.000 A 
ATOM     20  N   UNL     1     -12.824  56.772  49.712  0.00  0.00    +0.000 N 
ATOM     21  C   UNL     1     -13.018  59.166  49.402  0.00  0.00    +0.000 A 
ATOM     22  C   UNL     1     -14.956  60.357  50.229  0.00  0.00    +0.000 A 
ATOM     23  C   UNL     1     -13.724  60.359  49.574  0.00  0.00    +0.000 A 
ATOM     24  H   UNL     1     -14.664  54.338  50.853  0.00  0.00    +0.000 HD
ATOM     25  H   UNL     1     -11.906  56.834  49.360  0.00  0.00    +0.000 HD
ENDBRANCH   1  17
BRANCH   3  26
ATOM     26  O   UNL     1     -12.652  53.268  51.728  0.00  0.00    +0.000 OA
ATOM     27  H   UNL     1     -12.743  52.441  52.160  0.00  0.00    +0.000 HD
ENDBRANCH   3  26
BRANCH   5  28
ATOM     28  N   UNL     1     -10.757  53.078  46.411  0.00  0.00    +0.000 N 
ATOM     29  H   UNL     1     -11.021  52.318  45.845  0.00  0.00    +0.000 HD
BRANCH  28  30
ATOM     30  C   UNL     1      -9.884  54.154  45.922  0.00  0.00    +0.000 C 
BRANCH  30  31
ATOM     31  C   UNL     1      -8.577  54.181  46.667  0.00  0.00    +0.000 A 
ATOM     32  C   UNL     1      -7.557  53.281  46.357  0.00  0.00    +0.000 A 
ATOM     33  C   UNL     1      -8.327  55.108  47.682  0.00  0.00    +0.000 A 
ATOM     34  N   UNL     1      -6.364  53.237  46.986  0.00  0.00    +0.000 NA
ATOM     35  C   UNL     1      -7.106  55.085  48.350  0.00  0.00    +0.000 A 
ATOM     36  C   UNL     1      -6.168  54.138  47.974  0.00  0.00    +0.000 A 
ENDBRANCH  30  31
ENDBRANCH  28  30
ENDBRANCH   5  28
TORSDOF 5
ENDMDL
MODEL 5
REMARK VINA RESULT:      -8.6      2.341      3.085
REMARK  Name = 
REMARK  5 active torsions:
REMARK  status: ('A' for Active; 'I' for Inactive)
REMARK    1  A    between atoms: C_6  and  C_10
REMARK    2  A    between atoms: C_14  and  O_18
REMARK    3  A    between atoms: N_17  and  N_20
REMARK    4  A    between atoms: N_20  and  C_23
REMARK    5  A    between atoms: C_23  and  C_26
REMARK                            x       y       z     vdW  Elec       q    Type
REMARK                         _______ _______ _______ _____ _____    ______ ____
ROOT
ATOM      1  C   UNL     1     -11.175  54.566  50.724  0.00  0.00    +0.000 A 
ATOM      2  C   UNL     1      -9.793  54.931  50.294  0.00  0.00    +0.000 A 
ATOM      3  C   UNL     1     -11.437  53.338  51.204  0.00  0.00    +0.000 A 
ATOM      4  O   UNL     1      -9.620  56.073  49.856  0.00  0.00    +0.000 OA
ATOM      5  N   UNL     1      -8.783  53.975  50.434  0.00  0.00    +0.000 N 
ATOM      6  C   UNL     1     -10.362  52.347  51.349  0.00  0.00    +0.000 A 
ATOM      7  C   UNL     1      -9.052  52.674  50.959  0.00  0.00    +0.000 A 
ATOM      8  C   UNL     1     -10.627  51.078  51.892  0.00  0.00    +0.000 A 
ATOM      9  C   UNL     1      -8.036  51.715  51.112  0.00  0.00    +0.000 A 
ATOM     10  C   UNL     1      -9.607  50.145  52.061  0.00  0.00    +0.000 A 
ATOM     11  C   UNL     1      -8.312  50.462  51.669  0.00  0.00    +0.000 A 
ENDROOT
BRANCH   1  17
ATOM     12  S   UNL     1     -13.642  57.269  49.303  0.00  0.00    +0.000 S 
ATOM     13  O   UNL     1     -14.792  56.659  48.664  0.00  0.00    +0.000 OA
ATOM     14  O   UNL     1     -12.997  58.420  48.707  0.00  0.00    +0.000 OA
ATOM     15  N   UNL     1     -12.523  56.113  49.494  0.00  0.00    +0.000 N 
ATOM     16  C   UNL     1     -14.179  57.783  50.893  0.00  0.00    +0.000 A 
ATOM     17  C   UNL     1     -12.258  55.623  50.668  0.00  0.00    +0.000 C 
ATOM     18  C   UNL     1     -13.716  57.080  51.992  0.00  0.00    +0.000 A 
ATOM     19  C   UNL     1     -15.036  58.878  51.018  0.00  0.00    +0.000 A 
ATOM     20  N   UNL     1     -12.872  55.981  51.849  0.00  0.00    +0.000 N 
ATOM     21  C   UNL     1     -14.187  57.448  53.258  0.00  0.00    +0.000 A 
ATOM     22  C   UNL     1     -15.470  59.256  52.287  0.00  0.00    +0.000 A 
ATOM     23  C   UNL     1     -15.052  58.535  53.406  0.00  0.00    +0.000 A 
ATOM     24  H   UNL     1     -12.035  55.777  48.708  0.00  0.00    +0.000 HD
ATOM     25  H   UNL     1     -12.702  55.424  52.644  0.00  0.00    +0.000 HD
ENDBRANCH   1  17
BRANCH   3  26
ATOM     26  O   UNL     1     -12.683  52.915  51.629  0.00  0.00    +0.000 OA
ATOM     27  H   UNL     1     -13.075  53.300  52.387  0.00  0.00    +0.000 HD
ENDBRANCH   3  26
BRANCH   5  28
ATOM     28  N   UNL     1      -7.453  54.236  49.954  0.00  0.00    +0.000 N 
ATOM     29  H   UNL     1      -7.062  53.741  49.200  0.00  0.00    +0.000 HD
BRANCH  28  30
ATOM     30  C   UNL     1      -6.719  55.292  50.665  0.00  0.00    +0.000 C 
BRANCH  30  31
ATOM     31  C   UNL     1      -6.545  54.954  52.121  0.00  0.00    +0.000 A 
ATOM     32  C   UNL     1      -5.556  54.061  52.535  0.00  0.00    +0.000 A 
ATOM     33  C   UNL     1      -7.349  55.524  53.111  0.00  0.00    +0.000 A 
ATOM     34  N   UNL     1      -5.345  53.702  53.819  0.00  0.00    +0.000 NA
ATOM     35  C   UNL     1      -7.157  55.170  54.443  0.00  0.00    +0.000 A 
ATOM     36  C   UNL     1      -6.156  54.262  54.744  0.00  0.00    +0.000 A 
ENDBRANCH  30  31
ENDBRANCH  28  30
ENDBRANCH   5  28
TORSDOF 5
ENDMDL
MODEL 6
REMARK VINA RESULT:      -8.5      2.106      2.638
REMARK  Name = 
REMARK  5 active torsions:
REMARK  status: ('A' for Active; 'I' for Inactive)
REMARK    1  A    between atoms: C_6  and  C_10
REMARK    2  A    between atoms: C_14  and  O_18
REMARK    3  A    between atoms: N_17  and  N_20
REMARK    4  A    between atoms: N_20  and  C_23
REMARK    5  A    between atoms: C_23  and  C_26
REMARK                            x       y       z     vdW  Elec       q    Type
REMARK                         _______ _______ _______ _____ _____    ______ ____
ROOT
ATOM      1  C   UNL     1     -10.652  55.595  48.170  0.00  0.00    +0.000 A 
ATOM      2  C   UNL     1      -9.191  55.627  48.473  0.00  0.00    +0.000 A 
ATOM      3  C   UNL     1     -11.103  54.998  47.053  0.00  0.00    +0.000 A 
ATOM      4  O   UNL     1      -8.841  56.197  49.512  0.00  0.00    +0.000 OA
ATOM      5  N   UNL     1      -8.317  54.995  47.584  0.00  0.00    +0.000 N 
ATOM      6  C   UNL     1     -10.170  54.335  46.132  0.00  0.00    +0.000 A 
ATOM      7  C   UNL     1      -8.792  54.344  46.404  0.00  0.00    +0.000 A 
ATOM      8  C   UNL     1     -10.646  53.672  44.987  0.00  0.00    +0.000 A 
ATOM      9  C   UNL     1      -7.917  53.698  45.515  0.00  0.00    +0.000 A 
ATOM     10  C   UNL     1      -9.771  53.015  44.126  0.00  0.00    +0.000 A 
ATOM     11  C   UNL     1      -8.407  53.029  44.388  0.00  0.00    +0.000 A 
ENDROOT
BRANCH   1  17
ATOM     12  S   UNL     1     -13.018  55.934  51.284  0.00  0.00    +0.000 S 
ATOM     13  O   UNL     1     -12.267  56.169  52.503  0.00  0.00    +0.000 OA
ATOM     14  O   UNL     1     -14.149  55.030  51.283  0.00  0.00    +0.000 OA
ATOM     15  N   UNL     1     -11.970  55.423  50.159  0.00  0.00    +0.000 N 
ATOM     16  C   UNL     1     -13.643  57.496  50.786  0.00  0.00    +0.000 A 
ATOM     17  C   UNL     1     -11.617  56.192  49.173  0.00  0.00    +0.000 C 
ATOM     18  C   UNL     1     -13.087  58.090  49.665  0.00  0.00    +0.000 A 
ATOM     19  C   UNL     1     -14.680  58.093  51.505  0.00  0.00    +0.000 A 
ATOM     20  N   UNL     1     -12.043  57.487  48.967  0.00  0.00    +0.000 N 
ATOM     21  C   UNL     1     -13.541  59.361  49.297  0.00  0.00    +0.000 A 
ATOM     22  C   UNL     1     -15.148  59.343  51.107  0.00  0.00    +0.000 A 
ATOM     23  C   UNL     1     -14.572  59.981  50.008  0.00  0.00    +0.000 A 
ATOM     24  H   UNL     1     -11.596  54.515  50.223  0.00  0.00    +0.000 HD
ATOM     25  H   UNL     1     -11.580  58.021  48.280  0.00  0.00    +0.000 HD
ENDBRANCH   1  17
BRANCH   3  26
ATOM     26  O   UNL     1     -12.436  54.918  46.695  0.00  0.00    +0.000 OA
ATOM     27  H   UNL     1     -13.089  55.338  47.220  0.00  0.00    +0.000 HD
ENDBRANCH   3  26
BRANCH   5  28
ATOM     28  N   UNL     1      -6.894  55.069  47.775  0.00  0.00    +0.000 N 
ATOM     29  H   UNL     1      -6.386  55.895  47.608  0.00  0.00    +0.000 HD
BRANCH  28  30
ATOM     30  C   UNL     1      -6.251  53.831  48.236  0.00  0.00    +0.000 C 
BRANCH  30  31
ATOM     31  C   UNL     1      -6.093  53.821  49.733  0.00  0.00    +0.000 A 
ATOM     32  C   UNL     1      -7.091  53.297  50.554  0.00  0.00    +0.000 A 
ATOM     33  C   UNL     1      -4.945  54.318  50.356  0.00  0.00    +0.000 A 
ATOM     34  N   UNL     1      -7.026  53.262  51.902  0.00  0.00    +0.000 NA
ATOM     35  C   UNL     1      -4.851  54.297  51.744  0.00  0.00    +0.000 A 
ATOM     36  C   UNL     1      -5.908  53.769  52.467  0.00  0.00    +0.000 A 
ENDBRANCH  30  31
ENDBRANCH  28  30
ENDBRANCH   5  28
TORSDOF 5
ENDMDL
MODEL 7
REMARK VINA RESULT:      -8.4      2.949      7.055
REMARK  Name = 
REMARK  5 active torsions:
REMARK  status: ('A' for Active; 'I' for Inactive)
REMARK    1  A    between atoms: C_6  and  C_10
REMARK    2  A    between atoms: C_14  and  O_18
REMARK    3  A    between atoms: N_17  and  N_20
REMARK    4  A    between atoms: N_20  and  C_23
REMARK    5  A    between atoms: C_23  and  C_26
REMARK                            x       y       z     vdW  Elec       q    Type
REMARK                         _______ _______ _______ _____ _____    ______ ____
ROOT
ATOM      1  C   UNL     1      -9.609  54.280  50.085  0.00  0.00    +0.000 A 
ATOM      2  C   UNL     1     -10.599  55.398  50.096  0.00  0.00    +0.000 A 
ATOM      3  C   UNL     1      -9.443  53.527  48.984  0.00  0.00    +0.000 A 
ATOM      4  O   UNL     1     -10.708  56.047  51.141  0.00  0.00    +0.000 OA
ATOM      5  N   UNL     1     -11.318  55.655  48.924  0.00  0.00    +0.000 N 
ATOM      6  C   UNL     1     -10.204  53.815  47.761  0.00  0.00    +0.000 A 
ATOM      7  C   UNL     1     -11.134  54.869  47.746  0.00  0.00    +0.000 A 
ATOM      8  C   UNL     1      -9.999  53.056  46.596  0.00  0.00    +0.000 A 
ATOM      9  C   UNL     1     -11.847  55.133  46.564  0.00  0.00    +0.000 A 
ATOM     10  C   UNL     1     -10.694  53.342  45.424  0.00  0.00    +0.000 A 
ATOM     11  C   UNL     1     -11.620  54.378  45.408  0.00  0.00    +0.000 A 
ENDROOT
BRANCH   1  17
ATOM     12  S   UNL     1      -6.729  54.688  52.721  0.00  0.00    +0.000 S 
ATOM     13  O   UNL     1      -6.980  55.799  53.620  0.00  0.00    +0.000 OA
ATOM     14  O   UNL     1      -5.398  54.452  52.202  0.00  0.00    +0.000 OA
ATOM     15  N   UNL     1      -7.735  54.845  51.462  0.00  0.00    +0.000 N 
ATOM     16  C   UNL     1      -7.171  53.236  53.602  0.00  0.00    +0.000 A 
ATOM     17  C   UNL     1      -8.755  54.053  51.315  0.00  0.00    +0.000 C 
ATOM     18  C   UNL     1      -8.318  52.565  53.212  0.00  0.00    +0.000 A 
ATOM     19  C   UNL     1      -6.367  52.785  54.650  0.00  0.00    +0.000 A 
ATOM     20  N   UNL     1      -9.118  53.037  52.173  0.00  0.00    +0.000 N 
ATOM     21  C   UNL     1      -8.708  51.440  53.948  0.00  0.00    +0.000 A 
ATOM     22  C   UNL     1      -6.747  51.643  55.352  0.00  0.00    +0.000 A 
ATOM     23  C   UNL     1      -7.922  50.976  55.006  0.00  0.00    +0.000 A 
ATOM     24  H   UNL     1      -7.572  55.552  50.797  0.00  0.00    +0.000 HD
ATOM     25  H   UNL     1      -9.999  52.616  52.043  0.00  0.00    +0.000 HD
ENDBRANCH   1  17
BRANCH   3  26
ATOM     26  O   UNL     1      -8.549  52.477  48.884  0.00  0.00    +0.000 OA
ATOM     27  H   UNL     1      -8.073  52.193  49.639  0.00  0.00    +0.000 HD
ENDBRANCH   3  26
BRANCH   5  28
ATOM     28  N   UNL     1     -12.347  56.657  48.901  0.00  0.00    +0.000 N 
ATOM     29  H   UNL     1     -12.201  57.550  48.516  0.00  0.00    +0.000 HD
BRANCH  28  30
ATOM     30  C   UNL     1     -13.634  56.259  49.488  0.00  0.00    +0.000 C 
BRANCH  30  31
ATOM     31  C   UNL     1     -14.041  57.188  50.599  0.00  0.00    +0.000 A 
ATOM     32  C   UNL     1     -14.441  58.497  50.327  0.00  0.00    +0.000 A 
ATOM     33  C   UNL     1     -14.049  56.781  51.935  0.00  0.00    +0.000 A 
ATOM     34  N   UNL     1     -14.810  59.391  51.269  0.00  0.00    +0.000 NA
ATOM     35  C   UNL     1     -14.422  57.682  52.928  0.00  0.00    +0.000 A 
ATOM     36  C   UNL     1     -14.786  58.963  52.551  0.00  0.00    +0.000 A 
ENDBRANCH  30  31
ENDBRANCH  28  30
ENDBRANCH   5  28
TORSDOF 5
ENDMDL
MODEL 8
REMARK VINA RESULT:      -8.2      2.556      4.990
REMARK  Name = 
REMARK  5 active torsions:
REMARK  status: ('A' for Active; 'I' for Inactive)
REMARK    1  A    between atoms: C_6  and  C_10
REMARK    2  A    between atoms: C_14  and  O_18
REMARK    3  A    between atoms: N_17  and  N_20
REMARK    4  A    between atoms: N_20  and  C_23
REMARK    5  A    between atoms: C_23  and  C_26
REMARK                            x       y       z     vdW  Elec       q    Type
REMARK                         _______ _______ _______ _____ _____    ______ ____
ROOT
ATOM      1  C   UNL     1     -11.243  55.606  49.129  0.00  0.00    +0.000 A 
ATOM      2  C   UNL     1     -11.744  54.284  48.650  0.00  0.00    +0.000 A 
ATOM      3  C   UNL     1      -9.933  55.901  49.068  0.00  0.00    +0.000 A 
ATOM      4  O   UNL     1     -12.958  54.073  48.741  0.00  0.00    +0.000 OA
ATOM      5  N   UNL     1     -10.821  53.383  48.111  0.00  0.00    +0.000 N 
ATOM      6  C   UNL     1      -8.978  54.944  48.494  0.00  0.00    +0.000 A 
ATOM      7  C   UNL     1      -9.430  53.698  48.028  0.00  0.00    +0.000 A 
ATOM      8  C   UNL     1      -7.614  55.270  48.389  0.00  0.00    +0.000 A 
ATOM      9  C   UNL     1      -8.502  52.799  47.476  0.00  0.00    +0.000 A 
ATOM     10  C   UNL     1      -6.708  54.380  47.818  0.00  0.00    +0.000 A 
ATOM     11  C   UNL     1      -7.151  53.143  47.364  0.00  0.00    +0.000 A 
ENDROOT
BRANCH   1  17
ATOM     12  S   UNL     1     -13.337  58.917  49.391  0.00  0.00    +0.000 S 
ATOM     13  O   UNL     1     -14.427  58.936  48.435  0.00  0.00    +0.000 OA
ATOM     14  O   UNL     1     -12.552  60.109  49.632  0.00  0.00    +0.000 OA
ATOM     15  N   UNL     1     -12.323  57.733  48.947  0.00  0.00    +0.000 N 
ATOM     16  C   UNL     1     -14.047  58.483  50.936  0.00  0.00    +0.000 A 
ATOM     17  C   UNL     1     -12.245  56.628  49.626  0.00  0.00    +0.000 C 
ATOM     18  C   UNL     1     -13.775  57.224  51.445  0.00  0.00    +0.000 A 
ATOM     19  C   UNL     1     -14.846  59.402  51.618  0.00  0.00    +0.000 A 
ATOM     20  N   UNL     1     -12.986  56.313  50.745  0.00  0.00    +0.000 N 
ATOM     21  C   UNL     1     -14.385  56.851  52.647  0.00  0.00    +0.000 A 
ATOM     22  C   UNL     1     -15.420  59.031  52.832  0.00  0.00    +0.000 A 
ATOM     23  C   UNL     1     -15.196  57.752  53.342  0.00  0.00    +0.000 A 
ATOM     24  H   UNL     1     -11.758  57.854  48.151  0.00  0.00    +0.000 HD
ATOM     25  H   UNL     1     -12.956  55.384  51.072  0.00  0.00    +0.000 HD
ENDBRANCH   1  17
BRANCH   3  26
ATOM     26  O   UNL     1      -9.382  57.099  49.484  0.00  0.00    +0.000 OA
ATOM     27  H   UNL     1      -8.995  57.167  50.335  0.00  0.00    +0.000 HD
ENDBRANCH   3  26
BRANCH   5  28
ATOM     28  N   UNL     1     -11.228  52.062  47.718  0.00  0.00    +0.000 N 
ATOM     29  H   UNL     1     -10.967  51.261  48.224  0.00  0.00    +0.000 HD
BRANCH  28  30
ATOM     30  C   UNL     1     -12.062  51.990  46.510  0.00  0.00    +0.000 C 
BRANCH  30  31
ATOM     31  C   UNL     1     -11.221  51.844  45.271  0.00  0.00    +0.000 A 
ATOM     32  C   UNL     1     -10.740  50.595  44.875  0.00  0.00    +0.000 A 
ATOM     33  C   UNL     1     -10.901  52.939  44.465  0.00  0.00    +0.000 A 
ATOM     34  N   UNL     1      -9.974  50.387  43.784  0.00  0.00    +0.000 NA
ATOM     35  C   UNL     1     -10.110  52.754  43.335  0.00  0.00    +0.000 A 
ATOM     36  C   UNL     1      -9.671  51.474  43.041  0.00  0.00    +0.000 A 
ENDBRANCH  30  31
ENDBRANCH  28  30
ENDBRANCH   5  28
TORSDOF 5
ENDMDL
MODEL 9
REMARK VINA RESULT:      -8.2      3.385      5.819
REMARK  Name = 
REMARK  5 active torsions:
REMARK  status: ('A' for Active; 'I' for Inactive)
REMARK    1  A    between atoms: C_6  and  C_10
REMARK    2  A    between atoms: C_14  and  O_18
REMARK    3  A    between atoms: N_17  and  N_20
REMARK    4  A    between atoms: N_20  and  C_23
REMARK    5  A    between atoms: C_23  and  C_26
REMARK                            x       y       z     vdW  Elec       q    Type
REMARK                         _______ _______ _______ _____ _____    ______ ____
ROOT
ATOM      1  C   UNL     1     -12.160  54.175  50.340  0.00  0.00    +0.000 A 
ATOM      2  C   UNL     1     -11.911  53.718  48.941  0.00  0.00    +0.000 A 
ATOM      3  C   UNL     1     -11.596  53.533  51.377  0.00  0.00    +0.000 A 
ATOM      4  O   UNL     1     -12.465  54.348  48.034  0.00  0.00    +0.000 OA
ATOM      5  N   UNL     1     -11.056  52.631  48.744  0.00  0.00    +0.000 N 
ATOM      6  C   UNL     1     -10.696  52.394  51.150  0.00  0.00    +0.000 A 
ATOM      7  C   UNL     1     -10.440  51.954  49.840  0.00  0.00    +0.000 A 
ATOM      8  C   UNL     1     -10.071  51.749  52.232  0.00  0.00    +0.000 A 
ATOM      9  C   UNL     1      -9.571  50.867  49.643  0.00  0.00    +0.000 A 
ATOM     10  C   UNL     1      -9.193  50.689  52.023  0.00  0.00    +0.000 A 
ATOM     11  C   UNL     1      -8.945  50.246  50.729  0.00  0.00    +0.000 A 
ENDROOT
BRANCH   1  17
ATOM     12  S   UNL     1     -15.177  56.459  51.388  0.00  0.00    +0.000 S 
ATOM     13  O   UNL     1     -15.184  56.712  52.816  0.00  0.00    +0.000 OA
ATOM     14  O   UNL     1     -16.413  56.186  50.685  0.00  0.00    +0.000 OA
ATOM     15  N   UNL     1     -14.166  55.222  51.119  0.00  0.00    +0.000 N 
ATOM     16  C   UNL     1     -14.501  57.895  50.639  0.00  0.00    +0.000 A 
ATOM     17  C   UNL     1     -13.007  55.411  50.563  0.00  0.00    +0.000 C 
ATOM     18  C   UNL     1     -13.230  57.807  50.096  0.00  0.00    +0.000 A 
ATOM     19  C   UNL     1     -15.247  59.074  50.592  0.00  0.00    +0.000 A 
ATOM     20  N   UNL     1     -12.492  56.627  50.163  0.00  0.00    +0.000 N 
ATOM     21  C   UNL     1     -12.662  58.963  49.550  0.00  0.00    +0.000 A 
ATOM     22  C   UNL     1     -14.684  60.209  50.014  0.00  0.00    +0.000 A 
ATOM     23  C   UNL     1     -13.388  60.156  49.501  0.00  0.00    +0.000 A 
ATOM     24  H   UNL     1     -14.434  54.312  51.382  0.00  0.00    +0.000 HD
ATOM     25  H   UNL     1     -11.541  56.663  49.907  0.00  0.00    +0.000 HD
ENDBRANCH   1  17
BRANCH   3  26
ATOM     26  O   UNL     1     -11.767  53.888  52.703  0.00  0.00    +0.000 OA
ATOM     27  H   UNL     1     -11.624  53.257  53.380  0.00  0.00    +0.000 HD
ENDBRANCH   3  26
BRANCH   5  28
ATOM     28  N   UNL     1     -10.850  52.089  47.428  0.00  0.00    +0.000 N 
ATOM     29  H   UNL     1     -11.420  51.377  47.060  0.00  0.00    +0.000 HD
BRANCH  28  30
ATOM     30  C   UNL     1      -9.733  52.670  46.671  0.00  0.00    +0.000 C 
BRANCH  30  31
ATOM     31  C   UNL     1      -9.690  52.140  45.263  0.00  0.00    +0.000 A 
ATOM     32  C   UNL     1      -9.356  50.810  45.009  0.00  0.00    +0.000 A 
ATOM     33  C   UNL     1      -9.992  52.947  44.163  0.00  0.00    +0.000 A 
ATOM     34  N   UNL     1      -9.287  50.265  43.776  0.00  0.00    +0.000 NA
ATOM     35  C   UNL     1      -9.927  52.413  42.880  0.00  0.00    +0.000 A 
ATOM     36  C   UNL     1      -9.569  51.083  42.737  0.00  0.00    +0.000 A 
ENDBRANCH  30  31
ENDBRANCH  28  30
ENDBRANCH   5  28
TORSDOF 5
ENDMDL
