MODEL 1
REMARK VINA RESULT:      -8.1      0.000      0.000
REMARK  Name = 
REMARK  7 active torsions:
REMARK  status: ('A' for Active; 'I' for Inactive)
REMARK    1  A    between atoms: C_6  and  C_10
REMARK    2  A    between atoms: C_14  and  O_18
REMARK    3  A    between atoms: N_17  and  N_20
REMARK    4  A    between atoms: N_20  and  C_23
REMARK    5  A    between atoms: C_23  and  C_26
REMARK    6  A    between atoms: C_26  and  C_28
REMARK    7  A    between atoms: C_28  and  C_29
REMARK                            x       y       z     vdW  Elec       q    Type
REMARK                         _______ _______ _______ _____ _____    ______ ____
ROOT
ATOM      1  C   UNL     1     -10.135  54.536  52.238  0.00  0.00    +0.000 A 
ATOM      2  C   UNL     1      -8.765  55.098  52.063  0.00  0.00    +0.000 A 
ATOM      3  C   UNL     1     -10.331  53.429  52.973  0.00  0.00    +0.000 A 
ATOM      4  O   UNL     1      -8.659  56.106  51.356  0.00  0.00    +0.000 OA
ATOM      5  N   UNL     1      -7.703  54.473  52.724  0.00  0.00    +0.000 N 
ATOM      6  C   UNL     1      -9.201  52.772  53.645  0.00  0.00    +0.000 A 
ATOM      7  C   UNL     1      -7.902  53.297  53.510  0.00  0.00    +0.000 A 
ATOM      8  C   UNL     1      -9.407  51.632  54.443  0.00  0.00    +0.000 A 
ATOM      9  C   UNL     1      -6.837  52.656  54.163  0.00  0.00    +0.000 A 
ATOM     10  C   UNL     1      -8.346  51.021  55.104  0.00  0.00    +0.000 A 
ATOM     11  C   UNL     1      -7.060  51.529  54.961  0.00  0.00    +0.000 A 
ENDROOT
BRANCH   1  17
ATOM     12  S   UNL     1     -12.528  56.103  49.549  0.00  0.00    +0.000 S 
ATOM     13  O   UNL     1     -13.425  55.116  48.973  0.00  0.00    +0.000 OA
ATOM     14  O   UNL     1     -11.907  57.107  48.709  0.00  0.00    +0.000 OA
ATOM     15  N   UNL     1     -11.354  55.302  50.325  0.00  0.00    +0.000 N 
ATOM     16  C   UNL     1     -13.472  56.990  50.735  0.00  0.00    +0.000 A 
ATOM     17  C   UNL     1     -11.303  55.281  51.624  0.00  0.00    +0.000 C 
ATOM     18  C   UNL     1     -13.189  56.778  52.076  0.00  0.00    +0.000 A 
ATOM     19  C   UNL     1     -14.466  57.874  50.319  0.00  0.00    +0.000 A 
ATOM     20  N   UNL     1     -12.207  55.875  52.477  0.00  0.00    +0.000 N 
ATOM     21  C   UNL     1     -13.976  57.436  53.028  0.00  0.00    +0.000 A 
ATOM     22  C   UNL     1     -15.222  58.550  51.276  0.00  0.00    +0.000 A 
ATOM     23  C   UNL     1     -14.979  58.323  52.631  0.00  0.00    +0.000 A 
ATOM     24  H   UNL     1     -10.668  54.822  49.805  0.00  0.00    +0.000 HD
ATOM     25  H   UNL     1     -12.155  55.646  53.434  0.00  0.00    +0.000 HD
ENDBRANCH   1  17
BRANCH   3  26
ATOM     26  O   UNL     1     -11.565  52.845  53.190  0.00  0.00    +0.000 OA
ATOM     27  H   UNL     1     -11.694  51.937  52.999  0.00  0.00    +0.000 HD
ENDBRANCH   3  26
BRANCH   5  28
ATOM     28  N   UNL     1      -6.352  54.955  52.564  0.00  0.00    +0.000 N 
ATOM     29  H   UNL     1      -5.880  55.462  53.263  0.00  0.00    +0.000 HD
BRANCH  28  30
ATOM     30  C   UNL     1      -5.742  54.623  51.270  0.00  0.00    +0.000 C 
BRANCH  30  31
ATOM     31  C   UNL     1      -4.407  53.897  51.442  0.00  0.00    +0.000 C 
BRANCH  31  32
ATOM     32  C   UNL     1      -3.755  54.307  52.767  0.00  0.00    +0.000 C 
ATOM     33  C   UNL     1      -3.300  53.101  53.573  0.00  0.00    +0.000 C 
ENDBRANCH  31  32
ENDBRANCH  30  31
ENDBRANCH  28  30
ENDBRANCH   5  28
TORSDOF 6
ENDMDL
MODEL 2
REMARK VINA RESULT:      -7.8      2.577      8.110
REMARK  Name = 
REMARK  7 active torsions:
REMARK  status: ('A' for Active; 'I' for Inactive)
REMARK    1  A    between atoms: C_6  and  C_10
REMARK    2  A    between atoms: C_14  and  O_18
REMARK    3  A    between atoms: N_17  and  N_20
REMARK    4  A    between atoms: N_20  and  C_23
REMARK    5  A    between atoms: C_23  and  C_26
REMARK    6  A    between atoms: C_26  and  C_28
REMARK    7  A    between atoms: C_28  and  C_29
REMARK                            x       y       z     vdW  Elec       q    Type
REMARK                         _______ _______ _______ _____ _____    ______ ____
ROOT
ATOM      1  C   UNL     1     -10.238  55.075  50.467  0.00  0.00    +0.000 A 
ATOM      2  C   UNL     1     -11.316  55.218  51.487  0.00  0.00    +0.000 A 
ATOM      3  C   UNL     1     -10.467  55.390  49.182  0.00  0.00    +0.000 A 
ATOM      4  O   UNL     1     -11.039  54.889  52.646  0.00  0.00    +0.000 OA
ATOM      5  N   UNL     1     -12.550  55.735  51.079  0.00  0.00    +0.000 N 
ATOM      6  C   UNL     1     -11.776  55.913  48.764  0.00  0.00    +0.000 A 
ATOM      7  C   UNL     1     -12.801  56.076  49.714  0.00  0.00    +0.000 A 
ATOM      8  C   UNL     1     -12.008  56.275  47.426  0.00  0.00    +0.000 A 
ATOM      9  C   UNL     1     -14.044  56.580  49.296  0.00  0.00    +0.000 A 
ATOM     10  C   UNL     1     -13.236  56.797  47.029  0.00  0.00    +0.000 A 
ATOM     11  C   UNL     1     -14.256  56.945  47.963  0.00  0.00    +0.000 A 
ENDROOT
BRANCH   1  17
ATOM     12  S   UNL     1      -6.857  53.089  50.658  0.00  0.00    +0.000 S 
ATOM     13  O   UNL     1      -5.892  53.556  49.679  0.00  0.00    +0.000 OA
ATOM     14  O   UNL     1      -7.010  51.672  50.918  0.00  0.00    +0.000 OA
ATOM     15  N   UNL     1      -8.304  53.681  50.239  0.00  0.00    +0.000 N 
ATOM     16  C   UNL     1      -6.386  53.807  52.191  0.00  0.00    +0.000 A 
ATOM     17  C   UNL     1      -8.864  54.631  50.928  0.00  0.00    +0.000 C 
ATOM     18  C   UNL     1      -7.192  54.810  52.709  0.00  0.00    +0.000 A 
ATOM     19  C   UNL     1      -5.239  53.366  52.847  0.00  0.00    +0.000 A 
ATOM     20  N   UNL     1      -8.324  55.255  52.030  0.00  0.00    +0.000 N 
ATOM     21  C   UNL     1      -6.791  55.428  53.900  0.00  0.00    +0.000 A 
ATOM     22  C   UNL     1      -4.867  53.966  54.049  0.00  0.00    +0.000 A 
ATOM     23  C   UNL     1      -5.642  55.002  54.570  0.00  0.00    +0.000 A 
ATOM     24  H   UNL     1      -8.767  53.318  49.449  0.00  0.00    +0.000 HD
ATOM     25  H   UNL     1      -8.767  56.070  52.361  0.00  0.00    +0.000 HD
ENDBRANCH   1  17
BRANCH   3  26
ATOM     26  O   UNL     1      -9.524  55.292  48.174  0.00  0.00    +0.000 OA
ATOM     27  H   UNL     1      -8.824  54.674  48.246  0.00  0.00    +0.000 HD
ENDBRANCH   3  26
BRANCH   5  28
ATOM     28  N   UNL     1     -13.639  55.864  52.016  0.00  0.00    +0.000 N 
ATOM     29  H   UNL     1     -14.307  55.155  52.160  0.00  0.00    +0.000 HD
BRANCH  28  30
ATOM     30  C   UNL     1     -13.666  57.142  52.739  0.00  0.00    +0.000 C 
BRANCH  30  31
ATOM     31  C   UNL     1     -15.069  57.749  52.767  0.00  0.00    +0.000 C 
BRANCH  31  32
ATOM     32  C   UNL     1     -15.002  59.240  52.417  0.00  0.00    +0.000 C 
ATOM     33  C   UNL     1     -15.167  59.482  50.925  0.00  0.00    +0.000 C 
ENDBRANCH  31  32
ENDBRANCH  30  31
ENDBRANCH  28  30
ENDBRANCH   5  28
TORSDOF 6
ENDMDL
MODEL 3
REMARK VINA RESULT:      -7.8      2.063      2.849
REMARK  Name = 
REMARK  7 active torsions:
REMARK  status: ('A' for Active; 'I' for Inactive)
REMARK    1  A    between atoms: C_6  and  C_10
REMARK    2  A    between atoms: C_14  and  O_18
REMARK    3  A    between atoms: N_17  and  N_20
REMARK    4  A    between atoms: N_20  and  C_23
REMARK    5  A    between atoms: C_23  and  C_26
REMARK    6  A    between atoms: C_26  and  C_28
REMARK    7  A    between atoms: C_28  and  C_29
REMARK                            x       y       z     vdW  Elec       q    Type
REMARK                         _______ _______ _______ _____ _____    ______ ____
ROOT
ATOM      1  C   UNL     1     -11.582  54.119  51.331  0.00  0.00    +0.000 A 
ATOM      2  C   UNL     1     -10.658  54.229  52.495  0.00  0.00    +0.000 A 
ATOM      3  C   UNL     1     -11.663  52.978  50.628  0.00  0.00    +0.000 A 
ATOM      4  O   UNL     1     -10.621  55.317  53.082  0.00  0.00    +0.000 OA
ATOM      5  N   UNL     1      -9.918  53.101  52.864  0.00  0.00    +0.000 N 
ATOM      6  C   UNL     1     -10.864  51.806  51.015  0.00  0.00    +0.000 A 
ATOM      7  C   UNL     1     -10.000  51.882  52.123  0.00  0.00    +0.000 A 
ATOM      8  C   UNL     1     -10.971  50.599  50.302  0.00  0.00    +0.000 A 
ATOM      9  C   UNL     1      -9.247  50.750  52.478  0.00  0.00    +0.000 A 
ATOM     10  C   UNL     1     -10.238  49.478  50.679  0.00  0.00    +0.000 A 
ATOM     11  C   UNL     1      -9.372  49.554  51.765  0.00  0.00    +0.000 A 
ENDROOT
BRANCH   1  17
ATOM     12  S   UNL     1     -13.337  56.989  49.307  0.00  0.00    +0.000 S 
ATOM     13  O   UNL     1     -14.445  56.495  48.508  0.00  0.00    +0.000 OA
ATOM     14  O   UNL     1     -12.429  57.981  48.768  0.00  0.00    +0.000 OA
ATOM     15  N   UNL     1     -12.462  55.708  49.771  0.00  0.00    +0.000 N 
ATOM     16  C   UNL     1     -14.051  57.720  50.735  0.00  0.00    +0.000 A 
ATOM     17  C   UNL     1     -12.474  55.300  51.005  0.00  0.00    +0.000 C 
ATOM     18  C   UNL     1     -13.894  57.061  51.946  0.00  0.00    +0.000 A 
ATOM     19  C   UNL     1     -14.746  58.924  50.633  0.00  0.00    +0.000 A 
ATOM     20  N   UNL     1     -13.215  55.847  52.029  0.00  0.00    +0.000 N 
ATOM     21  C   UNL     1     -14.510  57.607  53.078  0.00  0.00    +0.000 A 
ATOM     22  C   UNL     1     -15.327  59.476  51.772  0.00  0.00    +0.000 A 
ATOM     23  C   UNL     1     -15.214  58.811  52.994  0.00  0.00    +0.000 A 
ATOM     24  H   UNL     1     -11.913  55.229  49.107  0.00  0.00    +0.000 HD
ATOM     25  H   UNL     1     -13.269  55.348  52.876  0.00  0.00    +0.000 HD
ENDBRANCH   1  17
BRANCH   3  26
ATOM     26  O   UNL     1     -12.496  52.788  49.540  0.00  0.00    +0.000 OA
ATOM     27  H   UNL     1     -12.222  53.063  48.687  0.00  0.00    +0.000 HD
ENDBRANCH   3  26
BRANCH   5  28
ATOM     28  N   UNL     1      -8.984  53.160  53.961  0.00  0.00    +0.000 N 
ATOM     29  H   UNL     1      -9.210  52.862  54.872  0.00  0.00    +0.000 HD
BRANCH  28  30
ATOM     30  C   UNL     1      -7.666  53.701  53.605  0.00  0.00    +0.000 C 
BRANCH  30  31
ATOM     31  C   UNL     1      -7.343  54.973  54.390  0.00  0.00    +0.000 C 
BRANCH  31  32
ATOM     32  C   UNL     1      -6.961  56.101  53.426  0.00  0.00    +0.000 C 
ATOM     33  C   UNL     1      -7.288  55.750  51.983  0.00  0.00    +0.000 C 
ENDBRANCH  31  32
ENDBRANCH  30  31
ENDBRANCH  28  30
ENDBRANCH   5  28
TORSDOF 6
ENDMDL
MODEL 4
REMARK VINA RESULT:      -7.7      3.842      5.358
REMARK  Name = 
REMARK  7 active torsions:
REMARK  status: ('A' for Active; 'I' for Inactive)
REMARK    1  A    between atoms: C_6  and  C_10
REMARK    2  A    between atoms: C_14  and  O_18
REMARK    3  A    between atoms: N_17  and  N_20
REMARK    4  A    between atoms: N_20  and  C_23
REMARK    5  A    between atoms: C_23  and  C_26
REMARK    6  A    between atoms: C_26  and  C_28
REMARK    7  A    between atoms: C_28  and  C_29
REMARK                            x       y       z     vdW  Elec       q    Type
REMARK                         _______ _______ _______ _____ _____    ______ ____
ROOT
ATOM      1  C   UNL     1     -10.679  55.632  48.154  0.00  0.00    +0.000 A 
ATOM      2  C   UNL     1      -9.215  55.743  48.414  0.00  0.00    +0.000 A 
ATOM      3  C   UNL     1     -11.133  54.968  47.079  0.00  0.00    +0.000 A 
ATOM      4  O   UNL     1      -8.871  56.388  49.411  0.00  0.00    +0.000 OA
ATOM      5  N   UNL     1      -8.336  55.098  47.539  0.00  0.00    +0.000 N 
ATOM      6  C   UNL     1     -10.195  54.310  46.157  0.00  0.00    +0.000 A 
ATOM      7  C   UNL     1      -8.810  54.386  46.395  0.00  0.00    +0.000 A 
ATOM      8  C   UNL     1     -10.669  53.586  45.049  0.00  0.00    +0.000 A 
ATOM      9  C   UNL     1      -7.931  53.750  45.504  0.00  0.00    +0.000 A 
ATOM     10  C   UNL     1      -9.788  52.939  44.189  0.00  0.00    +0.000 A 
ATOM     11  C   UNL     1      -8.418  53.024  44.412  0.00  0.00    +0.000 A 
ENDROOT
BRANCH   1  17
ATOM     12  S   UNL     1     -13.060  55.951  51.259  0.00  0.00    +0.000 S 
ATOM     13  O   UNL     1     -12.323  56.157  52.494  0.00  0.00    +0.000 OA
ATOM     14  O   UNL     1     -14.204  55.062  51.228  0.00  0.00    +0.000 OA
ATOM     15  N   UNL     1     -12.004  55.447  50.140  0.00  0.00    +0.000 N 
ATOM     16  C   UNL     1     -13.666  57.528  50.781  0.00  0.00    +0.000 A 
ATOM     17  C   UNL     1     -11.638  56.226  49.165  0.00  0.00    +0.000 C 
ATOM     18  C   UNL     1     -13.090  58.133  49.674  0.00  0.00    +0.000 A 
ATOM     19  C   UNL     1     -14.694  58.131  51.502  0.00  0.00    +0.000 A 
ATOM     20  N   UNL     1     -12.047  57.528  48.976  0.00  0.00    +0.000 N 
ATOM     21  C   UNL     1     -13.526  59.416  49.322  0.00  0.00    +0.000 A 
ATOM     22  C   UNL     1     -15.145  59.394  51.123  0.00  0.00    +0.000 A 
ATOM     23  C   UNL     1     -14.553  60.038  50.036  0.00  0.00    +0.000 A 
ATOM     24  H   UNL     1     -11.633  54.536  50.198  0.00  0.00    +0.000 HD
ATOM     25  H   UNL     1     -11.572  58.066  48.302  0.00  0.00    +0.000 HD
ENDBRANCH   1  17
BRANCH   3  26
ATOM     26  O   UNL     1     -12.472  54.812  46.766  0.00  0.00    +0.000 OA
ATOM     27  H   UNL     1     -12.726  54.234  46.073  0.00  0.00    +0.000 HD
ENDBRANCH   3  26
BRANCH   5  28
ATOM     28  N   UNL     1      -6.908  55.200  47.724  0.00  0.00    +0.000 N 
ATOM     29  H   UNL     1      -6.351  55.846  47.232  0.00  0.00    +0.000 HD
BRANCH  28  30
ATOM     30  C   UNL     1      -6.358  54.260  48.709  0.00  0.00    +0.000 C 
BRANCH  30  31
ATOM     31  C   UNL     1      -5.583  54.982  49.812  0.00  0.00    +0.000 C 
BRANCH  31  32
ATOM     32  C   UNL     1      -6.239  54.718  51.171  0.00  0.00    +0.000 C 
ATOM     33  C   UNL     1      -7.321  53.654  51.083  0.00  0.00    +0.000 C 
ENDBRANCH  31  32
ENDBRANCH  30  31
ENDBRANCH  28  30
ENDBRANCH   5  28
TORSDOF 6
ENDMDL
MODEL 5
REMARK VINA RESULT:      -7.6      2.701      8.335
REMARK  Name = 
REMARK  7 active torsions:
REMARK  status: ('A' for Active; 'I' for Inactive)
REMARK    1  A    between atoms: C_6  and  C_10
REMARK    2  A    between atoms: C_14  and  O_18
REMARK    3  A    between atoms: N_17  and  N_20
REMARK    4  A    between atoms: N_20  and  C_23
REMARK    5  A    between atoms: C_23  and  C_26
REMARK    6  A    between atoms: C_26  and  C_28
REMARK    7  A    between atoms: C_28  and  C_29
REMARK                            x       y       z     vdW  Elec       q    Type
REMARK                         _______ _______ _______ _____ _____    ______ ____
ROOT
ATOM      1  C   UNL     1      -9.683  55.152  50.950  0.00  0.00    +0.000 A 
ATOM      2  C   UNL     1     -10.897  55.297  51.803  0.00  0.00    +0.000 A 
ATOM      3  C   UNL     1      -9.761  55.310  49.619  0.00  0.00    +0.000 A 
ATOM      4  O   UNL     1     -10.754  55.117  53.018  0.00  0.00    +0.000 OA
ATOM      5  N   UNL     1     -12.103  55.648  51.187  0.00  0.00    +0.000 N 
ATOM      6  C   UNL     1     -11.039  55.660  48.983  0.00  0.00    +0.000 A 
ATOM      7  C   UNL     1     -12.194  55.821  49.772  0.00  0.00    +0.000 A 
ATOM      8  C   UNL     1     -11.117  55.858  47.593  0.00  0.00    +0.000 A 
ATOM      9  C   UNL     1     -13.405  56.157  49.145  0.00  0.00    +0.000 A 
ATOM     10  C   UNL     1     -12.318  56.216  46.988  0.00  0.00    +0.000 A 
ATOM     11  C   UNL     1     -13.464  56.361  47.763  0.00  0.00    +0.000 A 
ENDROOT
BRANCH   1  17
ATOM     12  S   UNL     1      -6.736  55.375  53.534  0.00  0.00    +0.000 S 
ATOM     13  O   UNL     1      -6.998  54.596  54.731  0.00  0.00    +0.000 OA
ATOM     14  O   UNL     1      -6.125  56.685  53.631  0.00  0.00    +0.000 OA
ATOM     15  N   UNL     1      -8.137  55.534  52.738  0.00  0.00    +0.000 N 
ATOM     16  C   UNL     1      -5.645  54.412  52.551  0.00  0.00    +0.000 A 
ATOM     17  C   UNL     1      -8.353  54.892  51.628  0.00  0.00    +0.000 C 
ATOM     18  C   UNL     1      -6.151  53.846  51.390  0.00  0.00    +0.000 A 
ATOM     19  C   UNL     1      -4.320  54.236  52.943  0.00  0.00    +0.000 A 
ATOM     20  N   UNL     1      -7.484  54.012  51.022  0.00  0.00    +0.000 N 
ATOM     21  C   UNL     1      -5.304  53.028  50.632  0.00  0.00    +0.000 A 
ATOM     22  C   UNL     1      -3.476  53.447  52.163  0.00  0.00    +0.000 A 
ATOM     23  C   UNL     1      -3.973  52.837  51.011  0.00  0.00    +0.000 A 
ATOM     24  H   UNL     1      -8.837  56.124  53.100  0.00  0.00    +0.000 HD
ATOM     25  H   UNL     1      -7.828  53.463  50.280  0.00  0.00    +0.000 HD
ENDBRANCH   1  17
BRANCH   3  26
ATOM     26  O   UNL     1      -8.686  55.199  48.756  0.00  0.00    +0.000 OA
ATOM     27  H   UNL     1      -7.827  55.436  49.044  0.00  0.00    +0.000 HD
ENDBRANCH   3  26
BRANCH   5  28
ATOM     28  N   UNL     1     -13.315  55.769  51.959  0.00  0.00    +0.000 N 
ATOM     29  H   UNL     1     -13.971  55.039  52.041  0.00  0.00    +0.000 HD
BRANCH  28  30
ATOM     30  C   UNL     1     -13.488  57.073  52.613  0.00  0.00    +0.000 C 
BRANCH  30  31
ATOM     31  C   UNL     1     -14.959  57.484  52.678  0.00  0.00    +0.000 C 
BRANCH  31  32
ATOM     32  C   UNL     1     -15.093  58.989  52.418  0.00  0.00    +0.000 C 
ATOM     33  C   UNL     1     -14.967  59.323  50.941  0.00  0.00    +0.000 C 
ENDBRANCH  31  32
ENDBRANCH  30  31
ENDBRANCH  28  30
ENDBRANCH   5  28
TORSDOF 6
ENDMDL
MODEL 6
REMARK VINA RESULT:      -7.6      3.179      7.513
REMARK  Name = 
REMARK  7 active torsions:
REMARK  status: ('A' for Active; 'I' for Inactive)
REMARK    1  A    between atoms: C_6  and  C_10
REMARK    2  A    between atoms: C_14  and  O_18
REMARK    3  A    between atoms: N_17  and  N_20
REMARK    4  A    between atoms: N_20  and  C_23
REMARK    5  A    between atoms: C_23  and  C_26
REMARK    6  A    between atoms: C_26  and  C_28
REMARK    7  A    between atoms: C_28  and  C_29
REMARK                            x       y       z     vdW  Elec       q    Type
REMARK                         _______ _______ _______ _____ _____    ______ ____
ROOT
ATOM      1  C   UNL     1     -10.161  55.265  50.615  0.00  0.00    +0.000 A 
ATOM      2  C   UNL     1      -9.703  55.194  49.198  0.00  0.00    +0.000 A 
ATOM      3  C   UNL     1     -11.384  55.729  50.915  0.00  0.00    +0.000 A 
ATOM      4  O   UNL     1      -8.557  54.777  48.998  0.00  0.00    +0.000 OA
ATOM      5  N   UNL     1     -10.598  55.575  48.192  0.00  0.00    +0.000 N 
ATOM      6  C   UNL     1     -12.307  56.144  49.849  0.00  0.00    +0.000 A 
ATOM      7  C   UNL     1     -11.903  56.066  48.503  0.00  0.00    +0.000 A 
ATOM      8  C   UNL     1     -13.601  56.599  50.158  0.00  0.00    +0.000 A 
ATOM      9  C   UNL     1     -12.800  56.465  47.499  0.00  0.00    +0.000 A 
ATOM     10  C   UNL     1     -14.489  56.967  49.152  0.00  0.00    +0.000 A 
ATOM     11  C   UNL     1     -14.088  56.905  47.822  0.00  0.00    +0.000 A 
ENDROOT
BRANCH   1  17
ATOM     12  S   UNL     1      -7.009  54.856  52.920  0.00  0.00    +0.000 S 
ATOM     13  O   UNL     1      -6.984  55.837  53.990  0.00  0.00    +0.000 OA
ATOM     14  O   UNL     1      -5.793  54.512  52.212  0.00  0.00    +0.000 OA
ATOM     15  N   UNL     1      -8.099  55.352  51.830  0.00  0.00    +0.000 N 
ATOM     16  C   UNL     1      -7.583  53.360  53.639  0.00  0.00    +0.000 A 
ATOM     17  C   UNL     1      -9.239  54.739  51.697  0.00  0.00    +0.000 C 
ATOM     18  C   UNL     1      -8.858  52.929  53.302  0.00  0.00    +0.000 A 
ATOM     19  C   UNL     1      -6.768  52.646  54.515  0.00  0.00    +0.000 A 
ATOM     20  N   UNL     1      -9.670  53.665  52.442  0.00  0.00    +0.000 N 
ATOM     21  C   UNL     1      -9.345  51.769  53.917  0.00  0.00    +0.000 A 
ATOM     22  C   UNL     1      -7.250  51.475  55.096  0.00  0.00    +0.000 A 
ATOM     23  C   UNL     1      -8.543  51.042  54.800  0.00  0.00    +0.000 A 
ATOM     24  H   UNL     1      -7.897  56.129  51.260  0.00  0.00    +0.000 HD
ATOM     25  H   UNL     1     -10.615  53.398  52.362  0.00  0.00    +0.000 HD
ENDBRANCH   1  17
BRANCH   3  26
ATOM     26  O   UNL     1     -11.890  55.824  52.199  0.00  0.00    +0.000 OA
ATOM     27  H   UNL     1     -12.366  55.107  52.570  0.00  0.00    +0.000 HD
ENDBRANCH   3  26
BRANCH   5  28
ATOM     28  N   UNL     1     -10.198  55.557  46.806  0.00  0.00    +0.000 N 
ATOM     29  H   UNL     1      -9.967  56.375  46.307  0.00  0.00    +0.000 HD
BRANCH  28  30
ATOM     30  C   UNL     1     -10.162  54.219  46.204  0.00  0.00    +0.000 C 
BRANCH  30  31
ATOM     31  C   UNL     1     -11.444  53.910  45.429  0.00  0.00    +0.000 C 
BRANCH  31  32
ATOM     32  C   UNL     1     -11.994  52.544  45.850  0.00  0.00    +0.000 C 
ATOM     33  C   UNL     1     -12.213  52.457  47.352  0.00  0.00    +0.000 C 
ENDBRANCH  31  32
ENDBRANCH  30  31
ENDBRANCH  28  30
ENDBRANCH   5  28
TORSDOF 6
ENDMDL
MODEL 7
REMARK VINA RESULT:      -7.5      3.518      5.190
REMARK  Name = 
REMARK  7 active torsions:
REMARK  status: ('A' for Active; 'I' for Inactive)
REMARK    1  A    between atoms: C_6  and  C_10
REMARK    2  A    between atoms: C_14  and  O_18
REMARK    3  A    between atoms: N_17  and  N_20
REMARK    4  A    between atoms: N_20  and  C_23
REMARK    5  A    between atoms: C_23  and  C_26
REMARK    6  A    between atoms: C_26  and  C_28
REMARK    7  A    between atoms: C_28  and  C_29
REMARK                            x       y       z     vdW  Elec       q    Type
REMARK                         _______ _______ _______ _____ _____    ______ ____
ROOT
ATOM      1  C   UNL     1     -11.662  56.123  48.555  0.00  0.00    +0.000 A 
ATOM      2  C   UNL     1     -10.444  55.641  49.268  0.00  0.00    +0.000 A 
ATOM      3  C   UNL     1     -11.953  55.678  47.322  0.00  0.00    +0.000 A 
ATOM      4  O   UNL     1     -10.229  56.111  50.391  0.00  0.00    +0.000 OA
ATOM      5  N   UNL     1      -9.646  54.679  48.641  0.00  0.00    +0.000 N 
ATOM      6  C   UNL     1     -11.093  54.682  46.667  0.00  0.00    +0.000 A 
ATOM      7  C   UNL     1      -9.950  54.198  47.331  0.00  0.00    +0.000 A 
ATOM      8  C   UNL     1     -11.413  54.189  45.390  0.00  0.00    +0.000 A 
ATOM      9  C   UNL     1      -9.142  53.244  46.689  0.00  0.00    +0.000 A 
ATOM     10  C   UNL     1     -10.618  53.225  44.776  0.00  0.00    +0.000 A 
ATOM     11  C   UNL     1      -9.480  52.756  45.423  0.00  0.00    +0.000 A 
ENDROOT
BRANCH   1  17
ATOM     12  S   UNL     1     -13.627  59.389  49.496  0.00  0.00    +0.000 S 
ATOM     13  O   UNL     1     -14.796  59.585  48.658  0.00  0.00    +0.000 OA
ATOM     14  O   UNL     1     -12.783  60.512  49.850  0.00  0.00    +0.000 OA
ATOM     15  N   UNL     1     -12.698  58.270  48.785  0.00  0.00    +0.000 N 
ATOM     16  C   UNL     1     -14.217  58.737  51.016  0.00  0.00    +0.000 A 
ATOM     17  C   UNL     1     -12.593  57.073  49.281  0.00  0.00    +0.000 C 
ATOM     18  C   UNL     1     -13.943  57.407  51.299  0.00  0.00    +0.000 A 
ATOM     19  C   UNL     1     -14.932  59.548  51.895  0.00  0.00    +0.000 A 
ATOM     20  N   UNL     1     -13.245  56.603  50.400  0.00  0.00    +0.000 N 
ATOM     21  C   UNL     1     -14.461  56.863  52.480  0.00  0.00    +0.000 A 
ATOM     22  C   UNL     1     -15.415  59.005  53.085  0.00  0.00    +0.000 A 
ATOM     23  C   UNL     1     -15.184  57.660  53.372  0.00  0.00    +0.000 A 
ATOM     24  H   UNL     1     -12.205  58.498  47.963  0.00  0.00    +0.000 HD
ATOM     25  H   UNL     1     -13.216  55.634  50.576  0.00  0.00    +0.000 HD
ENDBRANCH   1  17
BRANCH   3  26
ATOM     26  O   UNL     1     -13.061  56.068  46.593  0.00  0.00    +0.000 OA
ATOM     27  H   UNL     1     -13.601  56.770  46.900  0.00  0.00    +0.000 HD
ENDBRANCH   3  26
BRANCH   5  28
ATOM     28  N   UNL     1      -8.439  54.202  49.270  0.00  0.00    +0.000 N 
ATOM     29  H   UNL     1      -8.421  53.417  49.865  0.00  0.00    +0.000 HD
BRANCH  28  30
ATOM     30  C   UNL     1      -7.239  54.984  48.948  0.00  0.00    +0.000 C 
BRANCH  30  31
ATOM     31  C   UNL     1      -6.743  55.785  50.152  0.00  0.00    +0.000 C 
BRANCH  31  32
ATOM     32  C   UNL     1      -6.822  54.928  51.420  0.00  0.00    +0.000 C 
ATOM     33  C   UNL     1      -7.478  55.674  52.570  0.00  0.00    +0.000 C 
ENDBRANCH  31  32
ENDBRANCH  30  31
ENDBRANCH  28  30
ENDBRANCH   5  28
TORSDOF 6
ENDMDL
MODEL 8
REMARK VINA RESULT:      -7.5      2.869      7.969
REMARK  Name = 
REMARK  7 active torsions:
REMARK  status: ('A' for Active; 'I' for Inactive)
REMARK    1  A    between atoms: C_6  and  C_10
REMARK    2  A    between atoms: C_14  and  O_18
REMARK    3  A    between atoms: N_17  and  N_20
REMARK    4  A    between atoms: N_20  and  C_23
REMARK    5  A    between atoms: C_23  and  C_26
REMARK    6  A    between atoms: C_26  and  C_28
REMARK    7  A    between atoms: C_28  and  C_29
REMARK                            x       y       z     vdW  Elec       q    Type
REMARK                         _______ _______ _______ _____ _____    ______ ____
ROOT
ATOM      1  C   UNL     1      -9.853  54.364  50.927  0.00  0.00    +0.000 A 
ATOM      2  C   UNL     1     -11.015  55.232  51.274  0.00  0.00    +0.000 A 
ATOM      3  C   UNL     1      -9.584  54.061  49.647  0.00  0.00    +0.000 A 
ATOM      4  O   UNL     1     -11.213  55.450  52.474  0.00  0.00    +0.000 OA
ATOM      5  N   UNL     1     -11.782  55.761  50.230  0.00  0.00    +0.000 N 
ATOM      6  C   UNL     1     -10.412  54.609  48.562  0.00  0.00    +0.000 A 
ATOM      7  C   UNL     1     -11.501  55.447  48.865  0.00  0.00    +0.000 A 
ATOM      8  C   UNL     1     -10.113  54.321  47.219  0.00  0.00    +0.000 A 
ATOM      9  C   UNL     1     -12.278  55.961  47.814  0.00  0.00    +0.000 A 
ATOM     10  C   UNL     1     -10.875  54.857  46.186  0.00  0.00    +0.000 A 
ATOM     11  C   UNL     1     -11.961  55.674  46.483  0.00  0.00    +0.000 A 
ENDROOT
BRANCH   1  17
ATOM     12  S   UNL     1      -6.678  53.939  53.196  0.00  0.00    +0.000 S 
ATOM     13  O   UNL     1      -6.523  55.039  54.131  0.00  0.00    +0.000 OA
ATOM     14  O   UNL     1      -5.524  53.390  52.512  0.00  0.00    +0.000 OA
ATOM     15  N   UNL     1      -7.753  54.399  52.076  0.00  0.00    +0.000 N 
ATOM     16  C   UNL     1      -7.366  52.609  54.114  0.00  0.00    +0.000 A 
ATOM     17  C   UNL     1      -8.949  53.890  52.047  0.00  0.00    +0.000 C 
ATOM     18  C   UNL     1      -8.687  52.266  53.863  0.00  0.00    +0.000 A 
ATOM     19  C   UNL     1      -6.593  51.934  55.056  0.00  0.00    +0.000 A 
ATOM     20  N   UNL     1      -9.454  52.965  52.933  0.00  0.00    +0.000 N 
ATOM     21  C   UNL     1      -9.261  51.247  54.632  0.00  0.00    +0.000 A 
ATOM     22  C   UNL     1      -7.165  50.899  55.793  0.00  0.00    +0.000 A 
ATOM     23  C   UNL     1      -8.502  50.562  55.584  0.00  0.00    +0.000 A 
ATOM     24  H   UNL     1      -7.497  55.074  51.406  0.00  0.00    +0.000 HD
ATOM     25  H   UNL     1     -10.423  52.785  52.909  0.00  0.00    +0.000 HD
ENDBRANCH   1  17
BRANCH   3  26
ATOM     26  O   UNL     1      -8.527  53.269  49.238  0.00  0.00    +0.000 OA
ATOM     27  H   UNL     1      -7.698  53.334  49.670  0.00  0.00    +0.000 HD
ENDBRANCH   3  26
BRANCH   5  28
ATOM     28  N   UNL     1     -12.936  56.580  50.509  0.00  0.00    +0.000 N 
ATOM     29  H   UNL     1     -12.923  57.562  50.441  0.00  0.00    +0.000 HD
BRANCH  28  30
ATOM     30  C   UNL     1     -14.133  55.824  50.900  0.00  0.00    +0.000 C 
BRANCH  30  31
ATOM     31  C   UNL     1     -15.363  56.726  51.011  0.00  0.00    +0.000 C 
BRANCH  31  32
ATOM     32  C   UNL     1     -15.698  56.976  52.485  0.00  0.00    +0.000 C 
ATOM     33  C   UNL     1     -14.725  57.949  53.132  0.00  0.00    +0.000 C 
ENDBRANCH  31  32
ENDBRANCH  30  31
ENDBRANCH  28  30
ENDBRANCH   5  28
TORSDOF 6
ENDMDL
MODEL 9
REMARK VINA RESULT:      -7.4      2.648      8.235
REMARK  Name = 
REMARK  7 active torsions:
REMARK  status: ('A' for Active; 'I' for Inactive)
REMARK    1  A    between atoms: C_6  and  C_10
REMARK    2  A    between atoms: C_14  and  O_18
REMARK    3  A    between atoms: N_17  and  N_20
REMARK    4  A    between atoms: N_20  and  C_23
REMARK    5  A    between atoms: C_23  and  C_26
REMARK    6  A    between atoms: C_26  and  C_28
REMARK    7  A    between atoms: C_28  and  C_29
REMARK                            x       y       z     vdW  Elec       q    Type
REMARK                         _______ _______ _______ _____ _____    ______ ____
ROOT
ATOM      1  C   UNL     1     -10.019  54.090  50.727  0.00  0.00    +0.000 A 
ATOM      2  C   UNL     1     -11.199  54.481  51.551  0.00  0.00    +0.000 A 
ATOM      3  C   UNL     1      -9.985  54.359  49.413  0.00  0.00    +0.000 A 
ATOM      4  O   UNL     1     -11.170  54.182  52.750  0.00  0.00    +0.000 OA
ATOM      5  N   UNL     1     -12.241  55.176  50.929  0.00  0.00    +0.000 N 
ATOM      6  C   UNL     1     -11.097  55.073  48.769  0.00  0.00    +0.000 A 
ATOM      7  C   UNL     1     -12.212  55.469  49.531  0.00  0.00    +0.000 A 
ATOM      8  C   UNL     1     -11.050  55.385  47.399  0.00  0.00    +0.000 A 
ATOM      9  C   UNL     1     -13.263  56.152  48.898  0.00  0.00    +0.000 A 
ATOM     10  C   UNL     1     -12.087  56.085  46.789  0.00  0.00    +0.000 A 
ATOM     11  C   UNL     1     -13.196  56.465  47.537  0.00  0.00    +0.000 A 
ENDROOT
BRANCH   1  17
ATOM     12  S   UNL     1      -7.925  51.648  52.977  0.00  0.00    +0.000 S 
ATOM     13  O   UNL     1      -7.659  50.384  52.313  0.00  0.00    +0.000 OA
ATOM     14  O   UNL     1      -8.280  51.677  54.382  0.00  0.00    +0.000 OA
ATOM     15  N   UNL     1      -9.096  52.399  52.149  0.00  0.00    +0.000 N 
ATOM     16  C   UNL     1      -6.452  52.594  52.837  0.00  0.00    +0.000 A 
ATOM     17  C   UNL     1      -8.837  53.446  51.423  0.00  0.00    +0.000 C 
ATOM     18  C   UNL     1      -6.464  53.687  51.983  0.00  0.00    +0.000 A 
ATOM     19  C   UNL     1      -5.321  52.242  53.571  0.00  0.00    +0.000 A 
ATOM     20  N   UNL     1      -7.596  54.014  51.239  0.00  0.00    +0.000 N 
ATOM     21  C   UNL     1      -5.277  54.411  51.821  0.00  0.00    +0.000 A 
ATOM     22  C   UNL     1      -4.153  52.989  53.427  0.00  0.00    +0.000 A 
ATOM     23  C   UNL     1      -4.132  54.070  52.545  0.00  0.00    +0.000 A 
ATOM     24  H   UNL     1     -10.018  52.056  52.194  0.00  0.00    +0.000 HD
ATOM     25  H   UNL     1      -7.502  54.697  50.536  0.00  0.00    +0.000 HD
ENDBRANCH   1  17
BRANCH   3  26
ATOM     26  O   UNL     1      -8.931  54.037  48.577  0.00  0.00    +0.000 OA
ATOM     27  H   UNL     1      -8.799  54.518  47.784  0.00  0.00    +0.000 HD
ENDBRANCH   3  26
BRANCH   5  28
ATOM     28  N   UNL     1     -13.421  55.549  51.671  0.00  0.00    +0.000 N 
ATOM     29  H   UNL     1     -14.226  54.983  51.714  0.00  0.00    +0.000 HD
BRANCH  28  30
ATOM     30  C   UNL     1     -13.320  56.844  52.356  0.00  0.00    +0.000 C 
BRANCH  30  31
ATOM     31  C   UNL     1     -14.695  57.389  52.745  0.00  0.00    +0.000 C 
BRANCH  31  32
ATOM     32  C   UNL     1     -14.762  58.893  52.456  0.00  0.00    +0.000 C 
ATOM     33  C   UNL     1     -14.757  59.186  50.965  0.00  0.00    +0.000 C 
ENDBRANCH  31  32
ENDBRANCH  30  31
ENDBRANCH  28  30
ENDBRANCH   5  28
TORSDOF 6
ENDMDL
