MODEL 1
REMARK VINA RESULT:      -8.4      0.000      0.000
REMARK  Name = 
REMARK  5 active torsions:
REMARK  status: ('A' for Active; 'I' for Inactive)
REMARK    1  A    between atoms: C_6  and  C_10
REMARK    2  A    between atoms: C_14  and  O_18
REMARK    3  A    between atoms: N_17  and  N_20
REMARK    4  A    between atoms: N_20  and  C_23
REMARK    5  A    between atoms: C_23  and  C_26
REMARK                            x       y       z     vdW  Elec       q    Type
REMARK                         _______ _______ _______ _____ _____    ______ ____
ROOT
ATOM      1  C   UNL     1     -10.114  54.563  52.187  0.00  0.00    +0.000 A 
ATOM      2  C   UNL     1      -8.752  55.140  51.984  0.00  0.00    +0.000 A 
ATOM      3  C   UNL     1     -10.278  53.458  52.936  0.00  0.00    +0.000 A 
ATOM      4  O   UNL     1      -8.660  56.143  51.269  0.00  0.00    +0.000 OA
ATOM      5  N   UNL     1      -7.673  54.533  52.631  0.00  0.00    +0.000 N 
ATOM      6  C   UNL     1      -9.128  52.824  53.598  0.00  0.00    +0.000 A 
ATOM      7  C   UNL     1      -7.841  53.366  53.435  0.00  0.00    +0.000 A 
ATOM      8  C   UNL     1      -9.302  51.687  54.405  0.00  0.00    +0.000 A 
ATOM      9  C   UNL     1      -6.753  52.748  54.075  0.00  0.00    +0.000 A 
ATOM     10  C   UNL     1      -8.217  51.094  55.049  0.00  0.00    +0.000 A 
ATOM     11  C   UNL     1      -6.943  51.623  54.882  0.00  0.00    +0.000 A 
ENDROOT
BRANCH   1  17
ATOM     12  S   UNL     1     -12.589  56.041  49.520  0.00  0.00    +0.000 S 
ATOM     13  O   UNL     1     -13.487  55.040  48.983  0.00  0.00    +0.000 OA
ATOM     14  O   UNL     1     -11.990  57.033  48.646  0.00  0.00    +0.000 OA
ATOM     15  N   UNL     1     -11.390  55.266  50.285  0.00  0.00    +0.000 N 
ATOM     16  C   UNL     1     -13.515  56.942  50.707  0.00  0.00    +0.000 A 
ATOM     17  C   UNL     1     -11.303  55.283  51.582  0.00  0.00    +0.000 C 
ATOM     18  C   UNL     1     -13.194  56.772  52.043  0.00  0.00    +0.000 A 
ATOM     19  C   UNL     1     -14.531  57.808  50.293  0.00  0.00    +0.000 A 
ATOM     20  N   UNL     1     -12.188  55.897  52.443  0.00  0.00    +0.000 N 
ATOM     21  C   UNL     1     -13.969  57.439  52.999  0.00  0.00    +0.000 A 
ATOM     22  C   UNL     1     -15.270  58.494  51.253  0.00  0.00    +0.000 A 
ATOM     23  C   UNL     1     -14.996  58.302  52.607  0.00  0.00    +0.000 A 
ATOM     24  H   UNL     1     -10.718  54.775  49.761  0.00  0.00    +0.000 HD
ATOM     25  H   UNL     1     -12.103  55.704  53.405  0.00  0.00    +0.000 HD
ENDBRANCH   1  17
BRANCH   3  26
ATOM     26  O   UNL     1     -11.500  52.854  53.175  0.00  0.00    +0.000 OA
ATOM     27  H   UNL     1     -11.752  52.638  54.051  0.00  0.00    +0.000 HD
ENDBRANCH   3  26
BRANCH   5  28
ATOM     28  N   UNL     1      -6.335  55.011  52.415  0.00  0.00    +0.000 N 
ATOM     29  H   UNL     1      -5.822  55.484  53.109  0.00  0.00    +0.000 HD
BRANCH  28  30
ATOM     30  C   UNL     1      -5.793  54.737  51.076  0.00  0.00    +0.000 C 
BRANCH  30  31
ATOM     31  C   UNL     1      -4.996  53.465  51.075  0.00  0.00    +0.000 A 
ATOM     32  S   UNL     1      -5.568  52.093  50.216  0.00  0.00    +0.000 S 
ATOM     33  C   UNL     1      -3.773  53.220  51.665  0.00  0.00    +0.000 A 
ATOM     34  C   UNL     1      -4.179  51.184  50.621  0.00  0.00    +0.000 A 
ATOM     35  C   UNL     1      -3.300  51.901  51.401  0.00  0.00    +0.000 A 
ENDBRANCH  30  31
ENDBRANCH  28  30
ENDBRANCH   5  28
TORSDOF 5
ENDMDL
MODEL 2
REMARK VINA RESULT:      -8.3      3.269      4.858
REMARK  Name = 
REMARK  5 active torsions:
REMARK  status: ('A' for Active; 'I' for Inactive)
REMARK    1  A    between atoms: C_6  and  C_10
REMARK    2  A    between atoms: C_14  and  O_18
REMARK    3  A    between atoms: N_17  and  N_20
REMARK    4  A    between atoms: N_20  and  C_23
REMARK    5  A    between atoms: C_23  and  C_26
REMARK                            x       y       z     vdW  Elec       q    Type
REMARK                         _______ _______ _______ _____ _____    ______ ____
ROOT
ATOM      1  C   UNL     1     -11.427  56.017  48.839  0.00  0.00    +0.000 A 
ATOM      2  C   UNL     1     -10.366  55.439  49.717  0.00  0.00    +0.000 A 
ATOM      3  C   UNL     1     -11.517  55.646  47.550  0.00  0.00    +0.000 A 
ATOM      4  O   UNL     1     -10.319  55.833  50.887  0.00  0.00    +0.000 OA
ATOM      5  N   UNL     1      -9.514  54.473  49.177  0.00  0.00    +0.000 N 
ATOM      6  C   UNL     1     -10.602  54.638  46.995  0.00  0.00    +0.000 A 
ATOM      7  C   UNL     1      -9.610  54.068  47.812  0.00  0.00    +0.000 A 
ATOM      8  C   UNL     1     -10.714  54.227  45.656  0.00  0.00    +0.000 A 
ATOM      9  C   UNL     1      -8.744  53.105  47.266  0.00  0.00    +0.000 A 
ATOM     10  C   UNL     1      -9.860  53.259  45.130  0.00  0.00    +0.000 A 
ATOM     11  C   UNL     1      -8.874  52.700  45.935  0.00  0.00    +0.000 A 
ENDROOT
BRANCH   1  17
ATOM     12  S   UNL     1     -13.558  59.261  49.443  0.00  0.00    +0.000 S 
ATOM     13  O   UNL     1     -14.687  59.357  48.541  0.00  0.00    +0.000 OA
ATOM     14  O   UNL     1     -12.767  60.436  49.755  0.00  0.00    +0.000 OA
ATOM     15  N   UNL     1     -12.557  58.130  48.857  0.00  0.00    +0.000 N 
ATOM     16  C   UNL     1     -14.202  58.694  50.974  0.00  0.00    +0.000 A 
ATOM     17  C   UNL     1     -12.427  56.980  49.449  0.00  0.00    +0.000 C 
ATOM     18  C   UNL     1     -13.889  57.404  51.370  0.00  0.00    +0.000 A 
ATOM     19  C   UNL     1     -14.993  59.539  51.757  0.00  0.00    +0.000 A 
ATOM     20  N   UNL     1     -13.110  56.569  50.575  0.00  0.00    +0.000 N 
ATOM     21  C   UNL     1     -14.450  56.924  52.559  0.00  0.00    +0.000 A 
ATOM     22  C   UNL     1     -15.514  59.060  52.956  0.00  0.00    +0.000 A 
ATOM     23  C   UNL     1     -15.251  57.749  53.352  0.00  0.00    +0.000 A 
ATOM     24  H   UNL     1     -12.039  58.316  48.041  0.00  0.00    +0.000 HD
ATOM     25  H   UNL     1     -13.043  55.621  50.832  0.00  0.00    +0.000 HD
ENDBRANCH   1  17
BRANCH   3  26
ATOM     26  O   UNL     1     -12.464  56.131  46.665  0.00  0.00    +0.000 OA
ATOM     27  H   UNL     1     -13.329  55.772  46.661  0.00  0.00    +0.000 HD
ENDBRANCH   3  26
BRANCH   5  28
ATOM     28  N   UNL     1      -8.437  53.935  49.962  0.00  0.00    +0.000 N 
ATOM     29  H   UNL     1      -8.492  53.060  50.408  0.00  0.00    +0.000 HD
BRANCH  28  30
ATOM     30  C   UNL     1      -7.248  54.795  50.045  0.00  0.00    +0.000 C 
BRANCH  30  31
ATOM     31  C   UNL     1      -6.834  54.993  51.474  0.00  0.00    +0.000 A 
ATOM     32  S   UNL     1      -5.513  54.106  52.118  0.00  0.00    +0.000 S 
ATOM     33  C   UNL     1      -7.360  55.865  52.405  0.00  0.00    +0.000 A 
ATOM     34  C   UNL     1      -5.638  54.896  53.627  0.00  0.00    +0.000 A 
ATOM     35  C   UNL     1      -6.669  55.809  53.650  0.00  0.00    +0.000 A 
ENDBRANCH  30  31
ENDBRANCH  28  30
ENDBRANCH   5  28
TORSDOF 5
ENDMDL
MODEL 3
REMARK VINA RESULT:      -8.3      2.164      2.466
REMARK  Name = 
REMARK  5 active torsions:
REMARK  status: ('A' for Active; 'I' for Inactive)
REMARK    1  A    between atoms: C_6  and  C_10
REMARK    2  A    between atoms: C_14  and  O_18
REMARK    3  A    between atoms: N_17  and  N_20
REMARK    4  A    between atoms: N_20  and  C_23
REMARK    5  A    between atoms: C_23  and  C_26
REMARK                            x       y       z     vdW  Elec       q    Type
REMARK                         _______ _______ _______ _____ _____    ______ ____
ROOT
ATOM      1  C   UNL     1     -11.162  54.613  50.859  0.00  0.00    +0.000 A 
ATOM      2  C   UNL     1      -9.766  55.006  50.506  0.00  0.00    +0.000 A 
ATOM      3  C   UNL     1     -11.426  53.372  51.304  0.00  0.00    +0.000 A 
ATOM      4  O   UNL     1      -9.587  56.152  50.083  0.00  0.00    +0.000 OA
ATOM      5  N   UNL     1      -8.746  54.070  50.701  0.00  0.00    +0.000 N 
ATOM      6  C   UNL     1     -10.342  52.396  51.488  0.00  0.00    +0.000 A 
ATOM      7  C   UNL     1      -9.018  52.755  51.181  0.00  0.00    +0.000 A 
ATOM      8  C   UNL     1     -10.612  51.108  51.982  0.00  0.00    +0.000 A 
ATOM      9  C   UNL     1      -7.994  51.810  51.364  0.00  0.00    +0.000 A 
ATOM     10  C   UNL     1      -9.585  50.186  52.176  0.00  0.00    +0.000 A 
ATOM     11  C   UNL     1      -8.276  50.536  51.864  0.00  0.00    +0.000 A 
ENDROOT
BRANCH   1  17
ATOM     12  S   UNL     1     -13.617  57.280  49.345  0.00  0.00    +0.000 S 
ATOM     13  O   UNL     1     -14.751  56.673  48.680  0.00  0.00    +0.000 OA
ATOM     14  O   UNL     1     -12.951  58.428  48.760  0.00  0.00    +0.000 OA
ATOM     15  N   UNL     1     -12.505  56.124  49.572  0.00  0.00    +0.000 N 
ATOM     16  C   UNL     1     -14.197  57.809  50.915  0.00  0.00    +0.000 A 
ATOM     17  C   UNL     1     -12.256  55.659  50.761  0.00  0.00    +0.000 C 
ATOM     18  C   UNL     1     -13.751  57.125  52.034  0.00  0.00    +0.000 A 
ATOM     19  C   UNL     1     -15.069  58.896  51.010  0.00  0.00    +0.000 A 
ATOM     20  N   UNL     1     -12.892  56.036  51.925  0.00  0.00    +0.000 N 
ATOM     21  C   UNL     1     -14.258  57.501  53.283  0.00  0.00    +0.000 A 
ATOM     22  C   UNL     1     -15.537  59.283  52.263  0.00  0.00    +0.000 A 
ATOM     23  C   UNL     1     -15.139  58.579  53.399  0.00  0.00    +0.000 A 
ATOM     24  H   UNL     1     -12.011  55.768  48.799  0.00  0.00    +0.000 HD
ATOM     25  H   UNL     1     -12.726  55.498  52.733  0.00  0.00    +0.000 HD
ENDBRANCH   1  17
BRANCH   3  26
ATOM     26  O   UNL     1     -12.688  52.921  51.651  0.00  0.00    +0.000 OA
ATOM     27  H   UNL     1     -12.787  52.293  52.339  0.00  0.00    +0.000 HD
ENDBRANCH   3  26
BRANCH   5  28
ATOM     28  N   UNL     1      -7.397  54.378  50.315  0.00  0.00    +0.000 N 
ATOM     29  H   UNL     1      -6.935  53.912  49.581  0.00  0.00    +0.000 HD
BRANCH  28  30
ATOM     30  C   UNL     1      -6.760  55.444  51.101  0.00  0.00    +0.000 C 
BRANCH  30  31
ATOM     31  C   UNL     1      -6.353  54.935  52.454  0.00  0.00    +0.000 A 
ATOM     32  S   UNL     1      -7.235  55.406  53.850  0.00  0.00    +0.000 S 
ATOM     33  C   UNL     1      -5.336  54.058  52.770  0.00  0.00    +0.000 A 
ATOM     34  C   UNL     1      -6.268  54.430  54.865  0.00  0.00    +0.000 A 
ATOM     35  C   UNL     1      -5.287  53.766  54.163  0.00  0.00    +0.000 A 
ENDBRANCH  30  31
ENDBRANCH  28  30
ENDBRANCH   5  28
TORSDOF 5
ENDMDL
MODEL 4
REMARK VINA RESULT:      -8.3      3.126      8.379
REMARK  Name = 
REMARK  5 active torsions:
REMARK  status: ('A' for Active; 'I' for Inactive)
REMARK    1  A    between atoms: C_6  and  C_10
REMARK    2  A    between atoms: C_14  and  O_18
REMARK    3  A    between atoms: N_17  and  N_20
REMARK    4  A    between atoms: N_20  and  C_23
REMARK    5  A    between atoms: C_23  and  C_26
REMARK                            x       y       z     vdW  Elec       q    Type
REMARK                         _______ _______ _______ _____ _____    ______ ____
ROOT
ATOM      1  C   UNL     1      -9.100  54.350  49.903  0.00  0.00    +0.000 A 
ATOM      2  C   UNL     1     -10.144  55.411  50.009  0.00  0.00    +0.000 A 
ATOM      3  C   UNL     1      -9.001  53.604  48.789  0.00  0.00    +0.000 A 
ATOM      4  O   UNL     1     -10.200  56.050  51.065  0.00  0.00    +0.000 OA
ATOM      5  N   UNL     1     -10.972  55.638  48.907  0.00  0.00    +0.000 N 
ATOM      6  C   UNL     1      -9.892  53.848  47.644  0.00  0.00    +0.000 A 
ATOM      7  C   UNL     1     -10.867  54.857  47.718  0.00  0.00    +0.000 A 
ATOM      8  C   UNL     1      -9.770  53.089  46.467  0.00  0.00    +0.000 A 
ATOM      9  C   UNL     1     -11.709  55.077  46.614  0.00  0.00    +0.000 A 
ATOM     10  C   UNL     1     -10.600  53.329  45.372  0.00  0.00    +0.000 A 
ATOM     11  C   UNL     1     -11.570  54.321  45.447  0.00  0.00    +0.000 A 
ENDROOT
BRANCH   1  17
ATOM     12  S   UNL     1      -7.682  54.072  53.555  0.00  0.00    +0.000 S 
ATOM     13  O   UNL     1      -7.915  52.768  54.142  0.00  0.00    +0.000 OA
ATOM     14  O   UNL     1      -7.857  55.274  54.348  0.00  0.00    +0.000 OA
ATOM     15  N   UNL     1      -8.629  54.198  52.248  0.00  0.00    +0.000 N 
ATOM     16  C   UNL     1      -6.007  54.079  53.032  0.00  0.00    +0.000 A 
ATOM     17  C   UNL     1      -8.123  54.176  51.050  0.00  0.00    +0.000 C 
ATOM     18  C   UNL     1      -5.755  54.062  51.670  0.00  0.00    +0.000 A 
ATOM     19  C   UNL     1      -4.978  54.115  53.976  0.00  0.00    +0.000 A 
ATOM     20  N   UNL     1      -6.789  54.015  50.740  0.00  0.00    +0.000 N 
ATOM     21  C   UNL     1      -4.422  54.005  51.245  0.00  0.00    +0.000 A 
ATOM     22  C   UNL     1      -3.656  54.095  53.538  0.00  0.00    +0.000 A 
ATOM     23  C   UNL     1      -3.378  54.030  52.173  0.00  0.00    +0.000 A 
ATOM     24  H   UNL     1      -9.602  54.293  52.361  0.00  0.00    +0.000 HD
ATOM     25  H   UNL     1      -6.553  53.855  49.797  0.00  0.00    +0.000 HD
ENDBRANCH   1  17
BRANCH   3  26
ATOM     26  O   UNL     1      -8.069  52.599  48.604  0.00  0.00    +0.000 OA
ATOM     27  H   UNL     1      -8.346  51.749  48.322  0.00  0.00    +0.000 HD
ENDBRANCH   3  26
BRANCH   5  28
ATOM     28  N   UNL     1     -12.033  56.603  48.984  0.00  0.00    +0.000 N 
ATOM     29  H   UNL     1     -11.945  57.519  48.633  0.00  0.00    +0.000 HD
BRANCH  28  30
ATOM     30  C   UNL     1     -13.262  56.116  49.627  0.00  0.00    +0.000 C 
BRANCH  30  31
ATOM     31  C   UNL     1     -13.638  56.992  50.787  0.00  0.00    +0.000 A 
ATOM     32  S   UNL     1     -14.253  58.571  50.508  0.00  0.00    +0.000 S 
ATOM     33  C   UNL     1     -13.601  56.694  52.134  0.00  0.00    +0.000 A 
ATOM     34  C   UNL     1     -14.480  58.844  52.179  0.00  0.00    +0.000 A 
ATOM     35  C   UNL     1     -14.088  57.764  52.938  0.00  0.00    +0.000 A 
ENDBRANCH  30  31
ENDBRANCH  28  30
ENDBRANCH   5  28
TORSDOF 5
ENDMDL
MODEL 5
REMARK VINA RESULT:      -8.1      4.131      5.546
REMARK  Name = 
REMARK  5 active torsions:
REMARK  status: ('A' for Active; 'I' for Inactive)
REMARK    1  A    between atoms: C_6  and  C_10
REMARK    2  A    between atoms: C_14  and  O_18
REMARK    3  A    between atoms: N_17  and  N_20
REMARK    4  A    between atoms: N_20  and  C_23
REMARK    5  A    between atoms: C_23  and  C_26
REMARK                            x       y       z     vdW  Elec       q    Type
REMARK                         _______ _______ _______ _____ _____    ______ ____
ROOT
ATOM      1  C   UNL     1     -10.385  54.930  47.757  0.00  0.00    +0.000 A 
ATOM      2  C   UNL     1      -8.897  55.043  47.746  0.00  0.00    +0.000 A 
ATOM      3  C   UNL     1     -11.032  54.384  46.713  0.00  0.00    +0.000 A 
ATOM      4  O   UNL     1      -8.359  55.573  48.724  0.00  0.00    +0.000 OA
ATOM      5  N   UNL     1      -8.202  54.522  46.652  0.00  0.00    +0.000 N 
ATOM      6  C   UNL     1     -10.284  53.853  45.563  0.00  0.00    +0.000 A 
ATOM      7  C   UNL     1      -8.881  53.932  45.544  0.00  0.00    +0.000 A 
ATOM      8  C   UNL     1     -10.957  53.255  44.484  0.00  0.00    +0.000 A 
ATOM      9  C   UNL     1      -8.182  53.419  44.438  0.00  0.00    +0.000 A 
ATOM     10  C   UNL     1     -10.251  52.734  43.400  0.00  0.00    +0.000 A 
ATOM     11  C   UNL     1      -8.864  52.819  43.377  0.00  0.00    +0.000 A 
ENDROOT
BRANCH   1  17
ATOM     12  S   UNL     1     -11.816  55.001  51.414  0.00  0.00    +0.000 S 
ATOM     13  O   UNL     1     -10.842  55.463  52.381  0.00  0.00    +0.000 OA
ATOM     14  O   UNL     1     -12.688  53.885  51.728  0.00  0.00    +0.000 OA
ATOM     15  N   UNL     1     -11.022  54.642  50.050  0.00  0.00    +0.000 N 
ATOM     16  C   UNL     1     -12.875  56.365  51.099  0.00  0.00    +0.000 A 
ATOM     17  C   UNL     1     -11.137  55.389  48.991  0.00  0.00    +0.000 C 
ATOM     18  C   UNL     1     -12.792  56.976  49.859  0.00  0.00    +0.000 A 
ATOM     19  C   UNL     1     -13.775  56.794  52.077  0.00  0.00    +0.000 A 
ATOM     20  N   UNL     1     -11.882  56.546  48.897  0.00  0.00    +0.000 N 
ATOM     21  C   UNL     1     -13.588  58.102  49.622  0.00  0.00    +0.000 A 
ATOM     22  C   UNL     1     -14.589  57.893  51.815  0.00  0.00    +0.000 A 
ATOM     23  C   UNL     1     -14.488  58.553  50.590  0.00  0.00    +0.000 A 
ATOM     24  H   UNL     1     -10.442  53.847  50.021  0.00  0.00    +0.000 HD
ATOM     25  H   UNL     1     -11.762  57.105  48.095  0.00  0.00    +0.000 HD
ENDBRANCH   1  17
BRANCH   3  26
ATOM     26  O   UNL     1     -12.406  54.241  46.635  0.00  0.00    +0.000 OA
ATOM     27  H   UNL     1     -12.811  53.446  46.919  0.00  0.00    +0.000 HD
ENDBRANCH   3  26
BRANCH   5  28
ATOM     28  N   UNL     1      -6.775  54.664  46.564  0.00  0.00    +0.000 N 
ATOM     29  H   UNL     1      -6.343  55.479  46.221  0.00  0.00    +0.000 HD
BRANCH  28  30
ATOM     30  C   UNL     1      -6.010  53.498  47.029  0.00  0.00    +0.000 C 
BRANCH  30  31
ATOM     31  C   UNL     1      -5.714  53.607  48.497  0.00  0.00    +0.000 A 
ATOM     32  S   UNL     1      -6.426  52.503  49.602  0.00  0.00    +0.000 S 
ATOM     33  C   UNL     1      -4.871  54.492  49.138  0.00  0.00    +0.000 A 
ATOM     34  C   UNL     1      -5.599  53.198  50.925  0.00  0.00    +0.000 A 
ATOM     35  C   UNL     1      -4.805  54.255  50.541  0.00  0.00    +0.000 A 
ENDBRANCH  30  31
ENDBRANCH  28  30
ENDBRANCH   5  28
TORSDOF 5
ENDMDL
MODEL 6
REMARK VINA RESULT:      -8.1      3.627      7.387
REMARK  Name = 
REMARK  5 active torsions:
REMARK  status: ('A' for Active; 'I' for Inactive)
REMARK    1  A    between atoms: C_6  and  C_10
REMARK    2  A    between atoms: C_14  and  O_18
REMARK    3  A    between atoms: N_17  and  N_20
REMARK    4  A    between atoms: N_20  and  C_23
REMARK    5  A    between atoms: C_23  and  C_26
REMARK                            x       y       z     vdW  Elec       q    Type
REMARK                         _______ _______ _______ _____ _____    ______ ____
ROOT
ATOM      1  C   UNL     1     -10.380  55.167  50.899  0.00  0.00    +0.000 A 
ATOM      2  C   UNL     1     -10.047  55.043  49.449  0.00  0.00    +0.000 A 
ATOM      3  C   UNL     1     -11.551  55.704  51.283  0.00  0.00    +0.000 A 
ATOM      4  O   UNL     1      -8.948  54.561  49.157  0.00  0.00    +0.000 OA
ATOM      5  N   UNL     1     -11.002  55.449  48.514  0.00  0.00    +0.000 N 
ATOM      6  C   UNL     1     -12.538  56.141  50.284  0.00  0.00    +0.000 A 
ATOM      7  C   UNL     1     -12.251  56.012  48.915  0.00  0.00    +0.000 A 
ATOM      8  C   UNL     1     -13.775  56.675  50.684  0.00  0.00    +0.000 A 
ATOM      9  C   UNL     1     -13.206  56.433  47.973  0.00  0.00    +0.000 A 
ATOM     10  C   UNL     1     -14.721  57.073  49.741  0.00  0.00    +0.000 A 
ATOM     11  C   UNL     1     -14.435  56.954  48.386  0.00  0.00    +0.000 A 
ENDROOT
BRANCH   1  17
ATOM     12  S   UNL     1      -7.089  54.689  52.989  0.00  0.00    +0.000 S 
ATOM     13  O   UNL     1      -6.958  55.669  54.048  0.00  0.00    +0.000 OA
ATOM     14  O   UNL     1      -5.936  54.310  52.194  0.00  0.00    +0.000 OA
ATOM     15  N   UNL     1      -8.240  55.211  51.977  0.00  0.00    +0.000 N 
ATOM     16  C   UNL     1      -7.651  53.213  53.756  0.00  0.00    +0.000 A 
ATOM     17  C   UNL     1      -9.397  54.622  51.917  0.00  0.00    +0.000 C 
ATOM     18  C   UNL     1      -8.950  52.807  53.503  0.00  0.00    +0.000 A 
ATOM     19  C   UNL     1      -6.792  52.481  54.580  0.00  0.00    +0.000 A 
ATOM     20  N   UNL     1      -9.799  53.552  52.690  0.00  0.00    +0.000 N 
ATOM     21  C   UNL     1      -9.426  51.666  54.160  0.00  0.00    +0.000 A 
ATOM     22  C   UNL     1      -7.267  51.327  55.198  0.00  0.00    +0.000 A 
ATOM     23  C   UNL     1      -8.587  50.925  54.996  0.00  0.00    +0.000 A 
ATOM     24  H   UNL     1      -8.061  55.986  51.397  0.00  0.00    +0.000 HD
ATOM     25  H   UNL     1     -10.751  53.300  52.665  0.00  0.00    +0.000 HD
ENDBRANCH   1  17
BRANCH   3  26
ATOM     26  O   UNL     1     -11.941  55.861  52.602  0.00  0.00    +0.000 OA
ATOM     27  H   UNL     1     -11.872  55.143  53.199  0.00  0.00    +0.000 HD
ENDBRANCH   3  26
BRANCH   5  28
ATOM     28  N   UNL     1     -10.704  55.411  47.109  0.00  0.00    +0.000 N 
ATOM     29  H   UNL     1     -10.091  56.049  46.679  0.00  0.00    +0.000 HD
BRANCH  28  30
ATOM     30  C   UNL     1     -11.386  54.343  46.365  0.00  0.00    +0.000 C 
BRANCH  30  31
ATOM     31  C   UNL     1     -10.482  53.767  45.313  0.00  0.00    +0.000 A 
ATOM     32  S   UNL     1      -8.782  53.982  45.430  0.00  0.00    +0.000 S 
ATOM     33  C   UNL     1     -10.822  53.008  44.213  0.00  0.00    +0.000 A 
ATOM     34  C   UNL     1      -8.507  53.052  44.024  0.00  0.00    +0.000 A 
ATOM     35  C   UNL     1      -9.680  52.594  43.468  0.00  0.00    +0.000 A 
ENDBRANCH  30  31
ENDBRANCH  28  30
ENDBRANCH   5  28
TORSDOF 5
ENDMDL
MODEL 7
REMARK VINA RESULT:      -8.1      3.768      5.214
REMARK  Name = 
REMARK  5 active torsions:
REMARK  status: ('A' for Active; 'I' for Inactive)
REMARK    1  A    between atoms: C_6  and  C_10
REMARK    2  A    between atoms: C_14  and  O_18
REMARK    3  A    between atoms: N_17  and  N_20
REMARK    4  A    between atoms: N_20  and  C_23
REMARK    5  A    between atoms: C_23  and  C_26
REMARK                            x       y       z     vdW  Elec       q    Type
REMARK                         _______ _______ _______ _____ _____    ______ ____
ROOT
ATOM      1  C   UNL     1     -10.799  55.597  48.095  0.00  0.00    +0.000 A 
ATOM      2  C   UNL     1      -9.329  55.666  48.341  0.00  0.00    +0.000 A 
ATOM      3  C   UNL     1     -11.277  54.963  47.009  0.00  0.00    +0.000 A 
ATOM      4  O   UNL     1      -8.948  56.279  49.343  0.00  0.00    +0.000 OA
ATOM      5  N   UNL     1      -8.477  55.014  47.446  0.00  0.00    +0.000 N 
ATOM      6  C   UNL     1     -10.363  54.295  46.070  0.00  0.00    +0.000 A 
ATOM      7  C   UNL     1      -8.977  54.332  46.297  0.00  0.00    +0.000 A 
ATOM      8  C   UNL     1     -10.862  53.607  44.951  0.00  0.00    +0.000 A 
ATOM      9  C   UNL     1      -8.118  53.687  45.390  0.00  0.00    +0.000 A 
ATOM     10  C   UNL     1     -10.002  52.956  44.068  0.00  0.00    +0.000 A 
ATOM     11  C   UNL     1      -8.629  52.999  44.287  0.00  0.00    +0.000 A 
ENDROOT
BRANCH   1  17
ATOM     12  S   UNL     1     -13.068  55.970  51.280  0.00  0.00    +0.000 S 
ATOM     13  O   UNL     1     -12.299  56.232  52.479  0.00  0.00    +0.000 OA
ATOM     14  O   UNL     1     -14.191  55.052  51.314  0.00  0.00    +0.000 OA
ATOM     15  N   UNL     1     -12.039  55.453  50.141  0.00  0.00    +0.000 N 
ATOM     16  C   UNL     1     -13.726  57.517  50.774  0.00  0.00    +0.000 A 
ATOM     17  C   UNL     1     -11.735  56.203  49.122  0.00  0.00    +0.000 C 
ATOM     18  C   UNL     1     -13.214  58.093  49.623  0.00  0.00    +0.000 A 
ATOM     19  C   UNL     1     -14.743  58.122  51.516  0.00  0.00    +0.000 A 
ATOM     20  N   UNL     1     -12.192  57.485  48.899  0.00  0.00    +0.000 N 
ATOM     21  C   UNL     1     -13.689  59.354  49.248  0.00  0.00    +0.000 A 
ATOM     22  C   UNL     1     -15.233  59.361  51.110  0.00  0.00    +0.000 A 
ATOM     23  C   UNL     1     -14.698  59.982  49.982  0.00  0.00    +0.000 A 
ATOM     24  H   UNL     1     -11.638  54.558  50.220  0.00  0.00    +0.000 HD
ATOM     25  H   UNL     1     -11.766  58.005  48.180  0.00  0.00    +0.000 HD
ENDBRANCH   1  17
BRANCH   3  26
ATOM     26  O   UNL     1     -12.621  54.852  46.700  0.00  0.00    +0.000 OA
ATOM     27  H   UNL     1     -13.075  55.578  46.319  0.00  0.00    +0.000 HD
ENDBRANCH   3  26
BRANCH   5  28
ATOM     28  N   UNL     1      -7.051  55.107  47.603  0.00  0.00    +0.000 N 
ATOM     29  H   UNL     1      -6.550  55.935  47.427  0.00  0.00    +0.000 HD
BRANCH  28  30
ATOM     30  C   UNL     1      -6.400  53.867  48.050  0.00  0.00    +0.000 C 
BRANCH  30  31
ATOM     31  C   UNL     1      -6.036  53.951  49.503  0.00  0.00    +0.000 A 
ATOM     32  S   UNL     1      -7.150  53.426  50.700  0.00  0.00    +0.000 S 
ATOM     33  C   UNL     1      -4.851  54.377  50.068  0.00  0.00    +0.000 A 
ATOM     34  C   UNL     1      -6.045  53.755  51.961  0.00  0.00    +0.000 A 
ATOM     35  C   UNL     1      -4.856  54.263  51.488  0.00  0.00    +0.000 A 
ENDBRANCH  30  31
ENDBRANCH  28  30
ENDBRANCH   5  28
TORSDOF 5
ENDMDL
MODEL 8
REMARK VINA RESULT:      -8.0      4.505      7.361
REMARK  Name = 
REMARK  5 active torsions:
REMARK  status: ('A' for Active; 'I' for Inactive)
REMARK    1  A    between atoms: C_6  and  C_10
REMARK    2  A    between atoms: C_14  and  O_18
REMARK    3  A    between atoms: N_17  and  N_20
REMARK    4  A    between atoms: N_20  and  C_23
REMARK    5  A    between atoms: C_23  and  C_26
REMARK                            x       y       z     vdW  Elec       q    Type
REMARK                         _______ _______ _______ _____ _____    ______ ____
ROOT
ATOM      1  C   UNL     1     -11.269  54.712  48.351  0.00  0.00    +0.000 A 
ATOM      2  C   UNL     1     -11.091  54.212  49.746  0.00  0.00    +0.000 A 
ATOM      3  C   UNL     1     -12.126  55.715  48.094  0.00  0.00    +0.000 A 
ATOM      4  O   UNL     1     -10.306  53.273  49.918  0.00  0.00    +0.000 OA
ATOM      5  N   UNL     1     -11.795  54.847  50.771  0.00  0.00    +0.000 N 
ATOM      6  C   UNL     1     -12.870  56.363  49.184  0.00  0.00    +0.000 A 
ATOM      7  C   UNL     1     -12.699  55.920  50.507  0.00  0.00    +0.000 A 
ATOM      8  C   UNL     1     -13.743  57.432  48.921  0.00  0.00    +0.000 A 
ATOM      9  C   UNL     1     -13.416  56.550  51.538  0.00  0.00    +0.000 A 
ATOM     10  C   UNL     1     -14.436  58.061  49.955  0.00  0.00    +0.000 A 
ATOM     11  C   UNL     1     -14.274  57.618  51.262  0.00  0.00    +0.000 A 
ENDROOT
BRANCH   1  17
ATOM     12  S   UNL     1      -8.185  53.931  46.047  0.00  0.00    +0.000 S 
ATOM     13  O   UNL     1      -7.254  53.008  46.662  0.00  0.00    +0.000 OA
ATOM     14  O   UNL     1      -7.697  55.079  45.306  0.00  0.00    +0.000 OA
ATOM     15  N   UNL     1      -9.177  54.474  47.206  0.00  0.00    +0.000 N 
ATOM     16  C   UNL     1      -9.127  52.987  44.906  0.00  0.00    +0.000 A 
ATOM     17  C   UNL     1     -10.423  54.103  47.249  0.00  0.00    +0.000 C 
ATOM     18  C   UNL     1     -10.458  52.749  45.206  0.00  0.00    +0.000 A 
ATOM     19  C   UNL     1      -8.536  52.512  43.733  0.00  0.00    +0.000 A 
ATOM     20  N   UNL     1     -11.032  53.219  46.385  0.00  0.00    +0.000 N 
ATOM     21  C   UNL     1     -11.199  51.945  44.333  0.00  0.00    +0.000 A 
ATOM     22  C   UNL     1      -9.295  51.743  42.855  0.00  0.00    +0.000 A 
ATOM     23  C   UNL     1     -10.624  51.452  43.160  0.00  0.00    +0.000 A 
ATOM     24  H   UNL     1      -8.832  55.094  47.889  0.00  0.00    +0.000 HD
ATOM     25  H   UNL     1     -11.933  52.897  46.617  0.00  0.00    +0.000 HD
ENDBRANCH   1  17
BRANCH   3  26
ATOM     26  O   UNL     1     -12.357  56.239  46.834  0.00  0.00    +0.000 OA
ATOM     27  H   UNL     1     -12.823  55.737  46.196  0.00  0.00    +0.000 HD
ENDBRANCH   3  26
BRANCH   5  28
ATOM     28  N   UNL     1     -11.708  54.361  52.121  0.00  0.00    +0.000 N 
ATOM     29  H   UNL     1     -12.404  53.797  52.528  0.00  0.00    +0.000 HD
BRANCH  28  30
ATOM     30  C   UNL     1     -10.497  54.772  52.845  0.00  0.00    +0.000 C 
BRANCH  30  31
ATOM     31  C   UNL     1      -9.762  53.575  53.375  0.00  0.00    +0.000 A 
ATOM     32  S   UNL     1      -8.046  53.538  53.346  0.00  0.00    +0.000 S 
ATOM     33  C   UNL     1     -10.283  52.438  53.958  0.00  0.00    +0.000 A 
ATOM     34  C   UNL     1      -8.005  52.016  54.121  0.00  0.00    +0.000 A 
ATOM     35  C   UNL     1      -9.267  51.537  54.390  0.00  0.00    +0.000 A 
ENDBRANCH  30  31
ENDBRANCH  28  30
ENDBRANCH   5  28
TORSDOF 5
ENDMDL
MODEL 9
REMARK VINA RESULT:      -7.9      3.744      7.441
REMARK  Name = 
REMARK  5 active torsions:
REMARK  status: ('A' for Active; 'I' for Inactive)
REMARK    1  A    between atoms: C_6  and  C_10
REMARK    2  A    between atoms: C_14  and  O_18
REMARK    3  A    between atoms: N_17  and  N_20
REMARK    4  A    between atoms: N_20  and  C_23
REMARK    5  A    between atoms: C_23  and  C_26
REMARK                            x       y       z     vdW  Elec       q    Type
REMARK                         _______ _______ _______ _____ _____    ______ ____
ROOT
ATOM      1  C   UNL     1     -10.554  54.934  50.642  0.00  0.00    +0.000 A 
ATOM      2  C   UNL     1     -10.269  54.847  49.180  0.00  0.00    +0.000 A 
ATOM      3  C   UNL     1     -11.634  55.602  51.085  0.00  0.00    +0.000 A 
ATOM      4  O   UNL     1      -9.252  54.238  48.833  0.00  0.00    +0.000 OA
ATOM      5  N   UNL     1     -11.178  55.429  48.293  0.00  0.00    +0.000 N 
ATOM      6  C   UNL     1     -12.572  56.221  50.137  0.00  0.00    +0.000 A 
ATOM      7  C   UNL     1     -12.332  56.131  48.755  0.00  0.00    +0.000 A 
ATOM      8  C   UNL     1     -13.717  56.893  50.596  0.00  0.00    +0.000 A 
ATOM      9  C   UNL     1     -13.238  56.727  47.862  0.00  0.00    +0.000 A 
ATOM     10  C   UNL     1     -14.619  57.466  49.700  0.00  0.00    +0.000 A 
ATOM     11  C   UNL     1     -14.378  57.385  48.334  0.00  0.00    +0.000 A 
ENDROOT
BRANCH   1  17
ATOM     12  S   UNL     1      -9.187  52.212  53.123  0.00  0.00    +0.000 S 
ATOM     13  O   UNL     1      -8.652  51.055  52.435  0.00  0.00    +0.000 OA
ATOM     14  O   UNL     1      -9.992  52.047  54.319  0.00  0.00    +0.000 OA
ATOM     15  N   UNL     1     -10.057  53.061  52.052  0.00  0.00    +0.000 N 
ATOM     16  C   UNL     1      -7.802  53.178  53.604  0.00  0.00    +0.000 A 
ATOM     17  C   UNL     1      -9.635  54.206  51.604  0.00  0.00    +0.000 C 
ATOM     18  C   UNL     1      -7.596  54.383  52.952  0.00  0.00    +0.000 A 
ATOM     19  C   UNL     1      -6.957  52.732  54.623  0.00  0.00    +0.000 A 
ATOM     20  N   UNL     1      -8.439  54.810  51.931  0.00  0.00    +0.000 N 
ATOM     21  C   UNL     1      -6.460  55.128  53.287  0.00  0.00    +0.000 A 
ATOM     22  C   UNL     1      -5.850  53.502  54.971  0.00  0.00    +0.000 A 
ATOM     23  C   UNL     1      -5.596  54.695  54.296  0.00  0.00    +0.000 A 
ATOM     24  H   UNL     1     -10.918  52.704  51.736  0.00  0.00    +0.000 HD
ATOM     25  H   UNL     1      -8.162  55.595  51.405  0.00  0.00    +0.000 HD
ENDBRANCH   1  17
BRANCH   3  26
ATOM     26  O   UNL     1     -11.974  55.736  52.419  0.00  0.00    +0.000 OA
ATOM     27  H   UNL     1     -12.388  55.028  52.871  0.00  0.00    +0.000 HD
ENDBRANCH   3  26
BRANCH   5  28
ATOM     28  N   UNL     1     -10.915  55.428  46.880  0.00  0.00    +0.000 N 
ATOM     29  H   UNL     1     -10.353  56.109  46.445  0.00  0.00    +0.000 HD
BRANCH  28  30
ATOM     30  C   UNL     1     -11.550  54.331  46.136  0.00  0.00    +0.000 C 
BRANCH  30  31
ATOM     31  C   UNL     1     -10.578  53.706  45.179  0.00  0.00    +0.000 A 
ATOM     32  S   UNL     1      -8.892  53.972  45.369  0.00  0.00    +0.000 S 
ATOM     33  C   UNL     1     -10.841  52.862  44.119  0.00  0.00    +0.000 A 
ATOM     34  C   UNL     1      -8.520  52.951  44.050  0.00  0.00    +0.000 A 
ATOM     35  C   UNL     1      -9.651  52.425  43.467  0.00  0.00    +0.000 A 
ENDBRANCH  30  31
ENDBRANCH  28  30
ENDBRANCH   5  28
TORSDOF 5
ENDMDL
