MODEL 1
REMARK VINA RESULT:      -8.4      0.000      0.000
REMARK  Name = 
REMARK  5 active torsions:
REMARK  status: ('A' for Active; 'I' for Inactive)
REMARK    1  A    between atoms: C_6  and  C_10
REMARK    2  A    between atoms: C_14  and  O_18
REMARK    3  A    between atoms: N_17  and  N_20
REMARK    4  A    between atoms: N_20  and  C_23
REMARK    5  A    between atoms: C_23  and  C_26
REMARK                            x       y       z     vdW  Elec       q    Type
REMARK                         _______ _______ _______ _____ _____    ______ ____
ROOT
ATOM      1  C   UNL     1     -10.117  54.558  52.204  0.00  0.00    +0.000 A 
ATOM      2  C   UNL     1      -8.754  55.132  51.997  0.00  0.00    +0.000 A 
ATOM      3  C   UNL     1     -10.281  53.455  52.953  0.00  0.00    +0.000 A 
ATOM      4  O   UNL     1      -8.662  56.137  51.285  0.00  0.00    +0.000 OA
ATOM      5  N   UNL     1      -7.675  54.522  52.640  0.00  0.00    +0.000 N 
ATOM      6  C   UNL     1      -9.132  52.817  53.612  0.00  0.00    +0.000 A 
ATOM      7  C   UNL     1      -7.844  53.356  53.445  0.00  0.00    +0.000 A 
ATOM      8  C   UNL     1      -9.307  51.682  54.422  0.00  0.00    +0.000 A 
ATOM      9  C   UNL     1      -6.756  52.736  54.083  0.00  0.00    +0.000 A 
ATOM     10  C   UNL     1      -8.223  51.087  55.064  0.00  0.00    +0.000 A 
ATOM     11  C   UNL     1      -6.947  51.611  54.892  0.00  0.00    +0.000 A 
ENDROOT
BRANCH   1  17
ATOM     12  S   UNL     1     -12.594  56.041  49.536  0.00  0.00    +0.000 S 
ATOM     13  O   UNL     1     -13.489  55.038  48.999  0.00  0.00    +0.000 OA
ATOM     14  O   UNL     1     -11.994  57.035  48.665  0.00  0.00    +0.000 OA
ATOM     15  N   UNL     1     -11.394  55.265  50.303  0.00  0.00    +0.000 N 
ATOM     16  C   UNL     1     -13.522  56.939  50.726  0.00  0.00    +0.000 A 
ATOM     17  C   UNL     1     -11.306  55.280  51.600  0.00  0.00    +0.000 C 
ATOM     18  C   UNL     1     -13.201  56.767  52.062  0.00  0.00    +0.000 A 
ATOM     19  C   UNL     1     -14.537  57.802  50.311  0.00  0.00    +0.000 A 
ATOM     20  N   UNL     1     -12.193  55.892  52.461  0.00  0.00    +0.000 N 
ATOM     21  C   UNL     1     -13.978  57.431  53.017  0.00  0.00    +0.000 A 
ATOM     22  C   UNL     1     -15.279  58.486  51.271  0.00  0.00    +0.000 A 
ATOM     23  C   UNL     1     -15.004  58.293  52.625  0.00  0.00    +0.000 A 
ATOM     24  H   UNL     1     -10.721  54.775  49.777  0.00  0.00    +0.000 HD
ATOM     25  H   UNL     1     -12.108  55.698  53.421  0.00  0.00    +0.000 HD
ENDBRANCH   1  17
BRANCH   3  26
ATOM     26  O   UNL     1     -11.504  52.853  53.195  0.00  0.00    +0.000 OA
ATOM     27  H   UNL     1     -12.187  52.905  52.555  0.00  0.00    +0.000 HD
ENDBRANCH   3  26
BRANCH   5  28
ATOM     28  N   UNL     1      -6.334  54.995  52.420  0.00  0.00    +0.000 N 
ATOM     29  H   UNL     1      -5.815  55.460  53.115  0.00  0.00    +0.000 HD
BRANCH  28  30
ATOM     30  C   UNL     1      -5.798  54.731  51.077  0.00  0.00    +0.000 C 
BRANCH  30  31
ATOM     31  C   UNL     1      -4.998  53.462  51.065  0.00  0.00    +0.000 A 
ATOM     32  S   UNL     1      -5.562  52.099  50.185  0.00  0.00    +0.000 S 
ATOM     33  C   UNL     1      -3.777  53.210  51.657  0.00  0.00    +0.000 A 
ATOM     34  C   UNL     1      -4.175  51.186  50.587  0.00  0.00    +0.000 A 
ATOM     35  C   UNL     1      -3.301  51.896  51.380  0.00  0.00    +0.000 A 
ENDBRANCH  30  31
ENDBRANCH  28  30
ENDBRANCH   5  28
TORSDOF 5
ENDMDL
MODEL 2
REMARK VINA RESULT:      -8.4      3.295      4.908
REMARK  Name = 
REMARK  5 active torsions:
REMARK  status: ('A' for Active; 'I' for Inactive)
REMARK    1  A    between atoms: C_6  and  C_10
REMARK    2  A    between atoms: C_14  and  O_18
REMARK    3  A    between atoms: N_17  and  N_20
REMARK    4  A    between atoms: N_20  and  C_23
REMARK    5  A    between atoms: C_23  and  C_26
REMARK                            x       y       z     vdW  Elec       q    Type
REMARK                         _______ _______ _______ _____ _____    ______ ____
ROOT
ATOM      1  C   UNL     1     -11.480  56.040  48.818  0.00  0.00    +0.000 A 
ATOM      2  C   UNL     1     -10.411  55.456  49.681  0.00  0.00    +0.000 A 
ATOM      3  C   UNL     1     -11.587  55.674  47.529  0.00  0.00    +0.000 A 
ATOM      4  O   UNL     1     -10.351  55.843  50.853  0.00  0.00    +0.000 OA
ATOM      5  N   UNL     1      -9.567  54.491  49.127  0.00  0.00    +0.000 N 
ATOM      6  C   UNL     1     -10.681  54.666  46.958  0.00  0.00    +0.000 A 
ATOM      7  C   UNL     1      -9.681  54.090  47.762  0.00  0.00    +0.000 A 
ATOM      8  C   UNL     1     -10.812  54.258  45.620  0.00  0.00    +0.000 A 
ATOM      9  C   UNL     1      -8.825  53.127  47.202  0.00  0.00    +0.000 A 
ATOM     10  C   UNL     1      -9.968  53.289  45.081  0.00  0.00    +0.000 A 
ATOM     11  C   UNL     1      -8.973  52.726  45.871  0.00  0.00    +0.000 A 
ENDROOT
BRANCH   1  17
ATOM     12  S   UNL     1     -13.595  59.292  49.454  0.00  0.00    +0.000 S 
ATOM     13  O   UNL     1     -14.732  59.391  48.563  0.00  0.00    +0.000 OA
ATOM     14  O   UNL     1     -12.795  60.463  49.759  0.00  0.00    +0.000 OA
ATOM     15  N   UNL     1     -12.603  58.157  48.855  0.00  0.00    +0.000 N 
ATOM     16  C   UNL     1     -14.224  58.722  50.990  0.00  0.00    +0.000 A 
ATOM     17  C   UNL     1     -12.469  57.005  49.442  0.00  0.00    +0.000 C 
ATOM     18  C   UNL     1     -13.911  57.431  51.380  0.00  0.00    +0.000 A 
ATOM     19  C   UNL     1     -15.004  59.569  51.781  0.00  0.00    +0.000 A 
ATOM     20  N   UNL     1     -13.143  56.595  50.574  0.00  0.00    +0.000 N 
ATOM     21  C   UNL     1     -14.461  56.951  52.574  0.00  0.00    +0.000 A 
ATOM     22  C   UNL     1     -15.515  59.090  52.985  0.00  0.00    +0.000 A 
ATOM     23  C   UNL     1     -15.250  57.777  53.376  0.00  0.00    +0.000 A 
ATOM     24  H   UNL     1     -12.094  58.344  48.033  0.00  0.00    +0.000 HD
ATOM     25  H   UNL     1     -13.076  55.647  50.829  0.00  0.00    +0.000 HD
ENDBRANCH   1  17
BRANCH   3  26
ATOM     26  O   UNL     1     -12.542  56.165  46.656  0.00  0.00    +0.000 OA
ATOM     27  H   UNL     1     -13.136  56.832  46.939  0.00  0.00    +0.000 HD
ENDBRANCH   3  26
BRANCH   5  28
ATOM     28  N   UNL     1      -8.480  53.947  49.896  0.00  0.00    +0.000 N 
ATOM     29  H   UNL     1      -8.520  53.056  50.314  0.00  0.00    +0.000 HD
BRANCH  28  30
ATOM     30  C   UNL     1      -7.305  54.821  50.009  0.00  0.00    +0.000 C 
BRANCH  30  31
ATOM     31  C   UNL     1      -6.912  55.000  51.446  0.00  0.00    +0.000 A 
ATOM     32  S   UNL     1      -5.719  53.980  52.144  0.00  0.00    +0.000 S 
ATOM     33  C   UNL     1      -7.358  55.945  52.348  0.00  0.00    +0.000 A 
ATOM     34  C   UNL     1      -5.796  54.806  53.637  0.00  0.00    +0.000 A 
ATOM     35  C   UNL     1      -6.713  55.834  53.613  0.00  0.00    +0.000 A 
ENDBRANCH  30  31
ENDBRANCH  28  30
ENDBRANCH   5  28
TORSDOF 5
ENDMDL
MODEL 3
REMARK VINA RESULT:      -8.3      3.141      8.374
REMARK  Name = 
REMARK  5 active torsions:
REMARK  status: ('A' for Active; 'I' for Inactive)
REMARK    1  A    between atoms: C_6  and  C_10
REMARK    2  A    between atoms: C_14  and  O_18
REMARK    3  A    between atoms: N_17  and  N_20
REMARK    4  A    between atoms: N_20  and  C_23
REMARK    5  A    between atoms: C_23  and  C_26
REMARK                            x       y       z     vdW  Elec       q    Type
REMARK                         _______ _______ _______ _____ _____    ______ ____
ROOT
ATOM      1  C   UNL     1      -9.124  54.365  49.892  0.00  0.00    +0.000 A 
ATOM      2  C   UNL     1     -10.177  55.419  49.993  0.00  0.00    +0.000 A 
ATOM      3  C   UNL     1      -9.014  53.621  48.779  0.00  0.00    +0.000 A 
ATOM      4  O   UNL     1     -10.241  56.060  51.047  0.00  0.00    +0.000 OA
ATOM      5  N   UNL     1     -11.002  55.639  48.887  0.00  0.00    +0.000 N 
ATOM      6  C   UNL     1      -9.900  53.856  47.629  0.00  0.00    +0.000 A 
ATOM      7  C   UNL     1     -10.884  54.858  47.698  0.00  0.00    +0.000 A 
ATOM      8  C   UNL     1      -9.765  53.100  46.451  0.00  0.00    +0.000 A 
ATOM      9  C   UNL     1     -11.721  55.071  46.590  0.00  0.00    +0.000 A 
ATOM     10  C   UNL     1     -10.590  53.333  45.353  0.00  0.00    +0.000 A 
ATOM     11  C   UNL     1     -11.570  54.316  45.423  0.00  0.00    +0.000 A 
ENDROOT
BRANCH   1  17
ATOM     12  S   UNL     1      -7.728  54.087  53.556  0.00  0.00    +0.000 S 
ATOM     13  O   UNL     1      -7.954  52.779  54.133  0.00  0.00    +0.000 OA
ATOM     14  O   UNL     1      -7.921  55.286  54.351  0.00  0.00    +0.000 OA
ATOM     15  N   UNL     1      -8.667  54.210  52.239  0.00  0.00    +0.000 N 
ATOM     16  C   UNL     1      -6.050  54.113  53.043  0.00  0.00    +0.000 A 
ATOM     17  C   UNL     1      -8.154  54.199  51.045  0.00  0.00    +0.000 C 
ATOM     18  C   UNL     1      -5.787  54.105  51.684  0.00  0.00    +0.000 A 
ATOM     19  C   UNL     1      -5.030  54.154  53.996  0.00  0.00    +0.000 A 
ATOM     20  N   UNL     1      -6.815  54.051  50.745  0.00  0.00    +0.000 N 
ATOM     21  C   UNL     1      -4.451  54.062  51.270  0.00  0.00    +0.000 A 
ATOM     22  C   UNL     1      -3.704  54.149  53.569  0.00  0.00    +0.000 A 
ATOM     23  C   UNL     1      -3.415  54.093  52.206  0.00  0.00    +0.000 A 
ATOM     24  H   UNL     1      -9.642  54.294  52.346  0.00  0.00    +0.000 HD
ATOM     25  H   UNL     1      -6.570  53.897  49.805  0.00  0.00    +0.000 HD
ENDBRANCH   1  17
BRANCH   3  26
ATOM     26  O   UNL     1      -8.073  52.622  48.599  0.00  0.00    +0.000 OA
ATOM     27  H   UNL     1      -7.502  52.645  47.856  0.00  0.00    +0.000 HD
ENDBRANCH   3  26
BRANCH   5  28
ATOM     28  N   UNL     1     -12.074  56.594  48.957  0.00  0.00    +0.000 N 
ATOM     29  H   UNL     1     -11.998  57.505  48.590  0.00  0.00    +0.000 HD
BRANCH  28  30
ATOM     30  C   UNL     1     -13.293  56.109  49.619  0.00  0.00    +0.000 C 
BRANCH  30  31
ATOM     31  C   UNL     1     -13.653  56.987  50.780  0.00  0.00    +0.000 A 
ATOM     32  S   UNL     1     -14.246  58.576  50.504  0.00  0.00    +0.000 S 
ATOM     33  C   UNL     1     -13.620  56.689  52.127  0.00  0.00    +0.000 A 
ATOM     34  C   UNL     1     -14.465  58.853  52.175  0.00  0.00    +0.000 A 
ATOM     35  C   UNL     1     -14.089  57.765  52.933  0.00  0.00    +0.000 A 
ENDBRANCH  30  31
ENDBRANCH  28  30
ENDBRANCH   5  28
TORSDOF 5
ENDMDL
MODEL 4
REMARK VINA RESULT:      -8.3      2.154      2.466
REMARK  Name = 
REMARK  5 active torsions:
REMARK  status: ('A' for Active; 'I' for Inactive)
REMARK    1  A    between atoms: C_6  and  C_10
REMARK    2  A    between atoms: C_14  and  O_18
REMARK    3  A    between atoms: N_17  and  N_20
REMARK    4  A    between atoms: N_20  and  C_23
REMARK    5  A    between atoms: C_23  and  C_26
REMARK                            x       y       z     vdW  Elec       q    Type
REMARK                         _______ _______ _______ _____ _____    ______ ____
ROOT
ATOM      1  C   UNL     1     -11.185  54.635  50.877  0.00  0.00    +0.000 A 
ATOM      2  C   UNL     1      -9.783  55.024  50.542  0.00  0.00    +0.000 A 
ATOM      3  C   UNL     1     -11.460  53.393  51.308  0.00  0.00    +0.000 A 
ATOM      4  O   UNL     1      -9.594  56.174  50.135  0.00  0.00    +0.000 OA
ATOM      5  N   UNL     1      -8.771  54.081  50.736  0.00  0.00    +0.000 N 
ATOM      6  C   UNL     1     -10.384  52.408  51.494  0.00  0.00    +0.000 A 
ATOM      7  C   UNL     1      -9.054  52.763  51.203  0.00  0.00    +0.000 A 
ATOM      8  C   UNL     1     -10.665  51.118  51.976  0.00  0.00    +0.000 A 
ATOM      9  C   UNL     1      -8.037  51.811  51.387  0.00  0.00    +0.000 A 
ATOM     10  C   UNL     1      -9.645  50.189  52.171  0.00  0.00    +0.000 A 
ATOM     11  C   UNL     1      -8.332  50.534  51.874  0.00  0.00    +0.000 A 
ENDROOT
BRANCH   1  17
ATOM     12  S   UNL     1     -13.604  57.337  49.360  0.00  0.00    +0.000 S 
ATOM     13  O   UNL     1     -14.725  56.742  48.663  0.00  0.00    +0.000 OA
ATOM     14  O   UNL     1     -12.921  58.491  48.805  0.00  0.00    +0.000 OA
ATOM     15  N   UNL     1     -12.499  56.172  49.591  0.00  0.00    +0.000 N 
ATOM     16  C   UNL     1     -14.212  57.841  50.927  0.00  0.00    +0.000 A 
ATOM     17  C   UNL     1     -12.272  55.687  50.776  0.00  0.00    +0.000 C 
ATOM     18  C   UNL     1     -13.790  57.139  52.043  0.00  0.00    +0.000 A 
ATOM     19  C   UNL     1     -15.083  58.929  51.020  0.00  0.00    +0.000 A 
ATOM     20  N   UNL     1     -12.931  56.048  51.933  0.00  0.00    +0.000 N 
ATOM     21  C   UNL     1     -14.320  57.496  53.287  0.00  0.00    +0.000 A 
ATOM     22  C   UNL     1     -15.575  59.298  52.269  0.00  0.00    +0.000 A 
ATOM     23  C   UNL     1     -15.200  58.575  53.402  0.00  0.00    +0.000 A 
ATOM     24  H   UNL     1     -11.991  55.828  48.821  0.00  0.00    +0.000 HD
ATOM     25  H   UNL     1     -12.783  55.498  52.735  0.00  0.00    +0.000 HD
ENDBRANCH   1  17
BRANCH   3  26
ATOM     26  O   UNL     1     -12.727  52.944  51.637  0.00  0.00    +0.000 OA
ATOM     27  H   UNL     1     -13.393  52.899  50.980  0.00  0.00    +0.000 HD
ENDBRANCH   3  26
BRANCH   5  28
ATOM     28  N   UNL     1      -7.414  54.383  50.365  0.00  0.00    +0.000 N 
ATOM     29  H   UNL     1      -6.956  53.931  49.620  0.00  0.00    +0.000 HD
BRANCH  28  30
ATOM     30  C   UNL     1      -6.765  55.417  51.181  0.00  0.00    +0.000 C 
BRANCH  30  31
ATOM     31  C   UNL     1      -6.336  54.857  52.506  0.00  0.00    +0.000 A 
ATOM     32  S   UNL     1      -7.175  55.301  53.938  0.00  0.00    +0.000 S 
ATOM     33  C   UNL     1      -5.332  53.949  52.770  0.00  0.00    +0.000 A 
ATOM     34  C   UNL     1      -6.204  54.275  54.899  0.00  0.00    +0.000 A 
ATOM     35  C   UNL     1      -5.256  53.612  54.152  0.00  0.00    +0.000 A 
ENDBRANCH  30  31
ENDBRANCH  28  30
ENDBRANCH   5  28
TORSDOF 5
ENDMDL
MODEL 5
REMARK VINA RESULT:      -8.2      3.882      4.678
REMARK  Name = 
REMARK  5 active torsions:
REMARK  status: ('A' for Active; 'I' for Inactive)
REMARK    1  A    between atoms: C_6  and  C_10
REMARK    2  A    between atoms: C_14  and  O_18
REMARK    3  A    between atoms: N_17  and  N_20
REMARK    4  A    between atoms: N_20  and  C_23
REMARK    5  A    between atoms: C_23  and  C_26
REMARK                            x       y       z     vdW  Elec       q    Type
REMARK                         _______ _______ _______ _____ _____    ______ ____
ROOT
ATOM      1  C   UNL     1     -12.537  54.292  49.567  0.00  0.00    +0.000 A 
ATOM      2  C   UNL     1     -12.034  54.260  48.162  0.00  0.00    +0.000 A 
ATOM      3  C   UNL     1     -12.249  53.288  50.413  0.00  0.00    +0.000 A 
ATOM      4  O   UNL     1     -12.344  55.201  47.425  0.00  0.00    +0.000 OA
ATOM      5  N   UNL     1     -11.223  53.190  47.773  0.00  0.00    +0.000 N 
ATOM      6  C   UNL     1     -11.406  52.163  49.984  0.00  0.00    +0.000 A 
ATOM      7  C   UNL     1     -10.907  52.126  48.670  0.00  0.00    +0.000 A 
ATOM      8  C   UNL     1     -11.077  51.129  50.878  0.00  0.00    +0.000 A 
ATOM      9  C   UNL     1     -10.100  51.045  48.275  0.00  0.00    +0.000 A 
ATOM     10  C   UNL     1     -10.262  50.072  50.479  0.00  0.00    +0.000 A 
ATOM     11  C   UNL     1      -9.776  50.027  49.178  0.00  0.00    +0.000 A 
ENDROOT
BRANCH   1  17
ATOM     12  S   UNL     1     -15.364  56.477  51.205  0.00  0.00    +0.000 S 
ATOM     13  O   UNL     1     -15.223  56.570  52.644  0.00  0.00    +0.000 OA
ATOM     14  O   UNL     1     -16.672  56.293  50.604  0.00  0.00    +0.000 OA
ATOM     15  N   UNL     1     -14.411  55.266  50.698  0.00  0.00    +0.000 N 
ATOM     16  C   UNL     1     -14.739  57.982  50.554  0.00  0.00    +0.000 A 
ATOM     17  C   UNL     1     -13.323  55.503  50.027  0.00  0.00    +0.000 C 
ATOM     18  C   UNL     1     -13.541  57.941  49.861  0.00  0.00    +0.000 A 
ATOM     19  C   UNL     1     -15.453  59.169  50.732  0.00  0.00    +0.000 A 
ATOM     20  N   UNL     1     -12.833  56.751  49.703  0.00  0.00    +0.000 N 
ATOM     21  C   UNL     1     -13.007  59.147  49.393  0.00  0.00    +0.000 A 
ATOM     22  C   UNL     1     -14.929  60.357  50.229  0.00  0.00    +0.000 A 
ATOM     23  C   UNL     1     -13.701  60.347  49.568  0.00  0.00    +0.000 A 
ATOM     24  H   UNL     1     -14.661  54.336  50.903  0.00  0.00    +0.000 HD
ATOM     25  H   UNL     1     -11.923  56.805  49.334  0.00  0.00    +0.000 HD
ENDBRANCH   1  17
BRANCH   3  26
ATOM     26  O   UNL     1     -12.675  53.233  51.729  0.00  0.00    +0.000 OA
ATOM     27  H   UNL     1     -12.478  53.937  52.315  0.00  0.00    +0.000 HD
ENDBRANCH   3  26
BRANCH   5  28
ATOM     28  N   UNL     1     -10.770  53.078  46.413  0.00  0.00    +0.000 N 
ATOM     29  H   UNL     1     -11.026  52.327  45.829  0.00  0.00    +0.000 HD
BRANCH  28  30
ATOM     30  C   UNL     1      -9.895  54.168  45.960  0.00  0.00    +0.000 C 
BRANCH  30  31
ATOM     31  C   UNL     1      -8.596  54.153  46.710  0.00  0.00    +0.000 A 
ATOM     32  S   UNL     1      -7.425  52.942  46.378  0.00  0.00    +0.000 S 
ATOM     33  C   UNL     1      -8.144  55.043  47.663  0.00  0.00    +0.000 A 
ATOM     34  C   UNL     1      -6.320  53.613  47.494  0.00  0.00    +0.000 A 
ATOM     35  C   UNL     1      -6.830  54.732  48.115  0.00  0.00    +0.000 A 
ENDBRANCH  30  31
ENDBRANCH  28  30
ENDBRANCH   5  28
TORSDOF 5
ENDMDL
MODEL 6
REMARK VINA RESULT:      -8.1      4.133      5.548
REMARK  Name = 
REMARK  5 active torsions:
REMARK  status: ('A' for Active; 'I' for Inactive)
REMARK    1  A    between atoms: C_6  and  C_10
REMARK    2  A    between atoms: C_14  and  O_18
REMARK    3  A    between atoms: N_17  and  N_20
REMARK    4  A    between atoms: N_20  and  C_23
REMARK    5  A    between atoms: C_23  and  C_26
REMARK                            x       y       z     vdW  Elec       q    Type
REMARK                         _______ _______ _______ _____ _____    ______ ____
ROOT
ATOM      1  C   UNL     1     -10.335  54.880  47.758  0.00  0.00    +0.000 A 
ATOM      2  C   UNL     1      -8.844  54.971  47.761  0.00  0.00    +0.000 A 
ATOM      3  C   UNL     1     -10.980  54.351  46.705  0.00  0.00    +0.000 A 
ATOM      4  O   UNL     1      -8.308  55.482  48.749  0.00  0.00    +0.000 OA
ATOM      5  N   UNL     1      -8.147  54.449  46.669  0.00  0.00    +0.000 N 
ATOM      6  C   UNL     1     -10.230  53.819  45.556  0.00  0.00    +0.000 A 
ATOM      7  C   UNL     1      -8.826  53.878  45.551  0.00  0.00    +0.000 A 
ATOM      8  C   UNL     1     -10.902  53.236  44.468  0.00  0.00    +0.000 A 
ATOM      9  C   UNL     1      -8.125  53.363  44.448  0.00  0.00    +0.000 A 
ATOM     10  C   UNL     1     -10.195  52.713  43.388  0.00  0.00    +0.000 A 
ATOM     11  C   UNL     1      -8.806  52.779  43.375  0.00  0.00    +0.000 A 
ENDROOT
BRANCH   1  17
ATOM     12  S   UNL     1     -11.765  54.969  51.418  0.00  0.00    +0.000 S 
ATOM     13  O   UNL     1     -10.791  55.446  52.378  0.00  0.00    +0.000 OA
ATOM     14  O   UNL     1     -12.627  53.846  51.740  0.00  0.00    +0.000 OA
ATOM     15  N   UNL     1     -10.969  54.606  50.053  0.00  0.00    +0.000 N 
ATOM     16  C   UNL     1     -12.835  56.322  51.092  0.00  0.00    +0.000 A 
ATOM     17  C   UNL     1     -11.091  55.342  48.988  0.00  0.00    +0.000 C 
ATOM     18  C   UNL     1     -12.758  56.923  49.848  0.00  0.00    +0.000 A 
ATOM     19  C   UNL     1     -13.735  56.750  52.069  0.00  0.00    +0.000 A 
ATOM     20  N   UNL     1     -11.845  56.493  48.887  0.00  0.00    +0.000 N 
ATOM     21  C   UNL     1     -13.564  58.041  49.604  0.00  0.00    +0.000 A 
ATOM     22  C   UNL     1     -14.558  57.841  51.801  0.00  0.00    +0.000 A 
ATOM     23  C   UNL     1     -14.465  58.492  50.571  0.00  0.00    +0.000 A 
ATOM     24  H   UNL     1     -10.382  53.815  50.030  0.00  0.00    +0.000 HD
ATOM     25  H   UNL     1     -11.731  57.047  48.082  0.00  0.00    +0.000 HD
ENDBRANCH   1  17
BRANCH   3  26
ATOM     26  O   UNL     1     -12.355  54.231  46.613  0.00  0.00    +0.000 OA
ATOM     27  H   UNL     1     -12.759  54.094  45.779  0.00  0.00    +0.000 HD
ENDBRANCH   3  26
BRANCH   5  28
ATOM     28  N   UNL     1      -6.716  54.573  46.593  0.00  0.00    +0.000 N 
ATOM     29  H   UNL     1      -6.272  55.378  46.239  0.00  0.00    +0.000 HD
BRANCH  28  30
ATOM     30  C   UNL     1      -5.968  53.408  47.082  0.00  0.00    +0.000 C 
BRANCH  30  31
ATOM     31  C   UNL     1      -5.658  53.550  48.543  0.00  0.00    +0.000 A 
ATOM     32  S   UNL     1      -6.297  52.423  49.671  0.00  0.00    +0.000 S 
ATOM     33  C   UNL     1      -4.853  54.484  49.164  0.00  0.00    +0.000 A 
ATOM     34  C   UNL     1      -5.492  53.177  50.975  0.00  0.00    +0.000 A 
ATOM     35  C   UNL     1      -4.756  54.268  50.568  0.00  0.00    +0.000 A 
ENDBRANCH  30  31
ENDBRANCH  28  30
ENDBRANCH   5  28
TORSDOF 5
ENDMDL
MODEL 7
REMARK VINA RESULT:      -8.1      3.632      7.383
REMARK  Name = 
REMARK  5 active torsions:
REMARK  status: ('A' for Active; 'I' for Inactive)
REMARK    1  A    between atoms: C_6  and  C_10
REMARK    2  A    between atoms: C_14  and  O_18
REMARK    3  A    between atoms: N_17  and  N_20
REMARK    4  A    between atoms: N_20  and  C_23
REMARK    5  A    between atoms: C_23  and  C_26
REMARK                            x       y       z     vdW  Elec       q    Type
REMARK                         _______ _______ _______ _____ _____    ______ ____
ROOT
ATOM      1  C   UNL     1     -10.375  55.148  50.912  0.00  0.00    +0.000 A 
ATOM      2  C   UNL     1     -10.044  55.023  49.461  0.00  0.00    +0.000 A 
ATOM      3  C   UNL     1     -11.542  55.690  51.297  0.00  0.00    +0.000 A 
ATOM      4  O   UNL     1      -8.949  54.532  49.167  0.00  0.00    +0.000 OA
ATOM      5  N   UNL     1     -10.997  55.436  48.527  0.00  0.00    +0.000 N 
ATOM      6  C   UNL     1     -12.529  56.132  50.300  0.00  0.00    +0.000 A 
ATOM      7  C   UNL     1     -12.243  56.004  48.930  0.00  0.00    +0.000 A 
ATOM      8  C   UNL     1     -13.764  56.669  50.702  0.00  0.00    +0.000 A 
ATOM      9  C   UNL     1     -13.197  56.429  47.990  0.00  0.00    +0.000 A 
ATOM     10  C   UNL     1     -14.709  57.071  49.760  0.00  0.00    +0.000 A 
ATOM     11  C   UNL     1     -14.425  56.954  48.405  0.00  0.00    +0.000 A 
ENDROOT
BRANCH   1  17
ATOM     12  S   UNL     1      -7.077  54.654  52.993  0.00  0.00    +0.000 S 
ATOM     13  O   UNL     1      -6.937  55.641  54.044  0.00  0.00    +0.000 OA
ATOM     14  O   UNL     1      -5.931  54.261  52.195  0.00  0.00    +0.000 OA
ATOM     15  N   UNL     1      -8.230  55.179  51.981  0.00  0.00    +0.000 N 
ATOM     16  C   UNL     1      -7.649  53.188  53.771  0.00  0.00    +0.000 A 
ATOM     17  C   UNL     1      -9.393  54.599  51.928  0.00  0.00    +0.000 C 
ATOM     18  C   UNL     1      -8.953  52.791  53.526  0.00  0.00    +0.000 A 
ATOM     19  C   UNL     1      -6.793  52.457  54.597  0.00  0.00    +0.000 A 
ATOM     20  N   UNL     1      -9.799  53.539  52.710  0.00  0.00    +0.000 N 
ATOM     21  C   UNL     1      -9.434  51.659  54.192  0.00  0.00    +0.000 A 
ATOM     22  C   UNL     1      -7.273  51.310  55.225  0.00  0.00    +0.000 A 
ATOM     23  C   UNL     1      -8.597  50.917  55.029  0.00  0.00    +0.000 A 
ATOM     24  H   UNL     1      -8.046  55.950  51.396  0.00  0.00    +0.000 HD
ATOM     25  H   UNL     1     -10.752  53.293  52.690  0.00  0.00    +0.000 HD
ENDBRANCH   1  17
BRANCH   3  26
ATOM     26  O   UNL     1     -11.930  55.849  52.616  0.00  0.00    +0.000 OA
ATOM     27  H   UNL     1     -12.748  55.500  52.909  0.00  0.00    +0.000 HD
ENDBRANCH   3  26
BRANCH   5  28
ATOM     28  N   UNL     1     -10.701  55.400  47.120  0.00  0.00    +0.000 N 
ATOM     29  H   UNL     1     -10.087  56.039  46.691  0.00  0.00    +0.000 HD
BRANCH  28  30
ATOM     30  C   UNL     1     -11.384  54.336  46.372  0.00  0.00    +0.000 C 
BRANCH  30  31
ATOM     31  C   UNL     1     -10.481  53.764  45.319  0.00  0.00    +0.000 A 
ATOM     32  S   UNL     1      -8.782  53.986  45.430  0.00  0.00    +0.000 S 
ATOM     33  C   UNL     1     -10.818  53.000  44.220  0.00  0.00    +0.000 A 
ATOM     34  C   UNL     1      -8.504  53.058  44.023  0.00  0.00    +0.000 A 
ATOM     35  C   UNL     1      -9.677  52.592  43.472  0.00  0.00    +0.000 A 
ENDBRANCH  30  31
ENDBRANCH  28  30
ENDBRANCH   5  28
TORSDOF 5
ENDMDL
MODEL 8
REMARK VINA RESULT:      -8.0      4.510      7.382
REMARK  Name = 
REMARK  5 active torsions:
REMARK  status: ('A' for Active; 'I' for Inactive)
REMARK    1  A    between atoms: C_6  and  C_10
REMARK    2  A    between atoms: C_14  and  O_18
REMARK    3  A    between atoms: N_17  and  N_20
REMARK    4  A    between atoms: N_20  and  C_23
REMARK    5  A    between atoms: C_23  and  C_26
REMARK                            x       y       z     vdW  Elec       q    Type
REMARK                         _______ _______ _______ _____ _____    ______ ____
ROOT
ATOM      1  C   UNL     1     -11.292  54.713  48.343  0.00  0.00    +0.000 A 
ATOM      2  C   UNL     1     -11.118  54.211  49.738  0.00  0.00    +0.000 A 
ATOM      3  C   UNL     1     -12.148  55.716  48.085  0.00  0.00    +0.000 A 
ATOM      4  O   UNL     1     -10.330  53.276  49.912  0.00  0.00    +0.000 OA
ATOM      5  N   UNL     1     -11.828  54.842  50.762  0.00  0.00    +0.000 N 
ATOM      6  C   UNL     1     -12.898  56.361  49.173  0.00  0.00    +0.000 A 
ATOM      7  C   UNL     1     -12.732  55.914  50.496  0.00  0.00    +0.000 A 
ATOM      8  C   UNL     1     -13.770  57.431  48.909  0.00  0.00    +0.000 A 
ATOM      9  C   UNL     1     -13.455  56.542  51.525  0.00  0.00    +0.000 A 
ATOM     10  C   UNL     1     -14.467  58.057  49.940  0.00  0.00    +0.000 A 
ATOM     11  C   UNL     1     -14.313  57.611  51.247  0.00  0.00    +0.000 A 
ENDROOT
BRANCH   1  17
ATOM     12  S   UNL     1      -8.195  53.937  46.050  0.00  0.00    +0.000 S 
ATOM     13  O   UNL     1      -7.268  53.015  46.672  0.00  0.00    +0.000 OA
ATOM     14  O   UNL     1      -7.707  55.087  45.312  0.00  0.00    +0.000 OA
ATOM     15  N   UNL     1      -9.196  54.478  47.206  0.00  0.00    +0.000 N 
ATOM     16  C   UNL     1      -9.132  52.991  44.906  0.00  0.00    +0.000 A 
ATOM     17  C   UNL     1     -10.441  54.107  47.244  0.00  0.00    +0.000 C 
ATOM     18  C   UNL     1     -10.464  52.753  45.199  0.00  0.00    +0.000 A 
ATOM     19  C   UNL     1      -8.533  52.518  43.737  0.00  0.00    +0.000 A 
ATOM     20  N   UNL     1     -11.044  53.221  46.376  0.00  0.00    +0.000 N 
ATOM     21  C   UNL     1     -11.199  51.948  44.322  0.00  0.00    +0.000 A 
ATOM     22  C   UNL     1      -9.287  51.748  42.853  0.00  0.00    +0.000 A 
ATOM     23  C   UNL     1     -10.618  51.456  43.151  0.00  0.00    +0.000 A 
ATOM     24  H   UNL     1      -8.853  55.098  47.891  0.00  0.00    +0.000 HD
ATOM     25  H   UNL     1     -11.946  52.899  46.603  0.00  0.00    +0.000 HD
ENDBRANCH   1  17
BRANCH   3  26
ATOM     26  O   UNL     1     -12.376  56.242  46.825  0.00  0.00    +0.000 OA
ATOM     27  H   UNL     1     -11.662  56.590  46.327  0.00  0.00    +0.000 HD
ENDBRANCH   3  26
BRANCH   5  28
ATOM     28  N   UNL     1     -11.748  54.353  52.112  0.00  0.00    +0.000 N 
ATOM     29  H   UNL     1     -12.445  53.783  52.511  0.00  0.00    +0.000 HD
BRANCH  28  30
ATOM     30  C   UNL     1     -10.548  54.768  52.850  0.00  0.00    +0.000 C 
BRANCH  30  31
ATOM     31  C   UNL     1      -9.804  53.574  53.370  0.00  0.00    +0.000 A 
ATOM     32  S   UNL     1      -8.089  53.525  53.283  0.00  0.00    +0.000 S 
ATOM     33  C   UNL     1     -10.309  52.446  53.984  0.00  0.00    +0.000 A 
ATOM     34  C   UNL     1      -8.028  52.012  54.073  0.00  0.00    +0.000 A 
ATOM     35  C   UNL     1      -9.284  51.545  54.391  0.00  0.00    +0.000 A 
ENDBRANCH  30  31
ENDBRANCH  28  30
ENDBRANCH   5  28
TORSDOF 5
ENDMDL
MODEL 9
REMARK VINA RESULT:      -7.9      3.942      7.496
REMARK  Name = 
REMARK  5 active torsions:
REMARK  status: ('A' for Active; 'I' for Inactive)
REMARK    1  A    between atoms: C_6  and  C_10
REMARK    2  A    between atoms: C_14  and  O_18
REMARK    3  A    between atoms: N_17  and  N_20
REMARK    4  A    between atoms: N_20  and  C_23
REMARK    5  A    between atoms: C_23  and  C_26
REMARK                            x       y       z     vdW  Elec       q    Type
REMARK                         _______ _______ _______ _____ _____    ______ ____
ROOT
ATOM      1  C   UNL     1     -10.393  54.830  50.391  0.00  0.00    +0.000 A 
ATOM      2  C   UNL     1     -10.195  54.658  48.921  0.00  0.00    +0.000 A 
ATOM      3  C   UNL     1     -11.414  55.569  50.856  0.00  0.00    +0.000 A 
ATOM      4  O   UNL     1      -9.230  53.982  48.552  0.00  0.00    +0.000 OA
ATOM      5  N   UNL     1     -11.124  55.241  48.056  0.00  0.00    +0.000 N 
ATOM      6  C   UNL     1     -12.375  56.187  49.931  0.00  0.00    +0.000 A 
ATOM      7  C   UNL     1     -12.217  56.019  48.544  0.00  0.00    +0.000 A 
ATOM      8  C   UNL     1     -13.463  56.934  50.417  0.00  0.00    +0.000 A 
ATOM      9  C   UNL     1     -13.144  56.615  47.673  0.00  0.00    +0.000 A 
ATOM     10  C   UNL     1     -14.386  57.504  49.543  0.00  0.00    +0.000 A 
ATOM     11  C   UNL     1     -14.226  57.348  48.172  0.00  0.00    +0.000 A 
ENDROOT
BRANCH   1  17
ATOM     12  S   UNL     1      -8.726  51.950  52.483  0.00  0.00    +0.000 S 
ATOM     13  O   UNL     1      -7.843  51.128  51.682  0.00  0.00    +0.000 OA
ATOM     14  O   UNL     1      -9.613  51.343  53.459  0.00  0.00    +0.000 OA
ATOM     15  N   UNL     1      -9.635  52.827  51.466  0.00  0.00    +0.000 N 
ATOM     16  C   UNL     1      -7.692  53.045  53.385  0.00  0.00    +0.000 A 
ATOM     17  C   UNL     1      -9.454  54.108  51.338  0.00  0.00    +0.000 C 
ATOM     18  C   UNL     1      -7.705  54.384  53.035  0.00  0.00    +0.000 A 
ATOM     19  C   UNL     1      -6.900  52.557  54.426  0.00  0.00    +0.000 A 
ATOM     20  N   UNL     1      -8.492  54.854  51.985  0.00  0.00    +0.000 N 
ATOM     21  C   UNL     1      -6.837  55.251  53.709  0.00  0.00    +0.000 A 
ATOM     22  C   UNL     1      -6.067  53.437  55.114  0.00  0.00    +0.000 A 
ATOM     23  C   UNL     1      -6.030  54.783  54.748  0.00  0.00    +0.000 A 
ATOM     24  H   UNL     1     -10.336  52.381  50.937  0.00  0.00    +0.000 HD
ATOM     25  H   UNL     1      -8.351  55.780  51.686  0.00  0.00    +0.000 HD
ENDBRANCH   1  17
BRANCH   3  26
ATOM     26  O   UNL     1     -11.671  55.786  52.199  0.00  0.00    +0.000 OA
ATOM     27  H   UNL     1     -11.316  55.206  52.844  0.00  0.00    +0.000 HD
ENDBRANCH   3  26
BRANCH   5  28
ATOM     28  N   UNL     1     -10.941  55.162  46.632  0.00  0.00    +0.000 N 
ATOM     29  H   UNL     1     -10.493  55.870  46.115  0.00  0.00    +0.000 HD
BRANCH  28  30
ATOM     30  C   UNL     1     -11.475  53.944  46.006  0.00  0.00    +0.000 C 
BRANCH  30  31
ATOM     31  C   UNL     1     -10.554  53.454  44.927  0.00  0.00    +0.000 A 
ATOM     32  S   UNL     1      -8.865  53.746  45.041  0.00  0.00    +0.000 S 
ATOM     33  C   UNL     1     -10.864  52.722  43.800  0.00  0.00    +0.000 A 
ATOM     34  C   UNL     1      -8.556  52.888  43.597  0.00  0.00    +0.000 A 
ATOM     35  C   UNL     1      -9.711  52.394  43.032  0.00  0.00    +0.000 A 
ENDBRANCH  30  31
ENDBRANCH  28  30
ENDBRANCH   5  28
TORSDOF 5
ENDMDL
