MODEL 1
REMARK VINA RESULT:      -8.4      0.000      0.000
REMARK  Name = 
REMARK  6 active torsions:
REMARK  status: ('A' for Active; 'I' for Inactive)
REMARK    1  A    between atoms: C_6  and  C_10
REMARK    2  A    between atoms: C_14  and  O_18
REMARK    3  A    between atoms: N_17  and  N_20
REMARK    4  A    between atoms: N_20  and  C_23
REMARK    5  A    between atoms: C_23  and  C_26
REMARK    6  A    between atoms: C_29  and  C_32
REMARK                            x       y       z     vdW  Elec       q    Type
REMARK                         _______ _______ _______ _____ _____    ______ ____
ROOT
ATOM      1  C   UNL     1     -10.035  54.288  52.403  0.00  0.00    +0.000 A 
ATOM      2  C   UNL     1      -8.650  54.847  52.337  0.00  0.00    +0.000 A 
ATOM      3  C   UNL     1     -10.287  53.183  53.123  0.00  0.00    +0.000 A 
ATOM      4  O   UNL     1      -8.519  55.918  51.735  0.00  0.00    +0.000 OA
ATOM      5  N   UNL     1      -7.611  54.146  52.974  0.00  0.00    +0.000 N 
ATOM      6  C   UNL     1      -9.212  52.518  53.871  0.00  0.00    +0.000 A 
ATOM      7  C   UNL     1      -7.888  52.986  53.776  0.00  0.00    +0.000 A 
ATOM      8  C   UNL     1      -9.502  51.406  54.685  0.00  0.00    +0.000 A 
ATOM      9  C   UNL     1      -6.887  52.315  54.505  0.00  0.00    +0.000 A 
ATOM     10  C   UNL     1      -8.504  50.775  55.423  0.00  0.00    +0.000 A 
ATOM     11  C   UNL     1      -7.198  51.233  55.335  0.00  0.00    +0.000 A 
ENDROOT
BRANCH   1  17
ATOM     12  S   UNL     1     -12.254  55.783  49.515  0.00  0.00    +0.000 S 
ATOM     13  O   UNL     1     -13.140  54.794  48.935  0.00  0.00    +0.000 OA
ATOM     14  O   UNL     1     -11.564  56.738  48.669  0.00  0.00    +0.000 OA
ATOM     15  N   UNL     1     -11.139  54.996  50.388  0.00  0.00    +0.000 N 
ATOM     16  C   UNL     1     -13.243  56.738  50.608  0.00  0.00    +0.000 A 
ATOM     17  C   UNL     1     -11.157  55.030  51.688  0.00  0.00    +0.000 C 
ATOM     18  C   UNL     1     -13.033  56.585  51.968  0.00  0.00    +0.000 A 
ATOM     19  C   UNL     1     -14.193  57.627  50.098  0.00  0.00    +0.000 A 
ATOM     20  N   UNL     1     -12.093  55.685  52.460  0.00  0.00    +0.000 N 
ATOM     21  C   UNL     1     -13.856  57.298  52.847  0.00  0.00    +0.000 A 
ATOM     22  C   UNL     1     -14.981  58.356  50.985  0.00  0.00    +0.000 A 
ATOM     23  C   UNL     1     -14.819  58.185  52.358  0.00  0.00    +0.000 A 
ATOM     24  H   UNL     1     -10.438  54.482  49.926  0.00  0.00    +0.000 HD
ATOM     25  H   UNL     1     -12.096  55.502  53.428  0.00  0.00    +0.000 HD
ENDBRANCH   1  17
BRANCH   3  26
ATOM     26  O   UNL     1     -11.537  52.606  53.253  0.00  0.00    +0.000 OA
ATOM     27  H   UNL     1     -12.076  52.816  53.989  0.00  0.00    +0.000 HD
ENDBRANCH   3  26
BRANCH   5  28
ATOM     28  N   UNL     1      -6.217  54.498  52.739  0.00  0.00    +0.000 N 
ATOM     29  H   UNL     1      -5.794  55.265  53.188  0.00  0.00    +0.000 HD
BRANCH  28  30
ATOM     30  C   UNL     1      -5.472  53.647  51.796  0.00  0.00    +0.000 C 
BRANCH  30  31
ATOM     31  C   UNL     1      -6.043  53.755  50.404  0.00  0.00    +0.000 A 
ATOM     32  S   UNL     1      -5.680  55.129  49.445  0.00  0.00    +0.000 S 
ATOM     33  C   UNL     1      -6.933  52.897  49.770  0.00  0.00    +0.000 A 
ATOM     34  C   UNL     1      -6.726  54.618  48.200  0.00  0.00    +0.000 A 
ATOM     35  C   UNL     1      -7.318  53.412  48.489  0.00  0.00    +0.000 A 
ATOM     36  C   UNL     1      -7.466  51.617  50.331  0.00  0.00    +0.000 C 
ENDBRANCH  30  31
ENDBRANCH  28  30
ENDBRANCH   5  28
TORSDOF 5
ENDMDL
MODEL 2
REMARK VINA RESULT:      -8.4      2.843      5.263
REMARK  Name = 
REMARK  6 active torsions:
REMARK  status: ('A' for Active; 'I' for Inactive)
REMARK    1  A    between atoms: C_6  and  C_10
REMARK    2  A    between atoms: C_14  and  O_18
REMARK    3  A    between atoms: N_17  and  N_20
REMARK    4  A    between atoms: N_20  and  C_23
REMARK    5  A    between atoms: C_23  and  C_26
REMARK    6  A    between atoms: C_29  and  C_32
REMARK                            x       y       z     vdW  Elec       q    Type
REMARK                         _______ _______ _______ _____ _____    ______ ____
ROOT
ATOM      1  C   UNL     1     -11.760  55.675  48.697  0.00  0.00    +0.000 A 
ATOM      2  C   UNL     1     -10.824  54.883  49.553  0.00  0.00    +0.000 A 
ATOM      3  C   UNL     1     -11.856  55.421  47.383  0.00  0.00    +0.000 A 
ATOM      4  O   UNL     1     -10.866  55.110  50.766  0.00  0.00    +0.000 OA
ATOM      5  N   UNL     1      -9.993  53.930  48.937  0.00  0.00    +0.000 N 
ATOM      6  C   UNL     1     -11.058  54.351  46.768  0.00  0.00    +0.000 A 
ATOM      7  C   UNL     1     -10.125  53.633  47.538  0.00  0.00    +0.000 A 
ATOM      8  C   UNL     1     -11.224  54.041  45.404  0.00  0.00    +0.000 A 
ATOM      9  C   UNL     1      -9.377  52.619  46.908  0.00  0.00    +0.000 A 
ATOM     10  C   UNL     1     -10.498  53.015  44.807  0.00  0.00    +0.000 A 
ATOM     11  C   UNL     1      -9.577  52.302  45.560  0.00  0.00    +0.000 A 
ENDROOT
BRANCH   1  17
ATOM     12  S   UNL     1     -13.507  59.122  49.445  0.00  0.00    +0.000 S 
ATOM     13  O   UNL     1     -14.638  59.365  48.572  0.00  0.00    +0.000 OA
ATOM     14  O   UNL     1     -12.588  60.196  49.773  0.00  0.00    +0.000 OA
ATOM     15  N   UNL     1     -12.645  57.908  48.809  0.00  0.00    +0.000 N 
ATOM     16  C   UNL     1     -14.181  58.584  50.975  0.00  0.00    +0.000 A 
ATOM     17  C   UNL     1     -12.639  56.728  49.358  0.00  0.00    +0.000 C 
ATOM     18  C   UNL     1     -14.008  57.256  51.323  0.00  0.00    +0.000 A 
ATOM     19  C   UNL     1     -14.854  59.489  51.801  0.00  0.00    +0.000 A 
ATOM     20  N   UNL     1     -13.349  56.364  50.482  0.00  0.00    +0.000 N 
ATOM     21  C   UNL     1     -14.592  56.804  52.512  0.00  0.00    +0.000 A 
ATOM     22  C   UNL     1     -15.400  59.033  52.999  0.00  0.00    +0.000 A 
ATOM     23  C   UNL     1     -15.277  57.689  53.349  0.00  0.00    +0.000 A 
ATOM     24  H   UNL     1     -12.118  58.064  47.992  0.00  0.00    +0.000 HD
ATOM     25  H   UNL     1     -13.393  55.406  50.705  0.00  0.00    +0.000 HD
ENDBRANCH   1  17
BRANCH   3  26
ATOM     26  O   UNL     1     -12.703  56.091  46.519  0.00  0.00    +0.000 OA
ATOM     27  H   UNL     1     -12.867  57.006  46.639  0.00  0.00    +0.000 HD
ENDBRANCH   3  26
BRANCH   5  28
ATOM     28  N   UNL     1      -8.896  53.311  49.669  0.00  0.00    +0.000 N 
ATOM     29  H   UNL     1      -8.993  52.431  50.100  0.00  0.00    +0.000 HD
BRANCH  28  30
ATOM     30  C   UNL     1      -7.634  54.068  49.728  0.00  0.00    +0.000 C 
BRANCH  30  31
ATOM     31  C   UNL     1      -7.367  54.564  51.128  0.00  0.00    +0.000 A 
ATOM     32  S   UNL     1      -7.000  53.438  52.368  0.00  0.00    +0.000 S 
ATOM     33  C   UNL     1      -7.452  55.863  51.610  0.00  0.00    +0.000 A 
ATOM     34  C   UNL     1      -6.989  54.657  53.560  0.00  0.00    +0.000 A 
ATOM     35  C   UNL     1      -7.227  55.901  53.026  0.00  0.00    +0.000 A 
ATOM     36  C   UNL     1      -7.767  57.080  50.800  0.00  0.00    +0.000 C 
ENDBRANCH  30  31
ENDBRANCH  28  30
ENDBRANCH   5  28
TORSDOF 5
ENDMDL
MODEL 3
REMARK VINA RESULT:      -8.3      2.099      2.873
REMARK  Name = 
REMARK  6 active torsions:
REMARK  status: ('A' for Active; 'I' for Inactive)
REMARK    1  A    between atoms: C_6  and  C_10
REMARK    2  A    between atoms: C_14  and  O_18
REMARK    3  A    between atoms: N_17  and  N_20
REMARK    4  A    between atoms: N_20  and  C_23
REMARK    5  A    between atoms: C_23  and  C_26
REMARK    6  A    between atoms: C_29  and  C_32
REMARK                            x       y       z     vdW  Elec       q    Type
REMARK                         _______ _______ _______ _____ _____    ______ ____
ROOT
ATOM      1  C   UNL     1     -11.133  54.613  50.945  0.00  0.00    +0.000 A 
ATOM      2  C   UNL     1      -9.721  55.019  50.664  0.00  0.00    +0.000 A 
ATOM      3  C   UNL     1     -11.410  53.363  51.347  0.00  0.00    +0.000 A 
ATOM      4  O   UNL     1      -9.537  56.210  50.393  0.00  0.00    +0.000 OA
ATOM      5  N   UNL     1      -8.711  54.045  50.750  0.00  0.00    +0.000 N 
ATOM      6  C   UNL     1     -10.334  52.381  51.535  0.00  0.00    +0.000 A 
ATOM      7  C   UNL     1      -9.005  52.718  51.218  0.00  0.00    +0.000 A 
ATOM      8  C   UNL     1     -10.629  51.097  52.033  0.00  0.00    +0.000 A 
ATOM      9  C   UNL     1      -8.005  51.746  51.408  0.00  0.00    +0.000 A 
ATOM     10  C   UNL     1      -9.622  50.159  52.243  0.00  0.00    +0.000 A 
ATOM     11  C   UNL     1      -8.310  50.485  51.934  0.00  0.00    +0.000 A 
ENDROOT
BRANCH   1  17
ATOM     12  S   UNL     1     -13.570  57.279  49.381  0.00  0.00    +0.000 S 
ATOM     13  O   UNL     1     -14.693  56.665  48.702  0.00  0.00    +0.000 OA
ATOM     14  O   UNL     1     -12.901  58.429  48.802  0.00  0.00    +0.000 OA
ATOM     15  N   UNL     1     -12.456  56.130  49.631  0.00  0.00    +0.000 N 
ATOM     16  C   UNL     1     -14.178  57.812  50.940  0.00  0.00    +0.000 A 
ATOM     17  C   UNL     1     -12.232  55.660  50.823  0.00  0.00    +0.000 C 
ATOM     18  C   UNL     1     -13.753  57.129  52.066  0.00  0.00    +0.000 A 
ATOM     19  C   UNL     1     -15.051  58.901  51.016  0.00  0.00    +0.000 A 
ATOM     20  N   UNL     1     -12.895  56.037  51.971  0.00  0.00    +0.000 N 
ATOM     21  C   UNL     1     -14.278  57.509  53.306  0.00  0.00    +0.000 A 
ATOM     22  C   UNL     1     -15.538  59.291  52.262  0.00  0.00    +0.000 A 
ATOM     23  C   UNL     1     -15.159  58.589  53.405  0.00  0.00    +0.000 A 
ATOM     24  H   UNL     1     -11.941  55.781  48.868  0.00  0.00    +0.000 HD
ATOM     25  H   UNL     1     -12.752  55.495  52.781  0.00  0.00    +0.000 HD
ENDBRANCH   1  17
BRANCH   3  26
ATOM     26  O   UNL     1     -12.681  52.904  51.644  0.00  0.00    +0.000 OA
ATOM     27  H   UNL     1     -12.797  52.053  52.019  0.00  0.00    +0.000 HD
ENDBRANCH   3  26
BRANCH   5  28
ATOM     28  N   UNL     1      -7.369  54.312  50.251  0.00  0.00    +0.000 N 
ATOM     29  H   UNL     1      -7.021  53.875  49.441  0.00  0.00    +0.000 HD
BRANCH  28  30
ATOM     30  C   UNL     1      -6.559  55.273  51.021  0.00  0.00    +0.000 C 
BRANCH  30  31
ATOM     31  C   UNL     1      -6.013  54.636  52.275  0.00  0.00    +0.000 A 
ATOM     32  S   UNL     1      -4.594  53.678  52.187  0.00  0.00    +0.000 S 
ATOM     33  C   UNL     1      -6.559  54.646  53.552  0.00  0.00    +0.000 A 
ATOM     34  C   UNL     1      -4.712  53.237  53.830  0.00  0.00    +0.000 A 
ATOM     35  C   UNL     1      -5.789  53.830  54.445  0.00  0.00    +0.000 A 
ATOM     36  C   UNL     1      -7.799  55.371  53.969  0.00  0.00    +0.000 C 
ENDBRANCH  30  31
ENDBRANCH  28  30
ENDBRANCH   5  28
TORSDOF 5
ENDMDL
MODEL 4
REMARK VINA RESULT:      -8.3      1.919      2.600
REMARK  Name = 
REMARK  6 active torsions:
REMARK  status: ('A' for Active; 'I' for Inactive)
REMARK    1  A    between atoms: C_6  and  C_10
REMARK    2  A    between atoms: C_14  and  O_18
REMARK    3  A    between atoms: N_17  and  N_20
REMARK    4  A    between atoms: N_20  and  C_23
REMARK    5  A    between atoms: C_23  and  C_26
REMARK    6  A    between atoms: C_29  and  C_32
REMARK                            x       y       z     vdW  Elec       q    Type
REMARK                         _______ _______ _______ _____ _____    ______ ____
ROOT
ATOM      1  C   UNL     1     -11.373  54.027  51.612  0.00  0.00    +0.000 A 
ATOM      2  C   UNL     1     -10.428  54.212  52.757  0.00  0.00    +0.000 A 
ATOM      3  C   UNL     1     -11.480  52.833  51.010  0.00  0.00    +0.000 A 
ATOM      4  O   UNL     1     -10.458  55.312  53.320  0.00  0.00    +0.000 OA
ATOM      5  N   UNL     1      -9.603  53.137  53.128  0.00  0.00    +0.000 N 
ATOM      6  C   UNL     1     -10.688  51.686  51.475  0.00  0.00    +0.000 A 
ATOM      7  C   UNL     1      -9.747  51.849  52.508  0.00  0.00    +0.000 A 
ATOM      8  C   UNL     1     -10.867  50.420  50.886  0.00  0.00    +0.000 A 
ATOM      9  C   UNL     1      -9.004  50.725  52.919  0.00  0.00    +0.000 A 
ATOM     10  C   UNL     1     -10.146  49.314  51.327  0.00  0.00    +0.000 A 
ATOM     11  C   UNL     1      -9.217  49.467  52.346  0.00  0.00    +0.000 A 
ENDROOT
BRANCH   1  17
ATOM     12  S   UNL     1     -12.991  56.847  49.393  0.00  0.00    +0.000 S 
ATOM     13  O   UNL     1     -14.033  56.333  48.526  0.00  0.00    +0.000 OA
ATOM     14  O   UNL     1     -12.047  57.833  48.902  0.00  0.00    +0.000 OA
ATOM     15  N   UNL     1     -12.145  55.583  49.950  0.00  0.00    +0.000 N 
ATOM     16  C   UNL     1     -13.815  57.604  50.746  0.00  0.00    +0.000 A 
ATOM     17  C   UNL     1     -12.246  55.201  51.190  0.00  0.00    +0.000 C 
ATOM     18  C   UNL     1     -13.742  56.978  51.978  0.00  0.00    +0.000 A 
ATOM     19  C   UNL     1     -14.505  58.806  50.563  0.00  0.00    +0.000 A 
ATOM     20  N   UNL     1     -13.064  55.773  52.141  0.00  0.00    +0.000 N 
ATOM     21  C   UNL     1     -14.444  57.542  53.049  0.00  0.00    +0.000 A 
ATOM     22  C   UNL     1     -15.170  59.376  51.646  0.00  0.00    +0.000 A 
ATOM     23  C   UNL     1     -15.147  58.739  52.886  0.00  0.00    +0.000 A 
ATOM     24  H   UNL     1     -11.546  55.095  49.341  0.00  0.00    +0.000 HD
ATOM     25  H   UNL     1     -13.176  55.295  52.994  0.00  0.00    +0.000 HD
ENDBRANCH   1  17
BRANCH   3  26
ATOM     26  O   UNL     1     -12.336  52.566  49.956  0.00  0.00    +0.000 OA
ATOM     27  H   UNL     1     -12.909  53.236  49.637  0.00  0.00    +0.000 HD
ENDBRANCH   3  26
BRANCH   5  28
ATOM     28  N   UNL     1      -8.498  53.328  54.059  0.00  0.00    +0.000 N 
ATOM     29  H   UNL     1      -8.348  52.718  54.817  0.00  0.00    +0.000 HD
BRANCH  28  30
ATOM     30  C   UNL     1      -7.616  54.481  53.807  0.00  0.00    +0.000 C 
BRANCH  30  31
ATOM     31  C   UNL     1      -6.850  54.304  52.519  0.00  0.00    +0.000 A 
ATOM     32  S   UNL     1      -5.746  53.002  52.364  0.00  0.00    +0.000 S 
ATOM     33  C   UNL     1      -6.847  55.128  51.401  0.00  0.00    +0.000 A 
ATOM     34  C   UNL     1      -5.226  53.539  50.833  0.00  0.00    +0.000 A 
ATOM     35  C   UNL     1      -5.899  54.668  50.429  0.00  0.00    +0.000 A 
ATOM     36  C   UNL     1      -7.680  56.356  51.215  0.00  0.00    +0.000 C 
ENDBRANCH  30  31
ENDBRANCH  28  30
ENDBRANCH   5  28
TORSDOF 5
ENDMDL
MODEL 5
REMARK VINA RESULT:      -8.2      2.543      7.945
REMARK  Name = 
REMARK  6 active torsions:
REMARK  status: ('A' for Active; 'I' for Inactive)
REMARK    1  A    between atoms: C_6  and  C_10
REMARK    2  A    between atoms: C_14  and  O_18
REMARK    3  A    between atoms: N_17  and  N_20
REMARK    4  A    between atoms: N_20  and  C_23
REMARK    5  A    between atoms: C_23  and  C_26
REMARK    6  A    between atoms: C_29  and  C_32
REMARK                            x       y       z     vdW  Elec       q    Type
REMARK                         _______ _______ _______ _____ _____    ______ ____
ROOT
ATOM      1  C   UNL     1      -9.617  54.220  50.180  0.00  0.00    +0.000 A 
ATOM      2  C   UNL     1     -10.861  55.037  50.328  0.00  0.00    +0.000 A 
ATOM      3  C   UNL     1      -9.268  53.729  48.980  0.00  0.00    +0.000 A 
ATOM      4  O   UNL     1     -11.060  55.533  51.442  0.00  0.00    +0.000 OA
ATOM      5  N   UNL     1     -11.692  55.205  49.207  0.00  0.00    +0.000 N 
ATOM      6  C   UNL     1     -10.091  54.000  47.794  0.00  0.00    +0.000 A 
ATOM      7  C   UNL     1     -11.298  54.712  47.917  0.00  0.00    +0.000 A 
ATOM      8  C   UNL     1      -9.674  53.546  46.527  0.00  0.00    +0.000 A 
ATOM      9  C   UNL     1     -12.058  54.945  46.755  0.00  0.00    +0.000 A 
ATOM     10  C   UNL     1     -10.424  53.813  45.386  0.00  0.00    +0.000 A 
ATOM     11  C   UNL     1     -11.614  54.516  45.499  0.00  0.00    +0.000 A 
ENDROOT
BRANCH   1  17
ATOM     12  S   UNL     1      -6.643  54.623  52.728  0.00  0.00    +0.000 S 
ATOM     13  O   UNL     1      -6.823  55.762  53.605  0.00  0.00    +0.000 OA
ATOM     14  O   UNL     1      -5.338  54.324  52.170  0.00  0.00    +0.000 OA
ATOM     15  N   UNL     1      -7.685  54.779  51.497  0.00  0.00    +0.000 N 
ATOM     16  C   UNL     1      -7.099  53.210  53.666  0.00  0.00    +0.000 A 
ATOM     17  C   UNL     1      -8.730  54.011  51.400  0.00  0.00    +0.000 C 
ATOM     18  C   UNL     1      -8.275  52.563  53.327  0.00  0.00    +0.000 A 
ATOM     19  C   UNL     1      -6.278  52.765  54.706  0.00  0.00    +0.000 A 
ATOM     20  N   UNL     1      -9.088  53.028  52.298  0.00  0.00    +0.000 N 
ATOM     21  C   UNL     1      -8.676  51.472  54.106  0.00  0.00    +0.000 A 
ATOM     22  C   UNL     1      -6.673  51.656  55.451  0.00  0.00    +0.000 A 
ATOM     23  C   UNL     1      -7.875  51.016  55.157  0.00  0.00    +0.000 A 
ATOM     24  H   UNL     1      -7.526  55.468  50.812  0.00  0.00    +0.000 HD
ATOM     25  H   UNL     1      -9.983  52.627  52.205  0.00  0.00    +0.000 HD
ENDBRANCH   1  17
BRANCH   3  26
ATOM     26  O   UNL     1      -8.130  52.978  48.747  0.00  0.00    +0.000 OA
ATOM     27  H   UNL     1      -8.190  52.045  48.679  0.00  0.00    +0.000 HD
ENDBRANCH   3  26
BRANCH   5  28
ATOM     28  N   UNL     1     -13.028  55.771  49.345  0.00  0.00    +0.000 N 
ATOM     29  H   UNL     1     -13.818  55.203  49.488  0.00  0.00    +0.000 HD
BRANCH  28  30
ATOM     30  C   UNL     1     -13.134  57.238  49.259  0.00  0.00    +0.000 C 
BRANCH  30  31
ATOM     31  C   UNL     1     -13.835  57.801  50.470  0.00  0.00    +0.000 A 
ATOM     32  S   UNL     1     -14.382  56.740  51.700  0.00  0.00    +0.000 S 
ATOM     33  C   UNL     1     -14.194  59.119  50.719  0.00  0.00    +0.000 A 
ATOM     34  C   UNL     1     -15.132  58.010  52.553  0.00  0.00    +0.000 A 
ATOM     35  C   UNL     1     -14.946  59.224  51.936  0.00  0.00    +0.000 A 
ATOM     36  C   UNL     1     -13.887  60.292  49.844  0.00  0.00    +0.000 C 
ENDBRANCH  30  31
ENDBRANCH  28  30
ENDBRANCH   5  28
TORSDOF 5
ENDMDL
MODEL 6
REMARK VINA RESULT:      -8.2      2.759      8.046
REMARK  Name = 
REMARK  6 active torsions:
REMARK  status: ('A' for Active; 'I' for Inactive)
REMARK    1  A    between atoms: C_6  and  C_10
REMARK    2  A    between atoms: C_14  and  O_18
REMARK    3  A    between atoms: N_17  and  N_20
REMARK    4  A    between atoms: N_20  and  C_23
REMARK    5  A    between atoms: C_23  and  C_26
REMARK    6  A    between atoms: C_29  and  C_32
REMARK                            x       y       z     vdW  Elec       q    Type
REMARK                         _______ _______ _______ _____ _____    ______ ____
ROOT
ATOM      1  C   UNL     1      -9.085  54.328  49.810  0.00  0.00    +0.000 A 
ATOM      2  C   UNL     1     -10.021  55.495  49.802  0.00  0.00    +0.000 A 
ATOM      3  C   UNL     1      -9.056  53.477  48.772  0.00  0.00    +0.000 A 
ATOM      4  O   UNL     1      -9.918  56.285  50.747  0.00  0.00    +0.000 OA
ATOM      5  N   UNL     1     -10.920  55.629  48.731  0.00  0.00    +0.000 N 
ATOM      6  C   UNL     1      -9.928  53.686  47.609  0.00  0.00    +0.000 A 
ATOM      7  C   UNL     1     -10.861  54.739  47.604  0.00  0.00    +0.000 A 
ATOM      8  C   UNL     1      -9.833  52.832  46.493  0.00  0.00    +0.000 A 
ATOM      9  C   UNL     1     -11.682  54.901  46.471  0.00  0.00    +0.000 A 
ATOM     10  C   UNL     1     -10.631  53.027  45.369  0.00  0.00    +0.000 A 
ATOM     11  C   UNL     1     -11.552  54.063  45.357  0.00  0.00    +0.000 A 
ENDROOT
BRANCH   1  17
ATOM     12  S   UNL     1      -7.737  54.107  53.502  0.00  0.00    +0.000 S 
ATOM     13  O   UNL     1      -7.993  52.814  54.103  0.00  0.00    +0.000 OA
ATOM     14  O   UNL     1      -7.913  55.323  54.273  0.00  0.00    +0.000 OA
ATOM     15  N   UNL     1      -8.656  54.224  52.173  0.00  0.00    +0.000 N 
ATOM     16  C   UNL     1      -6.051  54.090  53.011  0.00  0.00    +0.000 A 
ATOM     17  C   UNL     1      -8.130  54.165  50.985  0.00  0.00    +0.000 C 
ATOM     18  C   UNL     1      -5.774  54.042  51.656  0.00  0.00    +0.000 A 
ATOM     19  C   UNL     1      -5.040  54.138  53.976  0.00  0.00    +0.000 A 
ATOM     20  N   UNL     1      -6.792  53.979  50.709  0.00  0.00    +0.000 N 
ATOM     21  C   UNL     1      -4.435  53.969  51.258  0.00  0.00    +0.000 A 
ATOM     22  C   UNL     1      -3.710  54.100  53.563  0.00  0.00    +0.000 A 
ATOM     23  C   UNL     1      -3.408  54.006  52.206  0.00  0.00    +0.000 A 
ATOM     24  H   UNL     1      -9.629  54.340  52.266  0.00  0.00    +0.000 HD
ATOM     25  H   UNL     1      -6.540  53.788  49.777  0.00  0.00    +0.000 HD
ENDBRANCH   1  17
BRANCH   3  26
ATOM     26  O   UNL     1      -8.214  52.382  48.686  0.00  0.00    +0.000 OA
ATOM     27  H   UNL     1      -7.471  52.407  48.116  0.00  0.00    +0.000 HD
ENDBRANCH   3  26
BRANCH   5  28
ATOM     28  N   UNL     1     -12.014  56.589  48.788  0.00  0.00    +0.000 N 
ATOM     29  H   UNL     1     -12.021  57.400  48.229  0.00  0.00    +0.000 HD
BRANCH  28  30
ATOM     30  C   UNL     1     -13.110  56.284  49.724  0.00  0.00    +0.000 C 
BRANCH  30  31
ATOM     31  C   UNL     1     -13.848  57.539  50.119  0.00  0.00    +0.000 A 
ATOM     32  S   UNL     1     -13.746  58.930  49.122  0.00  0.00    +0.000 S 
ATOM     33  C   UNL     1     -14.580  57.778  51.275  0.00  0.00    +0.000 A 
ATOM     34  C   UNL     1     -14.636  59.870  50.230  0.00  0.00    +0.000 A 
ATOM     35  C   UNL     1     -15.033  59.137  51.324  0.00  0.00    +0.000 A 
ATOM     36  C   UNL     1     -14.850  56.787  52.362  0.00  0.00    +0.000 C 
ENDBRANCH  30  31
ENDBRANCH  28  30
ENDBRANCH   5  28
TORSDOF 5
ENDMDL
MODEL 7
REMARK VINA RESULT:      -8.1      3.318      5.190
REMARK  Name = 
REMARK  6 active torsions:
REMARK  status: ('A' for Active; 'I' for Inactive)
REMARK    1  A    between atoms: C_6  and  C_10
REMARK    2  A    between atoms: C_14  and  O_18
REMARK    3  A    between atoms: N_17  and  N_20
REMARK    4  A    between atoms: N_20  and  C_23
REMARK    5  A    between atoms: C_23  and  C_26
REMARK    6  A    between atoms: C_29  and  C_32
REMARK                            x       y       z     vdW  Elec       q    Type
REMARK                         _______ _______ _______ _____ _____    ______ ____
ROOT
ATOM      1  C   UNL     1     -10.651  55.719  48.359  0.00  0.00    +0.000 A 
ATOM      2  C   UNL     1      -9.214  55.705  48.772  0.00  0.00    +0.000 A 
ATOM      3  C   UNL     1     -11.030  55.143  47.207  0.00  0.00    +0.000 A 
ATOM      4  O   UNL     1      -8.961  56.169  49.889  0.00  0.00    +0.000 OA
ATOM      5  N   UNL     1      -8.267  55.154  47.893  0.00  0.00    +0.000 N 
ATOM      6  C   UNL     1     -10.045  54.477  46.345  0.00  0.00    +0.000 A 
ATOM      7  C   UNL     1      -8.678  54.504  46.679  0.00  0.00    +0.000 A 
ATOM      8  C   UNL     1     -10.465  53.809  45.178  0.00  0.00    +0.000 A 
ATOM      9  C   UNL     1      -7.767  53.857  45.822  0.00  0.00    +0.000 A 
ATOM     10  C   UNL     1      -9.553  53.149  44.360  0.00  0.00    +0.000 A 
ATOM     11  C   UNL     1      -8.205  53.170  44.685  0.00  0.00    +0.000 A 
ENDROOT
BRANCH   1  17
ATOM     12  S   UNL     1     -13.208  56.139  51.322  0.00  0.00    +0.000 S 
ATOM     13  O   UNL     1     -12.548  56.406  52.583  0.00  0.00    +0.000 OA
ATOM     14  O   UNL     1     -14.341  55.234  51.263  0.00  0.00    +0.000 OA
ATOM     15  N   UNL     1     -12.088  55.602  50.283  0.00  0.00    +0.000 N 
ATOM     16  C   UNL     1     -13.802  57.689  50.747  0.00  0.00    +0.000 A 
ATOM     17  C   UNL     1     -11.675  56.344  49.297  0.00  0.00    +0.000 C 
ATOM     18  C   UNL     1     -13.177  58.251  49.648  0.00  0.00    +0.000 A 
ATOM     19  C   UNL     1     -14.881  58.306  51.386  0.00  0.00    +0.000 A 
ATOM     20  N   UNL     1     -12.095  57.630  49.032  0.00  0.00    +0.000 N 
ATOM     21  C   UNL     1     -13.605  59.512  49.219  0.00  0.00    +0.000 A 
ATOM     22  C   UNL     1     -15.319  59.546  50.926  0.00  0.00    +0.000 A 
ATOM     23  C   UNL     1     -14.676  60.153  49.849  0.00  0.00    +0.000 A 
ATOM     24  H   UNL     1     -11.712  54.699  50.400  0.00  0.00    +0.000 HD
ATOM     25  H   UNL     1     -11.592  58.145  48.360  0.00  0.00    +0.000 HD
ENDBRANCH   1  17
BRANCH   3  26
ATOM     26  O   UNL     1     -12.336  55.095  46.753  0.00  0.00    +0.000 OA
ATOM     27  H   UNL     1     -12.888  54.376  46.991  0.00  0.00    +0.000 HD
ENDBRANCH   3  26
BRANCH   5  28
ATOM     28  N   UNL     1      -6.839  55.334  48.122  0.00  0.00    +0.000 N 
ATOM     29  H   UNL     1      -6.302  55.956  47.581  0.00  0.00    +0.000 HD
BRANCH  28  30
ATOM     30  C   UNL     1      -6.241  54.536  49.207  0.00  0.00    +0.000 C 
BRANCH  30  31
ATOM     31  C   UNL     1      -5.898  53.147  48.730  0.00  0.00    +0.000 A 
ATOM     32  S   UNL     1      -4.439  52.884  47.869  0.00  0.00    +0.000 S 
ATOM     33  C   UNL     1      -6.666  51.993  48.821  0.00  0.00    +0.000 A 
ATOM     34  C   UNL     1      -4.829  51.251  47.577  0.00  0.00    +0.000 A 
ATOM     35  C   UNL     1      -6.029  50.899  48.148  0.00  0.00    +0.000 A 
ATOM     36  C   UNL     1      -7.997  51.877  49.492  0.00  0.00    +0.000 C 
ENDBRANCH  30  31
ENDBRANCH  28  30
ENDBRANCH   5  28
TORSDOF 5
ENDMDL
MODEL 8
REMARK VINA RESULT:      -8.0      1.483      2.147
REMARK  Name = 
REMARK  6 active torsions:
REMARK  status: ('A' for Active; 'I' for Inactive)
REMARK    1  A    between atoms: C_6  and  C_10
REMARK    2  A    between atoms: C_14  and  O_18
REMARK    3  A    between atoms: N_17  and  N_20
REMARK    4  A    between atoms: N_20  and  C_23
REMARK    5  A    between atoms: C_23  and  C_26
REMARK    6  A    between atoms: C_29  and  C_32
REMARK                            x       y       z     vdW  Elec       q    Type
REMARK                         _______ _______ _______ _____ _____    ______ ____
ROOT
ATOM      1  C   UNL     1     -10.162  54.497  52.226  0.00  0.00    +0.000 A 
ATOM      2  C   UNL     1      -8.759  55.017  52.211  0.00  0.00    +0.000 A 
ATOM      3  C   UNL     1     -10.464  53.387  52.916  0.00  0.00    +0.000 A 
ATOM      4  O   UNL     1      -8.581  56.096  51.635  0.00  0.00    +0.000 OA
ATOM      5  N   UNL     1      -7.760  54.274  52.861  0.00  0.00    +0.000 N 
ATOM      6  C   UNL     1      -9.430  52.675  53.680  0.00  0.00    +0.000 A 
ATOM      7  C   UNL     1      -8.092  53.107  53.631  0.00  0.00    +0.000 A 
ATOM      8  C   UNL     1      -9.775  51.557  54.463  0.00  0.00    +0.000 A 
ATOM      9  C   UNL     1      -7.132  52.393  54.373  0.00  0.00    +0.000 A 
ATOM     10  C   UNL     1      -8.817  50.883  55.214  0.00  0.00    +0.000 A 
ATOM     11  C   UNL     1      -7.496  51.304  55.172  0.00  0.00    +0.000 A 
ENDROOT
BRANCH   1  17
ATOM     12  S   UNL     1     -13.477  56.506  51.542  0.00  0.00    +0.000 S 
ATOM     13  O   UNL     1     -13.379  57.888  51.967  0.00  0.00    +0.000 OA
ATOM     14  O   UNL     1     -14.691  55.749  51.781  0.00  0.00    +0.000 OA
ATOM     15  N   UNL     1     -12.246  55.696  52.214  0.00  0.00    +0.000 N 
ATOM     16  C   UNL     1     -13.252  56.516  49.801  0.00  0.00    +0.000 A 
ATOM     17  C   UNL     1     -11.241  55.286  51.496  0.00  0.00    +0.000 C 
ATOM     18  C   UNL     1     -12.074  55.991  49.300  0.00  0.00    +0.000 A 
ATOM     19  C   UNL     1     -14.251  57.030  48.968  0.00  0.00    +0.000 A 
ATOM     20  N   UNL     1     -11.083  55.497  50.143  0.00  0.00    +0.000 N 
ATOM     21  C   UNL     1     -11.861  56.048  47.918  0.00  0.00    +0.000 A 
ATOM     22  C   UNL     1     -14.040  57.048  47.591  0.00  0.00    +0.000 A 
ATOM     23  C   UNL     1     -12.842  56.566  47.067  0.00  0.00    +0.000 A 
ATOM     24  H   UNL     1     -12.257  55.512  53.181  0.00  0.00    +0.000 HD
ATOM     25  H   UNL     1     -10.208  55.283  49.746  0.00  0.00    +0.000 HD
ENDBRANCH   1  17
BRANCH   3  26
ATOM     26  O   UNL     1     -11.734  52.843  52.999  0.00  0.00    +0.000 OA
ATOM     27  H   UNL     1     -12.047  52.506  53.816  0.00  0.00    +0.000 HD
ENDBRANCH   3  26
BRANCH   5  28
ATOM     28  N   UNL     1      -6.350  54.590  52.672  0.00  0.00    +0.000 N 
ATOM     29  H   UNL     1      -5.923  55.348  53.133  0.00  0.00    +0.000 HD
BRANCH  28  30
ATOM     30  C   UNL     1      -5.596  53.716  51.757  0.00  0.00    +0.000 C 
BRANCH  30  31
ATOM     31  C   UNL     1      -6.138  53.808  50.353  0.00  0.00    +0.000 A 
ATOM     32  S   UNL     1      -5.770  55.178  49.392  0.00  0.00    +0.000 S 
ATOM     33  C   UNL     1      -7.005  52.934  49.707  0.00  0.00    +0.000 A 
ATOM     34  C   UNL     1      -6.785  54.647  48.129  0.00  0.00    +0.000 A 
ATOM     35  C   UNL     1      -7.369  53.436  48.415  0.00  0.00    +0.000 A 
ATOM     36  C   UNL     1      -7.535  51.653  50.267  0.00  0.00    +0.000 C 
ENDBRANCH  30  31
ENDBRANCH  28  30
ENDBRANCH   5  28
TORSDOF 5
ENDMDL
MODEL 9
REMARK VINA RESULT:      -8.0      3.273      5.199
REMARK  Name = 
REMARK  6 active torsions:
REMARK  status: ('A' for Active; 'I' for Inactive)
REMARK    1  A    between atoms: C_6  and  C_10
REMARK    2  A    between atoms: C_14  and  O_18
REMARK    3  A    between atoms: N_17  and  N_20
REMARK    4  A    between atoms: N_20  and  C_23
REMARK    5  A    between atoms: C_23  and  C_26
REMARK    6  A    between atoms: C_29  and  C_32
REMARK                            x       y       z     vdW  Elec       q    Type
REMARK                         _______ _______ _______ _____ _____    ______ ____
ROOT
ATOM      1  C   UNL     1     -11.775  56.043  48.594  0.00  0.00    +0.000 A 
ATOM      2  C   UNL     1     -10.628  55.441  49.341  0.00  0.00    +0.000 A 
ATOM      3  C   UNL     1     -12.030  55.670  47.330  0.00  0.00    +0.000 A 
ATOM      4  O   UNL     1     -10.519  55.763  50.529  0.00  0.00    +0.000 OA
ATOM      5  N   UNL     1      -9.781  54.546  48.666  0.00  0.00    +0.000 N 
ATOM      6  C   UNL     1     -11.200  54.655  46.668  0.00  0.00    +0.000 A 
ATOM      7  C   UNL     1     -10.077  54.119  47.326  0.00  0.00    +0.000 A 
ATOM      8  C   UNL     1     -11.524  54.215  45.370  0.00  0.00    +0.000 A 
ATOM      9  C   UNL     1      -9.305  53.153  46.653  0.00  0.00    +0.000 A 
ATOM     10  C   UNL     1     -10.767  53.237  44.733  0.00  0.00    +0.000 A 
ATOM     11  C   UNL     1      -9.660  52.703  45.376  0.00  0.00    +0.000 A 
ENDROOT
BRANCH   1  17
ATOM     12  S   UNL     1     -13.635  59.388  49.514  0.00  0.00    +0.000 S 
ATOM     13  O   UNL     1     -14.797  59.617  48.680  0.00  0.00    +0.000 OA
ATOM     14  O   UNL     1     -12.749  60.485  49.858  0.00  0.00    +0.000 OA
ATOM     15  N   UNL     1     -12.744  58.233  48.811  0.00  0.00    +0.000 N 
ATOM     16  C   UNL     1     -14.245  58.769  51.040  0.00  0.00    +0.000 A 
ATOM     17  C   UNL     1     -12.677  57.036  49.316  0.00  0.00    +0.000 C 
ATOM     18  C   UNL     1     -14.011  57.437  51.334  0.00  0.00    +0.000 A 
ATOM     19  C   UNL     1     -14.930  59.615  51.916  0.00  0.00    +0.000 A 
ATOM     20  N   UNL     1     -13.341  56.603  50.444  0.00  0.00    +0.000 N 
ATOM     21  C   UNL     1     -14.545  56.920  52.520  0.00  0.00    +0.000 A 
ATOM     22  C   UNL     1     -15.425  59.095  53.110  0.00  0.00    +0.000 A 
ATOM     23  C   UNL     1     -15.241  57.746  53.407  0.00  0.00    +0.000 A 
ATOM     24  H   UNL     1     -12.245  58.439  47.988  0.00  0.00    +0.000 HD
ATOM     25  H   UNL     1     -13.341  55.637  50.632  0.00  0.00    +0.000 HD
ENDBRANCH   1  17
BRANCH   3  26
ATOM     26  O   UNL     1     -13.076  56.161  46.569  0.00  0.00    +0.000 OA
ATOM     27  H   UNL     1     -12.972  56.266  45.643  0.00  0.00    +0.000 HD
ENDBRANCH   3  26
BRANCH   5  28
ATOM     28  N   UNL     1      -8.516  54.124  49.254  0.00  0.00    +0.000 N 
ATOM     29  H   UNL     1      -8.440  53.293  49.775  0.00  0.00    +0.000 HD
BRANCH  28  30
ATOM     30  C   UNL     1      -7.358  55.005  49.027  0.00  0.00    +0.000 C 
BRANCH  30  31
ATOM     31  C   UNL     1      -6.090  54.203  48.874  0.00  0.00    +0.000 A 
ATOM     32  S   UNL     1      -5.698  53.523  47.349  0.00  0.00    +0.000 S 
ATOM     33  C   UNL     1      -5.175  53.845  49.856  0.00  0.00    +0.000 A 
ATOM     34  C   UNL     1      -4.336  52.719  47.985  0.00  0.00    +0.000 A 
ATOM     35  C   UNL     1      -4.160  52.984  49.322  0.00  0.00    +0.000 A 
ATOM     36  C   UNL     1      -5.227  54.254  51.293  0.00  0.00    +0.000 C 
ENDBRANCH  30  31
ENDBRANCH  28  30
ENDBRANCH   5  28
TORSDOF 5
ENDMDL
