MODEL 1
REMARK VINA RESULT:      -8.4      0.000      0.000
REMARK  Name = 
REMARK  7 active torsions:
REMARK  status: ('A' for Active; 'I' for Inactive)
REMARK    1  A    between atoms: C_6  and  C_10
REMARK    2  A    between atoms: C_14  and  O_18
REMARK    3  A    between atoms: N_17  and  N_20
REMARK    4  A    between atoms: N_20  and  C_23
REMARK    5  A    between atoms: C_23  and  C_26
REMARK    6  A    between atoms: C_26  and  C_28
REMARK    7  A    between atoms: C_26  and  C_29
REMARK                            x       y       z     vdW  Elec       q    Type
REMARK                         _______ _______ _______ _____ _____    ______ ____
ROOT
ATOM      1  C   UNL     1     -10.074  54.500  52.243  0.00  0.00    +0.000 A 
ATOM      2  C   UNL     1      -8.708  55.075  52.084  0.00  0.00    +0.000 A 
ATOM      3  C   UNL     1     -10.267  53.393  52.980  0.00  0.00    +0.000 A 
ATOM      4  O   UNL     1      -8.592  56.066  51.355  0.00  0.00    +0.000 OA
ATOM      5  N   UNL     1      -7.656  54.483  52.787  0.00  0.00    +0.000 N 
ATOM      6  C   UNL     1      -9.139  52.755  53.676  0.00  0.00    +0.000 A 
ATOM      7  C   UNL     1      -7.848  53.303  53.569  0.00  0.00    +0.000 A 
ATOM      8  C   UNL     1      -9.341  51.609  54.466  0.00  0.00    +0.000 A 
ATOM      9  C   UNL     1      -6.783  52.678  54.238  0.00  0.00    +0.000 A 
ATOM     10  C   UNL     1      -8.280  51.011  55.143  0.00  0.00    +0.000 A 
ATOM     11  C   UNL     1      -7.001  51.541  55.024  0.00  0.00    +0.000 A 
ENDROOT
BRANCH   1  17
ATOM     12  S   UNL     1     -12.452  56.028  49.513  0.00  0.00    +0.000 S 
ATOM     13  O   UNL     1     -13.341  55.042  48.936  0.00  0.00    +0.000 OA
ATOM     14  O   UNL     1     -11.815  57.023  48.675  0.00  0.00    +0.000 OA
ATOM     15  N   UNL     1     -11.285  55.229  50.308  0.00  0.00    +0.000 N 
ATOM     16  C   UNL     1     -13.407  56.920  50.682  0.00  0.00    +0.000 A 
ATOM     17  C   UNL     1     -11.240  55.231  51.608  0.00  0.00    +0.000 C 
ATOM     18  C   UNL     1     -13.132  56.730  52.027  0.00  0.00    +0.000 A 
ATOM     19  C   UNL     1     -14.399  57.802  50.247  0.00  0.00    +0.000 A 
ATOM     20  N   UNL     1     -12.148  55.839  52.447  0.00  0.00    +0.000 N 
ATOM     21  C   UNL     1     -13.932  57.392  52.965  0.00  0.00    +0.000 A 
ATOM     22  C   UNL     1     -15.163  58.484  51.192  0.00  0.00    +0.000 A 
ATOM     23  C   UNL     1     -14.935  58.271  52.550  0.00  0.00    +0.000 A 
ATOM     24  H   UNL     1     -10.602  54.735  49.799  0.00  0.00    +0.000 HD
ATOM     25  H   UNL     1     -12.098  55.630  53.408  0.00  0.00    +0.000 HD
ENDBRANCH   1  17
BRANCH   3  26
ATOM     26  O   UNL     1     -11.497  52.792  53.177  0.00  0.00    +0.000 OA
ATOM     27  H   UNL     1     -11.966  52.934  53.975  0.00  0.00    +0.000 HD
ENDBRANCH   3  26
BRANCH   5  28
ATOM     28  N   UNL     1      -6.320  55.005  52.664  0.00  0.00    +0.000 N 
ATOM     29  H   UNL     1      -5.932  55.645  53.305  0.00  0.00    +0.000 HD
BRANCH  28  30
ATOM     30  C   UNL     1      -5.583  54.495  51.495  0.00  0.00    +0.000 C 
BRANCH  30  31
ATOM     31  C   UNL     1      -4.148  54.061  51.843  0.00  0.00    +0.000 C 
ATOM     32  C   UNL     1      -3.790  54.557  53.249  0.00  0.00    +0.000 C 
ATOM     33  C   UNL     1      -3.972  52.547  51.760  0.00  0.00    +0.000 C 
ENDBRANCH  30  31
ENDBRANCH  28  30
ENDBRANCH   5  28
TORSDOF 5
ENDMDL
MODEL 2
REMARK VINA RESULT:      -8.2      2.068      2.821
REMARK  Name = 
REMARK  7 active torsions:
REMARK  status: ('A' for Active; 'I' for Inactive)
REMARK    1  A    between atoms: C_6  and  C_10
REMARK    2  A    between atoms: C_14  and  O_18
REMARK    3  A    between atoms: N_17  and  N_20
REMARK    4  A    between atoms: N_20  and  C_23
REMARK    5  A    between atoms: C_23  and  C_26
REMARK    6  A    between atoms: C_26  and  C_28
REMARK    7  A    between atoms: C_26  and  C_29
REMARK                            x       y       z     vdW  Elec       q    Type
REMARK                         _______ _______ _______ _____ _____    ______ ____
ROOT
ATOM      1  C   UNL     1     -11.604  54.123  51.335  0.00  0.00    +0.000 A 
ATOM      2  C   UNL     1     -10.662  54.243  52.483  0.00  0.00    +0.000 A 
ATOM      3  C   UNL     1     -11.700  52.972  50.648  0.00  0.00    +0.000 A 
ATOM      4  O   UNL     1     -10.587  55.342  53.043  0.00  0.00    +0.000 OA
ATOM      5  N   UNL     1      -9.949  53.107  52.874  0.00  0.00    +0.000 N 
ATOM      6  C   UNL     1     -10.906  51.799  51.044  0.00  0.00    +0.000 A 
ATOM      7  C   UNL     1     -10.038  51.881  52.148  0.00  0.00    +0.000 A 
ATOM      8  C   UNL     1     -11.020  50.587  50.341  0.00  0.00    +0.000 A 
ATOM      9  C   UNL     1      -9.286  50.750  52.509  0.00  0.00    +0.000 A 
ATOM     10  C   UNL     1     -10.285  49.467  50.722  0.00  0.00    +0.000 A 
ATOM     11  C   UNL     1      -9.413  49.550  51.802  0.00  0.00    +0.000 A 
ENDROOT
BRANCH   1  17
ATOM     12  S   UNL     1     -13.356  57.000  49.310  0.00  0.00    +0.000 S 
ATOM     13  O   UNL     1     -14.467  56.522  48.514  0.00  0.00    +0.000 OA
ATOM     14  O   UNL     1     -12.435  57.979  48.772  0.00  0.00    +0.000 OA
ATOM     15  N   UNL     1     -12.491  55.706  49.769  0.00  0.00    +0.000 N 
ATOM     16  C   UNL     1     -14.060  57.731  50.740  0.00  0.00    +0.000 A 
ATOM     17  C   UNL     1     -12.493  55.307  51.008  0.00  0.00    +0.000 C 
ATOM     18  C   UNL     1     -13.897  57.079  51.951  0.00  0.00    +0.000 A 
ATOM     19  C   UNL     1     -14.746  58.944  50.638  0.00  0.00    +0.000 A 
ATOM     20  N   UNL     1     -13.221  55.865  52.035  0.00  0.00    +0.000 N 
ATOM     21  C   UNL     1     -14.509  57.626  53.084  0.00  0.00    +0.000 A 
ATOM     22  C   UNL     1     -15.318  59.498  51.782  0.00  0.00    +0.000 A 
ATOM     23  C   UNL     1     -15.207  58.834  53.002  0.00  0.00    +0.000 A 
ATOM     24  H   UNL     1     -11.959  55.216  49.101  0.00  0.00    +0.000 HD
ATOM     25  H   UNL     1     -13.265  55.373  52.888  0.00  0.00    +0.000 HD
ENDBRANCH   1  17
BRANCH   3  26
ATOM     26  O   UNL     1     -12.543  52.776  49.569  0.00  0.00    +0.000 OA
ATOM     27  H   UNL     1     -12.586  51.937  49.154  0.00  0.00    +0.000 HD
ENDBRANCH   3  26
BRANCH   5  28
ATOM     28  N   UNL     1      -9.027  53.175  53.978  0.00  0.00    +0.000 N 
ATOM     29  H   UNL     1      -9.292  52.999  54.911  0.00  0.00    +0.000 HD
BRANCH  28  30
ATOM     30  C   UNL     1      -7.653  53.533  53.589  0.00  0.00    +0.000 C 
BRANCH  30  31
ATOM     31  C   UNL     1      -7.116  54.751  54.363  0.00  0.00    +0.000 C 
ATOM     32  C   UNL     1      -5.690  54.460  54.848  0.00  0.00    +0.000 C 
ATOM     33  C   UNL     1      -7.133  56.020  53.516  0.00  0.00    +0.000 C 
ENDBRANCH  30  31
ENDBRANCH  28  30
ENDBRANCH   5  28
TORSDOF 5
ENDMDL
MODEL 3
REMARK VINA RESULT:      -8.1      2.552      8.044
REMARK  Name = 
REMARK  7 active torsions:
REMARK  status: ('A' for Active; 'I' for Inactive)
REMARK    1  A    between atoms: C_6  and  C_10
REMARK    2  A    between atoms: C_14  and  O_18
REMARK    3  A    between atoms: N_17  and  N_20
REMARK    4  A    between atoms: N_20  and  C_23
REMARK    5  A    between atoms: C_23  and  C_26
REMARK    6  A    between atoms: C_26  and  C_28
REMARK    7  A    between atoms: C_26  and  C_29
REMARK                            x       y       z     vdW  Elec       q    Type
REMARK                         _______ _______ _______ _____ _____    ______ ____
ROOT
ATOM      1  C   UNL     1     -10.108  55.117  50.490  0.00  0.00    +0.000 A 
ATOM      2  C   UNL     1     -11.158  55.262  51.538  0.00  0.00    +0.000 A 
ATOM      3  C   UNL     1     -10.377  55.419  49.209  0.00  0.00    +0.000 A 
ATOM      4  O   UNL     1     -10.861  54.923  52.688  0.00  0.00    +0.000 OA
ATOM      5  N   UNL     1     -12.393  55.797  51.166  0.00  0.00    +0.000 N 
ATOM      6  C   UNL     1     -11.699  55.937  48.826  0.00  0.00    +0.000 A 
ATOM      7  C   UNL     1     -12.691  56.116  49.806  0.00  0.00    +0.000 A 
ATOM      8  C   UNL     1     -11.976  56.275  47.489  0.00  0.00    +0.000 A 
ATOM      9  C   UNL     1     -13.949  56.610  49.421  0.00  0.00    +0.000 A 
ATOM     10  C   UNL     1     -13.220  56.784  47.124  0.00  0.00    +0.000 A 
ATOM     11  C   UNL     1     -14.209  56.946  48.088  0.00  0.00    +0.000 A 
ENDROOT
BRANCH   1  17
ATOM     12  S   UNL     1      -6.714  53.140  50.625  0.00  0.00    +0.000 S 
ATOM     13  O   UNL     1      -5.775  53.579  49.615  0.00  0.00    +0.000 OA
ATOM     14  O   UNL     1      -6.872  51.730  50.918  0.00  0.00    +0.000 OA
ATOM     15  N   UNL     1      -8.173  53.729  50.226  0.00  0.00    +0.000 N 
ATOM     16  C   UNL     1      -6.206  53.892  52.125  0.00  0.00    +0.000 A 
ATOM     17  C   UNL     1      -8.719  54.685  50.918  0.00  0.00    +0.000 C 
ATOM     18  C   UNL     1      -7.000  54.899  52.650  0.00  0.00    +0.000 A 
ATOM     19  C   UNL     1      -5.039  53.461  52.762  0.00  0.00    +0.000 A 
ATOM     20  N   UNL     1      -8.154  55.326  51.998  0.00  0.00    +0.000 N 
ATOM     21  C   UNL     1      -6.566  55.544  53.813  0.00  0.00    +0.000 A 
ATOM     22  C   UNL     1      -4.639  54.087  53.941  0.00  0.00    +0.000 A 
ATOM     23  C   UNL     1      -5.398  55.134  54.461  0.00  0.00    +0.000 A 
ATOM     24  H   UNL     1      -8.650  53.358  49.448  0.00  0.00    +0.000 HD
ATOM     25  H   UNL     1      -8.595  56.141  52.332  0.00  0.00    +0.000 HD
ENDBRANCH   1  17
BRANCH   3  26
ATOM     26  O   UNL     1      -9.465  55.309  48.174  0.00  0.00    +0.000 OA
ATOM     27  H   UNL     1      -8.748  54.710  48.243  0.00  0.00    +0.000 HD
ENDBRANCH   3  26
BRANCH   5  28
ATOM     28  N   UNL     1     -13.437  55.957  52.144  0.00  0.00    +0.000 N 
ATOM     29  H   UNL     1     -14.102  55.257  52.339  0.00  0.00    +0.000 HD
BRANCH  28  30
ATOM     30  C   UNL     1     -13.421  57.262  52.828  0.00  0.00    +0.000 C 
BRANCH  30  31
ATOM     31  C   UNL     1     -14.823  57.886  52.946  0.00  0.00    +0.000 C 
ATOM     32  C   UNL     1     -14.880  59.175  52.117  0.00  0.00    +0.000 C 
ATOM     33  C   UNL     1     -15.918  56.923  52.494  0.00  0.00    +0.000 C 
ENDBRANCH  30  31
ENDBRANCH  28  30
ENDBRANCH   5  28
TORSDOF 5
ENDMDL
MODEL 4
REMARK VINA RESULT:      -8.0      2.716      8.287
REMARK  Name = 
REMARK  7 active torsions:
REMARK  status: ('A' for Active; 'I' for Inactive)
REMARK    1  A    between atoms: C_6  and  C_10
REMARK    2  A    between atoms: C_14  and  O_18
REMARK    3  A    between atoms: N_17  and  N_20
REMARK    4  A    between atoms: N_20  and  C_23
REMARK    5  A    between atoms: C_23  and  C_26
REMARK    6  A    between atoms: C_26  and  C_28
REMARK    7  A    between atoms: C_26  and  C_29
REMARK                            x       y       z     vdW  Elec       q    Type
REMARK                         _______ _______ _______ _____ _____    ______ ____
ROOT
ATOM      1  C   UNL     1      -9.518  55.090  50.900  0.00  0.00    +0.000 A 
ATOM      2  C   UNL     1     -10.778  55.195  51.689  0.00  0.00    +0.000 A 
ATOM      3  C   UNL     1      -9.535  55.235  49.564  0.00  0.00    +0.000 A 
ATOM      4  O   UNL     1     -10.700  55.005  52.908  0.00  0.00    +0.000 OA
ATOM      5  N   UNL     1     -11.954  55.531  51.014  0.00  0.00    +0.000 N 
ATOM      6  C   UNL     1     -10.792  55.542  48.863  0.00  0.00    +0.000 A 
ATOM      7  C   UNL     1     -11.985  55.682  49.595  0.00  0.00    +0.000 A 
ATOM      8  C   UNL     1     -10.810  55.716  47.468  0.00  0.00    +0.000 A 
ATOM      9  C   UNL     1     -13.175  55.973  48.907  0.00  0.00    +0.000 A 
ATOM     10  C   UNL     1     -11.993  56.025  46.801  0.00  0.00    +0.000 A 
ATOM     11  C   UNL     1     -13.177  56.148  47.519  0.00  0.00    +0.000 A 
ENDROOT
BRANCH   1  17
ATOM     12  S   UNL     1      -6.693  55.461  53.606  0.00  0.00    +0.000 S 
ATOM     13  O   UNL     1      -6.984  54.725  54.818  0.00  0.00    +0.000 OA
ATOM     14  O   UNL     1      -6.120  56.790  53.673  0.00  0.00    +0.000 OA
ATOM     15  N   UNL     1      -8.067  55.556  52.749  0.00  0.00    +0.000 N 
ATOM     16  C   UNL     1      -5.546  54.486  52.707  0.00  0.00    +0.000 A 
ATOM     17  C   UNL     1      -8.216  54.880  51.648  0.00  0.00    +0.000 C 
ATOM     18  C   UNL     1      -5.984  53.875  51.542  0.00  0.00    +0.000 A 
ATOM     19  C   UNL     1      -4.231  54.356  53.161  0.00  0.00    +0.000 A 
ATOM     20  N   UNL     1      -7.301  54.004  51.108  0.00  0.00    +0.000 N 
ATOM     21  C   UNL     1      -5.092  53.046  50.855  0.00  0.00    +0.000 A 
ATOM     22  C   UNL     1      -3.341  53.558  52.445  0.00  0.00    +0.000 A 
ATOM     23  C   UNL     1      -3.775  52.896  51.297  0.00  0.00    +0.000 A 
ATOM     24  H   UNL     1      -8.799  56.134  53.067  0.00  0.00    +0.000 HD
ATOM     25  H   UNL     1      -7.597  53.431  50.363  0.00  0.00    +0.000 HD
ENDBRANCH   1  17
BRANCH   3  26
ATOM     26  O   UNL     1      -8.416  55.147  48.756  0.00  0.00    +0.000 OA
ATOM     27  H   UNL     1      -7.629  54.761  49.086  0.00  0.00    +0.000 HD
ENDBRANCH   3  26
BRANCH   5  28
ATOM     28  N   UNL     1     -13.194  55.646  51.736  0.00  0.00    +0.000 N 
ATOM     29  H   UNL     1     -13.849  54.913  51.800  0.00  0.00    +0.000 HD
BRANCH  28  30
ATOM     30  C   UNL     1     -13.398  56.960  52.370  0.00  0.00    +0.000 C 
BRANCH  30  31
ATOM     31  C   UNL     1     -14.885  57.286  52.592  0.00  0.00    +0.000 C 
ATOM     32  C   UNL     1     -15.060  58.804  52.729  0.00  0.00    +0.000 C 
ATOM     33  C   UNL     1     -15.762  56.757  51.461  0.00  0.00    +0.000 C 
ENDBRANCH  30  31
ENDBRANCH  28  30
ENDBRANCH   5  28
TORSDOF 5
ENDMDL
MODEL 5
REMARK VINA RESULT:      -7.9      1.563      2.274
REMARK  Name = 
REMARK  7 active torsions:
REMARK  status: ('A' for Active; 'I' for Inactive)
REMARK    1  A    between atoms: C_6  and  C_10
REMARK    2  A    between atoms: C_14  and  O_18
REMARK    3  A    between atoms: N_17  and  N_20
REMARK    4  A    between atoms: N_20  and  C_23
REMARK    5  A    between atoms: C_23  and  C_26
REMARK    6  A    between atoms: C_26  and  C_28
REMARK    7  A    between atoms: C_26  and  C_29
REMARK                            x       y       z     vdW  Elec       q    Type
REMARK                         _______ _______ _______ _____ _____    ______ ____
ROOT
ATOM      1  C   UNL     1     -10.124  54.571  52.148  0.00  0.00    +0.000 A 
ATOM      2  C   UNL     1      -8.735  55.106  52.078  0.00  0.00    +0.000 A 
ATOM      3  C   UNL     1     -10.393  53.460  52.853  0.00  0.00    +0.000 A 
ATOM      4  O   UNL     1      -8.546  56.104  51.375  0.00  0.00    +0.000 OA
ATOM      5  N   UNL     1      -7.744  54.471  52.832  0.00  0.00    +0.000 N 
ATOM      6  C   UNL     1      -9.328  52.776  53.603  0.00  0.00    +0.000 A 
ATOM      7  C   UNL     1      -8.017  53.287  53.580  0.00  0.00    +0.000 A 
ATOM      8  C   UNL     1      -9.610  51.625  54.360  0.00  0.00    +0.000 A 
ATOM      9  C   UNL     1      -7.013  52.618  54.300  0.00  0.00    +0.000 A 
ATOM     10  C   UNL     1      -8.609  50.984  55.087  0.00  0.00    +0.000 A 
ATOM     11  C   UNL     1      -7.310  51.477  55.052  0.00  0.00    +0.000 A 
ENDROOT
BRANCH   1  17
ATOM     12  S   UNL     1     -13.487  56.523  51.575  0.00  0.00    +0.000 S 
ATOM     13  O   UNL     1     -13.413  57.899  52.017  0.00  0.00    +0.000 OA
ATOM     14  O   UNL     1     -14.672  55.731  51.833  0.00  0.00    +0.000 OA
ATOM     15  N   UNL     1     -12.217  55.736  52.209  0.00  0.00    +0.000 N 
ATOM     16  C   UNL     1     -13.300  56.560  49.832  0.00  0.00    +0.000 A 
ATOM     17  C   UNL     1     -11.229  55.348  51.458  0.00  0.00    +0.000 C 
ATOM     18  C   UNL     1     -12.123  56.064  49.293  0.00  0.00    +0.000 A 
ATOM     19  C   UNL     1     -14.326  57.064  49.029  0.00  0.00    +0.000 A 
ATOM     20  N   UNL     1     -11.104  55.575  50.106  0.00  0.00    +0.000 N 
ATOM     21  C   UNL     1     -11.944  56.148  47.908  0.00  0.00    +0.000 A 
ATOM     22  C   UNL     1     -14.150  57.107  47.648  0.00  0.00    +0.000 A 
ATOM     23  C   UNL     1     -12.954  56.657  47.089  0.00  0.00    +0.000 A 
ATOM     24  H   UNL     1     -12.195  55.551  53.177  0.00  0.00    +0.000 HD
ATOM     25  H   UNL     1     -10.236  55.377  49.684  0.00  0.00    +0.000 HD
ENDBRANCH   1  17
BRANCH   3  26
ATOM     26  O   UNL     1     -11.649  52.893  52.967  0.00  0.00    +0.000 OA
ATOM     27  H   UNL     1     -12.145  53.005  53.754  0.00  0.00    +0.000 HD
ENDBRANCH   3  26
BRANCH   5  28
ATOM     28  N   UNL     1      -6.388  54.954  52.797  0.00  0.00    +0.000 N 
ATOM     29  H   UNL     1      -6.011  55.549  53.486  0.00  0.00    +0.000 HD
BRANCH  28  30
ATOM     30  C   UNL     1      -5.614  54.479  51.637  0.00  0.00    +0.000 C 
BRANCH  30  31
ATOM     31  C   UNL     1      -4.194  54.026  52.019  0.00  0.00    +0.000 C 
ATOM     32  C   UNL     1      -3.848  54.551  53.417  0.00  0.00    +0.000 C 
ATOM     33  C   UNL     1      -4.048  52.507  51.978  0.00  0.00    +0.000 C 
ENDBRANCH  30  31
ENDBRANCH  28  30
ENDBRANCH   5  28
TORSDOF 5
ENDMDL
MODEL 6
REMARK VINA RESULT:      -7.9      4.183      4.912
REMARK  Name = 
REMARK  7 active torsions:
REMARK  status: ('A' for Active; 'I' for Inactive)
REMARK    1  A    between atoms: C_6  and  C_10
REMARK    2  A    between atoms: C_14  and  O_18
REMARK    3  A    between atoms: N_17  and  N_20
REMARK    4  A    between atoms: N_20  and  C_23
REMARK    5  A    between atoms: C_23  and  C_26
REMARK    6  A    between atoms: C_26  and  C_28
REMARK    7  A    between atoms: C_26  and  C_29
REMARK                            x       y       z     vdW  Elec       q    Type
REMARK                         _______ _______ _______ _____ _____    ______ ____
ROOT
ATOM      1  C   UNL     1     -12.533  54.294  49.594  0.00  0.00    +0.000 A 
ATOM      2  C   UNL     1     -12.033  54.268  48.190  0.00  0.00    +0.000 A 
ATOM      3  C   UNL     1     -12.237  53.296  50.442  0.00  0.00    +0.000 A 
ATOM      4  O   UNL     1     -12.380  55.193  47.447  0.00  0.00    +0.000 OA
ATOM      5  N   UNL     1     -11.183  53.226  47.811  0.00  0.00    +0.000 N 
ATOM      6  C   UNL     1     -11.379  52.181  50.013  0.00  0.00    +0.000 A 
ATOM      7  C   UNL     1     -10.866  52.157  48.703  0.00  0.00    +0.000 A 
ATOM      8  C   UNL     1     -11.049  51.146  50.905  0.00  0.00    +0.000 A 
ATOM      9  C   UNL     1     -10.050  51.082  48.310  0.00  0.00    +0.000 A 
ATOM     10  C   UNL     1     -10.222  50.097  50.509  0.00  0.00    +0.000 A 
ATOM     11  C   UNL     1      -9.727  50.062  49.211  0.00  0.00    +0.000 A 
ENDROOT
BRANCH   1  17
ATOM     12  S   UNL     1     -15.387  56.469  51.197  0.00  0.00    +0.000 S 
ATOM     13  O   UNL     1     -15.271  56.564  52.637  0.00  0.00    +0.000 OA
ATOM     14  O   UNL     1     -16.682  56.283  50.575  0.00  0.00    +0.000 OA
ATOM     15  N   UNL     1     -14.423  55.259  50.707  0.00  0.00    +0.000 N 
ATOM     16  C   UNL     1     -14.755  57.974  50.556  0.00  0.00    +0.000 A 
ATOM     17  C   UNL     1     -13.326  55.503  50.052  0.00  0.00    +0.000 C 
ATOM     18  C   UNL     1     -13.545  57.937  49.882  0.00  0.00    +0.000 A 
ATOM     19  C   UNL     1     -15.475  59.160  50.719  0.00  0.00    +0.000 A 
ATOM     20  N   UNL     1     -12.832  56.749  49.737  0.00  0.00    +0.000 N 
ATOM     21  C   UNL     1     -13.006  59.144  49.423  0.00  0.00    +0.000 A 
ATOM     22  C   UNL     1     -14.945  60.350  50.223  0.00  0.00    +0.000 A 
ATOM     23  C   UNL     1     -13.706  60.341  49.584  0.00  0.00    +0.000 A 
ATOM     24  H   UNL     1     -14.672  54.328  50.910  0.00  0.00    +0.000 HD
ATOM     25  H   UNL     1     -11.914  56.805  49.386  0.00  0.00    +0.000 HD
ENDBRANCH   1  17
BRANCH   3  26
ATOM     26  O   UNL     1     -12.663  53.238  51.757  0.00  0.00    +0.000 OA
ATOM     27  H   UNL     1     -12.073  52.959  52.429  0.00  0.00    +0.000 HD
ENDBRANCH   3  26
BRANCH   5  28
ATOM     28  N   UNL     1     -10.673  53.160  46.466  0.00  0.00    +0.000 N 
ATOM     29  H   UNL     1     -10.903  52.436  45.839  0.00  0.00    +0.000 HD
BRANCH  28  30
ATOM     30  C   UNL     1      -9.778  54.274  46.111  0.00  0.00    +0.000 C 
BRANCH  30  31
ATOM     31  C   UNL     1      -8.505  54.310  46.975  0.00  0.00    +0.000 C 
ATOM     32  C   UNL     1      -7.273  54.410  46.067  0.00  0.00    +0.000 C 
ATOM     33  C   UNL     1      -8.520  55.469  47.968  0.00  0.00    +0.000 C 
ENDBRANCH  30  31
ENDBRANCH  28  30
ENDBRANCH   5  28
TORSDOF 5
ENDMDL
MODEL 7
REMARK VINA RESULT:      -7.9      3.331      7.319
REMARK  Name = 
REMARK  7 active torsions:
REMARK  status: ('A' for Active; 'I' for Inactive)
REMARK    1  A    between atoms: C_6  and  C_10
REMARK    2  A    between atoms: C_14  and  O_18
REMARK    3  A    between atoms: N_17  and  N_20
REMARK    4  A    between atoms: N_20  and  C_23
REMARK    5  A    between atoms: C_23  and  C_26
REMARK    6  A    between atoms: C_26  and  C_28
REMARK    7  A    between atoms: C_26  and  C_29
REMARK                            x       y       z     vdW  Elec       q    Type
REMARK                         _______ _______ _______ _____ _____    ______ ____
ROOT
ATOM      1  C   UNL     1     -10.202  55.255  50.683  0.00  0.00    +0.000 A 
ATOM      2  C   UNL     1      -9.746  55.189  49.266  0.00  0.00    +0.000 A 
ATOM      3  C   UNL     1     -11.422  55.728  50.986  0.00  0.00    +0.000 A 
ATOM      4  O   UNL     1      -8.595  54.788  49.058  0.00  0.00    +0.000 OA
ATOM      5  N   UNL     1     -10.649  55.551  48.264  0.00  0.00    +0.000 N 
ATOM      6  C   UNL     1     -12.345  56.150  49.920  0.00  0.00    +0.000 A 
ATOM      7  C   UNL     1     -11.947  56.060  48.574  0.00  0.00    +0.000 A 
ATOM      8  C   UNL     1     -13.630  56.625  50.232  0.00  0.00    +0.000 A 
ATOM      9  C   UNL     1     -12.841  56.470  47.570  0.00  0.00    +0.000 A 
ATOM     10  C   UNL     1     -14.515  57.007  49.227  0.00  0.00    +0.000 A 
ATOM     11  C   UNL     1     -14.119  56.936  47.896  0.00  0.00    +0.000 A 
ENDROOT
BRANCH   1  17
ATOM     12  S   UNL     1      -7.048  54.809  52.986  0.00  0.00    +0.000 S 
ATOM     13  O   UNL     1      -7.009  55.772  54.066  0.00  0.00    +0.000 OA
ATOM     14  O   UNL     1      -5.841  54.467  52.262  0.00  0.00    +0.000 OA
ATOM     15  N   UNL     1      -8.142  55.330  51.906  0.00  0.00    +0.000 N 
ATOM     16  C   UNL     1      -7.633  53.313  53.688  0.00  0.00    +0.000 A 
ATOM     17  C   UNL     1      -9.281  54.717  51.760  0.00  0.00    +0.000 C 
ATOM     18  C   UNL     1      -8.905  52.886  53.344  0.00  0.00    +0.000 A 
ATOM     19  C   UNL     1      -6.816  52.581  54.554  0.00  0.00    +0.000 A 
ATOM     20  N   UNL     1      -9.713  53.631  52.488  0.00  0.00    +0.000 N 
ATOM     21  C   UNL     1      -9.400  51.725  53.949  0.00  0.00    +0.000 A 
ATOM     22  C   UNL     1      -7.306  51.406  55.120  0.00  0.00    +0.000 A 
ATOM     23  C   UNL     1      -8.602  50.984  54.824  0.00  0.00    +0.000 A 
ATOM     24  H   UNL     1      -7.942  56.121  51.355  0.00  0.00    +0.000 HD
ATOM     25  H   UNL     1     -10.656  53.362  52.398  0.00  0.00    +0.000 HD
ENDBRANCH   1  17
BRANCH   3  26
ATOM     26  O   UNL     1     -11.922  55.829  52.271  0.00  0.00    +0.000 OA
ATOM     27  H   UNL     1     -11.362  55.673  53.006  0.00  0.00    +0.000 HD
ENDBRANCH   3  26
BRANCH   5  28
ATOM     28  N   UNL     1     -10.254  55.501  46.880  0.00  0.00    +0.000 N 
ATOM     29  H   UNL     1      -9.929  56.289  46.385  0.00  0.00    +0.000 HD
BRANCH  28  30
ATOM     30  C   UNL     1     -10.377  54.166  46.270  0.00  0.00    +0.000 C 
BRANCH  30  31
ATOM     31  C   UNL     1      -9.059  53.675  45.648  0.00  0.00    +0.000 C 
ATOM     32  C   UNL     1      -9.335  53.099  44.253  0.00  0.00    +0.000 C 
ATOM     33  C   UNL     1      -8.018  54.787  45.559  0.00  0.00    +0.000 C 
ENDBRANCH  30  31
ENDBRANCH  28  30
ENDBRANCH   5  28
TORSDOF 5
ENDMDL
MODEL 8
REMARK VINA RESULT:      -7.8      3.980      5.444
REMARK  Name = 
REMARK  7 active torsions:
REMARK  status: ('A' for Active; 'I' for Inactive)
REMARK    1  A    between atoms: C_6  and  C_10
REMARK    2  A    between atoms: C_14  and  O_18
REMARK    3  A    between atoms: N_17  and  N_20
REMARK    4  A    between atoms: N_20  and  C_23
REMARK    5  A    between atoms: C_23  and  C_26
REMARK    6  A    between atoms: C_26  and  C_28
REMARK    7  A    between atoms: C_26  and  C_29
REMARK                            x       y       z     vdW  Elec       q    Type
REMARK                         _______ _______ _______ _____ _____    ______ ____
ROOT
ATOM      1  C   UNL     1     -10.672  55.685  48.206  0.00  0.00    +0.000 A 
ATOM      2  C   UNL     1      -9.216  55.782  48.510  0.00  0.00    +0.000 A 
ATOM      3  C   UNL     1     -11.098  55.031  47.113  0.00  0.00    +0.000 A 
ATOM      4  O   UNL     1      -8.887  56.437  49.505  0.00  0.00    +0.000 OA
ATOM      5  N   UNL     1      -8.321  55.106  47.677  0.00  0.00    +0.000 N 
ATOM      6  C   UNL     1     -10.138  54.364  46.220  0.00  0.00    +0.000 A 
ATOM      7  C   UNL     1      -8.763  54.413  46.510  0.00  0.00    +0.000 A 
ATOM      8  C   UNL     1     -10.583  53.661  45.087  0.00  0.00    +0.000 A 
ATOM      9  C   UNL     1      -7.860  53.773  45.644  0.00  0.00    +0.000 A 
ATOM     10  C   UNL     1      -9.680  53.011  44.248  0.00  0.00    +0.000 A 
ATOM     11  C   UNL     1      -8.318  53.073  44.522  0.00  0.00    +0.000 A 
ENDROOT
BRANCH   1  17
ATOM     12  S   UNL     1     -13.132  56.022  51.253  0.00  0.00    +0.000 S 
ATOM     13  O   UNL     1     -12.438  56.231  52.506  0.00  0.00    +0.000 OA
ATOM     14  O   UNL     1     -14.272  55.131  51.183  0.00  0.00    +0.000 OA
ATOM     15  N   UNL     1     -12.038  55.513  50.168  0.00  0.00    +0.000 N 
ATOM     16  C   UNL     1     -13.717  57.597  50.751  0.00  0.00    +0.000 A 
ATOM     17  C   UNL     1     -11.654  56.285  49.194  0.00  0.00    +0.000 C 
ATOM     18  C   UNL     1     -13.117  58.195  49.654  0.00  0.00    +0.000 A 
ATOM     19  C   UNL     1     -14.769  58.204  51.441  0.00  0.00    +0.000 A 
ATOM     20  N   UNL     1     -12.062  57.583  48.982  0.00  0.00    +0.000 N 
ATOM     21  C   UNL     1     -13.538  59.478  49.288  0.00  0.00    +0.000 A 
ATOM     22  C   UNL     1     -15.205  59.466  51.042  0.00  0.00    +0.000 A 
ATOM     23  C   UNL     1     -14.582  60.106  49.971  0.00  0.00    +0.000 A 
ATOM     24  H   UNL     1     -11.660  54.607  50.248  0.00  0.00    +0.000 HD
ATOM     25  H   UNL     1     -11.575  58.115  48.310  0.00  0.00    +0.000 HD
ENDBRANCH   1  17
BRANCH   3  26
ATOM     26  O   UNL     1     -12.427  54.897  46.754  0.00  0.00    +0.000 OA
ATOM     27  H   UNL     1     -12.910  54.139  47.019  0.00  0.00    +0.000 HD
ENDBRANCH   3  26
BRANCH   5  28
ATOM     28  N   UNL     1      -6.905  55.171  47.933  0.00  0.00    +0.000 N 
ATOM     29  H   UNL     1      -6.277  55.663  47.355  0.00  0.00    +0.000 HD
BRANCH  28  30
ATOM     30  C   UNL     1      -6.480  54.434  49.136  0.00  0.00    +0.000 C 
BRANCH  30  31
ATOM     31  C   UNL     1      -5.648  53.184  48.802  0.00  0.00    +0.000 C 
ATOM     32  C   UNL     1      -6.584  51.987  48.595  0.00  0.00    +0.000 C 
ATOM     33  C   UNL     1      -4.778  53.389  47.564  0.00  0.00    +0.000 C 
ENDBRANCH  30  31
ENDBRANCH  28  30
ENDBRANCH   5  28
TORSDOF 5
ENDMDL
MODEL 9
REMARK VINA RESULT:      -7.7      4.372      5.612
REMARK  Name = 
REMARK  7 active torsions:
REMARK  status: ('A' for Active; 'I' for Inactive)
REMARK    1  A    between atoms: C_6  and  C_10
REMARK    2  A    between atoms: C_14  and  O_18
REMARK    3  A    between atoms: N_17  and  N_20
REMARK    4  A    between atoms: N_20  and  C_23
REMARK    5  A    between atoms: C_23  and  C_26
REMARK    6  A    between atoms: C_26  and  C_28
REMARK    7  A    between atoms: C_26  and  C_29
REMARK                            x       y       z     vdW  Elec       q    Type
REMARK                         _______ _______ _______ _____ _____    ______ ____
ROOT
ATOM      1  C   UNL     1     -12.446  54.375  49.603  0.00  0.00    +0.000 A 
ATOM      2  C   UNL     1     -11.832  54.420  48.246  0.00  0.00    +0.000 A 
ATOM      3  C   UNL     1     -12.220  53.334  50.420  0.00  0.00    +0.000 A 
ATOM      4  O   UNL     1     -12.118  55.382  47.525  0.00  0.00    +0.000 OA
ATOM      5  N   UNL     1     -10.952  53.396  47.885  0.00  0.00    +0.000 N 
ATOM      6  C   UNL     1     -11.327  52.240  50.006  0.00  0.00    +0.000 A 
ATOM      7  C   UNL     1     -10.708  52.282  48.744  0.00  0.00    +0.000 A 
ATOM      8  C   UNL     1     -11.070  51.160  50.868  0.00  0.00    +0.000 A 
ATOM      9  C   UNL     1      -9.861  51.227  48.365  0.00  0.00    +0.000 A 
ATOM     10  C   UNL     1     -10.211  50.131  50.489  0.00  0.00    +0.000 A 
ATOM     11  C   UNL     1      -9.612  50.161  49.235  0.00  0.00    +0.000 A 
ENDROOT
BRANCH   1  17
ATOM     12  S   UNL     1     -15.385  56.468  51.161  0.00  0.00    +0.000 S 
ATOM     13  O   UNL     1     -15.306  56.548  52.604  0.00  0.00    +0.000 OA
ATOM     14  O   UNL     1     -16.660  56.262  50.505  0.00  0.00    +0.000 OA
ATOM     15  N   UNL     1     -14.383  55.286  50.681  0.00  0.00    +0.000 N 
ATOM     16  C   UNL     1     -14.770  57.994  50.554  0.00  0.00    +0.000 A 
ATOM     17  C   UNL     1     -13.276  55.561  50.055  0.00  0.00    +0.000 C 
ATOM     18  C   UNL     1     -13.543  57.991  49.910  0.00  0.00    +0.000 A 
ATOM     19  C   UNL     1     -15.520  59.163  50.713  0.00  0.00    +0.000 A 
ATOM     20  N   UNL     1     -12.802  56.821  49.768  0.00  0.00    +0.000 N 
ATOM     21  C   UNL     1     -13.020  59.215  49.479  0.00  0.00    +0.000 A 
ATOM     22  C   UNL     1     -15.004  60.369  50.245  0.00  0.00    +0.000 A 
ATOM     23  C   UNL     1     -13.750  60.396  49.636  0.00  0.00    +0.000 A 
ATOM     24  H   UNL     1     -14.617  54.347  50.866  0.00  0.00    +0.000 HD
ATOM     25  H   UNL     1     -11.877  56.901  49.440  0.00  0.00    +0.000 HD
ENDBRANCH   1  17
BRANCH   3  26
ATOM     26  O   UNL     1     -12.753  53.210  51.691  0.00  0.00    +0.000 OA
ATOM     27  H   UNL     1     -12.194  53.268  52.441  0.00  0.00    +0.000 HD
ENDBRANCH   3  26
BRANCH   5  28
ATOM     28  N   UNL     1     -10.333  53.399  46.585  0.00  0.00    +0.000 N 
ATOM     29  H   UNL     1      -9.407  53.697  46.431  0.00  0.00    +0.000 HD
BRANCH  28  30
ATOM     30  C   UNL     1     -11.210  52.916  45.504  0.00  0.00    +0.000 C 
BRANCH  30  31
ATOM     31  C   UNL     1     -10.553  51.814  44.656  0.00  0.00    +0.000 C 
ATOM     32  C   UNL     1     -11.494  50.606  44.569  0.00  0.00    +0.000 C 
ATOM     33  C   UNL     1     -10.199  52.304  43.255  0.00  0.00    +0.000 C 
ENDBRANCH  30  31
ENDBRANCH  28  30
ENDBRANCH   5  28
TORSDOF 5
ENDMDL
