MODEL 1
REMARK VINA RESULT:      -9.7      0.000      0.000
REMARK  Name = 
REMARK  6 active torsions:
REMARK  status: ('A' for Active; 'I' for Inactive)
REMARK    1  A    between atoms: C_6  and  C_10
REMARK    2  A    between atoms: C_14  and  O_18
REMARK    3  A    between atoms: N_17  and  N_20
REMARK    4  A    between atoms: N_20  and  C_23
REMARK    5  A    between atoms: C_23  and  C_26
REMARK    6  A    between atoms: C_28  and  C_31
REMARK                            x       y       z     vdW  Elec       q    Type
REMARK                         _______ _______ _______ _____ _____    ______ ____
ROOT
ATOM      1  C   UNL     1      -9.082  54.705  50.102  0.00  0.00    +0.000 A 
ATOM      2  C   UNL     1     -10.456  55.235  50.350  0.00  0.00    +0.000 A 
ATOM      3  C   UNL     1      -8.738  54.242  48.888  0.00  0.00    +0.000 A 
ATOM      4  O   UNL     1     -10.684  55.671  51.482  0.00  0.00    +0.000 OA
ATOM      5  N   UNL     1     -11.373  55.220  49.291  0.00  0.00    +0.000 N 
ATOM      6  C   UNL     1      -9.691  54.290  47.773  0.00  0.00    +0.000 A 
ATOM      7  C   UNL     1     -10.991  54.781  47.984  0.00  0.00    +0.000 A 
ATOM      8  C   UNL     1      -9.314  53.868  46.486  0.00  0.00    +0.000 A 
ATOM      9  C   UNL     1     -11.881  54.842  46.896  0.00  0.00    +0.000 A 
ATOM     10  C   UNL     1     -10.204  53.939  45.416  0.00  0.00    +0.000 A 
ATOM     11  C   UNL     1     -11.488  54.427  45.621  0.00  0.00    +0.000 A 
ENDROOT
BRANCH   1  17
ATOM     12  S   UNL     1      -7.207  55.867  53.355  0.00  0.00    +0.000 S 
ATOM     13  O   UNL     1      -7.871  55.417  54.562  0.00  0.00    +0.000 OA
ATOM     14  O   UNL     1      -6.657  57.207  53.275  0.00  0.00    +0.000 OA
ATOM     15  N   UNL     1      -8.246  55.684  52.125  0.00  0.00    +0.000 N 
ATOM     16  C   UNL     1      -5.855  54.775  53.104  0.00  0.00    +0.000 A 
ATOM     17  C   UNL     1      -8.074  54.751  51.237  0.00  0.00    +0.000 C 
ATOM     18  C   UNL     1      -5.935  53.876  52.055  0.00  0.00    +0.000 A 
ATOM     19  C   UNL     1      -4.740  54.837  53.944  0.00  0.00    +0.000 A 
ATOM     20  N   UNL     1      -7.060  53.816  51.236  0.00  0.00    +0.000 N 
ATOM     21  C   UNL     1      -4.891  52.960  51.887  0.00  0.00    +0.000 A 
ATOM     22  C   UNL     1      -3.691  53.943  53.744  0.00  0.00    +0.000 A 
ATOM     23  C   UNL     1      -3.770  52.998  52.722  0.00  0.00    +0.000 A 
ATOM     24  H   UNL     1      -9.018  56.290  52.049  0.00  0.00    +0.000 HD
ATOM     25  H   UNL     1      -7.135  53.056  50.615  0.00  0.00    +0.000 HD
ENDBRANCH   1  17
BRANCH   3  26
ATOM     26  O   UNL     1      -7.492  53.729  48.572  0.00  0.00    +0.000 OA
ATOM     27  H   UNL     1      -6.828  54.292  48.227  0.00  0.00    +0.000 HD
ENDBRANCH   3  26
BRANCH   5  28
ATOM     28  N   UNL     1     -12.740  55.649  49.453  0.00  0.00    +0.000 N 
ATOM     29  H   UNL     1     -13.465  55.000  49.600  0.00  0.00    +0.000 HD
BRANCH  28  30
ATOM     30  C   UNL     1     -13.008  57.090  49.388  0.00  0.00    +0.000 C 
BRANCH  30  31
ATOM     31  C   UNL     1     -13.800  57.567  50.587  0.00  0.00    +0.000 A 
ATOM     32  C   UNL     1     -14.115  58.926  50.795  0.00  0.00    +0.000 A 
ATOM     33  C   UNL     1     -14.207  56.616  51.544  0.00  0.00    +0.000 A 
ATOM     34  C   UNL     1     -14.836  59.291  51.945  0.00  0.00    +0.000 A 
ATOM     35  C   UNL     1     -13.709  60.024  49.849  0.00  0.00    +0.000 C 
ATOM     36  C   UNL     1     -14.919  56.997  52.680  0.00  0.00    +0.000 A 
ATOM     37  C   UNL     1     -15.236  58.336  52.878  0.00  0.00    +0.000 A 
ENDBRANCH  30  31
ENDBRANCH  28  30
ENDBRANCH   5  28
TORSDOF 5
ENDMDL
MODEL 2
REMARK VINA RESULT:      -9.6      1.763      1.852
REMARK  Name = 
REMARK  6 active torsions:
REMARK  status: ('A' for Active; 'I' for Inactive)
REMARK    1  A    between atoms: C_6  and  C_10
REMARK    2  A    between atoms: C_14  and  O_18
REMARK    3  A    between atoms: N_17  and  N_20
REMARK    4  A    between atoms: N_20  and  C_23
REMARK    5  A    between atoms: C_23  and  C_26
REMARK    6  A    between atoms: C_28  and  C_31
REMARK                            x       y       z     vdW  Elec       q    Type
REMARK                         _______ _______ _______ _____ _____    ______ ____
ROOT
ATOM      1  C   UNL     1      -9.642  54.159  50.185  0.00  0.00    +0.000 A 
ATOM      2  C   UNL     1     -10.948  54.864  50.354  0.00  0.00    +0.000 A 
ATOM      3  C   UNL     1      -9.245  53.740  48.971  0.00  0.00    +0.000 A 
ATOM      4  O   UNL     1     -11.226  55.246  51.493  0.00  0.00    +0.000 OA
ATOM      5  N   UNL     1     -11.748  55.058  49.219  0.00  0.00    +0.000 N 
ATOM      6  C   UNL     1     -10.066  54.005  47.783  0.00  0.00    +0.000 A 
ATOM      7  C   UNL     1     -11.301  54.663  47.919  0.00  0.00    +0.000 A 
ATOM      8  C   UNL     1      -9.623  53.626  46.504  0.00  0.00    +0.000 A 
ATOM      9  C   UNL     1     -12.061  54.929  46.765  0.00  0.00    +0.000 A 
ATOM     10  C   UNL     1     -10.383  53.901  45.369  0.00  0.00    +0.000 A 
ATOM     11  C   UNL     1     -11.602  54.555  45.500  0.00  0.00    +0.000 A 
ENDROOT
BRANCH   1  17
ATOM     12  S   UNL     1      -6.672  54.626  52.716  0.00  0.00    +0.000 S 
ATOM     13  O   UNL     1      -6.864  55.771  53.583  0.00  0.00    +0.000 OA
ATOM     14  O   UNL     1      -5.365  54.342  52.155  0.00  0.00    +0.000 OA
ATOM     15  N   UNL     1      -7.719  54.758  51.487  0.00  0.00    +0.000 N 
ATOM     16  C   UNL     1      -7.107  53.215  53.666  0.00  0.00    +0.000 A 
ATOM     17  C   UNL     1      -8.756  53.978  51.404  0.00  0.00    +0.000 C 
ATOM     18  C   UNL     1      -8.281  52.555  53.343  0.00  0.00    +0.000 A 
ATOM     19  C   UNL     1      -6.275  52.784  54.702  0.00  0.00    +0.000 A 
ATOM     20  N   UNL     1      -9.107  53.006  52.317  0.00  0.00    +0.000 N 
ATOM     21  C   UNL     1      -8.667  51.468  54.134  0.00  0.00    +0.000 A 
ATOM     22  C   UNL     1      -6.653  51.678  55.459  0.00  0.00    +0.000 A 
ATOM     23  C   UNL     1      -7.854  51.026  55.182  0.00  0.00    +0.000 A 
ATOM     24  H   UNL     1      -7.568  55.439  50.793  0.00  0.00    +0.000 HD
ATOM     25  H   UNL     1     -10.002  52.603  52.239  0.00  0.00    +0.000 HD
ENDBRANCH   1  17
BRANCH   3  26
ATOM     26  O   UNL     1      -8.056  53.076  48.725  0.00  0.00    +0.000 OA
ATOM     27  H   UNL     1      -8.058  52.279  48.231  0.00  0.00    +0.000 HD
ENDBRANCH   3  26
BRANCH   5  28
ATOM     28  N   UNL     1     -13.052  55.667  49.295  0.00  0.00    +0.000 N 
ATOM     29  H   UNL     1     -13.872  55.121  49.303  0.00  0.00    +0.000 HD
BRANCH  28  30
ATOM     30  C   UNL     1     -13.111  57.132  49.356  0.00  0.00    +0.000 C 
BRANCH  30  31
ATOM     31  C   UNL     1     -13.871  57.611  50.575  0.00  0.00    +0.000 A 
ATOM     32  C   UNL     1     -14.119  58.978  50.824  0.00  0.00    +0.000 A 
ATOM     33  C   UNL     1     -14.315  56.655  51.509  0.00  0.00    +0.000 A 
ATOM     34  C   UNL     1     -14.814  59.344  51.989  0.00  0.00    +0.000 A 
ATOM     35  C   UNL     1     -13.669  60.082  49.904  0.00  0.00    +0.000 C 
ATOM     36  C   UNL     1     -14.999  57.037  52.661  0.00  0.00    +0.000 A 
ATOM     37  C   UNL     1     -15.251  58.382  52.899  0.00  0.00    +0.000 A 
ENDBRANCH  30  31
ENDBRANCH  28  30
ENDBRANCH   5  28
TORSDOF 5
ENDMDL
MODEL 3
REMARK VINA RESULT:      -9.5      2.797      7.883
REMARK  Name = 
REMARK  6 active torsions:
REMARK  status: ('A' for Active; 'I' for Inactive)
REMARK    1  A    between atoms: C_6  and  C_10
REMARK    2  A    between atoms: C_14  and  O_18
REMARK    3  A    between atoms: N_17  and  N_20
REMARK    4  A    between atoms: N_20  and  C_23
REMARK    5  A    between atoms: C_23  and  C_26
REMARK    6  A    between atoms: C_28  and  C_31
REMARK                            x       y       z     vdW  Elec       q    Type
REMARK                         _______ _______ _______ _____ _____    ______ ____
ROOT
ATOM      1  C   UNL     1     -11.168  54.607  50.763  0.00  0.00    +0.000 A 
ATOM      2  C   UNL     1      -9.800  55.002  50.313  0.00  0.00    +0.000 A 
ATOM      3  C   UNL     1     -11.395  53.380  51.263  0.00  0.00    +0.000 A 
ATOM      4  O   UNL     1      -9.667  56.155  49.895  0.00  0.00    +0.000 OA
ATOM      5  N   UNL     1      -8.771  54.055  50.411  0.00  0.00    +0.000 N 
ATOM      6  C   UNL     1     -10.294  52.421  51.418  0.00  0.00    +0.000 A 
ATOM      7  C   UNL     1      -8.998  52.769  50.997  0.00  0.00    +0.000 A 
ATOM      8  C   UNL     1     -10.514  51.161  52.001  0.00  0.00    +0.000 A 
ATOM      9  C   UNL     1      -7.953  51.845  51.176  0.00  0.00    +0.000 A 
ATOM     10  C   UNL     1      -9.468  50.258  52.178  0.00  0.00    +0.000 A 
ATOM     11  C   UNL     1      -8.186  50.600  51.767  0.00  0.00    +0.000 A 
ENDROOT
BRANCH   1  17
ATOM     12  S   UNL     1     -13.695  57.243  49.308  0.00  0.00    +0.000 S 
ATOM     13  O   UNL     1     -14.848  56.616  48.694  0.00  0.00    +0.000 OA
ATOM     14  O   UNL     1     -13.061  58.388  48.683  0.00  0.00    +0.000 OA
ATOM     15  N   UNL     1     -12.563  56.100  49.508  0.00  0.00    +0.000 N 
ATOM     16  C   UNL     1     -14.219  57.786  50.893  0.00  0.00    +0.000 A 
ATOM     17  C   UNL     1     -12.279  55.640  50.690  0.00  0.00    +0.000 C 
ATOM     18  C   UNL     1     -13.740  57.108  52.001  0.00  0.00    +0.000 A 
ATOM     19  C   UNL     1     -15.085  58.876  51.008  0.00  0.00    +0.000 A 
ATOM     20  N   UNL     1     -12.889  56.013  51.869  0.00  0.00    +0.000 N 
ATOM     21  C   UNL     1     -14.202  57.494  53.264  0.00  0.00    +0.000 A 
ATOM     22  C   UNL     1     -15.509  59.274  52.274  0.00  0.00    +0.000 A 
ATOM     23  C   UNL     1     -15.076  58.576  53.401  0.00  0.00    +0.000 A 
ATOM     24  H   UNL     1     -12.084  55.750  48.723  0.00  0.00    +0.000 HD
ATOM     25  H   UNL     1     -12.712  55.471  52.671  0.00  0.00    +0.000 HD
ENDBRANCH   1  17
BRANCH   3  26
ATOM     26  O   UNL     1     -12.629  52.930  51.698  0.00  0.00    +0.000 OA
ATOM     27  H   UNL     1     -12.681  52.203  52.288  0.00  0.00    +0.000 HD
ENDBRANCH   3  26
BRANCH   5  28
ATOM     28  N   UNL     1      -7.435  54.321  49.941  0.00  0.00    +0.000 N 
ATOM     29  H   UNL     1      -7.048  53.817  49.189  0.00  0.00    +0.000 HD
BRANCH  28  30
ATOM     30  C   UNL     1      -6.674  55.371  50.626  0.00  0.00    +0.000 C 
BRANCH  30  31
ATOM     31  C   UNL     1      -6.390  55.007  52.069  0.00  0.00    +0.000 A 
ATOM     32  C   UNL     1      -5.285  54.215  52.446  0.00  0.00    +0.000 A 
ATOM     33  C   UNL     1      -7.285  55.452  53.062  0.00  0.00    +0.000 A 
ATOM     34  C   UNL     1      -5.102  53.903  53.804  0.00  0.00    +0.000 A 
ATOM     35  C   UNL     1      -4.283  53.669  51.464  0.00  0.00    +0.000 C 
ATOM     36  C   UNL     1      -7.089  55.130  54.404  0.00  0.00    +0.000 A 
ATOM     37  C   UNL     1      -5.995  54.357  54.774  0.00  0.00    +0.000 A 
ENDBRANCH  30  31
ENDBRANCH  28  30
ENDBRANCH   5  28
TORSDOF 5
ENDMDL
MODEL 4
REMARK VINA RESULT:      -9.5      2.887      8.666
REMARK  Name = 
REMARK  6 active torsions:
REMARK  status: ('A' for Active; 'I' for Inactive)
REMARK    1  A    between atoms: C_6  and  C_10
REMARK    2  A    between atoms: C_14  and  O_18
REMARK    3  A    between atoms: N_17  and  N_20
REMARK    4  A    between atoms: N_20  and  C_23
REMARK    5  A    between atoms: C_23  and  C_26
REMARK    6  A    between atoms: C_28  and  C_31
REMARK                            x       y       z     vdW  Elec       q    Type
REMARK                         _______ _______ _______ _____ _____    ______ ____
ROOT
ATOM      1  C   UNL     1     -10.089  54.580  52.158  0.00  0.00    +0.000 A 
ATOM      2  C   UNL     1      -8.732  55.162  51.930  0.00  0.00    +0.000 A 
ATOM      3  C   UNL     1     -10.240  53.477  52.910  0.00  0.00    +0.000 A 
ATOM      4  O   UNL     1      -8.680  56.192  51.254  0.00  0.00    +0.000 OA
ATOM      5  N   UNL     1      -7.629  54.517  52.507  0.00  0.00    +0.000 N 
ATOM      6  C   UNL     1      -9.082  52.849  53.559  0.00  0.00    +0.000 A 
ATOM      7  C   UNL     1      -7.795  53.377  53.355  0.00  0.00    +0.000 A 
ATOM      8  C   UNL     1      -9.246  51.734  54.400  0.00  0.00    +0.000 A 
ATOM      9  C   UNL     1      -6.702  52.776  54.005  0.00  0.00    +0.000 A 
ATOM     10  C   UNL     1      -8.154  51.152  55.042  0.00  0.00    +0.000 A 
ATOM     11  C   UNL     1      -6.882  51.674  54.846  0.00  0.00    +0.000 A 
ENDROOT
BRANCH   1  17
ATOM     12  S   UNL     1     -12.588  56.067  49.514  0.00  0.00    +0.000 S 
ATOM     13  O   UNL     1     -13.487  55.062  48.983  0.00  0.00    +0.000 OA
ATOM     14  O   UNL     1     -12.001  57.063  48.638  0.00  0.00    +0.000 OA
ATOM     15  N   UNL     1     -11.378  55.295  50.267  0.00  0.00    +0.000 N 
ATOM     16  C   UNL     1     -13.507  56.960  50.714  0.00  0.00    +0.000 A 
ATOM     17  C   UNL     1     -11.290  55.293  51.564  0.00  0.00    +0.000 C 
ATOM     18  C   UNL     1     -13.184  56.772  52.047  0.00  0.00    +0.000 A 
ATOM     19  C   UNL     1     -14.519  57.835  50.312  0.00  0.00    +0.000 A 
ATOM     20  N   UNL     1     -12.182  55.885  52.433  0.00  0.00    +0.000 N 
ATOM     21  C   UNL     1     -13.953  57.432  53.013  0.00  0.00    +0.000 A 
ATOM     22  C   UNL     1     -15.253  58.513  51.282  0.00  0.00    +0.000 A 
ATOM     23  C   UNL     1     -14.977  58.304  52.633  0.00  0.00    +0.000 A 
ATOM     24  H   UNL     1     -10.700  54.822  49.734  0.00  0.00    +0.000 HD
ATOM     25  H   UNL     1     -12.107  55.667  53.390  0.00  0.00    +0.000 HD
ENDBRANCH   1  17
BRANCH   3  26
ATOM     26  O   UNL     1     -11.456  52.869  53.168  0.00  0.00    +0.000 OA
ATOM     27  H   UNL     1     -12.148  53.357  53.572  0.00  0.00    +0.000 HD
ENDBRANCH   3  26
BRANCH   5  28
ATOM     28  N   UNL     1      -6.277  54.966  52.288  0.00  0.00    +0.000 N 
ATOM     29  H   UNL     1      -5.780  55.452  52.985  0.00  0.00    +0.000 HD
BRANCH  28  30
ATOM     30  C   UNL     1      -5.670  54.672  50.984  0.00  0.00    +0.000 C 
BRANCH  30  31
ATOM     31  C   UNL     1      -5.118  53.263  50.928  0.00  0.00    +0.000 A 
ATOM     32  C   UNL     1      -5.836  52.190  50.360  0.00  0.00    +0.000 A 
ATOM     33  C   UNL     1      -3.852  53.016  51.496  0.00  0.00    +0.000 A 
ATOM     34  C   UNL     1      -5.262  50.907  50.366  0.00  0.00    +0.000 A 
ATOM     35  C   UNL     1      -7.203  52.340  49.749  0.00  0.00    +0.000 C 
ATOM     36  C   UNL     1      -3.300  51.736  51.495  0.00  0.00    +0.000 A 
ATOM     37  C   UNL     1      -4.005  50.682  50.926  0.00  0.00    +0.000 A 
ENDBRANCH  30  31
ENDBRANCH  28  30
ENDBRANCH   5  28
TORSDOF 5
ENDMDL
MODEL 5
REMARK VINA RESULT:      -9.5      2.492      7.467
REMARK  Name = 
REMARK  6 active torsions:
REMARK  status: ('A' for Active; 'I' for Inactive)
REMARK    1  A    between atoms: C_6  and  C_10
REMARK    2  A    between atoms: C_14  and  O_18
REMARK    3  A    between atoms: N_17  and  N_20
REMARK    4  A    between atoms: N_20  and  C_23
REMARK    5  A    between atoms: C_23  and  C_26
REMARK    6  A    between atoms: C_28  and  C_31
REMARK                            x       y       z     vdW  Elec       q    Type
REMARK                         _______ _______ _______ _____ _____    ______ ____
ROOT
ATOM      1  C   UNL     1     -11.352  56.031  48.817  0.00  0.00    +0.000 A 
ATOM      2  C   UNL     1     -10.267  55.496  49.695  0.00  0.00    +0.000 A 
ATOM      3  C   UNL     1     -11.441  55.646  47.532  0.00  0.00    +0.000 A 
ATOM      4  O   UNL     1     -10.272  55.873  50.869  0.00  0.00    +0.000 OA
ATOM      5  N   UNL     1      -9.344  54.602  49.137  0.00  0.00    +0.000 N 
ATOM      6  C   UNL     1     -10.503  54.661  46.980  0.00  0.00    +0.000 A 
ATOM      7  C   UNL     1      -9.472  54.148  47.786  0.00  0.00    +0.000 A 
ATOM      8  C   UNL     1     -10.634  54.208  45.655  0.00  0.00    +0.000 A 
ATOM      9  C   UNL     1      -8.599  53.187  47.245  0.00  0.00    +0.000 A 
ATOM     10  C   UNL     1      -9.765  53.251  45.134  0.00  0.00    +0.000 A 
ATOM     11  C   UNL     1      -8.748  52.739  45.930  0.00  0.00    +0.000 A 
ENDROOT
BRANCH   1  17
ATOM     12  S   UNL     1     -13.552  59.231  49.420  0.00  0.00    +0.000 S 
ATOM     13  O   UNL     1     -14.691  59.290  48.527  0.00  0.00    +0.000 OA
ATOM     14  O   UNL     1     -12.787  60.428  49.715  0.00  0.00    +0.000 OA
ATOM     15  N   UNL     1     -12.526  58.122  48.835  0.00  0.00    +0.000 N 
ATOM     16  C   UNL     1     -14.167  58.659  50.961  0.00  0.00    +0.000 A 
ATOM     17  C   UNL     1     -12.375  56.973  49.425  0.00  0.00    +0.000 C 
ATOM     18  C   UNL     1     -13.832  57.375  51.355  0.00  0.00    +0.000 A 
ATOM     19  C   UNL     1     -14.959  59.495  51.752  0.00  0.00    +0.000 A 
ATOM     20  N   UNL     1     -13.054  56.549  50.548  0.00  0.00    +0.000 N 
ATOM     21  C   UNL     1     -14.370  56.889  52.551  0.00  0.00    +0.000 A 
ATOM     22  C   UNL     1     -15.459  59.011  52.959  0.00  0.00    +0.000 A 
ATOM     23  C   UNL     1     -15.173  57.704  53.354  0.00  0.00    +0.000 A 
ATOM     24  H   UNL     1     -12.008  58.321  48.022  0.00  0.00    +0.000 HD
ATOM     25  H   UNL     1     -12.985  55.599  50.796  0.00  0.00    +0.000 HD
ENDBRANCH   1  17
BRANCH   3  26
ATOM     26  O   UNL     1     -12.407  56.094  46.649  0.00  0.00    +0.000 OA
ATOM     27  H   UNL     1     -13.310  55.895  46.802  0.00  0.00    +0.000 HD
ENDBRANCH   3  26
BRANCH   5  28
ATOM     28  N   UNL     1      -8.226  54.086  49.886  0.00  0.00    +0.000 N 
ATOM     29  H   UNL     1      -8.259  53.196  50.306  0.00  0.00    +0.000 HD
BRANCH  28  30
ATOM     30  C   UNL     1      -7.038  54.940  50.002  0.00  0.00    +0.000 C 
BRANCH  30  31
ATOM     31  C   UNL     1      -6.503  54.965  51.419  0.00  0.00    +0.000 A 
ATOM     32  C   UNL     1      -5.298  54.328  51.784  0.00  0.00    +0.000 A 
ATOM     33  C   UNL     1      -7.257  55.624  52.410  0.00  0.00    +0.000 A 
ATOM     34  C   UNL     1      -4.879  54.380  53.125  0.00  0.00    +0.000 A 
ATOM     35  C   UNL     1      -4.429  53.577  50.810  0.00  0.00    +0.000 C 
ATOM     36  C   UNL     1      -6.826  55.662  53.735  0.00  0.00    +0.000 A 
ATOM     37  C   UNL     1      -5.635  55.042  54.091  0.00  0.00    +0.000 A 
ENDBRANCH  30  31
ENDBRANCH  28  30
ENDBRANCH   5  28
TORSDOF 5
ENDMDL
MODEL 6
REMARK VINA RESULT:      -9.4      3.083      7.893
REMARK  Name = 
REMARK  6 active torsions:
REMARK  status: ('A' for Active; 'I' for Inactive)
REMARK    1  A    between atoms: C_6  and  C_10
REMARK    2  A    between atoms: C_14  and  O_18
REMARK    3  A    between atoms: N_17  and  N_20
REMARK    4  A    between atoms: N_20  and  C_23
REMARK    5  A    between atoms: C_23  and  C_26
REMARK    6  A    between atoms: C_28  and  C_31
REMARK                            x       y       z     vdW  Elec       q    Type
REMARK                         _______ _______ _______ _____ _____    ______ ____
ROOT
ATOM      1  C   UNL     1     -11.401  54.064  51.525  0.00  0.00    +0.000 A 
ATOM      2  C   UNL     1     -10.429  54.250  52.645  0.00  0.00    +0.000 A 
ATOM      3  C   UNL     1     -11.513  52.875  50.910  0.00  0.00    +0.000 A 
ATOM      4  O   UNL     1     -10.407  55.361  53.179  0.00  0.00    +0.000 OA
ATOM      5  N   UNL     1      -9.633  53.158  53.019  0.00  0.00    +0.000 N 
ATOM      6  C   UNL     1     -10.716  51.725  51.355  0.00  0.00    +0.000 A 
ATOM      7  C   UNL     1      -9.792  51.877  52.402  0.00  0.00    +0.000 A 
ATOM      8  C   UNL     1     -10.879  50.463  50.756  0.00  0.00    +0.000 A 
ATOM      9  C   UNL     1      -9.056  50.756  52.829  0.00  0.00    +0.000 A 
ATOM     10  C   UNL     1     -10.148  49.360  51.193  0.00  0.00    +0.000 A 
ATOM     11  C   UNL     1      -9.237  49.507  52.231  0.00  0.00    +0.000 A 
ENDROOT
BRANCH   1  17
ATOM     12  S   UNL     1     -13.070  56.909  49.388  0.00  0.00    +0.000 S 
ATOM     13  O   UNL     1     -14.124  56.405  48.531  0.00  0.00    +0.000 OA
ATOM     14  O   UNL     1     -12.138  57.905  48.897  0.00  0.00    +0.000 OA
ATOM     15  N   UNL     1     -12.208  55.638  49.907  0.00  0.00    +0.000 N 
ATOM     16  C   UNL     1     -13.870  57.637  50.771  0.00  0.00    +0.000 A 
ATOM     17  C   UNL     1     -12.290  55.233  51.140  0.00  0.00    +0.000 C 
ATOM     18  C   UNL     1     -13.780  56.984  51.989  0.00  0.00    +0.000 A 
ATOM     19  C   UNL     1     -14.561  58.842  50.626  0.00  0.00    +0.000 A 
ATOM     20  N   UNL     1     -13.101  55.775  52.114  0.00  0.00    +0.000 N 
ATOM     21  C   UNL     1     -14.467  57.524  53.081  0.00  0.00    +0.000 A 
ATOM     22  C   UNL     1     -15.211  59.388  51.730  0.00  0.00    +0.000 A 
ATOM     23  C   UNL     1     -15.173  58.724  52.955  0.00  0.00    +0.000 A 
ATOM     24  H   UNL     1     -11.614  55.168  49.280  0.00  0.00    +0.000 HD
ATOM     25  H   UNL     1     -13.206  55.275  52.955  0.00  0.00    +0.000 HD
ENDBRANCH   1  17
BRANCH   3  26
ATOM     26  O   UNL     1     -12.381  52.617  49.864  0.00  0.00    +0.000 OA
ATOM     27  H   UNL     1     -12.044  52.365  49.026  0.00  0.00    +0.000 HD
ENDBRANCH   3  26
BRANCH   5  28
ATOM     28  N   UNL     1      -8.621  53.260  54.041  0.00  0.00    +0.000 N 
ATOM     29  H   UNL     1      -8.629  52.669  54.828  0.00  0.00    +0.000 HD
BRANCH  28  30
ATOM     30  C   UNL     1      -7.583  54.281  53.864  0.00  0.00    +0.000 C 
BRANCH  30  31
ATOM     31  C   UNL     1      -6.725  54.003  52.648  0.00  0.00    +0.000 A 
ATOM     32  C   UNL     1      -6.673  54.877  51.542  0.00  0.00    +0.000 A 
ATOM     33  C   UNL     1      -5.978  52.809  52.611  0.00  0.00    +0.000 A 
ATOM     34  C   UNL     1      -5.868  54.538  50.441  0.00  0.00    +0.000 A 
ATOM     35  C   UNL     1      -7.448  56.166  51.467  0.00  0.00    +0.000 C 
ATOM     36  C   UNL     1      -5.188  52.487  51.510  0.00  0.00    +0.000 A 
ATOM     37  C   UNL     1      -5.131  53.354  50.425  0.00  0.00    +0.000 A 
ENDBRANCH  30  31
ENDBRANCH  28  30
ENDBRANCH   5  28
TORSDOF 5
ENDMDL
MODEL 7
REMARK VINA RESULT:      -9.4      3.858      7.944
REMARK  Name = 
REMARK  6 active torsions:
REMARK  status: ('A' for Active; 'I' for Inactive)
REMARK    1  A    between atoms: C_6  and  C_10
REMARK    2  A    between atoms: C_14  and  O_18
REMARK    3  A    between atoms: N_17  and  N_20
REMARK    4  A    between atoms: N_20  and  C_23
REMARK    5  A    between atoms: C_23  and  C_26
REMARK    6  A    between atoms: C_28  and  C_31
REMARK                            x       y       z     vdW  Elec       q    Type
REMARK                         _______ _______ _______ _____ _____    ______ ____
ROOT
ATOM      1  C   UNL     1     -12.575  54.283  49.551  0.00  0.00    +0.000 A 
ATOM      2  C   UNL     1     -12.141  54.232  48.122  0.00  0.00    +0.000 A 
ATOM      3  C   UNL     1     -12.245  53.295  50.400  0.00  0.00    +0.000 A 
ATOM      4  O   UNL     1     -12.456  55.192  47.415  0.00  0.00    +0.000 OA
ATOM      5  N   UNL     1     -11.401  53.122  47.694  0.00  0.00    +0.000 N 
ATOM      6  C   UNL     1     -11.417  52.169  49.951  0.00  0.00    +0.000 A 
ATOM      7  C   UNL     1     -11.001  52.097  48.610  0.00  0.00    +0.000 A 
ATOM      8  C   UNL     1     -11.016  51.167  50.852  0.00  0.00    +0.000 A 
ATOM      9  C   UNL     1     -10.187  51.023  48.206  0.00  0.00    +0.000 A 
ATOM     10  C   UNL     1     -10.204  50.112  50.440  0.00  0.00    +0.000 A 
ATOM     11  C   UNL     1      -9.789  50.041  49.116  0.00  0.00    +0.000 A 
ENDROOT
BRANCH   1  17
ATOM     12  S   UNL     1     -15.380  56.484  51.206  0.00  0.00    +0.000 S 
ATOM     13  O   UNL     1     -15.231  56.571  52.645  0.00  0.00    +0.000 OA
ATOM     14  O   UNL     1     -16.693  56.315  50.612  0.00  0.00    +0.000 OA
ATOM     15  N   UNL     1     -14.443  55.267  50.688  0.00  0.00    +0.000 N 
ATOM     16  C   UNL     1     -14.745  57.986  50.556  0.00  0.00    +0.000 A 
ATOM     17  C   UNL     1     -13.347  55.500  50.029  0.00  0.00    +0.000 C 
ATOM     18  C   UNL     1     -13.542  57.939  49.873  0.00  0.00    +0.000 A 
ATOM     19  C   UNL     1     -15.455  59.177  50.727  0.00  0.00    +0.000 A 
ATOM     20  N   UNL     1     -12.840  56.746  49.724  0.00  0.00    +0.000 N 
ATOM     21  C   UNL     1     -12.999  59.140  49.407  0.00  0.00    +0.000 A 
ATOM     22  C   UNL     1     -14.920  60.362  50.227  0.00  0.00    +0.000 A 
ATOM     23  C   UNL     1     -13.687  60.345  49.576  0.00  0.00    +0.000 A 
ATOM     24  H   UNL     1     -14.708  54.338  50.875  0.00  0.00    +0.000 HD
ATOM     25  H   UNL     1     -11.920  56.796  49.378  0.00  0.00    +0.000 HD
ENDBRANCH   1  17
BRANCH   3  26
ATOM     26  O   UNL     1     -12.608  53.259  51.735  0.00  0.00    +0.000 OA
ATOM     27  H   UNL     1     -13.476  53.504  51.991  0.00  0.00    +0.000 HD
ENDBRANCH   3  26
BRANCH   5  28
ATOM     28  N   UNL     1     -10.997  52.952  46.321  0.00  0.00    +0.000 N 
ATOM     29  H   UNL     1     -11.325  52.197  45.781  0.00  0.00    +0.000 HD
BRANCH  28  30
ATOM     30  C   UNL     1     -10.076  53.946  45.760  0.00  0.00    +0.000 C 
BRANCH  30  31
ATOM     31  C   UNL     1      -8.745  53.948  46.483  0.00  0.00    +0.000 A 
ATOM     32  C   UNL     1      -7.759  52.964  46.258  0.00  0.00    +0.000 A 
ATOM     33  C   UNL     1      -8.501  54.955  47.439  0.00  0.00    +0.000 A 
ATOM     34  C   UNL     1      -6.558  53.024  46.985  0.00  0.00    +0.000 A 
ATOM     35  C   UNL     1      -7.926  51.833  45.279  0.00  0.00    +0.000 C 
ATOM     36  C   UNL     1      -7.305  54.996  48.152  0.00  0.00    +0.000 A 
ATOM     37  C   UNL     1      -6.332  54.031  47.922  0.00  0.00    +0.000 A 
ENDBRANCH  30  31
ENDBRANCH  28  30
ENDBRANCH   5  28
TORSDOF 5
ENDMDL
MODEL 8
REMARK VINA RESULT:      -9.3      1.870      2.191
REMARK  Name = 
REMARK  6 active torsions:
REMARK  status: ('A' for Active; 'I' for Inactive)
REMARK    1  A    between atoms: C_6  and  C_10
REMARK    2  A    between atoms: C_14  and  O_18
REMARK    3  A    between atoms: N_17  and  N_20
REMARK    4  A    between atoms: N_20  and  C_23
REMARK    5  A    between atoms: C_23  and  C_26
REMARK    6  A    between atoms: C_28  and  C_31
REMARK                            x       y       z     vdW  Elec       q    Type
REMARK                         _______ _______ _______ _____ _____    ______ ____
ROOT
ATOM      1  C   UNL     1      -9.802  53.620  49.894  0.00  0.00    +0.000 A 
ATOM      2  C   UNL     1     -10.987  54.507  50.099  0.00  0.00    +0.000 A 
ATOM      3  C   UNL     1      -9.496  53.164  48.667  0.00  0.00    +0.000 A 
ATOM      4  O   UNL     1     -11.183  54.909  51.248  0.00  0.00    +0.000 OA
ATOM      5  N   UNL     1     -11.773  54.831  48.985  0.00  0.00    +0.000 N 
ATOM      6  C   UNL     1     -10.293  53.564  47.501  0.00  0.00    +0.000 A 
ATOM      7  C   UNL     1     -11.415  54.393  47.670  0.00  0.00    +0.000 A 
ATOM      8  C   UNL     1      -9.936  53.141  46.208  0.00  0.00    +0.000 A 
ATOM      9  C   UNL     1     -12.150  54.783  46.537  0.00  0.00    +0.000 A 
ATOM     10  C   UNL     1     -10.671  53.541  45.093  0.00  0.00    +0.000 A 
ATOM     11  C   UNL     1     -11.778  54.364  45.257  0.00  0.00    +0.000 A 
ENDROOT
BRANCH   1  17
ATOM     12  S   UNL     1      -8.287  51.697  52.968  0.00  0.00    +0.000 S 
ATOM     13  O   UNL     1      -7.340  50.677  52.565  0.00  0.00    +0.000 OA
ATOM     14  O   UNL     1      -9.240  51.435  54.031  0.00  0.00    +0.000 OA
ATOM     15  N   UNL     1      -9.124  52.138  51.652  0.00  0.00    +0.000 N 
ATOM     16  C   UNL     1      -7.332  53.069  53.503  0.00  0.00    +0.000 A 
ATOM     17  C   UNL     1      -8.927  53.294  51.091  0.00  0.00    +0.000 C 
ATOM     18  C   UNL     1      -7.313  54.197  52.700  0.00  0.00    +0.000 A 
ATOM     19  C   UNL     1      -6.629  53.005  54.709  0.00  0.00    +0.000 A 
ATOM     20  N   UNL     1      -8.007  54.239  51.494  0.00  0.00    +0.000 N 
ATOM     21  C   UNL     1      -6.505  55.270  53.087  0.00  0.00    +0.000 A 
ATOM     22  C   UNL     1      -5.856  54.095  55.100  0.00  0.00    +0.000 A 
ATOM     23  C   UNL     1      -5.785  55.224  54.285  0.00  0.00    +0.000 A 
ATOM     24  H   UNL     1      -9.792  51.522  51.273  0.00  0.00    +0.000 HD
ATOM     25  H   UNL     1      -7.829  54.995  50.888  0.00  0.00    +0.000 HD
ENDBRANCH   1  17
BRANCH   3  26
ATOM     26  O   UNL     1      -8.422  52.337  48.388  0.00  0.00    +0.000 OA
ATOM     27  H   UNL     1      -8.338  51.948  47.539  0.00  0.00    +0.000 HD
ENDBRANCH   3  26
BRANCH   5  28
ATOM     28  N   UNL     1     -12.972  55.623  49.095  0.00  0.00    +0.000 N 
ATOM     29  H   UNL     1     -13.863  55.217  49.004  0.00  0.00    +0.000 HD
BRANCH  28  30
ATOM     30  C   UNL     1     -12.811  57.060  49.348  0.00  0.00    +0.000 C 
BRANCH  30  31
ATOM     31  C   UNL     1     -13.682  57.527  50.496  0.00  0.00    +0.000 A 
ATOM     32  C   UNL     1     -14.010  58.885  50.693  0.00  0.00    +0.000 A 
ATOM     33  C   UNL     1     -14.151  56.570  51.416  0.00  0.00    +0.000 A 
ATOM     34  C   UNL     1     -14.806  59.241  51.794  0.00  0.00    +0.000 A 
ATOM     35  C   UNL     1     -13.542  59.991  49.784  0.00  0.00    +0.000 C 
ATOM     36  C   UNL     1     -14.937  56.942  52.505  0.00  0.00    +0.000 A 
ATOM     37  C   UNL     1     -15.267  58.279  52.692  0.00  0.00    +0.000 A 
ENDBRANCH  30  31
ENDBRANCH  28  30
ENDBRANCH   5  28
TORSDOF 5
ENDMDL
MODEL 9
REMARK VINA RESULT:      -9.2      3.651      7.624
REMARK  Name = 
REMARK  6 active torsions:
REMARK  status: ('A' for Active; 'I' for Inactive)
REMARK    1  A    between atoms: C_6  and  C_10
REMARK    2  A    between atoms: C_14  and  O_18
REMARK    3  A    between atoms: N_17  and  N_20
REMARK    4  A    between atoms: N_20  and  C_23
REMARK    5  A    between atoms: C_23  and  C_26
REMARK    6  A    between atoms: C_28  and  C_31
REMARK                            x       y       z     vdW  Elec       q    Type
REMARK                         _______ _______ _______ _____ _____    ______ ____
ROOT
ATOM      1  C   UNL     1     -11.636  54.925  50.199  0.00  0.00    +0.000 A 
ATOM      2  C   UNL     1     -10.447  55.253  49.356  0.00  0.00    +0.000 A 
ATOM      3  C   UNL     1     -11.878  53.657  50.572  0.00  0.00    +0.000 A 
ATOM      4  O   UNL     1     -10.277  56.444  49.082  0.00  0.00    +0.000 OA
ATOM      5  N   UNL     1      -9.609  54.204  48.954  0.00  0.00    +0.000 N 
ATOM      6  C   UNL     1     -10.956  52.578  50.196  0.00  0.00    +0.000 A 
ATOM      7  C   UNL     1      -9.834  52.862  49.399  0.00  0.00    +0.000 A 
ATOM      8  C   UNL     1     -11.171  51.261  50.640  0.00  0.00    +0.000 A 
ATOM      9  C   UNL     1      -8.950  51.819  49.069  0.00  0.00    +0.000 A 
ATOM     10  C   UNL     1     -10.284  50.238  50.311  0.00  0.00    +0.000 A 
ATOM     11  C   UNL     1      -9.172  50.517  49.526  0.00  0.00    +0.000 A 
ENDROOT
BRANCH   1  17
ATOM     12  S   UNL     1     -14.189  56.994  52.356  0.00  0.00    +0.000 S 
ATOM     13  O   UNL     1     -13.561  57.611  53.507  0.00  0.00    +0.000 OA
ATOM     14  O   UNL     1     -15.498  56.380  52.474  0.00  0.00    +0.000 OA
ATOM     15  N   UNL     1     -13.168  55.874  51.781  0.00  0.00    +0.000 N 
ATOM     16  C   UNL     1     -14.356  58.261  51.151  0.00  0.00    +0.000 A 
ATOM     17  C   UNL     1     -12.527  56.062  50.665  0.00  0.00    +0.000 C 
ATOM     18  C   UNL     1     -13.539  58.203  50.034  0.00  0.00    +0.000 A 
ATOM     19  C   UNL     1     -15.296  59.278  51.331  0.00  0.00    +0.000 A 
ATOM     20  N   UNL     1     -12.596  57.191  49.877  0.00  0.00    +0.000 N 
ATOM     21  C   UNL     1     -13.622  59.242  49.102  0.00  0.00    +0.000 A 
ATOM     22  C   UNL     1     -15.393  60.287  50.377  0.00  0.00    +0.000 A 
ATOM     23  C   UNL     1     -14.549  60.275  49.267  0.00  0.00    +0.000 A 
ATOM     24  H   UNL     1     -13.032  55.038  52.283  0.00  0.00    +0.000 HD
ATOM     25  H   UNL     1     -11.935  57.289  49.154  0.00  0.00    +0.000 HD
ENDBRANCH   1  17
BRANCH   3  26
ATOM     26  O   UNL     1     -12.955  53.263  51.347  0.00  0.00    +0.000 OA
ATOM     27  H   UNL     1     -13.319  53.854  51.977  0.00  0.00    +0.000 HD
ENDBRANCH   3  26
BRANCH   5  28
ATOM     28  N   UNL     1      -8.478  54.414  48.086  0.00  0.00    +0.000 N 
ATOM     29  H   UNL     1      -7.563  54.199  48.377  0.00  0.00    +0.000 HD
BRANCH  28  30
ATOM     30  C   UNL     1      -8.744  54.963  46.751  0.00  0.00    +0.000 C 
BRANCH  30  31
ATOM     31  C   UNL     1      -9.469  53.967  45.870  0.00  0.00    +0.000 A 
ATOM     32  C   UNL     1     -10.850  54.060  45.600  0.00  0.00    +0.000 A 
ATOM     33  C   UNL     1      -8.736  52.893  45.329  0.00  0.00    +0.000 A 
ATOM     34  C   UNL     1     -11.454  53.084  44.789  0.00  0.00    +0.000 A 
ATOM     35  C   UNL     1     -11.730  55.153  46.147  0.00  0.00    +0.000 C 
ATOM     36  C   UNL     1      -9.352  51.932  44.528  0.00  0.00    +0.000 A 
ATOM     37  C   UNL     1     -10.712  52.030  44.257  0.00  0.00    +0.000 A 
ENDBRANCH  30  31
ENDBRANCH  28  30
ENDBRANCH   5  28
TORSDOF 5
ENDMDL
