MODEL 1
REMARK VINA RESULT:      -8.0      0.000      0.000
REMARK  Name = 
REMARK  9 active torsions:
REMARK  status: ('A' for Active; 'I' for Inactive)
REMARK    1  A    between atoms: C_6  and  C_10
REMARK    2  A    between atoms: C_14  and  O_18
REMARK    3  A    between atoms: N_17  and  N_20
REMARK    4  A    between atoms: N_20  and  C_23
REMARK    5  A    between atoms: C_23  and  C_26
REMARK    6  A    between atoms: C_23  and  C_27
REMARK    7  A    between atoms: C_26  and  C_29
REMARK    8  A    between atoms: C_27  and  C_30
REMARK    9  A    between atoms: C_29  and  C_31
REMARK                            x       y       z     vdW  Elec       q    Type
REMARK                         _______ _______ _______ _____ _____    ______ ____
ROOT
ATOM      1  C   UNL     1      -9.022  54.789  50.307  0.00  0.00    +0.000 A 
ATOM      2  C   UNL     1     -10.425  54.800  50.829  0.00  0.00    +0.000 A 
ATOM      3  C   UNL     1      -8.820  54.729  48.978  0.00  0.00    +0.000 A 
ATOM      4  O   UNL     1     -10.598  54.533  52.025  0.00  0.00    +0.000 OA
ATOM      5  N   UNL     1     -11.437  55.190  49.934  0.00  0.00    +0.000 N 
ATOM      6  C   UNL     1      -9.948  54.771  48.039  0.00  0.00    +0.000 A 
ATOM      7  C   UNL     1     -11.238  55.061  48.515  0.00  0.00    +0.000 A 
ATOM      8  C   UNL     1      -9.729  54.589  46.660  0.00  0.00    +0.000 A 
ATOM      9  C   UNL     1     -12.281  55.171  47.574  0.00  0.00    +0.000 A 
ATOM     10  C   UNL     1     -10.771  54.706  45.746  0.00  0.00    +0.000 A 
ATOM     11  C   UNL     1     -12.047  54.999  46.205  0.00  0.00    +0.000 A 
ENDROOT
BRANCH   1  17
ATOM     12  S   UNL     1      -6.979  55.814  53.503  0.00  0.00    +0.000 S 
ATOM     13  O   UNL     1      -7.520  55.138  54.666  0.00  0.00    +0.000 OA
ATOM     14  O   UNL     1      -6.579  57.208  53.590  0.00  0.00    +0.000 OA
ATOM     15  N   UNL     1      -8.054  55.684  52.309  0.00  0.00    +0.000 N 
ATOM     16  C   UNL     1      -5.543  54.920  53.052  0.00  0.00    +0.000 A 
ATOM     17  C   UNL     1      -7.854  54.911  51.284  0.00  0.00    +0.000 C 
ATOM     18  C   UNL     1      -5.578  54.190  51.872  0.00  0.00    +0.000 A 
ATOM     19  C   UNL     1      -4.426  54.952  53.888  0.00  0.00    +0.000 A 
ATOM     20  N   UNL     1      -6.706  54.180  51.056  0.00  0.00    +0.000 N 
ATOM     21  C   UNL     1      -4.446  53.438  51.545  0.00  0.00    +0.000 A 
ATOM     22  C   UNL     1      -3.301  54.214  53.538  0.00  0.00    +0.000 A 
ATOM     23  C   UNL     1      -3.315  53.452  52.370  0.00  0.00    +0.000 A 
ATOM     24  H   UNL     1      -8.889  56.205  52.359  0.00  0.00    +0.000 HD
ATOM     25  H   UNL     1      -6.684  53.608  50.255  0.00  0.00    +0.000 HD
ENDBRANCH   1  17
BRANCH   3  26
ATOM     26  O   UNL     1      -7.579  54.687  48.368  0.00  0.00    +0.000 OA
ATOM     27  H   UNL     1      -6.990  53.981  48.551  0.00  0.00    +0.000 HD
ENDBRANCH   3  26
BRANCH   5  28
ATOM     28  N   UNL     1     -12.759  55.410  50.442  0.00  0.00    +0.000 N 
ATOM     29  H   UNL     1     -13.404  54.673  50.542  0.00  0.00    +0.000 HD
BRANCH  28  30
ATOM     30  C   UNL     1     -13.107  56.805  50.810  0.00  0.00    +0.000 C 
BRANCH  30  31
ATOM     31  C   UNL     1     -13.541  56.766  52.297  0.00  0.00    +0.000 C 
ATOM     32  C   UNL     1     -14.939  57.324  52.543  0.00  0.00    +0.000 C 
ENDBRANCH  30  31
BRANCH  30  33
ATOM     33  C   UNL     1     -14.228  57.409  49.924  0.00  0.00    +0.000 C 
BRANCH  33  34
ATOM     34  C   UNL     1     -13.759  58.637  49.122  0.00  0.00    +0.000 C 
ATOM     35  C   UNL     1     -13.876  59.936  49.904  0.00  0.00    +0.000 C 
ENDBRANCH  33  34
ENDBRANCH  30  33
ENDBRANCH  28  30
ENDBRANCH   5  28
TORSDOF 7
ENDMDL
MODEL 2
REMARK VINA RESULT:      -7.9      2.357      4.796
REMARK  Name = 
REMARK  9 active torsions:
REMARK  status: ('A' for Active; 'I' for Inactive)
REMARK    1  A    between atoms: C_6  and  C_10
REMARK    2  A    between atoms: C_14  and  O_18
REMARK    3  A    between atoms: N_17  and  N_20
REMARK    4  A    between atoms: N_20  and  C_23
REMARK    5  A    between atoms: C_23  and  C_26
REMARK    6  A    between atoms: C_23  and  C_27
REMARK    7  A    between atoms: C_26  and  C_29
REMARK    8  A    between atoms: C_27  and  C_30
REMARK    9  A    between atoms: C_29  and  C_31
REMARK                            x       y       z     vdW  Elec       q    Type
REMARK                         _______ _______ _______ _____ _____    ______ ____
ROOT
ATOM      1  C   UNL     1      -9.892  55.266  50.353  0.00  0.00    +0.000 A 
ATOM      2  C   UNL     1      -9.422  55.330  48.934  0.00  0.00    +0.000 A 
ATOM      3  C   UNL     1     -11.126  55.711  50.654  0.00  0.00    +0.000 A 
ATOM      4  O   UNL     1      -8.208  55.228  48.722  0.00  0.00    +0.000 OA
ATOM      5  N   UNL     1     -10.411  55.424  47.937  0.00  0.00    +0.000 N 
ATOM      6  C   UNL     1     -12.044  56.163  49.602  0.00  0.00    +0.000 A 
ATOM      7  C   UNL     1     -11.707  55.962  48.252  0.00  0.00    +0.000 A 
ATOM      8  C   UNL     1     -13.285  56.733  49.942  0.00  0.00    +0.000 A 
ATOM      9  C   UNL     1     -12.648  56.337  47.273  0.00  0.00    +0.000 A 
ATOM     10  C   UNL     1     -14.203  57.094  48.960  0.00  0.00    +0.000 A 
ATOM     11  C   UNL     1     -13.883  56.893  47.626  0.00  0.00    +0.000 A 
ENDROOT
BRANCH   1  17
ATOM     12  S   UNL     1      -6.884  54.824  52.843  0.00  0.00    +0.000 S 
ATOM     13  O   UNL     1      -6.974  55.815  53.898  0.00  0.00    +0.000 OA
ATOM     14  O   UNL     1      -5.597  54.508  52.247  0.00  0.00    +0.000 OA
ATOM     15  N   UNL     1      -7.880  55.272  51.657  0.00  0.00    +0.000 N 
ATOM     16  C   UNL     1      -7.484  53.332  53.534  0.00  0.00    +0.000 A 
ATOM     17  C   UNL     1      -8.991  54.641  51.417  0.00  0.00    +0.000 C 
ATOM     18  C   UNL     1      -8.699  52.846  53.072  0.00  0.00    +0.000 A 
ATOM     19  C   UNL     1      -6.742  52.691  54.528  0.00  0.00    +0.000 A 
ATOM     20  N   UNL     1      -9.415  53.506  52.076  0.00  0.00    +0.000 N 
ATOM     21  C   UNL     1      -9.196  51.681  53.664  0.00  0.00    +0.000 A 
ATOM     22  C   UNL     1      -7.241  51.523  55.092  0.00  0.00    +0.000 A 
ATOM     23  C   UNL     1      -8.471  51.023  54.665  0.00  0.00    +0.000 A 
ATOM     24  H   UNL     1      -7.640  56.046  51.099  0.00  0.00    +0.000 HD
ATOM     25  H   UNL     1     -10.291  53.134  51.823  0.00  0.00    +0.000 HD
ENDBRANCH   1  17
BRANCH   3  26
ATOM     26  O   UNL     1     -11.670  55.731  51.926  0.00  0.00    +0.000 OA
ATOM     27  H   UNL     1     -12.599  55.685  52.039  0.00  0.00    +0.000 HD
ENDBRANCH   3  26
BRANCH   5  28
ATOM     28  N   UNL     1     -10.021  55.284  46.564  0.00  0.00    +0.000 N 
ATOM     29  H   UNL     1      -9.726  56.056  46.029  0.00  0.00    +0.000 HD
BRANCH  28  30
ATOM     30  C   UNL     1     -10.086  53.916  45.991  0.00  0.00    +0.000 C 
BRANCH  30  31
ATOM     31  C   UNL     1      -8.829  53.762  45.097  0.00  0.00    +0.000 C 
ATOM     32  C   UNL     1      -7.780  54.845  45.321  0.00  0.00    +0.000 C 
ENDBRANCH  30  31
BRANCH  30  33
ATOM     33  C   UNL     1     -11.379  53.657  45.175  0.00  0.00    +0.000 C 
BRANCH  33  34
ATOM     34  C   UNL     1     -12.162  52.426  45.670  0.00  0.00    +0.000 C 
ATOM     35  C   UNL     1     -12.188  52.311  47.186  0.00  0.00    +0.000 C 
ENDBRANCH  33  34
ENDBRANCH  30  33
ENDBRANCH  28  30
ENDBRANCH   5  28
TORSDOF 7
ENDMDL
MODEL 3
REMARK VINA RESULT:      -7.9      2.823      8.284
REMARK  Name = 
REMARK  9 active torsions:
REMARK  status: ('A' for Active; 'I' for Inactive)
REMARK    1  A    between atoms: C_6  and  C_10
REMARK    2  A    between atoms: C_14  and  O_18
REMARK    3  A    between atoms: N_17  and  N_20
REMARK    4  A    between atoms: N_20  and  C_23
REMARK    5  A    between atoms: C_23  and  C_26
REMARK    6  A    between atoms: C_23  and  C_27
REMARK    7  A    between atoms: C_26  and  C_29
REMARK    8  A    between atoms: C_27  and  C_30
REMARK    9  A    between atoms: C_29  and  C_31
REMARK                            x       y       z     vdW  Elec       q    Type
REMARK                         _______ _______ _______ _____ _____    ______ ____
ROOT
ATOM      1  C   UNL     1      -9.923  54.382  52.240  0.00  0.00    +0.000 A 
ATOM      2  C   UNL     1      -8.504  54.810  52.035  0.00  0.00    +0.000 A 
ATOM      3  C   UNL     1     -10.178  53.317  53.021  0.00  0.00    +0.000 A 
ATOM      4  O   UNL     1      -8.260  55.564  51.085  0.00  0.00    +0.000 OA
ATOM      5  N   UNL     1      -7.563  54.382  52.988  0.00  0.00    +0.000 N 
ATOM      6  C   UNL     1      -9.099  52.635  53.745  0.00  0.00    +0.000 A 
ATOM      7  C   UNL     1      -7.813  53.203  53.774  0.00  0.00    +0.000 A 
ATOM      8  C   UNL     1      -9.364  51.454  54.464  0.00  0.00    +0.000 A 
ATOM      9  C   UNL     1      -6.824  52.562  54.545  0.00  0.00    +0.000 A 
ATOM     10  C   UNL     1      -8.373  50.837  55.222  0.00  0.00    +0.000 A 
ATOM     11  C   UNL     1      -7.104  51.394  55.263  0.00  0.00    +0.000 A 
ENDROOT
BRANCH   1  17
ATOM     12  S   UNL     1     -12.304  55.893  49.502  0.00  0.00    +0.000 S 
ATOM     13  O   UNL     1     -13.120  54.840  48.930  0.00  0.00    +0.000 OA
ATOM     14  O   UNL     1     -11.730  56.918  48.647  0.00  0.00    +0.000 OA
ATOM     15  N   UNL     1     -11.097  55.199  50.315  0.00  0.00    +0.000 N 
ATOM     16  C   UNL     1     -13.331  56.729  50.647  0.00  0.00    +0.000 A 
ATOM     17  C   UNL     1     -11.053  55.198  51.614  0.00  0.00    +0.000 C 
ATOM     18  C   UNL     1     -13.045  56.589  51.997  0.00  0.00    +0.000 A 
ATOM     19  C   UNL     1     -14.404  57.487  50.176  0.00  0.00    +0.000 A 
ATOM     20  N   UNL     1     -11.964  55.828  52.436  0.00  0.00    +0.000 N 
ATOM     21  C   UNL     1     -13.900  57.218  52.907  0.00  0.00    +0.000 A 
ATOM     22  C   UNL     1     -15.234  58.122  51.094  0.00  0.00    +0.000 A 
ATOM     23  C   UNL     1     -14.985  57.981  52.458  0.00  0.00    +0.000 A 
ATOM     24  H   UNL     1     -10.372  54.761  49.813  0.00  0.00    +0.000 HD
ATOM     25  H   UNL     1     -11.841  55.733  53.409  0.00  0.00    +0.000 HD
ENDBRANCH   1  17
BRANCH   3  26
ATOM     26  O   UNL     1     -11.438  52.804  53.272  0.00  0.00    +0.000 OA
ATOM     27  H   UNL     1     -12.006  52.585  52.559  0.00  0.00    +0.000 HD
ENDBRANCH   3  26
BRANCH   5  28
ATOM     28  N   UNL     1      -6.239  54.932  52.946  0.00  0.00    +0.000 N 
ATOM     29  H   UNL     1      -6.039  55.824  53.311  0.00  0.00    +0.000 HD
BRANCH  28  30
ATOM     30  C   UNL     1      -5.188  54.088  52.326  0.00  0.00    +0.000 C 
BRANCH  30  31
ATOM     31  C   UNL     1      -3.885  54.370  53.116  0.00  0.00    +0.000 C 
ATOM     32  C   UNL     1      -4.060  55.371  54.252  0.00  0.00    +0.000 C 
ENDBRANCH  30  31
BRANCH  30  33
ATOM     33  C   UNL     1      -4.990  54.373  50.814  0.00  0.00    +0.000 C 
BRANCH  33  34
ATOM     34  C   UNL     1      -5.559  53.259  49.917  0.00  0.00    +0.000 C 
ATOM     35  C   UNL     1      -6.020  52.042  50.703  0.00  0.00    +0.000 C 
ENDBRANCH  33  34
ENDBRANCH  30  33
ENDBRANCH  28  30
ENDBRANCH   5  28
TORSDOF 7
ENDMDL
MODEL 4
REMARK VINA RESULT:      -7.8      2.076      2.319
REMARK  Name = 
REMARK  9 active torsions:
REMARK  status: ('A' for Active; 'I' for Inactive)
REMARK    1  A    between atoms: C_6  and  C_10
REMARK    2  A    between atoms: C_14  and  O_18
REMARK    3  A    between atoms: N_17  and  N_20
REMARK    4  A    between atoms: N_20  and  C_23
REMARK    5  A    between atoms: C_23  and  C_26
REMARK    6  A    between atoms: C_23  and  C_27
REMARK    7  A    between atoms: C_26  and  C_29
REMARK    8  A    between atoms: C_27  and  C_30
REMARK    9  A    between atoms: C_29  and  C_31
REMARK                            x       y       z     vdW  Elec       q    Type
REMARK                         _______ _______ _______ _____ _____    ______ ____
ROOT
ATOM      1  C   UNL     1     -10.216  54.561  50.746  0.00  0.00    +0.000 A 
ATOM      2  C   UNL     1     -11.604  54.819  51.242  0.00  0.00    +0.000 A 
ATOM      3  C   UNL     1      -9.949  54.725  49.437  0.00  0.00    +0.000 A 
ATOM      4  O   UNL     1     -11.914  54.366  52.351  0.00  0.00    +0.000 OA
ATOM      5  N   UNL     1     -12.430  55.628  50.440  0.00  0.00    +0.000 N 
ATOM      6  C   UNL     1     -10.969  55.242  48.516  0.00  0.00    +0.000 A 
ATOM      7  C   UNL     1     -12.177  55.746  49.029  0.00  0.00    +0.000 A 
ATOM      8  C   UNL     1     -10.712  55.297  47.133  0.00  0.00    +0.000 A 
ATOM      9  C   UNL     1     -13.097  56.306  48.122  0.00  0.00    +0.000 A 
ATOM     10  C   UNL     1     -11.633  55.858  46.254  0.00  0.00    +0.000 A 
ATOM     11  C   UNL     1     -12.824  56.365  46.750  0.00  0.00    +0.000 A 
ENDROOT
BRANCH   1  17
ATOM     12  S   UNL     1      -6.929  54.810  52.886  0.00  0.00    +0.000 S 
ATOM     13  O   UNL     1      -7.064  55.872  53.864  0.00  0.00    +0.000 OA
ATOM     14  O   UNL     1      -5.679  54.634  52.166  0.00  0.00    +0.000 OA
ATOM     15  N   UNL     1      -8.104  54.989  51.796  0.00  0.00    +0.000 N 
ATOM     16  C   UNL     1      -7.209  53.317  53.756  0.00  0.00    +0.000 A 
ATOM     17  C   UNL     1      -9.119  54.181  51.739  0.00  0.00    +0.000 C 
ATOM     18  C   UNL     1      -8.373  52.614  53.481  0.00  0.00    +0.000 A 
ATOM     19  C   UNL     1      -6.273  52.891  54.701  0.00  0.00    +0.000 A 
ATOM     20  N   UNL     1      -9.286  53.063  52.530  0.00  0.00    +0.000 N 
ATOM     21  C   UNL     1      -8.613  51.450  54.217  0.00  0.00    +0.000 A 
ATOM     22  C   UNL     1      -6.518  51.721  55.410  0.00  0.00    +0.000 A 
ATOM     23  C   UNL     1      -7.691  51.004  55.172  0.00  0.00    +0.000 A 
ATOM     24  H   UNL     1      -8.051  55.735  51.154  0.00  0.00    +0.000 HD
ATOM     25  H   UNL     1     -10.113  52.542  52.413  0.00  0.00    +0.000 HD
ENDBRANCH   1  17
BRANCH   3  26
ATOM     26  O   UNL     1      -8.719  54.495  48.846  0.00  0.00    +0.000 OA
ATOM     27  H   UNL     1      -8.555  53.686  48.403  0.00  0.00    +0.000 HD
ENDBRANCH   3  26
BRANCH   5  28
ATOM     28  N   UNL     1     -13.688  56.067  50.969  0.00  0.00    +0.000 N 
ATOM     29  H   UNL     1     -14.445  55.448  51.081  0.00  0.00    +0.000 HD
BRANCH  28  30
ATOM     30  C   UNL     1     -13.790  57.501  51.338  0.00  0.00    +0.000 C 
BRANCH  30  31
ATOM     31  C   UNL     1     -13.879  57.545  52.885  0.00  0.00    +0.000 C 
ATOM     32  C   UNL     1     -15.285  57.809  53.412  0.00  0.00    +0.000 C 
ENDBRANCH  30  31
BRANCH  30  33
ATOM     33  C   UNL     1     -15.010  58.211  50.695  0.00  0.00    +0.000 C 
BRANCH  33  34
ATOM     34  C   UNL     1     -14.768  59.712  50.452  0.00  0.00    +0.000 C 
ATOM     35  C   UNL     1     -13.426  59.997  49.796  0.00  0.00    +0.000 C 
ENDBRANCH  33  34
ENDBRANCH  30  33
ENDBRANCH  28  30
ENDBRANCH   5  28
TORSDOF 7
ENDMDL
MODEL 5
REMARK VINA RESULT:      -7.7      2.307      4.861
REMARK  Name = 
REMARK  9 active torsions:
REMARK  status: ('A' for Active; 'I' for Inactive)
REMARK    1  A    between atoms: C_6  and  C_10
REMARK    2  A    between atoms: C_14  and  O_18
REMARK    3  A    between atoms: N_17  and  N_20
REMARK    4  A    between atoms: N_20  and  C_23
REMARK    5  A    between atoms: C_23  and  C_26
REMARK    6  A    between atoms: C_23  and  C_27
REMARK    7  A    between atoms: C_26  and  C_29
REMARK    8  A    between atoms: C_27  and  C_30
REMARK    9  A    between atoms: C_29  and  C_31
REMARK                            x       y       z     vdW  Elec       q    Type
REMARK                         _______ _______ _______ _____ _____    ______ ____
ROOT
ATOM      1  C   UNL     1     -10.395  55.231  50.603  0.00  0.00    +0.000 A 
ATOM      2  C   UNL     1      -9.857  55.379  49.214  0.00  0.00    +0.000 A 
ATOM      3  C   UNL     1     -11.634  55.682  50.875  0.00  0.00    +0.000 A 
ATOM      4  O   UNL     1      -8.636  55.265  49.053  0.00  0.00    +0.000 OA
ATOM      5  N   UNL     1     -10.794  55.560  48.181  0.00  0.00    +0.000 N 
ATOM      6  C   UNL     1     -12.492  56.222  49.813  0.00  0.00    +0.000 A 
ATOM      7  C   UNL     1     -12.094  56.104  48.470  0.00  0.00    +0.000 A 
ATOM      8  C   UNL     1     -13.738  56.795  50.132  0.00  0.00    +0.000 A 
ATOM      9  C   UNL     1     -12.980  56.563  47.476  0.00  0.00    +0.000 A 
ATOM     10  C   UNL     1     -14.600  57.240  49.135  0.00  0.00    +0.000 A 
ATOM     11  C   UNL     1     -14.220  57.121  47.807  0.00  0.00    +0.000 A 
ENDROOT
BRANCH   1  17
ATOM     12  S   UNL     1      -9.105  52.382  52.983  0.00  0.00    +0.000 S 
ATOM     13  O   UNL     1      -8.507  51.322  52.194  0.00  0.00    +0.000 OA
ATOM     14  O   UNL     1      -9.953  52.059  54.117  0.00  0.00    +0.000 OA
ATOM     15  N   UNL     1      -9.953  53.323  51.985  0.00  0.00    +0.000 N 
ATOM     16  C   UNL     1      -7.769  53.319  53.620  0.00  0.00    +0.000 A 
ATOM     17  C   UNL     1      -9.558  54.518  51.663  0.00  0.00    +0.000 C 
ATOM     18  C   UNL     1      -7.583  54.601  53.126  0.00  0.00    +0.000 A 
ATOM     19  C   UNL     1      -6.933  52.749  54.582  0.00  0.00    +0.000 A 
ATOM     20  N   UNL     1      -8.437  55.144  52.169  0.00  0.00    +0.000 N 
ATOM     21  C   UNL     1      -6.484  55.323  53.602  0.00  0.00    +0.000 A 
ATOM     22  C   UNL     1      -5.857  53.488  55.059  0.00  0.00    +0.000 A 
ATOM     23  C   UNL     1      -5.629  54.772  54.564  0.00  0.00    +0.000 A 
ATOM     24  H   UNL     1     -10.796  52.981  51.607  0.00  0.00    +0.000 HD
ATOM     25  H   UNL     1      -8.225  56.043  51.826  0.00  0.00    +0.000 HD
ENDBRANCH   1  17
BRANCH   3  26
ATOM     26  O   UNL     1     -12.239  55.629  52.118  0.00  0.00    +0.000 OA
ATOM     27  H   UNL     1     -12.118  56.330  52.728  0.00  0.00    +0.000 HD
ENDBRANCH   3  26
BRANCH   5  28
ATOM     28  N   UNL     1     -10.342  55.502  46.822  0.00  0.00    +0.000 N 
ATOM     29  H   UNL     1     -10.036  56.307  46.345  0.00  0.00    +0.000 HD
BRANCH  28  30
ATOM     30  C   UNL     1     -10.358  54.169  46.172  0.00  0.00    +0.000 C 
BRANCH  30  31
ATOM     31  C   UNL     1      -9.000  54.027  45.439  0.00  0.00    +0.000 C 
ATOM     32  C   UNL     1      -8.036  53.058  46.116  0.00  0.00    +0.000 C 
ENDBRANCH  30  31
BRANCH  30  33
ATOM     33  C   UNL     1     -11.540  53.987  45.183  0.00  0.00    +0.000 C 
BRANCH  33  34
ATOM     34  C   UNL     1     -11.999  52.521  45.065  0.00  0.00    +0.000 C 
ATOM     35  C   UNL     1     -12.268  51.874  46.414  0.00  0.00    +0.000 C 
ENDBRANCH  33  34
ENDBRANCH  30  33
ENDBRANCH  28  30
ENDBRANCH   5  28
TORSDOF 7
ENDMDL
MODEL 6
REMARK VINA RESULT:      -7.7      3.579      7.734
REMARK  Name = 
REMARK  9 active torsions:
REMARK  status: ('A' for Active; 'I' for Inactive)
REMARK    1  A    between atoms: C_6  and  C_10
REMARK    2  A    between atoms: C_14  and  O_18
REMARK    3  A    between atoms: N_17  and  N_20
REMARK    4  A    between atoms: N_20  and  C_23
REMARK    5  A    between atoms: C_23  and  C_26
REMARK    6  A    between atoms: C_23  and  C_27
REMARK    7  A    between atoms: C_26  and  C_29
REMARK    8  A    between atoms: C_27  and  C_30
REMARK    9  A    between atoms: C_29  and  C_31
REMARK                            x       y       z     vdW  Elec       q    Type
REMARK                         _______ _______ _______ _____ _____    ______ ____
ROOT
ATOM      1  C   UNL     1     -11.600  54.116  51.181  0.00  0.00    +0.000 A 
ATOM      2  C   UNL     1     -10.678  53.983  52.352  0.00  0.00    +0.000 A 
ATOM      3  C   UNL     1     -11.737  53.077  50.336  0.00  0.00    +0.000 A 
ATOM      4  O   UNL     1     -10.316  55.020  52.923  0.00  0.00    +0.000 OA
ATOM      5  N   UNL     1     -10.352  52.679  52.765  0.00  0.00    +0.000 N 
ATOM      6  C   UNL     1     -11.073  51.795  50.601  0.00  0.00    +0.000 A 
ATOM      7  C   UNL     1     -10.437  51.583  51.837  0.00  0.00    +0.000 A 
ATOM      8  C   UNL     1     -11.131  50.757  49.651  0.00  0.00    +0.000 A 
ATOM      9  C   UNL     1      -9.881  50.313  52.085  0.00  0.00    +0.000 A 
ATOM     10  C   UNL     1     -10.577  49.509  49.916  0.00  0.00    +0.000 A 
ATOM     11  C   UNL     1      -9.955  49.287  51.136  0.00  0.00    +0.000 A 
ENDROOT
BRANCH   1  17
ATOM     12  S   UNL     1     -13.394  57.131  49.411  0.00  0.00    +0.000 S 
ATOM     13  O   UNL     1     -14.512  56.642  48.627  0.00  0.00    +0.000 OA
ATOM     14  O   UNL     1     -12.530  58.171  48.880  0.00  0.00    +0.000 OA
ATOM     15  N   UNL     1     -12.468  55.868  49.794  0.00  0.00    +0.000 N 
ATOM     16  C   UNL     1     -14.086  57.774  50.885  0.00  0.00    +0.000 A 
ATOM     17  C   UNL     1     -12.413  55.397  51.004  0.00  0.00    +0.000 C 
ATOM     18  C   UNL     1     -13.846  57.089  52.067  0.00  0.00    +0.000 A 
ATOM     19  C   UNL     1     -14.862  58.933  50.828  0.00  0.00    +0.000 A 
ATOM     20  N   UNL     1     -13.064  55.937  52.094  0.00  0.00    +0.000 N 
ATOM     21  C   UNL     1     -14.444  57.580  53.231  0.00  0.00    +0.000 A 
ATOM     22  C   UNL     1     -15.434  59.420  51.998  0.00  0.00    +0.000 A 
ATOM     23  C   UNL     1     -15.230  58.739  53.198  0.00  0.00    +0.000 A 
ATOM     24  H   UNL     1     -11.927  55.441  49.091  0.00  0.00    +0.000 HD
ATOM     25  H   UNL     1     -12.968  55.472  52.957  0.00  0.00    +0.000 HD
ENDBRANCH   1  17
BRANCH   3  26
ATOM     26  O   UNL     1     -12.534  53.077  49.206  0.00  0.00    +0.000 OA
ATOM     27  H   UNL     1     -12.783  53.888  48.808  0.00  0.00    +0.000 HD
ENDBRANCH   3  26
BRANCH   5  28
ATOM     28  N   UNL     1      -9.641  52.503  53.998  0.00  0.00    +0.000 N 
ATOM     29  H   UNL     1     -10.101  52.530  54.868  0.00  0.00    +0.000 HD
BRANCH  28  30
ATOM     30  C   UNL     1      -8.178  52.278  53.896  0.00  0.00    +0.000 C 
BRANCH  30  31
ATOM     31  C   UNL     1      -7.807  51.308  55.046  0.00  0.00    +0.000 C 
ATOM     32  C   UNL     1      -9.008  50.597  55.659  0.00  0.00    +0.000 C 
ENDBRANCH  30  31
BRANCH  30  33
ATOM     33  C   UNL     1      -7.352  53.588  53.992  0.00  0.00    +0.000 C 
BRANCH  33  34
ATOM     34  C   UNL     1      -6.828  54.065  52.624  0.00  0.00    +0.000 C 
ATOM     35  C   UNL     1      -7.001  53.026  51.528  0.00  0.00    +0.000 C 
ENDBRANCH  33  34
ENDBRANCH  30  33
ENDBRANCH  28  30
ENDBRANCH   5  28
TORSDOF 7
ENDMDL
MODEL 7
REMARK VINA RESULT:      -7.6      3.519      7.813
REMARK  Name = 
REMARK  9 active torsions:
REMARK  status: ('A' for Active; 'I' for Inactive)
REMARK    1  A    between atoms: C_6  and  C_10
REMARK    2  A    between atoms: C_14  and  O_18
REMARK    3  A    between atoms: N_17  and  N_20
REMARK    4  A    between atoms: N_20  and  C_23
REMARK    5  A    between atoms: C_23  and  C_26
REMARK    6  A    between atoms: C_23  and  C_27
REMARK    7  A    between atoms: C_26  and  C_29
REMARK    8  A    between atoms: C_27  and  C_30
REMARK    9  A    between atoms: C_29  and  C_31
REMARK                            x       y       z     vdW  Elec       q    Type
REMARK                         _______ _______ _______ _____ _____    ______ ____
ROOT
ATOM      1  C   UNL     1     -12.207  54.382  49.772  0.00  0.00    +0.000 A 
ATOM      2  C   UNL     1     -11.660  54.177  48.394  0.00  0.00    +0.000 A 
ATOM      3  C   UNL     1     -11.812  53.559  50.761  0.00  0.00    +0.000 A 
ATOM      4  O   UNL     1     -12.255  54.712  47.451  0.00  0.00    +0.000 OA
ATOM      5  N   UNL     1     -10.460  53.452  48.284  0.00  0.00    +0.000 N 
ATOM      6  C   UNL     1     -10.788  52.534  50.527  0.00  0.00    +0.000 A 
ATOM      7  C   UNL     1     -10.077  52.524  49.315  0.00  0.00    +0.000 A 
ATOM      8  C   UNL     1     -10.472  51.606  51.538  0.00  0.00    +0.000 A 
ATOM      9  C   UNL     1      -9.048  51.575  49.159  0.00  0.00    +0.000 A 
ATOM     10  C   UNL     1      -9.449  50.678  51.366  0.00  0.00    +0.000 A 
ATOM     11  C   UNL     1      -8.737  50.666  50.177  0.00  0.00    +0.000 A 
ENDROOT
BRANCH   1  17
ATOM     12  S   UNL     1     -15.281  56.403  51.153  0.00  0.00    +0.000 S 
ATOM     13  O   UNL     1     -15.191  56.502  52.597  0.00  0.00    +0.000 OA
ATOM     14  O   UNL     1     -16.561  56.139  50.518  0.00  0.00    +0.000 OA
ATOM     15  N   UNL     1     -14.248  55.264  50.669  0.00  0.00    +0.000 N 
ATOM     16  C   UNL     1     -14.734  57.945  50.530  0.00  0.00    +0.000 A 
ATOM     17  C   UNL     1     -13.147  55.555  50.042  0.00  0.00    +0.000 C 
ATOM     18  C   UNL     1     -13.521  57.979  49.857  0.00  0.00    +0.000 A 
ATOM     19  C   UNL     1     -15.514  59.084  50.740  0.00  0.00    +0.000 A 
ATOM     20  N   UNL     1     -12.767  56.825  49.660  0.00  0.00    +0.000 N 
ATOM     21  C   UNL     1     -13.066  59.222  49.408  0.00  0.00    +0.000 A 
ATOM     22  C   UNL     1     -15.056  60.309  50.270  0.00  0.00    +0.000 A 
ATOM     23  C   UNL     1     -13.830  60.379  49.610  0.00  0.00    +0.000 A 
ATOM     24  H   UNL     1     -14.455  54.320  50.856  0.00  0.00    +0.000 HD
ATOM     25  H   UNL     1     -11.894  56.923  49.213  0.00  0.00    +0.000 HD
ENDBRANCH   1  17
BRANCH   3  26
ATOM     26  O   UNL     1     -12.260  53.624  52.068  0.00  0.00    +0.000 OA
ATOM     27  H   UNL     1     -13.088  54.016  52.262  0.00  0.00    +0.000 HD
ENDBRANCH   3  26
BRANCH   5  28
ATOM     28  N   UNL     1      -9.796  53.406  47.014  0.00  0.00    +0.000 N 
ATOM     29  H   UNL     1      -9.823  52.602  46.446  0.00  0.00    +0.000 HD
BRANCH  28  30
ATOM     30  C   UNL     1      -9.067  54.630  46.599  0.00  0.00    +0.000 C 
BRANCH  30  31
ATOM     31  C   UNL     1      -8.103  54.197  45.465  0.00  0.00    +0.000 C 
ATOM     32  C   UNL     1      -8.768  53.350  44.386  0.00  0.00    +0.000 C 
ENDBRANCH  30  31
BRANCH  30  33
ATOM     33  C   UNL     1      -8.286  55.298  47.762  0.00  0.00    +0.000 C 
BRANCH  33  34
ATOM     34  C   UNL     1      -6.970  54.569  48.093  0.00  0.00    +0.000 C 
ATOM     35  C   UNL     1      -6.713  54.460  49.588  0.00  0.00    +0.000 C 
ENDBRANCH  33  34
ENDBRANCH  30  33
ENDBRANCH  28  30
ENDBRANCH   5  28
TORSDOF 7
ENDMDL
MODEL 8
REMARK VINA RESULT:      -7.4      2.956      7.748
REMARK  Name = 
REMARK  9 active torsions:
REMARK  status: ('A' for Active; 'I' for Inactive)
REMARK    1  A    between atoms: C_6  and  C_10
REMARK    2  A    between atoms: C_14  and  O_18
REMARK    3  A    between atoms: N_17  and  N_20
REMARK    4  A    between atoms: N_20  and  C_23
REMARK    5  A    between atoms: C_23  and  C_26
REMARK    6  A    between atoms: C_23  and  C_27
REMARK    7  A    between atoms: C_26  and  C_29
REMARK    8  A    between atoms: C_27  and  C_30
REMARK    9  A    between atoms: C_29  and  C_31
REMARK                            x       y       z     vdW  Elec       q    Type
REMARK                         _______ _______ _______ _____ _____    ______ ____
ROOT
ATOM      1  C   UNL     1     -11.543  54.816  50.684  0.00  0.00    +0.000 A 
ATOM      2  C   UNL     1     -10.195  55.134  50.118  0.00  0.00    +0.000 A 
ATOM      3  C   UNL     1     -11.812  53.553  51.063  0.00  0.00    +0.000 A 
ATOM      4  O   UNL     1     -10.067  56.191  49.488  0.00  0.00    +0.000 OA
ATOM      5  N   UNL     1      -9.150  54.240  50.414  0.00  0.00    +0.000 N 
ATOM      6  C   UNL     1     -10.776  52.514  51.019  0.00  0.00    +0.000 A 
ATOM      7  C   UNL     1      -9.442  52.872  50.754  0.00  0.00    +0.000 A 
ATOM      8  C   UNL     1     -11.102  51.175  51.307  0.00  0.00    +0.000 A 
ATOM      9  C   UNL     1      -8.464  51.860  50.799  0.00  0.00    +0.000 A 
ATOM     10  C   UNL     1     -10.121  50.190  51.349  0.00  0.00    +0.000 A 
ATOM     11  C   UNL     1      -8.802  50.535  51.098  0.00  0.00    +0.000 A 
ENDROOT
BRANCH   1  17
ATOM     12  S   UNL     1     -14.290  57.049  52.391  0.00  0.00    +0.000 S 
ATOM     13  O   UNL     1     -13.715  57.749  53.524  0.00  0.00    +0.000 OA
ATOM     14  O   UNL     1     -15.619  56.470  52.488  0.00  0.00    +0.000 OA
ATOM     15  N   UNL     1     -13.271  55.874  51.966  0.00  0.00    +0.000 N 
ATOM     16  C   UNL     1     -14.358  58.217  51.089  0.00  0.00    +0.000 A 
ATOM     17  C   UNL     1     -12.561  55.938  50.879  0.00  0.00    +0.000 C 
ATOM     18  C   UNL     1     -13.506  58.036  50.009  0.00  0.00    +0.000 A 
ATOM     19  C   UNL     1     -15.245  59.292  51.180  0.00  0.00    +0.000 A 
ATOM     20  N   UNL     1     -12.635  56.951  49.945  0.00  0.00    +0.000 N 
ATOM     21  C   UNL     1     -13.530  59.001  48.998  0.00  0.00    +0.000 A 
ATOM     22  C   UNL     1     -15.270  60.232  50.156  0.00  0.00    +0.000 A 
ATOM     23  C   UNL     1     -14.408  60.090  49.069  0.00  0.00    +0.000 A 
ATOM     24  H   UNL     1     -13.183  55.084  52.547  0.00  0.00    +0.000 HD
ATOM     25  H   UNL     1     -12.024  56.903  49.174  0.00  0.00    +0.000 HD
ENDBRANCH   1  17
BRANCH   3  26
ATOM     26  O   UNL     1     -13.022  53.122  51.576  0.00  0.00    +0.000 OA
ATOM     27  H   UNL     1     -13.689  53.745  51.789  0.00  0.00    +0.000 HD
ENDBRANCH   3  26
BRANCH   5  28
ATOM     28  N   UNL     1      -7.809  54.607  50.067  0.00  0.00    +0.000 N 
ATOM     29  H   UNL     1      -7.444  54.443  49.168  0.00  0.00    +0.000 HD
BRANCH  28  30
ATOM     30  C   UNL     1      -6.998  55.248  51.133  0.00  0.00    +0.000 C 
BRANCH  30  31
ATOM     31  C   UNL     1      -5.650  54.484  51.170  0.00  0.00    +0.000 C 
ATOM     32  C   UNL     1      -5.299  53.795  49.856  0.00  0.00    +0.000 C 
ENDBRANCH  30  31
BRANCH  30  33
ATOM     33  C   UNL     1      -7.686  55.220  52.523  0.00  0.00    +0.000 C 
BRANCH  33  34
ATOM     34  C   UNL     1      -7.110  54.137  53.453  0.00  0.00    +0.000 C 
ATOM     35  C   UNL     1      -6.498  54.709  54.722  0.00  0.00    +0.000 C 
ENDBRANCH  33  34
ENDBRANCH  30  33
ENDBRANCH  28  30
ENDBRANCH   5  28
TORSDOF 7
ENDMDL
MODEL 9
REMARK VINA RESULT:      -7.3      1.254      1.944
REMARK  Name = 
REMARK  9 active torsions:
REMARK  status: ('A' for Active; 'I' for Inactive)
REMARK    1  A    between atoms: C_6  and  C_10
REMARK    2  A    between atoms: C_14  and  O_18
REMARK    3  A    between atoms: N_17  and  N_20
REMARK    4  A    between atoms: N_20  and  C_23
REMARK    5  A    between atoms: C_23  and  C_26
REMARK    6  A    between atoms: C_23  and  C_27
REMARK    7  A    between atoms: C_26  and  C_29
REMARK    8  A    between atoms: C_27  and  C_30
REMARK    9  A    between atoms: C_29  and  C_31
REMARK                            x       y       z     vdW  Elec       q    Type
REMARK                         _______ _______ _______ _____ _____    ______ ____
ROOT
ATOM      1  C   UNL     1      -9.119  54.359  50.046  0.00  0.00    +0.000 A 
ATOM      2  C   UNL     1     -10.288  55.275  50.231  0.00  0.00    +0.000 A 
ATOM      3  C   UNL     1      -8.990  53.689  48.886  0.00  0.00    +0.000 A 
ATOM      4  O   UNL     1     -10.570  55.626  51.383  0.00  0.00    +0.000 OA
ATOM      5  N   UNL     1     -10.932  55.731  49.067  0.00  0.00    +0.000 N 
ATOM      6  C   UNL     1      -9.921  53.918  47.774  0.00  0.00    +0.000 A 
ATOM      7  C   UNL     1     -10.845  54.974  47.847  0.00  0.00    +0.000 A 
ATOM      8  C   UNL     1      -9.844  53.126  46.612  0.00  0.00    +0.000 A 
ATOM      9  C   UNL     1     -11.667  55.212  46.728  0.00  0.00    +0.000 A 
ATOM     10  C   UNL     1     -10.663  53.379  45.516  0.00  0.00    +0.000 A 
ATOM     11  C   UNL     1     -11.572  54.424  45.575  0.00  0.00    +0.000 A 
ENDROOT
BRANCH   1  17
ATOM     12  S   UNL     1      -7.555  53.988  53.633  0.00  0.00    +0.000 S 
ATOM     13  O   UNL     1      -7.830  52.662  54.150  0.00  0.00    +0.000 OA
ATOM     14  O   UNL     1      -7.660  55.147  54.502  0.00  0.00    +0.000 OA
ATOM     15  N   UNL     1      -8.519  54.235  52.364  0.00  0.00    +0.000 N 
ATOM     16  C   UNL     1      -5.898  53.949  53.066  0.00  0.00    +0.000 A 
ATOM     17  C   UNL     1      -8.065  54.252  51.147  0.00  0.00    +0.000 C 
ATOM     18  C   UNL     1      -5.680  54.018  51.698  0.00  0.00    +0.000 A 
ATOM     19  C   UNL     1      -4.861  53.835  53.993  0.00  0.00    +0.000 A 
ATOM     20  N   UNL     1      -6.735  54.135  50.797  0.00  0.00    +0.000 N 
ATOM     21  C   UNL     1      -4.357  53.935  51.251  0.00  0.00    +0.000 A 
ATOM     22  C   UNL     1      -3.551  53.773  53.533  0.00  0.00    +0.000 A 
ATOM     23  C   UNL     1      -3.300  53.816  52.162  0.00  0.00    +0.000 A 
ATOM     24  H   UNL     1      -9.482  54.375  52.516  0.00  0.00    +0.000 HD
ATOM     25  H   UNL     1      -6.516  54.135  49.837  0.00  0.00    +0.000 HD
ENDBRANCH   1  17
BRANCH   3  26
ATOM     26  O   UNL     1      -7.974  52.796  48.598  0.00  0.00    +0.000 OA
ATOM     27  H   UNL     1      -7.244  52.712  49.180  0.00  0.00    +0.000 HD
ENDBRANCH   3  26
BRANCH   5  28
ATOM     28  N   UNL     1     -11.920  56.763  49.186  0.00  0.00    +0.000 N 
ATOM     29  H   UNL     1     -11.669  57.710  49.291  0.00  0.00    +0.000 HD
BRANCH  28  30
ATOM     30  C   UNL     1     -13.340  56.333  49.141  0.00  0.00    +0.000 C 
BRANCH  30  31
ATOM     31  C   UNL     1     -14.156  57.576  48.701  0.00  0.00    +0.000 C 
ATOM     32  C   UNL     1     -14.150  57.811  47.195  0.00  0.00    +0.000 C 
ENDBRANCH  30  31
BRANCH  30  33
ATOM     33  C   UNL     1     -13.855  55.788  50.499  0.00  0.00    +0.000 C 
BRANCH  33  34
ATOM     34  C   UNL     1     -15.171  56.451  50.948  0.00  0.00    +0.000 C 
ATOM     35  C   UNL     1     -15.042  57.190  52.270  0.00  0.00    +0.000 C 
ENDBRANCH  33  34
ENDBRANCH  30  33
ENDBRANCH  28  30
ENDBRANCH   5  28
TORSDOF 7
ENDMDL
