MODEL 1
REMARK VINA RESULT:      -8.5      0.000      0.000
REMARK  Name = 
REMARK  5 active torsions:
REMARK  status: ('A' for Active; 'I' for Inactive)
REMARK    1  A    between atoms: C_6  and  C_10
REMARK    2  A    between atoms: C_14  and  O_18
REMARK    3  A    between atoms: N_17  and  N_20
REMARK    4  A    between atoms: N_20  and  C_23
REMARK    5  A    between atoms: C_23  and  C_26
REMARK                            x       y       z     vdW  Elec       q    Type
REMARK                         _______ _______ _______ _____ _____    ______ ____
ROOT
ATOM      1  C   UNL     1     -10.088  54.647  52.193  0.00  0.00    +0.000 A 
ATOM      2  C   UNL     1      -8.702  55.182  51.960  0.00  0.00    +0.000 A 
ATOM      3  C   UNL     1     -10.243  53.521  52.920  0.00  0.00    +0.000 A 
ATOM      4  O   UNL     1      -8.549  56.218  51.301  0.00  0.00    +0.000 OA
ATOM      5  N   UNL     1      -7.619  54.473  52.495  0.00  0.00    +0.000 N 
ATOM      6  C   UNL     1      -9.094  52.856  53.555  0.00  0.00    +0.000 A 
ATOM      7  C   UNL     1      -7.803  53.372  53.377  0.00  0.00    +0.000 A 
ATOM      8  C   UNL     1      -9.273  51.724  54.368  0.00  0.00    +0.000 A 
ATOM      9  C   UNL     1      -6.732  52.789  54.070  0.00  0.00    +0.000 A 
ATOM     10  C   UNL     1      -8.193  51.123  55.010  0.00  0.00    +0.000 A 
ATOM     11  C   UNL     1      -6.921  51.661  54.870  0.00  0.00    +0.000 A 
ENDROOT
BRANCH   1  17
ATOM     12  S   UNL     1     -12.635  56.109  49.549  0.00  0.00    +0.000 S 
ATOM     13  O   UNL     1     -13.495  55.066  49.033  0.00  0.00    +0.000 OA
ATOM     14  O   UNL     1     -12.083  57.115  48.659  0.00  0.00    +0.000 OA
ATOM     15  N   UNL     1     -11.390  55.402  50.309  0.00  0.00    +0.000 N 
ATOM     16  C   UNL     1     -13.577  56.978  50.741  0.00  0.00    +0.000 A 
ATOM     17  C   UNL     1     -11.301  55.378  51.609  0.00  0.00    +0.000 C 
ATOM     18  C   UNL     1     -13.259  56.786  52.079  0.00  0.00    +0.000 A 
ATOM     19  C   UNL     1     -14.609  57.827  50.330  0.00  0.00    +0.000 A 
ATOM     20  N   UNL     1     -12.210  55.957  52.467  0.00  0.00    +0.000 N 
ATOM     21  C   UNL     1     -14.034  57.452  53.034  0.00  0.00    +0.000 A 
ATOM     22  C   UNL     1     -15.359  58.495  51.293  0.00  0.00    +0.000 A 
ATOM     23  C   UNL     1     -15.074  58.303  52.645  0.00  0.00    +0.000 A 
ATOM     24  H   UNL     1     -10.680  54.979  49.773  0.00  0.00    +0.000 HD
ATOM     25  H   UNL     1     -12.110  55.770  53.429  0.00  0.00    +0.000 HD
ENDBRANCH   1  17
BRANCH   3  26
ATOM     26  O   UNL     1     -11.455  52.906  53.176  0.00  0.00    +0.000 OA
ATOM     27  H   UNL     1     -11.606  52.028  52.885  0.00  0.00    +0.000 HD
ENDBRANCH   3  26
BRANCH   5  28
ATOM     28  N   UNL     1      -6.297  54.994  52.259  0.00  0.00    +0.000 N 
ATOM     29  H   UNL     1      -5.789  55.514  52.924  0.00  0.00    +0.000 HD
BRANCH  28  30
ATOM     30  C   UNL     1      -5.784  54.667  50.915  0.00  0.00    +0.000 C 
BRANCH  30  31
ATOM     31  C   UNL     1      -4.457  53.918  51.029  0.00  0.00    +0.000 C 
ATOM     32  C   UNL     1      -4.574  52.382  51.241  0.00  0.00    +0.000 C 
ATOM     33  C   UNL     1      -3.687  53.941  52.385  0.00  0.00    +0.000 C 
ATOM     34  C   UNL     1      -3.301  52.472  52.105  0.00  0.00    +0.000 C 
ENDBRANCH  30  31
ENDBRANCH  28  30
ENDBRANCH   5  28
TORSDOF 5
ENDMDL
MODEL 2
REMARK VINA RESULT:      -8.2      2.896      8.123
REMARK  Name = 
REMARK  5 active torsions:
REMARK  status: ('A' for Active; 'I' for Inactive)
REMARK    1  A    between atoms: C_6  and  C_10
REMARK    2  A    between atoms: C_14  and  O_18
REMARK    3  A    between atoms: N_17  and  N_20
REMARK    4  A    between atoms: N_20  and  C_23
REMARK    5  A    between atoms: C_23  and  C_26
REMARK                            x       y       z     vdW  Elec       q    Type
REMARK                         _______ _______ _______ _____ _____    ______ ____
ROOT
ATOM      1  C   UNL     1      -9.881  54.162  50.957  0.00  0.00    +0.000 A 
ATOM      2  C   UNL     1     -10.978  55.137  51.285  0.00  0.00    +0.000 A 
ATOM      3  C   UNL     1      -9.699  53.789  49.673  0.00  0.00    +0.000 A 
ATOM      4  O   UNL     1     -11.150  55.492  52.458  0.00  0.00    +0.000 OA
ATOM      5  N   UNL     1     -11.783  55.606  50.239  0.00  0.00    +0.000 N 
ATOM      6  C   UNL     1     -10.494  54.378  48.584  0.00  0.00    +0.000 A 
ATOM      7  C   UNL     1     -11.490  55.318  48.878  0.00  0.00    +0.000 A 
ATOM      8  C   UNL     1     -10.249  54.034  47.243  0.00  0.00    +0.000 A 
ATOM      9  C   UNL     1     -12.170  55.946  47.823  0.00  0.00    +0.000 A 
ATOM     10  C   UNL     1     -10.966  54.628  46.208  0.00  0.00    +0.000 A 
ATOM     11  C   UNL     1     -11.922  55.593  46.496  0.00  0.00    +0.000 A 
ENDROOT
BRANCH   1  17
ATOM     12  S   UNL     1      -6.673  53.442  53.148  0.00  0.00    +0.000 S 
ATOM     13  O   UNL     1      -6.358  54.577  53.986  0.00  0.00    +0.000 OA
ATOM     14  O   UNL     1      -5.617  52.715  52.467  0.00  0.00    +0.000 OA
ATOM     15  N   UNL     1      -7.730  53.929  52.020  0.00  0.00    +0.000 N 
ATOM     16  C   UNL     1      -7.478  52.278  54.179  0.00  0.00    +0.000 A 
ATOM     17  C   UNL     1      -8.990  53.605  52.071  0.00  0.00    +0.000 C 
ATOM     18  C   UNL     1      -8.845  52.107  54.014  0.00  0.00    +0.000 A 
ATOM     19  C   UNL     1      -6.741  51.562  55.128  0.00  0.00    +0.000 A 
ATOM     20  N   UNL     1      -9.555  52.811  53.044  0.00  0.00    +0.000 N 
ATOM     21  C   UNL     1      -9.496  51.203  54.861  0.00  0.00    +0.000 A 
ATOM     22  C   UNL     1      -7.402  50.654  55.951  0.00  0.00    +0.000 A 
ATOM     23  C   UNL     1      -8.779  50.480  55.820  0.00  0.00    +0.000 A 
ATOM     24  H   UNL     1      -7.409  54.486  51.273  0.00  0.00    +0.000 HD
ATOM     25  H   UNL     1     -10.537  52.733  53.055  0.00  0.00    +0.000 HD
ENDBRANCH   1  17
BRANCH   3  26
ATOM     26  O   UNL     1      -8.754  52.874  49.242  0.00  0.00    +0.000 OA
ATOM     27  H   UNL     1      -8.517  52.836  48.336  0.00  0.00    +0.000 HD
ENDBRANCH   3  26
BRANCH   5  28
ATOM     28  N   UNL     1     -12.833  56.536  50.569  0.00  0.00    +0.000 N 
ATOM     29  H   UNL     1     -12.740  57.513  50.492  0.00  0.00    +0.000 HD
BRANCH  28  30
ATOM     30  C   UNL     1     -14.063  55.867  51.036  0.00  0.00    +0.000 C 
BRANCH  30  31
ATOM     31  C   UNL     1     -14.853  56.805  51.949  0.00  0.00    +0.000 C 
ATOM     32  C   UNL     1     -15.243  58.174  51.322  0.00  0.00    +0.000 C 
ATOM     33  C   UNL     1     -14.090  57.635  53.027  0.00  0.00    +0.000 C 
ATOM     34  C   UNL     1     -15.071  58.788  52.725  0.00  0.00    +0.000 C 
ENDBRANCH  30  31
ENDBRANCH  28  30
ENDBRANCH   5  28
TORSDOF 5
ENDMDL
MODEL 3
REMARK VINA RESULT:      -8.1      3.144      8.314
REMARK  Name = 
REMARK  5 active torsions:
REMARK  status: ('A' for Active; 'I' for Inactive)
REMARK    1  A    between atoms: C_6  and  C_10
REMARK    2  A    between atoms: C_14  and  O_18
REMARK    3  A    between atoms: N_17  and  N_20
REMARK    4  A    between atoms: N_20  and  C_23
REMARK    5  A    between atoms: C_23  and  C_26
REMARK                            x       y       z     vdW  Elec       q    Type
REMARK                         _______ _______ _______ _____ _____    ______ ____
ROOT
ATOM      1  C   UNL     1      -8.947  54.449  50.209  0.00  0.00    +0.000 A 
ATOM      2  C   UNL     1     -10.406  54.482  50.573  0.00  0.00    +0.000 A 
ATOM      3  C   UNL     1      -8.598  54.273  48.917  0.00  0.00    +0.000 A 
ATOM      4  O   UNL     1     -10.738  54.649  51.754  0.00  0.00    +0.000 OA
ATOM      5  N   UNL     1     -11.348  54.309  49.552  0.00  0.00    +0.000 N 
ATOM      6  C   UNL     1      -9.612  54.197  47.854  0.00  0.00    +0.000 A 
ATOM      7  C   UNL     1     -10.973  54.270  48.181  0.00  0.00    +0.000 A 
ATOM      8  C   UNL     1      -9.236  54.085  46.504  0.00  0.00    +0.000 A 
ATOM      9  C   UNL     1     -11.923  54.299  47.149  0.00  0.00    +0.000 A 
ATOM     10  C   UNL     1     -10.193  54.064  45.492  0.00  0.00    +0.000 A 
ATOM     11  C   UNL     1     -11.539  54.181  45.813  0.00  0.00    +0.000 A 
ENDROOT
BRANCH   1  17
ATOM     12  S   UNL     1      -7.094  55.773  53.438  0.00  0.00    +0.000 S 
ATOM     13  O   UNL     1      -7.681  55.210  54.634  0.00  0.00    +0.000 OA
ATOM     14  O   UNL     1      -6.714  57.173  53.394  0.00  0.00    +0.000 OA
ATOM     15  N   UNL     1      -8.116  55.511  52.207  0.00  0.00    +0.000 N 
ATOM     16  C   UNL     1      -5.631  54.861  53.132  0.00  0.00    +0.000 A 
ATOM     17  C   UNL     1      -7.880  54.611  51.296  0.00  0.00    +0.000 C 
ATOM     18  C   UNL     1      -5.638  53.967  52.070  0.00  0.00    +0.000 A 
ATOM     19  C   UNL     1      -4.511  55.047  53.949  0.00  0.00    +0.000 A 
ATOM     20  N   UNL     1      -6.756  53.817  51.252  0.00  0.00    +0.000 N 
ATOM     21  C   UNL     1      -4.482  53.212  51.846  0.00  0.00    +0.000 A 
ATOM     22  C   UNL     1      -3.363  54.299  53.701  0.00  0.00    +0.000 A 
ATOM     23  C   UNL     1      -3.352  53.379  52.653  0.00  0.00    +0.000 A 
ATOM     24  H   UNL     1      -8.939  56.049  52.146  0.00  0.00    +0.000 HD
ATOM     25  H   UNL     1      -6.740  53.086  50.592  0.00  0.00    +0.000 HD
ENDBRANCH   1  17
BRANCH   3  26
ATOM     26  O   UNL     1      -7.297  54.187  48.454  0.00  0.00    +0.000 OA
ATOM     27  H   UNL     1      -6.933  53.352  48.232  0.00  0.00    +0.000 HD
ENDBRANCH   3  26
BRANCH   5  28
ATOM     28  N   UNL     1     -12.742  54.338  49.916  0.00  0.00    +0.000 N 
ATOM     29  H   UNL     1     -13.279  53.529  50.083  0.00  0.00    +0.000 HD
BRANCH  28  30
ATOM     30  C   UNL     1     -13.280  55.709  50.012  0.00  0.00    +0.000 C 
BRANCH  30  31
ATOM     31  C   UNL     1     -14.126  55.851  51.276  0.00  0.00    +0.000 C 
ATOM     32  C   UNL     1     -15.473  56.609  51.095  0.00  0.00    +0.000 C 
ATOM     33  C   UNL     1     -13.763  56.959  52.312  0.00  0.00    +0.000 C 
ATOM     34  C   UNL     1     -15.280  57.154  52.524  0.00  0.00    +0.000 C 
ENDBRANCH  30  31
ENDBRANCH  28  30
ENDBRANCH   5  28
TORSDOF 5
ENDMDL
MODEL 4
REMARK VINA RESULT:      -8.1      4.281      5.366
REMARK  Name = 
REMARK  5 active torsions:
REMARK  status: ('A' for Active; 'I' for Inactive)
REMARK    1  A    between atoms: C_6  and  C_10
REMARK    2  A    between atoms: C_14  and  O_18
REMARK    3  A    between atoms: N_17  and  N_20
REMARK    4  A    between atoms: N_20  and  C_23
REMARK    5  A    between atoms: C_23  and  C_26
REMARK                            x       y       z     vdW  Elec       q    Type
REMARK                         _______ _______ _______ _____ _____    ______ ____
ROOT
ATOM      1  C   UNL     1     -12.272  54.321  49.760  0.00  0.00    +0.000 A 
ATOM      2  C   UNL     1     -11.527  54.295  48.453  0.00  0.00    +0.000 A 
ATOM      3  C   UNL     1     -12.159  53.271  50.599  0.00  0.00    +0.000 A 
ATOM      4  O   UNL     1     -11.618  55.256  47.678  0.00  0.00    +0.000 OA
ATOM      5  N   UNL     1     -10.755  53.165  48.152  0.00  0.00    +0.000 N 
ATOM      6  C   UNL     1     -11.260  52.145  50.300  0.00  0.00    +0.000 A 
ATOM      7  C   UNL     1     -10.530  52.134  49.104  0.00  0.00    +0.000 A 
ATOM      8  C   UNL     1     -11.096  51.090  51.214  0.00  0.00    +0.000 A 
ATOM      9  C   UNL     1      -9.602  51.106  48.880  0.00  0.00    +0.000 A 
ATOM     10  C   UNL     1     -10.207  50.048  50.955  0.00  0.00    +0.000 A 
ATOM     11  C   UNL     1      -9.451  50.060  49.792  0.00  0.00    +0.000 A 
ENDROOT
BRANCH   1  17
ATOM     12  S   UNL     1     -15.304  56.436  51.154  0.00  0.00    +0.000 S 
ATOM     13  O   UNL     1     -15.245  56.530  52.596  0.00  0.00    +0.000 OA
ATOM     14  O   UNL     1     -16.571  56.205  50.484  0.00  0.00    +0.000 OA
ATOM     15  N   UNL     1     -14.289  55.262  50.686  0.00  0.00    +0.000 N 
ATOM     16  C   UNL     1     -14.697  57.957  50.537  0.00  0.00    +0.000 A 
ATOM     17  C   UNL     1     -13.146  55.526  50.121  0.00  0.00    +0.000 C 
ATOM     18  C   UNL     1     -13.437  57.961  49.955  0.00  0.00    +0.000 A 
ATOM     19  C   UNL     1     -15.478  59.113  50.643  0.00  0.00    +0.000 A 
ATOM     20  N   UNL     1     -12.687  56.793  49.836  0.00  0.00    +0.000 N 
ATOM     21  C   UNL     1     -12.936  59.182  49.494  0.00  0.00    +0.000 A 
ATOM     22  C   UNL     1     -14.970  60.317  50.162  0.00  0.00    +0.000 A 
ATOM     23  C   UNL     1     -13.698  60.351  49.593  0.00  0.00    +0.000 A 
ATOM     24  H   UNL     1     -14.545  54.322  50.832  0.00  0.00    +0.000 HD
ATOM     25  H   UNL     1     -11.757  56.881  49.523  0.00  0.00    +0.000 HD
ENDBRANCH   1  17
BRANCH   3  26
ATOM     26  O   UNL     1     -12.818  53.153  51.810  0.00  0.00    +0.000 OA
ATOM     27  H   UNL     1     -13.687  52.803  51.838  0.00  0.00    +0.000 HD
ENDBRANCH   3  26
BRANCH   5  28
ATOM     28  N   UNL     1     -10.051  53.153  46.895  0.00  0.00    +0.000 N 
ATOM     29  H   UNL     1      -9.154  53.540  46.769  0.00  0.00    +0.000 HD
BRANCH  28  30
ATOM     30  C   UNL     1     -10.818  52.500  45.816  0.00  0.00    +0.000 C 
BRANCH  30  31
ATOM     31  C   UNL     1     -10.350  53.017  44.457  0.00  0.00    +0.000 C 
ATOM     32  C   UNL     1     -10.327  51.961  43.314  0.00  0.00    +0.000 C 
ATOM     33  C   UNL     1      -8.822  53.182  44.192  0.00  0.00    +0.000 C 
ATOM     34  C   UNL     1      -9.095  52.696  42.752  0.00  0.00    +0.000 C 
ENDBRANCH  30  31
ENDBRANCH  28  30
ENDBRANCH   5  28
TORSDOF 5
ENDMDL
MODEL 5
REMARK VINA RESULT:      -8.0      3.437      4.980
REMARK  Name = 
REMARK  5 active torsions:
REMARK  status: ('A' for Active; 'I' for Inactive)
REMARK    1  A    between atoms: C_6  and  C_10
REMARK    2  A    between atoms: C_14  and  O_18
REMARK    3  A    between atoms: N_17  and  N_20
REMARK    4  A    between atoms: N_20  and  C_23
REMARK    5  A    between atoms: C_23  and  C_26
REMARK                            x       y       z     vdW  Elec       q    Type
REMARK                         _______ _______ _______ _____ _____    ______ ____
ROOT
ATOM      1  C   UNL     1     -11.584  56.075  48.588  0.00  0.00    +0.000 A 
ATOM      2  C   UNL     1     -10.330  55.580  49.254  0.00  0.00    +0.000 A 
ATOM      3  C   UNL     1     -11.867  55.662  47.334  0.00  0.00    +0.000 A 
ATOM      4  O   UNL     1     -10.064  55.947  50.406  0.00  0.00    +0.000 OA
ATOM      5  N   UNL     1      -9.492  54.719  48.534  0.00  0.00    +0.000 N 
ATOM      6  C   UNL     1     -11.021  54.677  46.644  0.00  0.00    +0.000 A 
ATOM      7  C   UNL     1      -9.873  54.179  47.275  0.00  0.00    +0.000 A 
ATOM      8  C   UNL     1     -11.363  54.200  45.367  0.00  0.00    +0.000 A 
ATOM      9  C   UNL     1      -9.133  53.166  46.646  0.00  0.00    +0.000 A 
ATOM     10  C   UNL     1     -10.590  53.230  44.732  0.00  0.00    +0.000 A 
ATOM     11  C   UNL     1      -9.478  52.704  45.376  0.00  0.00    +0.000 A 
ENDROOT
BRANCH   1  17
ATOM     12  S   UNL     1     -13.591  59.355  49.498  0.00  0.00    +0.000 S 
ATOM     13  O   UNL     1     -14.740  59.511  48.633  0.00  0.00    +0.000 OA
ATOM     14  O   UNL     1     -12.768  60.500  49.842  0.00  0.00    +0.000 OA
ATOM     15  N   UNL     1     -12.616  58.239  48.840  0.00  0.00    +0.000 N 
ATOM     16  C   UNL     1     -14.199  58.720  51.012  0.00  0.00    +0.000 A 
ATOM     17  C   UNL     1     -12.519  57.036  49.328  0.00  0.00    +0.000 C 
ATOM     18  C   UNL     1     -13.936  57.389  51.305  0.00  0.00    +0.000 A 
ATOM     19  C   UNL     1     -14.923  59.549  51.874  0.00  0.00    +0.000 A 
ATOM     20  N   UNL     1     -13.191  56.587  50.444  0.00  0.00    +0.000 N 
ATOM     21  C   UNL     1     -14.452  56.870  52.498  0.00  0.00    +0.000 A 
ATOM     22  C   UNL     1     -15.414  59.021  53.065  0.00  0.00    +0.000 A 
ATOM     23  C   UNL     1     -15.182  57.681  53.373  0.00  0.00    +0.000 A 
ATOM     24  H   UNL     1     -12.080  58.479  48.049  0.00  0.00    +0.000 HD
ATOM     25  H   UNL     1     -13.139  55.625  50.650  0.00  0.00    +0.000 HD
ENDBRANCH   1  17
BRANCH   3  26
ATOM     26  O   UNL     1     -12.965  56.069  46.597  0.00  0.00    +0.000 OA
ATOM     27  H   UNL     1     -12.962  55.980  45.664  0.00  0.00    +0.000 HD
ENDBRANCH   3  26
BRANCH   5  28
ATOM     28  N   UNL     1      -8.292  54.257  49.183  0.00  0.00    +0.000 N 
ATOM     29  H   UNL     1      -8.258  53.462  49.763  0.00  0.00    +0.000 HD
BRANCH  28  30
ATOM     30  C   UNL     1      -7.120  55.103  48.888  0.00  0.00    +0.000 C 
BRANCH  30  31
ATOM     31  C   UNL     1      -6.267  55.272  50.145  0.00  0.00    +0.000 C 
ATOM     32  C   UNL     1      -5.011  54.357  50.226  0.00  0.00    +0.000 C 
ATOM     33  C   UNL     1      -6.723  54.586  51.469  0.00  0.00    +0.000 C 
ATOM     34  C   UNL     1      -5.231  54.307  51.751  0.00  0.00    +0.000 C 
ENDBRANCH  30  31
ENDBRANCH  28  30
ENDBRANCH   5  28
TORSDOF 5
ENDMDL
MODEL 6
REMARK VINA RESULT:      -7.9      3.644      5.099
REMARK  Name = 
REMARK  5 active torsions:
REMARK  status: ('A' for Active; 'I' for Inactive)
REMARK    1  A    between atoms: C_6  and  C_10
REMARK    2  A    between atoms: C_14  and  O_18
REMARK    3  A    between atoms: N_17  and  N_20
REMARK    4  A    between atoms: N_20  and  C_23
REMARK    5  A    between atoms: C_23  and  C_26
REMARK                            x       y       z     vdW  Elec       q    Type
REMARK                         _______ _______ _______ _____ _____    ______ ____
ROOT
ATOM      1  C   UNL     1     -10.661  55.645  48.235  0.00  0.00    +0.000 A 
ATOM      2  C   UNL     1      -9.192  55.690  48.555  0.00  0.00    +0.000 A 
ATOM      3  C   UNL     1     -11.064  55.055  47.090  0.00  0.00    +0.000 A 
ATOM      4  O   UNL     1      -8.811  56.223  49.606  0.00  0.00    +0.000 OA
ATOM      5  N   UNL     1      -8.296  55.129  47.637  0.00  0.00    +0.000 N 
ATOM      6  C   UNL     1     -10.106  54.385  46.196  0.00  0.00    +0.000 A 
ATOM      7  C   UNL     1      -8.741  54.386  46.510  0.00  0.00    +0.000 A 
ATOM      8  C   UNL     1     -10.545  53.712  45.043  0.00  0.00    +0.000 A 
ATOM      9  C   UNL     1      -7.854  53.657  45.703  0.00  0.00    +0.000 A 
ATOM     10  C   UNL     1      -9.646  53.034  44.222  0.00  0.00    +0.000 A 
ATOM     11  C   UNL     1      -8.300  52.998  44.557  0.00  0.00    +0.000 A 
ENDROOT
BRANCH   1  17
ATOM     12  S   UNL     1     -13.122  56.041  51.300  0.00  0.00    +0.000 S 
ATOM     13  O   UNL     1     -12.386  56.287  52.521  0.00  0.00    +0.000 OA
ATOM     14  O   UNL     1     -14.257  55.136  51.295  0.00  0.00    +0.000 OA
ATOM     15  N   UNL     1     -12.075  55.510  50.183  0.00  0.00    +0.000 N 
ATOM     16  C   UNL     1     -13.736  57.594  50.776  0.00  0.00    +0.000 A 
ATOM     17  C   UNL     1     -11.676  56.265  49.199  0.00  0.00    +0.000 C 
ATOM     18  C   UNL     1     -13.138  58.184  49.671  0.00  0.00    +0.000 A 
ATOM     19  C   UNL     1     -14.792  58.195  51.467  0.00  0.00    +0.000 A 
ATOM     20  N   UNL     1     -12.104  57.556  48.980  0.00  0.00    +0.000 N 
ATOM     21  C   UNL     1     -13.603  59.441  49.271  0.00  0.00    +0.000 A 
ATOM     22  C   UNL     1     -15.255  59.439  51.045  0.00  0.00    +0.000 A 
ATOM     23  C   UNL     1     -14.656  60.063  49.951  0.00  0.00    +0.000 A 
ATOM     24  H   UNL     1     -11.731  54.589  50.248  0.00  0.00    +0.000 HD
ATOM     25  H   UNL     1     -11.644  58.075  48.280  0.00  0.00    +0.000 HD
ENDBRANCH   1  17
BRANCH   3  26
ATOM     26  O   UNL     1     -12.377  54.979  46.660  0.00  0.00    +0.000 OA
ATOM     27  H   UNL     1     -12.589  54.497  45.884  0.00  0.00    +0.000 HD
ENDBRANCH   3  26
BRANCH   5  28
ATOM     28  N   UNL     1      -6.891  55.184  47.955  0.00  0.00    +0.000 N 
ATOM     29  H   UNL     1      -6.287  55.892  47.634  0.00  0.00    +0.000 HD
BRANCH  28  30
ATOM     30  C   UNL     1      -6.455  54.065  48.812  0.00  0.00    +0.000 C 
BRANCH  30  31
ATOM     31  C   UNL     1      -5.521  54.578  49.907  0.00  0.00    +0.000 C 
ATOM     32  C   UNL     1      -4.402  53.591  50.346  0.00  0.00    +0.000 C 
ATOM     33  C   UNL     1      -5.996  54.535  51.392  0.00  0.00    +0.000 C 
ATOM     34  C   UNL     1      -4.544  54.168  51.768  0.00  0.00    +0.000 C 
ENDBRANCH  30  31
ENDBRANCH  28  30
ENDBRANCH   5  28
TORSDOF 5
ENDMDL
MODEL 7
REMARK VINA RESULT:      -7.9      2.763      8.493
REMARK  Name = 
REMARK  5 active torsions:
REMARK  status: ('A' for Active; 'I' for Inactive)
REMARK    1  A    between atoms: C_6  and  C_10
REMARK    2  A    between atoms: C_14  and  O_18
REMARK    3  A    between atoms: N_17  and  N_20
REMARK    4  A    between atoms: N_20  and  C_23
REMARK    5  A    between atoms: C_23  and  C_26
REMARK                            x       y       z     vdW  Elec       q    Type
REMARK                         _______ _______ _______ _____ _____    ______ ____
ROOT
ATOM      1  C   UNL     1      -9.692  53.990  50.647  0.00  0.00    +0.000 A 
ATOM      2  C   UNL     1     -10.939  54.325  51.418  0.00  0.00    +0.000 A 
ATOM      3  C   UNL     1      -9.655  54.235  49.321  0.00  0.00    +0.000 A 
ATOM      4  O   UNL     1     -10.982  54.111  52.636  0.00  0.00    +0.000 OA
ATOM      5  N   UNL     1     -12.026  54.864  50.717  0.00  0.00    +0.000 N 
ATOM      6  C   UNL     1     -10.775  54.896  48.633  0.00  0.00    +0.000 A 
ATOM      7  C   UNL     1     -11.924  55.249  49.353  0.00  0.00    +0.000 A 
ATOM      8  C   UNL     1     -10.698  55.210  47.265  0.00  0.00    +0.000 A 
ATOM      9  C   UNL     1     -12.940  55.970  48.706  0.00  0.00    +0.000 A 
ATOM     10  C   UNL     1     -11.737  55.881  46.624  0.00  0.00    +0.000 A 
ATOM     11  C   UNL     1     -12.856  56.271  47.347  0.00  0.00    +0.000 A 
ENDROOT
BRANCH   1  17
ATOM     12  S   UNL     1      -7.560  51.625  52.987  0.00  0.00    +0.000 S 
ATOM     13  O   UNL     1      -7.363  50.332  52.369  0.00  0.00    +0.000 OA
ATOM     14  O   UNL     1      -7.869  51.724  54.402  0.00  0.00    +0.000 OA
ATOM     15  N   UNL     1      -8.738  52.393  52.181  0.00  0.00    +0.000 N 
ATOM     16  C   UNL     1      -6.071  52.515  52.751  0.00  0.00    +0.000 A 
ATOM     17  C   UNL     1      -8.486  53.378  51.368  0.00  0.00    +0.000 C 
ATOM     18  C   UNL     1      -6.077  53.548  51.824  0.00  0.00    +0.000 A 
ATOM     19  C   UNL     1      -4.930  52.172  53.484  0.00  0.00    +0.000 A 
ATOM     20  N   UNL     1      -7.231  53.891  51.124  0.00  0.00    +0.000 N 
ATOM     21  C   UNL     1      -4.879  54.237  51.608  0.00  0.00    +0.000 A 
ATOM     22  C   UNL     1      -3.751  52.880  53.269  0.00  0.00    +0.000 A 
ATOM     23  C   UNL     1      -3.725  53.908  52.327  0.00  0.00    +0.000 A 
ATOM     24  H   UNL     1      -9.671  52.106  52.310  0.00  0.00    +0.000 HD
ATOM     25  H   UNL     1      -7.143  54.552  50.398  0.00  0.00    +0.000 HD
ENDBRANCH   1  17
BRANCH   3  26
ATOM     26  O   UNL     1      -8.587  53.940  48.492  0.00  0.00    +0.000 OA
ATOM     27  H   UNL     1      -8.718  53.413  47.728  0.00  0.00    +0.000 HD
ENDBRANCH   3  26
BRANCH   5  28
ATOM     28  N   UNL     1     -13.216  55.175  51.467  0.00  0.00    +0.000 N 
ATOM     29  H   UNL     1     -14.009  54.593  51.498  0.00  0.00    +0.000 HD
BRANCH  28  30
ATOM     30  C   UNL     1     -13.121  56.462  52.184  0.00  0.00    +0.000 C 
BRANCH  30  31
ATOM     31  C   UNL     1     -14.387  57.285  51.950  0.00  0.00    +0.000 C 
ATOM     32  C   UNL     1     -14.203  58.558  51.075  0.00  0.00    +0.000 C 
ATOM     33  C   UNL     1     -14.879  58.254  53.069  0.00  0.00    +0.000 C 
ATOM     34  C   UNL     1     -15.286  59.229  51.942  0.00  0.00    +0.000 C 
ENDBRANCH  30  31
ENDBRANCH  28  30
ENDBRANCH   5  28
TORSDOF 5
ENDMDL
MODEL 8
REMARK VINA RESULT:      -7.8      3.623      7.432
REMARK  Name = 
REMARK  5 active torsions:
REMARK  status: ('A' for Active; 'I' for Inactive)
REMARK    1  A    between atoms: C_6  and  C_10
REMARK    2  A    between atoms: C_14  and  O_18
REMARK    3  A    between atoms: N_17  and  N_20
REMARK    4  A    between atoms: N_20  and  C_23
REMARK    5  A    between atoms: C_23  and  C_26
REMARK                            x       y       z     vdW  Elec       q    Type
REMARK                         _______ _______ _______ _____ _____    ______ ____
ROOT
ATOM      1  C   UNL     1     -10.181  55.108  50.606  0.00  0.00    +0.000 A 
ATOM      2  C   UNL     1      -9.829  54.991  49.148  0.00  0.00    +0.000 A 
ATOM      3  C   UNL     1     -11.337  55.711  50.955  0.00  0.00    +0.000 A 
ATOM      4  O   UNL     1      -8.774  54.434  48.817  0.00  0.00    +0.000 OA
ATOM      5  N   UNL     1     -10.713  55.534  48.207  0.00  0.00    +0.000 N 
ATOM      6  C   UNL     1     -12.293  56.179  49.938  0.00  0.00    +0.000 A 
ATOM      7  C   UNL     1     -11.991  56.036  48.578  0.00  0.00    +0.000 A 
ATOM      8  C   UNL     1     -13.526  56.742  50.312  0.00  0.00    +0.000 A 
ATOM      9  C   UNL     1     -12.954  56.393  47.623  0.00  0.00    +0.000 A 
ATOM     10  C   UNL     1     -14.453  57.139  49.351  0.00  0.00    +0.000 A 
ATOM     11  C   UNL     1     -14.172  56.956  48.005  0.00  0.00    +0.000 A 
ENDROOT
BRANCH   1  17
ATOM     12  S   UNL     1      -6.948  54.615  52.824  0.00  0.00    +0.000 S 
ATOM     13  O   UNL     1      -6.851  55.651  53.828  0.00  0.00    +0.000 OA
ATOM     14  O   UNL     1      -5.768  54.182  52.097  0.00  0.00    +0.000 OA
ATOM     15  N   UNL     1      -8.047  55.081  51.727  0.00  0.00    +0.000 N 
ATOM     16  C   UNL     1      -7.566  53.195  53.641  0.00  0.00    +0.000 A 
ATOM     17  C   UNL     1      -9.234  54.549  51.672  0.00  0.00    +0.000 C 
ATOM     18  C   UNL     1      -8.879  52.826  53.388  0.00  0.00    +0.000 A 
ATOM     19  C   UNL     1      -6.740  52.479  54.513  0.00  0.00    +0.000 A 
ATOM     20  N   UNL     1      -9.677  53.537  52.495  0.00  0.00    +0.000 N 
ATOM     21  C   UNL     1      -9.385  51.712  54.067  0.00  0.00    +0.000 A 
ATOM     22  C   UNL     1      -7.254  51.363  55.167  0.00  0.00    +0.000 A 
ATOM     23  C   UNL     1      -8.578  50.984  54.947  0.00  0.00    +0.000 A 
ATOM     24  H   UNL     1      -7.809  55.787  51.082  0.00  0.00    +0.000 HD
ATOM     25  H   UNL     1     -10.631  53.297  52.448  0.00  0.00    +0.000 HD
ENDBRANCH   1  17
BRANCH   3  26
ATOM     26  O   UNL     1     -11.761  55.916  52.256  0.00  0.00    +0.000 OA
ATOM     27  H   UNL     1     -11.901  56.787  52.571  0.00  0.00    +0.000 HD
ENDBRANCH   3  26
BRANCH   5  28
ATOM     28  N   UNL     1     -10.360  55.420  46.815  0.00  0.00    +0.000 N 
ATOM     29  H   UNL     1      -9.747  56.038  46.355  0.00  0.00    +0.000 HD
BRANCH  28  30
ATOM     30  C   UNL     1     -11.016  54.277  46.151  0.00  0.00    +0.000 C 
BRANCH  30  31
ATOM     31  C   UNL     1      -9.964  53.360  45.528  0.00  0.00    +0.000 C 
ATOM     32  C   UNL     1      -8.640  54.056  45.104  0.00  0.00    +0.000 C 
ATOM     33  C   UNL     1     -10.105  52.950  44.030  0.00  0.00    +0.000 C 
ATOM     34  C   UNL     1      -8.568  53.057  43.933  0.00  0.00    +0.000 C 
ENDBRANCH  30  31
ENDBRANCH  28  30
ENDBRANCH   5  28
TORSDOF 5
ENDMDL
MODEL 9
REMARK VINA RESULT:      -7.6      1.715      2.570
REMARK  Name = 
REMARK  5 active torsions:
REMARK  status: ('A' for Active; 'I' for Inactive)
REMARK    1  A    between atoms: C_6  and  C_10
REMARK    2  A    between atoms: C_14  and  O_18
REMARK    3  A    between atoms: N_17  and  N_20
REMARK    4  A    between atoms: N_20  and  C_23
REMARK    5  A    between atoms: C_23  and  C_26
REMARK                            x       y       z     vdW  Elec       q    Type
REMARK                         _______ _______ _______ _____ _____    ______ ____
ROOT
ATOM      1  C   UNL     1     -10.121  54.584  52.150  0.00  0.00    +0.000 A 
ATOM      2  C   UNL     1      -8.707  55.090  52.060  0.00  0.00    +0.000 A 
ATOM      3  C   UNL     1     -10.369  53.455  52.846  0.00  0.00    +0.000 A 
ATOM      4  O   UNL     1      -8.469  56.128  51.430  0.00  0.00    +0.000 OA
ATOM      5  N   UNL     1      -7.698  54.353  52.691  0.00  0.00    +0.000 N 
ATOM      6  C   UNL     1      -9.303  52.760  53.584  0.00  0.00    +0.000 A 
ATOM      7  C   UNL     1      -7.991  53.249  53.539  0.00  0.00    +0.000 A 
ATOM      8  C   UNL     1      -9.585  51.625  54.364  0.00  0.00    +0.000 A 
ATOM      9  C   UNL     1      -7.006  52.637  54.328  0.00  0.00    +0.000 A 
ATOM     10  C   UNL     1      -8.586  50.996  55.103  0.00  0.00    +0.000 A 
ATOM     11  C   UNL     1      -7.296  51.507  55.094  0.00  0.00    +0.000 A 
ENDROOT
BRANCH   1  17
ATOM     12  S   UNL     1     -13.515  56.535  51.620  0.00  0.00    +0.000 S 
ATOM     13  O   UNL     1     -13.404  57.898  52.093  0.00  0.00    +0.000 OA
ATOM     14  O   UNL     1     -14.715  55.761  51.885  0.00  0.00    +0.000 OA
ATOM     15  N   UNL     1     -12.259  55.696  52.207  0.00  0.00    +0.000 N 
ATOM     16  C   UNL     1     -13.356  56.605  49.878  0.00  0.00    +0.000 A 
ATOM     17  C   UNL     1     -11.255  55.345  51.456  0.00  0.00    +0.000 C 
ATOM     18  C   UNL     1     -12.172  56.141  49.320  0.00  0.00    +0.000 A 
ATOM     19  C   UNL     1     -14.401  57.117  49.103  0.00  0.00    +0.000 A 
ATOM     20  N   UNL     1     -11.154  55.610  50.108  0.00  0.00    +0.000 N 
ATOM     21  C   UNL     1     -12.029  56.229  47.931  0.00  0.00    +0.000 A 
ATOM     22  C   UNL     1     -14.247  57.181  47.720  0.00  0.00    +0.000 A 
ATOM     23  C   UNL     1     -13.059  56.741  47.137  0.00  0.00    +0.000 A 
ATOM     24  H   UNL     1     -12.256  55.444  53.159  0.00  0.00    +0.000 HD
ATOM     25  H   UNL     1     -10.297  55.408  49.667  0.00  0.00    +0.000 HD
ENDBRANCH   1  17
BRANCH   3  26
ATOM     26  O   UNL     1     -11.614  52.864  52.976  0.00  0.00    +0.000 OA
ATOM     27  H   UNL     1     -11.989  52.398  52.254  0.00  0.00    +0.000 HD
ENDBRANCH   3  26
BRANCH   5  28
ATOM     28  N   UNL     1      -6.348  54.847  52.592  0.00  0.00    +0.000 N 
ATOM     29  H   UNL     1      -6.022  55.641  53.074  0.00  0.00    +0.000 HD
BRANCH  28  30
ATOM     30  C   UNL     1      -5.507  54.037  51.690  0.00  0.00    +0.000 C 
BRANCH  30  31
ATOM     31  C   UNL     1      -5.657  54.532  50.252  0.00  0.00    +0.000 C 
ATOM     32  C   UNL     1      -6.640  53.715  49.365  0.00  0.00    +0.000 C 
ATOM     33  C   UNL     1      -4.565  54.156  49.202  0.00  0.00    +0.000 C 
ATOM     34  C   UNL     1      -5.709  54.014  48.175  0.00  0.00    +0.000 C 
ENDBRANCH  30  31
ENDBRANCH  28  30
ENDBRANCH   5  28
TORSDOF 5
ENDMDL
