MODEL 1
REMARK VINA RESULT:      -8.4      0.000      0.000
REMARK  Name = 
REMARK  7 active torsions:
REMARK  status: ('A' for Active; 'I' for Inactive)
REMARK    1  A    between atoms: C_6  and  C_10
REMARK    2  A    between atoms: C_14  and  O_18
REMARK    3  A    between atoms: N_17  and  N_20
REMARK    4  A    between atoms: N_20  and  C_23
REMARK    5  A    between atoms: C_23  and  C_26
REMARK    6  A    between atoms: C_26  and  C_28
REMARK    7  A    between atoms: C_26  and  C_29
REMARK                            x       y       z     vdW  Elec       q    Type
REMARK                         _______ _______ _______ _____ _____    ______ ____
ROOT
ATOM      1  C   UNL     1     -10.096  54.434  52.296  0.00  0.00    +0.000 A 
ATOM      2  C   UNL     1      -8.727  55.006  52.165  0.00  0.00    +0.000 A 
ATOM      3  C   UNL     1     -10.310  53.325  53.020  0.00  0.00    +0.000 A 
ATOM      4  O   UNL     1      -8.594  56.003  51.449  0.00  0.00    +0.000 OA
ATOM      5  N   UNL     1      -7.689  54.399  52.878  0.00  0.00    +0.000 N 
ATOM      6  C   UNL     1      -9.199  52.677  53.733  0.00  0.00    +0.000 A 
ATOM      7  C   UNL     1      -7.903  53.216  53.650  0.00  0.00    +0.000 A 
ATOM      8  C   UNL     1      -9.422  51.529  54.513  0.00  0.00    +0.000 A 
ATOM      9  C   UNL     1      -6.854  52.581  54.335  0.00  0.00    +0.000 A 
ATOM     10  C   UNL     1      -8.376  50.920  55.204  0.00  0.00    +0.000 A 
ATOM     11  C   UNL     1      -7.092  51.443  55.111  0.00  0.00    +0.000 A 
ENDROOT
BRANCH   1  17
ATOM     12  S   UNL     1     -12.423  55.959  49.520  0.00  0.00    +0.000 S 
ATOM     13  O   UNL     1     -13.324  54.981  48.947  0.00  0.00    +0.000 OA
ATOM     14  O   UNL     1     -11.762  56.933  48.674  0.00  0.00    +0.000 OA
ATOM     15  N   UNL     1     -11.280  55.156  50.338  0.00  0.00    +0.000 N 
ATOM     16  C   UNL     1     -13.376  56.887  50.669  0.00  0.00    +0.000 A 
ATOM     17  C   UNL     1     -11.249  55.173  51.636  0.00  0.00    +0.000 C 
ATOM     18  C   UNL     1     -13.121  56.708  52.019  0.00  0.00    +0.000 A 
ATOM     19  C   UNL     1     -14.345  57.785  50.213  0.00  0.00    +0.000 A 
ATOM     20  N   UNL     1     -12.157  55.804  52.458  0.00  0.00    +0.000 N 
ATOM     21  C   UNL     1     -13.918  57.394  52.940  0.00  0.00    +0.000 A 
ATOM     22  C   UNL     1     -15.108  58.488  51.140  0.00  0.00    +0.000 A 
ATOM     23  C   UNL     1     -14.901  58.288  52.503  0.00  0.00    +0.000 A 
ATOM     24  H   UNL     1     -10.598  54.646  49.845  0.00  0.00    +0.000 HD
ATOM     25  H   UNL     1     -12.123  55.602  53.421  0.00  0.00    +0.000 HD
ENDBRANCH   1  17
BRANCH   3  26
ATOM     26  O   UNL     1     -11.546  52.727  53.187  0.00  0.00    +0.000 OA
ATOM     27  H   UNL     1     -11.731  52.244  53.967  0.00  0.00    +0.000 HD
ENDBRANCH   3  26
BRANCH   5  28
ATOM     28  N   UNL     1      -6.345  54.905  52.773  0.00  0.00    +0.000 N 
ATOM     29  H   UNL     1      -5.958  55.536  53.422  0.00  0.00    +0.000 HD
BRANCH  28  30
ATOM     30  C   UNL     1      -5.600  54.396  51.609  0.00  0.00    +0.000 C 
BRANCH  30  31
ATOM     31  C   UNL     1      -4.147  54.026  51.955  0.00  0.00    +0.000 C 
ATOM     32  C   UNL     1      -3.808  54.538  53.360  0.00  0.00    +0.000 C 
ATOM     33  C   UNL     1      -3.903  52.521  51.872  0.00  0.00    +0.000 C 
ENDBRANCH  30  31
ENDBRANCH  28  30
ENDBRANCH   5  28
TORSDOF 5
ENDMDL
MODEL 2
REMARK VINA RESULT:      -8.2      2.059      2.789
REMARK  Name = 
REMARK  7 active torsions:
REMARK  status: ('A' for Active; 'I' for Inactive)
REMARK    1  A    between atoms: C_6  and  C_10
REMARK    2  A    between atoms: C_14  and  O_18
REMARK    3  A    between atoms: N_17  and  N_20
REMARK    4  A    between atoms: N_20  and  C_23
REMARK    5  A    between atoms: C_23  and  C_26
REMARK    6  A    between atoms: C_26  and  C_28
REMARK    7  A    between atoms: C_26  and  C_29
REMARK                            x       y       z     vdW  Elec       q    Type
REMARK                         _______ _______ _______ _____ _____    ______ ____
ROOT
ATOM      1  C   UNL     1     -11.585  54.087  51.335  0.00  0.00    +0.000 A 
ATOM      2  C   UNL     1     -10.654  54.211  52.490  0.00  0.00    +0.000 A 
ATOM      3  C   UNL     1     -11.673  52.940  50.644  0.00  0.00    +0.000 A 
ATOM      4  O   UNL     1     -10.592  55.307  53.055  0.00  0.00    +0.000 OA
ATOM      5  N   UNL     1      -9.932  53.079  52.879  0.00  0.00    +0.000 N 
ATOM      6  C   UNL     1     -10.877  51.770  51.043  0.00  0.00    +0.000 A 
ATOM      7  C   UNL     1     -10.014  51.853  52.150  0.00  0.00    +0.000 A 
ATOM      8  C   UNL     1     -10.983  50.558  50.338  0.00  0.00    +0.000 A 
ATOM      9  C   UNL     1      -9.259  50.726  52.514  0.00  0.00    +0.000 A 
ATOM     10  C   UNL     1     -10.244  49.441  50.722  0.00  0.00    +0.000 A 
ATOM     11  C   UNL     1      -9.378  49.526  51.806  0.00  0.00    +0.000 A 
ENDROOT
BRANCH   1  17
ATOM     12  S   UNL     1     -13.315  56.969  49.297  0.00  0.00    +0.000 S 
ATOM     13  O   UNL     1     -14.420  56.497  48.489  0.00  0.00    +0.000 OA
ATOM     14  O   UNL     1     -12.387  57.950  48.770  0.00  0.00    +0.000 OA
ATOM     15  N   UNL     1     -12.458  55.677  49.764  0.00  0.00    +0.000 N 
ATOM     16  C   UNL     1     -14.031  57.702  50.724  0.00  0.00    +0.000 A 
ATOM     17  C   UNL     1     -12.475  55.274  50.998  0.00  0.00    +0.000 C 
ATOM     18  C   UNL     1     -13.885  57.045  51.935  0.00  0.00    +0.000 A 
ATOM     19  C   UNL     1     -14.708  58.920  50.622  0.00  0.00    +0.000 A 
ATOM     20  N   UNL     1     -13.214  55.828  52.020  0.00  0.00    +0.000 N 
ATOM     21  C   UNL     1     -14.506  57.589  53.063  0.00  0.00    +0.000 A 
ATOM     22  C   UNL     1     -15.292  59.469  51.759  0.00  0.00    +0.000 A 
ATOM     23  C   UNL     1     -15.199  58.801  52.978  0.00  0.00    +0.000 A 
ATOM     24  H   UNL     1     -11.917  55.188  49.102  0.00  0.00    +0.000 HD
ATOM     25  H   UNL     1     -13.271  55.330  52.868  0.00  0.00    +0.000 HD
ENDBRANCH   1  17
BRANCH   3  26
ATOM     26  O   UNL     1     -12.506  52.744  49.557  0.00  0.00    +0.000 OA
ATOM     27  H   UNL     1     -12.163  52.384  48.764  0.00  0.00    +0.000 HD
ENDBRANCH   3  26
BRANCH   5  28
ATOM     28  N   UNL     1      -9.008  53.152  53.980  0.00  0.00    +0.000 N 
ATOM     29  H   UNL     1      -9.272  52.985  54.914  0.00  0.00    +0.000 HD
BRANCH  28  30
ATOM     30  C   UNL     1      -7.631  53.496  53.588  0.00  0.00    +0.000 C 
BRANCH  30  31
ATOM     31  C   UNL     1      -7.092  54.726  54.340  0.00  0.00    +0.000 C 
ATOM     32  C   UNL     1      -5.648  54.463  54.785  0.00  0.00    +0.000 C 
ATOM     33  C   UNL     1      -7.157  55.991  53.488  0.00  0.00    +0.000 C 
ENDBRANCH  30  31
ENDBRANCH  28  30
ENDBRANCH   5  28
TORSDOF 5
ENDMDL
MODEL 3
REMARK VINA RESULT:      -8.1      2.588      8.051
REMARK  Name = 
REMARK  7 active torsions:
REMARK  status: ('A' for Active; 'I' for Inactive)
REMARK    1  A    between atoms: C_6  and  C_10
REMARK    2  A    between atoms: C_14  and  O_18
REMARK    3  A    between atoms: N_17  and  N_20
REMARK    4  A    between atoms: N_20  and  C_23
REMARK    5  A    between atoms: C_23  and  C_26
REMARK    6  A    between atoms: C_26  and  C_28
REMARK    7  A    between atoms: C_26  and  C_29
REMARK                            x       y       z     vdW  Elec       q    Type
REMARK                         _______ _______ _______ _____ _____    ______ ____
ROOT
ATOM      1  C   UNL     1     -10.096  55.152  50.486  0.00  0.00    +0.000 A 
ATOM      2  C   UNL     1     -11.138  55.298  51.539  0.00  0.00    +0.000 A 
ATOM      3  C   UNL     1     -10.367  55.446  49.205  0.00  0.00    +0.000 A 
ATOM      4  O   UNL     1     -10.834  54.969  52.690  0.00  0.00    +0.000 OA
ATOM      5  N   UNL     1     -12.381  55.821  51.168  0.00  0.00    +0.000 N 
ATOM      6  C   UNL     1     -11.693  55.958  48.826  0.00  0.00    +0.000 A 
ATOM      7  C   UNL     1     -12.684  56.135  49.808  0.00  0.00    +0.000 A 
ATOM      8  C   UNL     1     -11.975  56.293  47.490  0.00  0.00    +0.000 A 
ATOM      9  C   UNL     1     -13.944  56.622  49.426  0.00  0.00    +0.000 A 
ATOM     10  C   UNL     1     -13.223  56.794  47.127  0.00  0.00    +0.000 A 
ATOM     11  C   UNL     1     -14.210  56.954  48.094  0.00  0.00    +0.000 A 
ENDROOT
BRANCH   1  17
ATOM     12  S   UNL     1      -6.699  53.178  50.606  0.00  0.00    +0.000 S 
ATOM     13  O   UNL     1      -5.756  53.627  49.604  0.00  0.00    +0.000 OA
ATOM     14  O   UNL     1      -6.854  51.764  50.887  0.00  0.00    +0.000 OA
ATOM     15  N   UNL     1      -8.154  53.768  50.214  0.00  0.00    +0.000 N 
ATOM     16  C   UNL     1      -6.193  53.916  52.119  0.00  0.00    +0.000 A 
ATOM     17  C   UNL     1      -8.702  54.718  50.910  0.00  0.00    +0.000 C 
ATOM     18  C   UNL     1      -6.986  54.920  52.649  0.00  0.00    +0.000 A 
ATOM     19  C   UNL     1      -5.031  53.477  52.760  0.00  0.00    +0.000 A 
ATOM     20  N   UNL     1      -8.137  55.352  51.995  0.00  0.00    +0.000 N 
ATOM     21  C   UNL     1      -6.557  55.556  53.818  0.00  0.00    +0.000 A 
ATOM     22  C   UNL     1      -4.634  54.094  53.941  0.00  0.00    +0.000 A 
ATOM     23  C   UNL     1      -5.391  55.139  54.467  0.00  0.00    +0.000 A 
ATOM     24  H   UNL     1      -8.632  53.403  49.434  0.00  0.00    +0.000 HD
ATOM     25  H   UNL     1      -8.578  56.167  52.331  0.00  0.00    +0.000 HD
ENDBRANCH   1  17
BRANCH   3  26
ATOM     26  O   UNL     1      -9.460  55.332  48.168  0.00  0.00    +0.000 OA
ATOM     27  H   UNL     1      -9.202  54.486  47.862  0.00  0.00    +0.000 HD
ENDBRANCH   3  26
BRANCH   5  28
ATOM     28  N   UNL     1     -13.427  55.966  52.146  0.00  0.00    +0.000 N 
ATOM     29  H   UNL     1     -14.086  55.259  52.335  0.00  0.00    +0.000 HD
BRANCH  28  30
ATOM     30  C   UNL     1     -13.424  57.265  52.841  0.00  0.00    +0.000 C 
BRANCH  30  31
ATOM     31  C   UNL     1     -14.832  57.875  52.956  0.00  0.00    +0.000 C 
ATOM     32  C   UNL     1     -14.895  59.174  52.142  0.00  0.00    +0.000 C 
ATOM     33  C   UNL     1     -15.916  56.909  52.487  0.00  0.00    +0.000 C 
ENDBRANCH  30  31
ENDBRANCH  28  30
ENDBRANCH   5  28
TORSDOF 5
ENDMDL
MODEL 4
REMARK VINA RESULT:      -8.0      2.751      8.293
REMARK  Name = 
REMARK  7 active torsions:
REMARK  status: ('A' for Active; 'I' for Inactive)
REMARK    1  A    between atoms: C_6  and  C_10
REMARK    2  A    between atoms: C_14  and  O_18
REMARK    3  A    between atoms: N_17  and  N_20
REMARK    4  A    between atoms: N_20  and  C_23
REMARK    5  A    between atoms: C_23  and  C_26
REMARK    6  A    between atoms: C_26  and  C_28
REMARK    7  A    between atoms: C_26  and  C_29
REMARK                            x       y       z     vdW  Elec       q    Type
REMARK                         _______ _______ _______ _____ _____    ______ ____
ROOT
ATOM      1  C   UNL     1      -9.470  55.067  50.908  0.00  0.00    +0.000 A 
ATOM      2  C   UNL     1     -10.733  55.177  51.690  0.00  0.00    +0.000 A 
ATOM      3  C   UNL     1      -9.474  55.200  49.574  0.00  0.00    +0.000 A 
ATOM      4  O   UNL     1     -10.664  55.002  52.910  0.00  0.00    +0.000 OA
ATOM      5  N   UNL     1     -11.908  55.496  51.001  0.00  0.00    +0.000 N 
ATOM      6  C   UNL     1     -10.726  55.497  48.861  0.00  0.00    +0.000 A 
ATOM      7  C   UNL     1     -11.927  55.637  49.580  0.00  0.00    +0.000 A 
ATOM      8  C   UNL     1     -10.732  55.662  47.465  0.00  0.00    +0.000 A 
ATOM      9  C   UNL     1     -13.112  55.917  48.881  0.00  0.00    +0.000 A 
ATOM     10  C   UNL     1     -11.912  55.961  46.786  0.00  0.00    +0.000 A 
ATOM     11  C   UNL     1     -13.103  56.083  47.493  0.00  0.00    +0.000 A 
ENDROOT
BRANCH   1  17
ATOM     12  S   UNL     1      -6.659  55.461  53.627  0.00  0.00    +0.000 S 
ATOM     13  O   UNL     1      -6.954  54.736  54.845  0.00  0.00    +0.000 OA
ATOM     14  O   UNL     1      -6.084  56.790  53.685  0.00  0.00    +0.000 OA
ATOM     15  N   UNL     1      -8.025  55.548  52.762  0.00  0.00    +0.000 N 
ATOM     16  C   UNL     1      -5.505  54.475  52.740  0.00  0.00    +0.000 A 
ATOM     17  C   UNL     1      -8.170  54.860  51.670  0.00  0.00    +0.000 C 
ATOM     18  C   UNL     1      -5.939  53.850  51.583  0.00  0.00    +0.000 A 
ATOM     19  C   UNL     1      -4.190  54.353  53.197  0.00  0.00    +0.000 A 
ATOM     20  N   UNL     1      -7.255  53.975  51.144  0.00  0.00    +0.000 N 
ATOM     21  C   UNL     1      -5.046  53.014  50.907  0.00  0.00    +0.000 A 
ATOM     22  C   UNL     1      -3.300  53.546  52.495  0.00  0.00    +0.000 A 
ATOM     23  C   UNL     1      -3.730  52.869  51.355  0.00  0.00    +0.000 A 
ATOM     24  H   UNL     1      -8.757  56.131  53.068  0.00  0.00    +0.000 HD
ATOM     25  H   UNL     1      -7.551  53.391  50.408  0.00  0.00    +0.000 HD
ENDBRANCH   1  17
BRANCH   3  26
ATOM     26  O   UNL     1      -8.349  55.106  48.775  0.00  0.00    +0.000 OA
ATOM     27  H   UNL     1      -7.736  54.411  48.909  0.00  0.00    +0.000 HD
ENDBRANCH   3  26
BRANCH   5  28
ATOM     28  N   UNL     1     -13.157  55.597  51.709  0.00  0.00    +0.000 N 
ATOM     29  H   UNL     1     -13.805  54.857  51.762  0.00  0.00    +0.000 HD
BRANCH  28  30
ATOM     30  C   UNL     1     -13.382  56.904  52.348  0.00  0.00    +0.000 C 
BRANCH  30  31
ATOM     31  C   UNL     1     -14.876  57.220  52.538  0.00  0.00    +0.000 C 
ATOM     32  C   UNL     1     -15.059  58.728  52.747  0.00  0.00    +0.000 C 
ATOM     33  C   UNL     1     -15.716  56.748  51.354  0.00  0.00    +0.000 C 
ENDBRANCH  30  31
ENDBRANCH  28  30
ENDBRANCH   5  28
TORSDOF 5
ENDMDL
MODEL 5
REMARK VINA RESULT:      -7.9      4.007      5.452
REMARK  Name = 
REMARK  7 active torsions:
REMARK  status: ('A' for Active; 'I' for Inactive)
REMARK    1  A    between atoms: C_6  and  C_10
REMARK    2  A    between atoms: C_14  and  O_18
REMARK    3  A    between atoms: N_17  and  N_20
REMARK    4  A    between atoms: N_20  and  C_23
REMARK    5  A    between atoms: C_23  and  C_26
REMARK    6  A    between atoms: C_26  and  C_28
REMARK    7  A    between atoms: C_26  and  C_29
REMARK                            x       y       z     vdW  Elec       q    Type
REMARK                         _______ _______ _______ _____ _____    ______ ____
ROOT
ATOM      1  C   UNL     1     -10.687  55.656  48.147  0.00  0.00    +0.000 A 
ATOM      2  C   UNL     1      -9.229  55.748  48.434  0.00  0.00    +0.000 A 
ATOM      3  C   UNL     1     -11.133  55.013  47.058  0.00  0.00    +0.000 A 
ATOM      4  O   UNL     1      -8.885  56.391  49.431  0.00  0.00    +0.000 OA
ATOM      5  N   UNL     1      -8.345  55.084  47.578  0.00  0.00    +0.000 N 
ATOM      6  C   UNL     1     -10.187  54.352  46.146  0.00  0.00    +0.000 A 
ATOM      7  C   UNL     1      -8.807  54.399  46.412  0.00  0.00    +0.000 A 
ATOM      8  C   UNL     1     -10.650  53.656  45.016  0.00  0.00    +0.000 A 
ATOM      9  C   UNL     1      -7.919  53.764  45.528  0.00  0.00    +0.000 A 
ATOM     10  C   UNL     1      -9.760  53.013  44.158  0.00  0.00    +0.000 A 
ATOM     11  C   UNL     1      -8.394  53.072  44.411  0.00  0.00    +0.000 A 
ENDROOT
BRANCH   1  17
ATOM     12  S   UNL     1     -13.088  55.999  51.240  0.00  0.00    +0.000 S 
ATOM     13  O   UNL     1     -12.374  56.232  52.478  0.00  0.00    +0.000 OA
ATOM     14  O   UNL     1     -14.220  55.094  51.204  0.00  0.00    +0.000 OA
ATOM     15  N   UNL     1     -12.013  55.493  50.140  0.00  0.00    +0.000 N 
ATOM     16  C   UNL     1     -13.706  57.563  50.730  0.00  0.00    +0.000 A 
ATOM     17  C   UNL     1     -11.656  56.257  49.153  0.00  0.00    +0.000 C 
ATOM     18  C   UNL     1     -13.132  58.157  49.619  0.00  0.00    +0.000 A 
ATOM     19  C   UNL     1     -14.756  58.163  51.429  0.00  0.00    +0.000 A 
ATOM     20  N   UNL     1     -12.081  57.550  48.936  0.00  0.00    +0.000 N 
ATOM     21  C   UNL     1     -13.575  59.429  49.245  0.00  0.00    +0.000 A 
ATOM     22  C   UNL     1     -15.212  59.415  51.026  0.00  0.00    +0.000 A 
ATOM     23  C   UNL     1     -14.616  60.052  49.940  0.00  0.00    +0.000 A 
ATOM     24  H   UNL     1     -11.624  54.592  50.220  0.00  0.00    +0.000 HD
ATOM     25  H   UNL     1     -11.610  58.080  48.253  0.00  0.00    +0.000 HD
ENDBRANCH   1  17
BRANCH   3  26
ATOM     26  O   UNL     1     -12.467  54.887  46.716  0.00  0.00    +0.000 OA
ATOM     27  H   UNL     1     -12.705  54.542  45.879  0.00  0.00    +0.000 HD
ENDBRANCH   3  26
BRANCH   5  28
ATOM     28  N   UNL     1      -6.926  55.156  47.803  0.00  0.00    +0.000 N 
ATOM     29  H   UNL     1      -6.338  55.786  47.325  0.00  0.00    +0.000 HD
BRANCH  28  30
ATOM     30  C   UNL     1      -6.427  54.207  48.812  0.00  0.00    +0.000 C 
BRANCH  30  31
ATOM     31  C   UNL     1      -4.890  54.142  48.854  0.00  0.00    +0.000 C 
ATOM     32  C   UNL     1      -4.435  53.651  50.234  0.00  0.00    +0.000 C 
ATOM     33  C   UNL     1      -4.325  53.237  47.762  0.00  0.00    +0.000 C 
ENDBRANCH  30  31
ENDBRANCH  28  30
ENDBRANCH   5  28
TORSDOF 5
ENDMDL
MODEL 6
REMARK VINA RESULT:      -7.9      4.214      4.948
REMARK  Name = 
REMARK  7 active torsions:
REMARK  status: ('A' for Active; 'I' for Inactive)
REMARK    1  A    between atoms: C_6  and  C_10
REMARK    2  A    between atoms: C_14  and  O_18
REMARK    3  A    between atoms: N_17  and  N_20
REMARK    4  A    between atoms: N_20  and  C_23
REMARK    5  A    between atoms: C_23  and  C_26
REMARK    6  A    between atoms: C_26  and  C_28
REMARK    7  A    between atoms: C_26  and  C_29
REMARK                            x       y       z     vdW  Elec       q    Type
REMARK                         _______ _______ _______ _____ _____    ______ ____
ROOT
ATOM      1  C   UNL     1     -12.514  54.297  49.582  0.00  0.00    +0.000 A 
ATOM      2  C   UNL     1     -12.016  54.283  48.179  0.00  0.00    +0.000 A 
ATOM      3  C   UNL     1     -12.220  53.297  50.426  0.00  0.00    +0.000 A 
ATOM      4  O   UNL     1     -12.360  55.213  47.444  0.00  0.00    +0.000 OA
ATOM      5  N   UNL     1     -11.173  53.237  47.790  0.00  0.00    +0.000 N 
ATOM      6  C   UNL     1     -11.363  52.184  49.989  0.00  0.00    +0.000 A 
ATOM      7  C   UNL     1     -10.854  52.164  48.678  0.00  0.00    +0.000 A 
ATOM      8  C   UNL     1     -11.030  51.146  50.876  0.00  0.00    +0.000 A 
ATOM      9  C   UNL     1     -10.040  51.092  48.278  0.00  0.00    +0.000 A 
ATOM     10  C   UNL     1     -10.205  50.098  50.473  0.00  0.00    +0.000 A 
ATOM     11  C   UNL     1      -9.714  50.068  49.173  0.00  0.00    +0.000 A 
ENDROOT
BRANCH   1  17
ATOM     12  S   UNL     1     -15.385  56.455  51.180  0.00  0.00    +0.000 S 
ATOM     13  O   UNL     1     -15.281  56.543  52.622  0.00  0.00    +0.000 OA
ATOM     14  O   UNL     1     -16.676  56.271  50.547  0.00  0.00    +0.000 OA
ATOM     15  N   UNL     1     -14.416  55.255  50.689  0.00  0.00    +0.000 N 
ATOM     16  C   UNL     1     -14.751  57.969  50.551  0.00  0.00    +0.000 A 
ATOM     17  C   UNL     1     -13.315  55.504  50.047  0.00  0.00    +0.000 C 
ATOM     18  C   UNL     1     -13.535  57.939  49.890  0.00  0.00    +0.000 A 
ATOM     19  C   UNL     1     -15.478  59.152  50.708  0.00  0.00    +0.000 A 
ATOM     20  N   UNL     1     -12.818  56.754  49.747  0.00  0.00    +0.000 N 
ATOM     21  C   UNL     1     -12.994  59.148  49.443  0.00  0.00    +0.000 A 
ATOM     22  C   UNL     1     -14.945  60.344  50.228  0.00  0.00    +0.000 A 
ATOM     23  C   UNL     1     -13.700  60.345  49.602  0.00  0.00    +0.000 A 
ATOM     24  H   UNL     1     -14.664  54.321  50.880  0.00  0.00    +0.000 HD
ATOM     25  H   UNL     1     -11.895  56.813  49.410  0.00  0.00    +0.000 HD
ENDBRANCH   1  17
BRANCH   3  26
ATOM     26  O   UNL     1     -12.647  53.231  51.740  0.00  0.00    +0.000 OA
ATOM     27  H   UNL     1     -12.306  53.830  52.373  0.00  0.00    +0.000 HD
ENDBRANCH   3  26
BRANCH   5  28
ATOM     28  N   UNL     1     -10.678  53.169  46.441  0.00  0.00    +0.000 N 
ATOM     29  H   UNL     1     -10.931  52.454  45.812  0.00  0.00    +0.000 HD
BRANCH  28  30
ATOM     30  C   UNL     1      -9.760  54.263  46.080  0.00  0.00    +0.000 C 
BRANCH  30  31
ATOM     31  C   UNL     1      -8.513  54.308  46.979  0.00  0.00    +0.000 C 
ATOM     32  C   UNL     1      -7.253  54.370  46.106  0.00  0.00    +0.000 C 
ATOM     33  C   UNL     1      -8.542  55.493  47.941  0.00  0.00    +0.000 C 
ENDBRANCH  30  31
ENDBRANCH  28  30
ENDBRANCH   5  28
TORSDOF 5
ENDMDL
MODEL 7
REMARK VINA RESULT:      -7.9      3.347      7.347
REMARK  Name = 
REMARK  7 active torsions:
REMARK  status: ('A' for Active; 'I' for Inactive)
REMARK    1  A    between atoms: C_6  and  C_10
REMARK    2  A    between atoms: C_14  and  O_18
REMARK    3  A    between atoms: N_17  and  N_20
REMARK    4  A    between atoms: N_20  and  C_23
REMARK    5  A    between atoms: C_23  and  C_26
REMARK    6  A    between atoms: C_26  and  C_28
REMARK    7  A    between atoms: C_26  and  C_29
REMARK                            x       y       z     vdW  Elec       q    Type
REMARK                         _______ _______ _______ _____ _____    ______ ____
ROOT
ATOM      1  C   UNL     1     -10.193  55.264  50.668  0.00  0.00    +0.000 A 
ATOM      2  C   UNL     1      -9.731  55.195  49.254  0.00  0.00    +0.000 A 
ATOM      3  C   UNL     1     -11.414  55.732  50.969  0.00  0.00    +0.000 A 
ATOM      4  O   UNL     1      -8.580  54.795  49.051  0.00  0.00    +0.000 OA
ATOM      5  N   UNL     1     -10.631  55.560  48.248  0.00  0.00    +0.000 N 
ATOM      6  C   UNL     1     -12.334  56.148  49.900  0.00  0.00    +0.000 A 
ATOM      7  C   UNL     1     -11.932  56.062  48.555  0.00  0.00    +0.000 A 
ATOM      8  C   UNL     1     -13.624  56.614  50.208  0.00  0.00    +0.000 A 
ATOM      9  C   UNL     1     -12.824  56.468  47.549  0.00  0.00    +0.000 A 
ATOM     10  C   UNL     1     -14.507  56.995  49.199  0.00  0.00    +0.000 A 
ATOM     11  C   UNL     1     -14.105  56.926  47.870  0.00  0.00    +0.000 A 
ENDROOT
BRANCH   1  17
ATOM     12  S   UNL     1      -7.038  54.843  52.974  0.00  0.00    +0.000 S 
ATOM     13  O   UNL     1      -7.002  55.808  54.053  0.00  0.00    +0.000 OA
ATOM     14  O   UNL     1      -5.828  54.503  52.252  0.00  0.00    +0.000 OA
ATOM     15  N   UNL     1      -8.133  55.351  51.895  0.00  0.00    +0.000 N 
ATOM     16  C   UNL     1      -7.615  53.341  53.681  0.00  0.00    +0.000 A 
ATOM     17  C   UNL     1      -9.268  54.736  51.753  0.00  0.00    +0.000 C 
ATOM     18  C   UNL     1      -8.886  52.909  53.342  0.00  0.00    +0.000 A 
ATOM     19  C   UNL     1      -6.792  52.611  54.543  0.00  0.00    +0.000 A 
ATOM     20  N   UNL     1      -9.697  53.651  52.486  0.00  0.00    +0.000 N 
ATOM     21  C   UNL     1      -9.376  51.749  53.949  0.00  0.00    +0.000 A 
ATOM     22  C   UNL     1      -7.279  51.439  55.114  0.00  0.00    +0.000 A 
ATOM     23  C   UNL     1      -8.573  51.012  54.824  0.00  0.00    +0.000 A 
ATOM     24  H   UNL     1      -7.937  56.139  51.339  0.00  0.00    +0.000 HD
ATOM     25  H   UNL     1     -10.640  53.383  52.401  0.00  0.00    +0.000 HD
ENDBRANCH   1  17
BRANCH   3  26
ATOM     26  O   UNL     1     -11.917  55.834  52.253  0.00  0.00    +0.000 OA
ATOM     27  H   UNL     1     -12.099  56.676  52.619  0.00  0.00    +0.000 HD
ENDBRANCH   3  26
BRANCH   5  28
ATOM     28  N   UNL     1     -10.226  55.526  46.867  0.00  0.00    +0.000 N 
ATOM     29  H   UNL     1      -9.878  56.315  46.391  0.00  0.00    +0.000 HD
BRANCH  28  30
ATOM     30  C   UNL     1     -10.378  54.208  46.228  0.00  0.00    +0.000 C 
BRANCH  30  31
ATOM     31  C   UNL     1      -9.059  53.686  45.632  0.00  0.00    +0.000 C 
ATOM     32  C   UNL     1      -9.325  53.088  44.245  0.00  0.00    +0.000 C 
ATOM     33  C   UNL     1      -8.000  54.781  45.536  0.00  0.00    +0.000 C 
ENDBRANCH  30  31
ENDBRANCH  28  30
ENDBRANCH   5  28
TORSDOF 5
ENDMDL
MODEL 8
REMARK VINA RESULT:      -7.8      2.875      8.042
REMARK  Name = 
REMARK  7 active torsions:
REMARK  status: ('A' for Active; 'I' for Inactive)
REMARK    1  A    between atoms: C_6  and  C_10
REMARK    2  A    between atoms: C_14  and  O_18
REMARK    3  A    between atoms: N_17  and  N_20
REMARK    4  A    between atoms: N_20  and  C_23
REMARK    5  A    between atoms: C_23  and  C_26
REMARK    6  A    between atoms: C_26  and  C_28
REMARK    7  A    between atoms: C_26  and  C_29
REMARK                            x       y       z     vdW  Elec       q    Type
REMARK                         _______ _______ _______ _____ _____    ______ ____
ROOT
ATOM      1  C   UNL     1      -9.840  54.327  50.978  0.00  0.00    +0.000 A 
ATOM      2  C   UNL     1     -10.988  55.203  51.343  0.00  0.00    +0.000 A 
ATOM      3  C   UNL     1      -9.581  54.034  49.695  0.00  0.00    +0.000 A 
ATOM      4  O   UNL     1     -11.196  55.398  52.544  0.00  0.00    +0.000 OA
ATOM      5  N   UNL     1     -11.739  55.770  50.308  0.00  0.00    +0.000 N 
ATOM      6  C   UNL     1     -10.405  54.608  48.621  0.00  0.00    +0.000 A 
ATOM      7  C   UNL     1     -11.475  55.463  48.938  0.00  0.00    +0.000 A 
ATOM      8  C   UNL     1     -10.121  54.324  47.273  0.00  0.00    +0.000 A 
ATOM      9  C   UNL     1     -12.252  55.999  47.899  0.00  0.00    +0.000 A 
ATOM     10  C   UNL     1     -10.888  54.879  46.250  0.00  0.00    +0.000 A 
ATOM     11  C   UNL     1     -11.956  55.711  46.563  0.00  0.00    +0.000 A 
ENDROOT
BRANCH   1  17
ATOM     12  S   UNL     1      -6.647  53.763  53.200  0.00  0.00    +0.000 S 
ATOM     13  O   UNL     1      -6.406  54.856  54.119  0.00  0.00    +0.000 OA
ATOM     14  O   UNL     1      -5.545  53.142  52.492  0.00  0.00    +0.000 OA
ATOM     15  N   UNL     1      -7.720  54.273  52.099  0.00  0.00    +0.000 N 
ATOM     16  C   UNL     1      -7.393  52.484  54.147  0.00  0.00    +0.000 A 
ATOM     17  C   UNL     1      -8.938  53.824  52.094  0.00  0.00    +0.000 C 
ATOM     18  C   UNL     1      -8.732  52.208  53.925  0.00  0.00    +0.000 A 
ATOM     19  C   UNL     1      -6.635  51.768  55.078  0.00  0.00    +0.000 A 
ATOM     20  N   UNL     1      -9.476  52.935  52.999  0.00  0.00    +0.000 N 
ATOM     21  C   UNL     1      -9.348  51.236  54.718  0.00  0.00    +0.000 A 
ATOM     22  C   UNL     1      -7.252  50.778  55.837  0.00  0.00    +0.000 A 
ATOM     23  C   UNL     1      -8.610  50.517  55.664  0.00  0.00    +0.000 A 
ATOM     24  H   UNL     1      -7.444  54.934  51.423  0.00  0.00    +0.000 HD
ATOM     25  H   UNL     1     -10.452  52.804  52.990  0.00  0.00    +0.000 HD
ENDBRANCH   1  17
BRANCH   3  26
ATOM     26  O   UNL     1      -8.541  53.225  49.273  0.00  0.00    +0.000 OA
ATOM     27  H   UNL     1      -8.708  52.339  49.024  0.00  0.00    +0.000 HD
ENDBRANCH   3  26
BRANCH   5  28
ATOM     28  N   UNL     1     -12.867  56.610  50.609  0.00  0.00    +0.000 N 
ATOM     29  H   UNL     1     -12.816  57.594  50.616  0.00  0.00    +0.000 HD
BRANCH  28  30
ATOM     30  C   UNL     1     -14.107  55.872  50.902  0.00  0.00    +0.000 C 
BRANCH  30  31
ATOM     31  C   UNL     1     -15.307  56.804  51.141  0.00  0.00    +0.000 C 
ATOM     32  C   UNL     1     -16.570  56.181  50.534  0.00  0.00    +0.000 C 
ATOM     33  C   UNL     1     -15.525  57.089  52.625  0.00  0.00    +0.000 C 
ENDBRANCH  30  31
ENDBRANCH  28  30
ENDBRANCH   5  28
TORSDOF 5
ENDMDL
MODEL 9
REMARK VINA RESULT:      -7.8      4.537      6.268
REMARK  Name = 
REMARK  7 active torsions:
REMARK  status: ('A' for Active; 'I' for Inactive)
REMARK    1  A    between atoms: C_6  and  C_10
REMARK    2  A    between atoms: C_14  and  O_18
REMARK    3  A    between atoms: N_17  and  N_20
REMARK    4  A    between atoms: N_20  and  C_23
REMARK    5  A    between atoms: C_23  and  C_26
REMARK    6  A    between atoms: C_26  and  C_28
REMARK    7  A    between atoms: C_26  and  C_29
REMARK                            x       y       z     vdW  Elec       q    Type
REMARK                         _______ _______ _______ _____ _____    ______ ____
ROOT
ATOM      1  C   UNL     1     -11.402  56.309  48.543  0.00  0.00    +0.000 A 
ATOM      2  C   UNL     1     -11.808  55.666  47.263  0.00  0.00    +0.000 A 
ATOM      3  C   UNL     1     -10.157  56.165  49.020  0.00  0.00    +0.000 A 
ATOM      4  O   UNL     1     -12.982  55.803  46.904  0.00  0.00    +0.000 OA
ATOM      5  N   UNL     1     -10.835  54.972  46.537  0.00  0.00    +0.000 N 
ATOM      6  C   UNL     1      -9.155  55.400  48.262  0.00  0.00    +0.000 A 
ATOM      7  C   UNL     1      -9.505  54.809  47.034  0.00  0.00    +0.000 A 
ATOM      8  C   UNL     1      -7.841  55.268  48.744  0.00  0.00    +0.000 A 
ATOM      9  C   UNL     1      -8.537  54.079  46.327  0.00  0.00    +0.000 A 
ATOM     10  C   UNL     1      -6.884  54.558  48.022  0.00  0.00    +0.000 A 
ATOM     11  C   UNL     1      -7.232  53.959  46.817  0.00  0.00    +0.000 A 
ENDROOT
BRANCH   1  17
ATOM     12  S   UNL     1     -13.630  59.408  49.485  0.00  0.00    +0.000 S 
ATOM     13  O   UNL     1     -14.802  59.530  48.644  0.00  0.00    +0.000 OA
ATOM     14  O   UNL     1     -12.868  60.583  49.858  0.00  0.00    +0.000 OA
ATOM     15  N   UNL     1     -12.617  58.366  48.771  0.00  0.00    +0.000 N 
ATOM     16  C   UNL     1     -14.183  58.694  50.993  0.00  0.00    +0.000 A 
ATOM     17  C   UNL     1     -12.420  57.180  49.263  0.00  0.00    +0.000 C 
ATOM     18  C   UNL     1     -13.810  57.390  51.270  0.00  0.00    +0.000 A 
ATOM     19  C   UNL     1     -14.960  59.445  51.880  0.00  0.00    +0.000 A 
ATOM     20  N   UNL     1     -13.042  56.652  50.373  0.00  0.00    +0.000 N 
ATOM     21  C   UNL     1     -14.299  56.794  52.437  0.00  0.00    +0.000 A 
ATOM     22  C   UNL     1     -15.411  58.852  53.056  0.00  0.00    +0.000 A 
ATOM     23  C   UNL     1     -15.088  57.525  53.331  0.00  0.00    +0.000 A 
ATOM     24  H   UNL     1     -12.143  58.634  47.951  0.00  0.00    +0.000 HD
ATOM     25  H   UNL     1     -12.936  55.688  50.544  0.00  0.00    +0.000 HD
ENDBRANCH   1  17
BRANCH   3  26
ATOM     26  O   UNL     1      -9.702  56.724  50.201  0.00  0.00    +0.000 OA
ATOM     27  H   UNL     1     -10.138  57.468  50.565  0.00  0.00    +0.000 HD
ENDBRANCH   3  26
BRANCH   5  28
ATOM     28  N   UNL     1     -11.180  54.319  45.302  0.00  0.00    +0.000 N 
ATOM     29  H   UNL     1     -11.009  54.719  44.418  0.00  0.00    +0.000 HD
BRANCH  28  30
ATOM     30  C   UNL     1     -11.811  53.000  45.474  0.00  0.00    +0.000 C 
BRANCH  30  31
ATOM     31  C   UNL     1     -11.170  51.919  44.586  0.00  0.00    +0.000 C 
ATOM     32  C   UNL     1     -10.313  52.586  43.504  0.00  0.00    +0.000 C 
ATOM     33  C   UNL     1     -10.324  50.940  45.396  0.00  0.00    +0.000 C 
ENDBRANCH  30  31
ENDBRANCH  28  30
ENDBRANCH   5  28
TORSDOF 5
ENDMDL
