MODEL 1
REMARK VINA RESULT:      -8.2      0.000      0.000
REMARK  Name = 
REMARK  5 active torsions:
REMARK  status: ('A' for Active; 'I' for Inactive)
REMARK    1  A    between atoms: C_6  and  C_10
REMARK    2  A    between atoms: C_14  and  O_18
REMARK    3  A    between atoms: N_17  and  N_20
REMARK    4  A    between atoms: N_20  and  C_23
REMARK    5  A    between atoms: C_23  and  C_26
REMARK                            x       y       z     vdW  Elec       q    Type
REMARK                         _______ _______ _______ _____ _____    ______ ____
ROOT
ATOM      1  C   UNL     1     -11.335  53.846  51.563  0.00  0.00    +0.000 A 
ATOM      2  C   UNL     1     -10.398  54.005  52.713  0.00  0.00    +0.000 A 
ATOM      3  C   UNL     1     -11.460  52.658  50.947  0.00  0.00    +0.000 A 
ATOM      4  O   UNL     1     -10.296  55.132  53.210  0.00  0.00    +0.000 OA
ATOM      5  N   UNL     1      -9.718  52.875  53.176  0.00  0.00    +0.000 N 
ATOM      6  C   UNL     1     -10.709  51.486  51.424  0.00  0.00    +0.000 A 
ATOM      7  C   UNL     1      -9.848  51.608  52.530  0.00  0.00    +0.000 A 
ATOM      8  C   UNL     1     -10.855  50.238  50.795  0.00  0.00    +0.000 A 
ATOM      9  C   UNL     1      -9.143  50.477  52.972  0.00  0.00    +0.000 A 
ATOM     10  C   UNL     1     -10.159  49.119  51.251  0.00  0.00    +0.000 A 
ATOM     11  C   UNL     1      -9.300  49.242  52.338  0.00  0.00    +0.000 A 
ENDROOT
BRANCH   1  17
ATOM     12  S   UNL     1     -12.876  56.719  49.370  0.00  0.00    +0.000 S 
ATOM     13  O   UNL     1     -13.902  56.240  48.465  0.00  0.00    +0.000 OA
ATOM     14  O   UNL     1     -11.906  57.702  48.924  0.00  0.00    +0.000 OA
ATOM     15  N   UNL     1     -12.061  55.430  49.918  0.00  0.00    +0.000 N 
ATOM     16  C   UNL     1     -13.724  57.455  50.720  0.00  0.00    +0.000 A 
ATOM     17  C   UNL     1     -12.183  55.034  51.152  0.00  0.00    +0.000 C 
ATOM     18  C   UNL     1     -13.675  56.810  51.945  0.00  0.00    +0.000 A 
ATOM     19  C   UNL     1     -14.403  58.661  50.546  0.00  0.00    +0.000 A 
ATOM     20  N   UNL     1     -13.003  55.600  52.104  0.00  0.00    +0.000 N 
ATOM     21  C   UNL     1     -14.400  57.357  53.010  0.00  0.00    +0.000 A 
ATOM     22  C   UNL     1     -15.089  59.217  51.624  0.00  0.00    +0.000 A 
ATOM     23  C   UNL     1     -15.095  58.560  52.854  0.00  0.00    +0.000 A 
ATOM     24  H   UNL     1     -11.466  54.938  49.308  0.00  0.00    +0.000 HD
ATOM     25  H   UNL     1     -13.121  55.118  52.954  0.00  0.00    +0.000 HD
ENDBRANCH   1  17
BRANCH   3  26
ATOM     26  O   UNL     1     -12.295  52.422  49.870  0.00  0.00    +0.000 OA
ATOM     27  H   UNL     1     -13.048  52.964  49.734  0.00  0.00    +0.000 HD
ENDBRANCH   3  26
BRANCH   5  28
ATOM     28  N   UNL     1      -8.786  52.990  54.269  0.00  0.00    +0.000 N 
ATOM     29  H   UNL     1      -9.039  52.845  55.210  0.00  0.00    +0.000 HD
BRANCH  28  30
ATOM     30  C   UNL     1      -7.424  53.344  53.851  0.00  0.00    +0.000 C 
BRANCH  30  31
ATOM     31  C   UNL     1      -7.023  54.659  54.447  0.00  0.00    +0.000 C 
ATOM     32  C   UNL     1      -6.675  55.857  53.604  0.00  0.00    +0.000 C 
ATOM     33  C   UNL     1      -5.587  55.107  54.320  0.00  0.00    +0.000 C 
ENDBRANCH  30  31
ENDBRANCH  28  30
ENDBRANCH   5  28
TORSDOF 5
ENDMDL
MODEL 2
REMARK VINA RESULT:      -8.2      2.190      2.834
REMARK  Name = 
REMARK  5 active torsions:
REMARK  status: ('A' for Active; 'I' for Inactive)
REMARK    1  A    between atoms: C_6  and  C_10
REMARK    2  A    between atoms: C_14  and  O_18
REMARK    3  A    between atoms: N_17  and  N_20
REMARK    4  A    between atoms: N_20  and  C_23
REMARK    5  A    between atoms: C_23  and  C_26
REMARK                            x       y       z     vdW  Elec       q    Type
REMARK                         _______ _______ _______ _____ _____    ______ ____
ROOT
ATOM      1  C   UNL     1     -10.109  54.541  52.191  0.00  0.00    +0.000 A 
ATOM      2  C   UNL     1      -8.745  55.103  51.968  0.00  0.00    +0.000 A 
ATOM      3  C   UNL     1     -10.279  53.448  52.954  0.00  0.00    +0.000 A 
ATOM      4  O   UNL     1      -8.649  56.082  51.222  0.00  0.00    +0.000 OA
ATOM      5  N   UNL     1      -7.668  54.509  52.634  0.00  0.00    +0.000 N 
ATOM      6  C   UNL     1      -9.130  52.815  53.618  0.00  0.00    +0.000 A 
ATOM      7  C   UNL     1      -7.840  53.351  53.450  0.00  0.00    +0.000 A 
ATOM      8  C   UNL     1      -9.309  51.685  54.435  0.00  0.00    +0.000 A 
ATOM      9  C   UNL     1      -6.756  52.733  54.096  0.00  0.00    +0.000 A 
ATOM     10  C   UNL     1      -8.227  51.089  55.081  0.00  0.00    +0.000 A 
ATOM     11  C   UNL     1      -6.950  51.612  54.907  0.00  0.00    +0.000 A 
ENDROOT
BRANCH   1  17
ATOM     12  S   UNL     1     -12.578  56.036  49.523  0.00  0.00    +0.000 S 
ATOM     13  O   UNL     1     -13.478  55.040  48.978  0.00  0.00    +0.000 OA
ATOM     14  O   UNL     1     -11.974  57.031  48.657  0.00  0.00    +0.000 OA
ATOM     15  N   UNL     1     -11.384  55.253  50.290  0.00  0.00    +0.000 N 
ATOM     16  C   UNL     1     -13.508  56.931  50.714  0.00  0.00    +0.000 A 
ATOM     17  C   UNL     1     -11.296  55.269  51.588  0.00  0.00    +0.000 C 
ATOM     18  C   UNL     1     -13.186  56.760  52.050  0.00  0.00    +0.000 A 
ATOM     19  C   UNL     1     -14.523  57.795  50.302  0.00  0.00    +0.000 A 
ATOM     20  N   UNL     1     -12.177  55.886  52.449  0.00  0.00    +0.000 N 
ATOM     21  C   UNL     1     -13.963  57.422  53.008  0.00  0.00    +0.000 A 
ATOM     22  C   UNL     1     -15.264  58.479  51.264  0.00  0.00    +0.000 A 
ATOM     23  C   UNL     1     -14.990  58.285  52.617  0.00  0.00    +0.000 A 
ATOM     24  H   UNL     1     -10.713  54.758  49.765  0.00  0.00    +0.000 HD
ATOM     25  H   UNL     1     -12.088  55.697  53.411  0.00  0.00    +0.000 HD
ENDBRANCH   1  17
BRANCH   3  26
ATOM     26  O   UNL     1     -11.504  52.857  53.206  0.00  0.00    +0.000 OA
ATOM     27  H   UNL     1     -12.177  52.878  52.555  0.00  0.00    +0.000 HD
ENDBRANCH   3  26
BRANCH   5  28
ATOM     28  N   UNL     1      -6.330  55.005  52.428  0.00  0.00    +0.000 N 
ATOM     29  H   UNL     1      -5.958  55.772  52.922  0.00  0.00    +0.000 HD
BRANCH  28  30
ATOM     30  C   UNL     1      -5.572  54.262  51.415  0.00  0.00    +0.000 C 
BRANCH  30  31
ATOM     31  C   UNL     1      -5.542  55.024  50.125  0.00  0.00    +0.000 C 
ATOM     32  C   UNL     1      -6.300  54.579  48.903  0.00  0.00    +0.000 C 
ATOM     33  C   UNL     1      -4.804  54.433  48.948  0.00  0.00    +0.000 C 
ENDBRANCH  30  31
ENDBRANCH  28  30
ENDBRANCH   5  28
TORSDOF 5
ENDMDL
MODEL 3
REMARK VINA RESULT:      -8.1      3.987      4.910
REMARK  Name = 
REMARK  5 active torsions:
REMARK  status: ('A' for Active; 'I' for Inactive)
REMARK    1  A    between atoms: C_6  and  C_10
REMARK    2  A    between atoms: C_14  and  O_18
REMARK    3  A    between atoms: N_17  and  N_20
REMARK    4  A    between atoms: N_20  and  C_23
REMARK    5  A    between atoms: C_23  and  C_26
REMARK                            x       y       z     vdW  Elec       q    Type
REMARK                         _______ _______ _______ _____ _____    ______ ____
ROOT
ATOM      1  C   UNL     1     -10.675  55.634  48.127  0.00  0.00    +0.000 A 
ATOM      2  C   UNL     1      -9.211  55.731  48.398  0.00  0.00    +0.000 A 
ATOM      3  C   UNL     1     -11.124  54.990  47.037  0.00  0.00    +0.000 A 
ATOM      4  O   UNL     1      -8.859  56.373  49.393  0.00  0.00    +0.000 OA
ATOM      5  N   UNL     1      -8.332  55.072  47.533  0.00  0.00    +0.000 N 
ATOM      6  C   UNL     1     -10.183  54.332  46.117  0.00  0.00    +0.000 A 
ATOM      7  C   UNL     1      -8.801  54.381  46.375  0.00  0.00    +0.000 A 
ATOM      8  C   UNL     1     -10.653  53.639  44.988  0.00  0.00    +0.000 A 
ATOM      9  C   UNL     1      -7.919  53.744  45.486  0.00  0.00    +0.000 A 
ATOM     10  C   UNL     1      -9.768  53.000  44.120  0.00  0.00    +0.000 A 
ATOM     11  C   UNL     1      -8.401  53.057  44.369  0.00  0.00    +0.000 A 
ENDROOT
BRANCH   1  17
ATOM     12  S   UNL     1     -13.026  55.948  51.261  0.00  0.00    +0.000 S 
ATOM     13  O   UNL     1     -12.291  56.179  52.488  0.00  0.00    +0.000 OA
ATOM     14  O   UNL     1     -14.154  55.036  51.242  0.00  0.00    +0.000 OA
ATOM     15  N   UNL     1     -11.968  55.453  50.137  0.00  0.00    +0.000 N 
ATOM     16  C   UNL     1     -13.661  57.512  50.774  0.00  0.00    +0.000 A 
ATOM     17  C   UNL     1     -11.637  56.223  49.141  0.00  0.00    +0.000 C 
ATOM     18  C   UNL     1     -13.120  58.108  49.646  0.00  0.00    +0.000 A 
ATOM     19  C   UNL     1     -14.690  58.107  51.504  0.00  0.00    +0.000 A 
ATOM     20  N   UNL     1     -12.085  57.509  48.931  0.00  0.00    +0.000 N 
ATOM     21  C   UNL     1     -13.577  59.382  49.288  0.00  0.00    +0.000 A 
ATOM     22  C   UNL     1     -15.164  59.358  51.114  0.00  0.00    +0.000 A 
ATOM     23  C   UNL     1     -14.601  59.999  50.012  0.00  0.00    +0.000 A 
ATOM     24  H   UNL     1     -11.568  54.557  50.210  0.00  0.00    +0.000 HD
ATOM     25  H   UNL     1     -11.646  58.039  48.229  0.00  0.00    +0.000 HD
ENDBRANCH   1  17
BRANCH   3  26
ATOM     26  O   UNL     1     -12.460  54.859  46.704  0.00  0.00    +0.000 OA
ATOM     27  H   UNL     1     -12.991  55.623  46.588  0.00  0.00    +0.000 HD
ENDBRANCH   3  26
BRANCH   5  28
ATOM     28  N   UNL     1      -6.909  55.160  47.744  0.00  0.00    +0.000 N 
ATOM     29  H   UNL     1      -6.335  55.812  47.280  0.00  0.00    +0.000 HD
BRANCH  28  30
ATOM     30  C   UNL     1      -6.393  54.186  48.714  0.00  0.00    +0.000 C 
BRANCH  30  31
ATOM     31  C   UNL     1      -5.654  54.889  49.813  0.00  0.00    +0.000 C 
ATOM     32  C   UNL     1      -4.772  54.160  50.790  0.00  0.00    +0.000 C 
ATOM     33  C   UNL     1      -6.106  54.685  51.239  0.00  0.00    +0.000 C 
ENDBRANCH  30  31
ENDBRANCH  28  30
ENDBRANCH   5  28
TORSDOF 5
ENDMDL
MODEL 4
REMARK VINA RESULT:      -8.1      2.937      7.359
REMARK  Name = 
REMARK  5 active torsions:
REMARK  status: ('A' for Active; 'I' for Inactive)
REMARK    1  A    between atoms: C_6  and  C_10
REMARK    2  A    between atoms: C_14  and  O_18
REMARK    3  A    between atoms: N_17  and  N_20
REMARK    4  A    between atoms: N_20  and  C_23
REMARK    5  A    between atoms: C_23  and  C_26
REMARK                            x       y       z     vdW  Elec       q    Type
REMARK                         _______ _______ _______ _____ _____    ______ ____
ROOT
ATOM      1  C   UNL     1     -10.462  54.907  50.513  0.00  0.00    +0.000 A 
ATOM      2  C   UNL     1     -11.596  55.090  51.465  0.00  0.00    +0.000 A 
ATOM      3  C   UNL     1     -10.599  55.243  49.219  0.00  0.00    +0.000 A 
ATOM      4  O   UNL     1     -11.422  54.722  52.632  0.00  0.00    +0.000 OA
ATOM      5  N   UNL     1     -12.769  55.687  50.992  0.00  0.00    +0.000 N 
ATOM      6  C   UNL     1     -11.853  55.838  48.730  0.00  0.00    +0.000 A 
ATOM      7  C   UNL     1     -12.921  56.051  49.621  0.00  0.00    +0.000 A 
ATOM      8  C   UNL     1     -11.990  56.210  47.382  0.00  0.00    +0.000 A 
ATOM      9  C   UNL     1     -14.109  56.623  49.134  0.00  0.00    +0.000 A 
ATOM     10  C   UNL     1     -13.169  56.788  46.915  0.00  0.00    +0.000 A 
ATOM     11  C   UNL     1     -14.230  56.991  47.792  0.00  0.00    +0.000 A 
ENDROOT
BRANCH   1  17
ATOM     12  S   UNL     1      -7.235  52.707  50.944  0.00  0.00    +0.000 S 
ATOM     13  O   UNL     1      -6.204  53.035  49.980  0.00  0.00    +0.000 OA
ATOM     14  O   UNL     1      -7.509  51.322  51.282  0.00  0.00    +0.000 OA
ATOM     15  N   UNL     1      -8.619  53.377  50.433  0.00  0.00    +0.000 N 
ATOM     16  C   UNL     1      -6.761  53.486  52.445  0.00  0.00    +0.000 A 
ATOM     17  C   UNL     1      -9.141  54.396  51.054  0.00  0.00    +0.000 C 
ATOM     18  C   UNL     1      -7.517  54.561  52.883  0.00  0.00    +0.000 A 
ATOM     19  C   UNL     1      -5.666  53.009  53.165  0.00  0.00    +0.000 A 
ATOM     20  N   UNL     1      -8.602  55.036  52.149  0.00  0.00    +0.000 N 
ATOM     21  C   UNL     1      -7.109  55.227  54.045  0.00  0.00    +0.000 A 
ATOM     22  C   UNL     1      -5.293  53.655  54.342  0.00  0.00    +0.000 A 
ATOM     23  C   UNL     1      -6.009  54.770  54.777  0.00  0.00    +0.000 A 
ATOM     24  H   UNL     1      -9.072  53.009  49.641  0.00  0.00    +0.000 HD
ATOM     25  H   UNL     1      -9.011  55.884  52.432  0.00  0.00    +0.000 HD
ENDBRANCH   1  17
BRANCH   3  26
ATOM     26  O   UNL     1      -9.606  55.100  48.267  0.00  0.00    +0.000 OA
ATOM     27  H   UNL     1      -8.861  54.559  48.444  0.00  0.00    +0.000 HD
ENDBRANCH   3  26
BRANCH   5  28
ATOM     28  N   UNL     1     -13.897  55.860  51.873  0.00  0.00    +0.000 N 
ATOM     29  H   UNL     1     -14.621  55.197  51.957  0.00  0.00    +0.000 HD
BRANCH  28  30
ATOM     30  C   UNL     1     -13.868  57.116  52.632  0.00  0.00    +0.000 C 
BRANCH  30  31
ATOM     31  C   UNL     1     -15.099  57.922  52.350  0.00  0.00    +0.000 C 
ATOM     32  C   UNL     1     -15.061  59.216  51.582  0.00  0.00    +0.000 C 
ATOM     33  C   UNL     1     -15.287  59.237  53.068  0.00  0.00    +0.000 C 
ENDBRANCH  30  31
ENDBRANCH  28  30
ENDBRANCH   5  28
TORSDOF 5
ENDMDL
MODEL 5
REMARK VINA RESULT:      -8.0      3.385      7.634
REMARK  Name = 
REMARK  5 active torsions:
REMARK  status: ('A' for Active; 'I' for Inactive)
REMARK    1  A    between atoms: C_6  and  C_10
REMARK    2  A    between atoms: C_14  and  O_18
REMARK    3  A    between atoms: N_17  and  N_20
REMARK    4  A    between atoms: N_20  and  C_23
REMARK    5  A    between atoms: C_23  and  C_26
REMARK                            x       y       z     vdW  Elec       q    Type
REMARK                         _______ _______ _______ _____ _____    ______ ____
ROOT
ATOM      1  C   UNL     1     -10.259  55.198  50.817  0.00  0.00    +0.000 A 
ATOM      2  C   UNL     1      -9.826  55.142  49.391  0.00  0.00    +0.000 A 
ATOM      3  C   UNL     1     -11.475  55.670  51.141  0.00  0.00    +0.000 A 
ATOM      4  O   UNL     1      -8.681  54.739  49.161  0.00  0.00    +0.000 OA
ATOM      5  N   UNL     1     -10.743  55.519  48.405  0.00  0.00    +0.000 N 
ATOM      6  C   UNL     1     -12.415  56.096  50.093  0.00  0.00    +0.000 A 
ATOM      7  C   UNL     1     -12.039  56.016  48.740  0.00  0.00    +0.000 A 
ATOM      8  C   UNL     1     -13.695  56.568  50.430  0.00  0.00    +0.000 A 
ATOM      9  C   UNL     1     -12.952  56.425  47.754  0.00  0.00    +0.000 A 
ATOM     10  C   UNL     1     -14.598  56.959  49.441  0.00  0.00    +0.000 A 
ATOM     11  C   UNL     1     -14.222  56.890  48.103  0.00  0.00    +0.000 A 
ENDROOT
BRANCH   1  17
ATOM     12  S   UNL     1      -7.082  54.767  53.090  0.00  0.00    +0.000 S 
ATOM     13  O   UNL     1      -7.042  55.723  54.179  0.00  0.00    +0.000 OA
ATOM     14  O   UNL     1      -5.874  54.442  52.354  0.00  0.00    +0.000 OA
ATOM     15  N   UNL     1      -8.190  55.280  52.024  0.00  0.00    +0.000 N 
ATOM     16  C   UNL     1      -7.643  53.257  53.790  0.00  0.00    +0.000 A 
ATOM     17  C   UNL     1      -9.322  54.654  51.878  0.00  0.00    +0.000 C 
ATOM     18  C   UNL     1      -8.909  52.815  53.445  0.00  0.00    +0.000 A 
ATOM     19  C   UNL     1      -6.814  52.535  54.648  0.00  0.00    +0.000 A 
ATOM     20  N   UNL     1      -9.731  53.551  52.595  0.00  0.00    +0.000 N 
ATOM     21  C   UNL     1      -9.387  51.644  54.047  0.00  0.00    +0.000 A 
ATOM     22  C   UNL     1      -7.286  51.350  55.211  0.00  0.00    +0.000 A 
ATOM     23  C   UNL     1      -8.577  50.910  54.917  0.00  0.00    +0.000 A 
ATOM     24  H   UNL     1      -8.005  56.078  51.478  0.00  0.00    +0.000 HD
ATOM     25  H   UNL     1     -10.668  53.263  52.499  0.00  0.00    +0.000 HD
ENDBRANCH   1  17
BRANCH   3  26
ATOM     26  O   UNL     1     -11.954  55.765  52.436  0.00  0.00    +0.000 OA
ATOM     27  H   UNL     1     -12.606  56.404  52.648  0.00  0.00    +0.000 HD
ENDBRANCH   3  26
BRANCH   5  28
ATOM     28  N   UNL     1     -10.358  55.503  47.016  0.00  0.00    +0.000 N 
ATOM     29  H   UNL     1     -10.177  56.321  46.498  0.00  0.00    +0.000 HD
BRANCH  28  30
ATOM     30  C   UNL     1     -10.260  54.155  46.444  0.00  0.00    +0.000 C 
BRANCH  30  31
ATOM     31  C   UNL     1     -11.270  53.979  45.351  0.00  0.00    +0.000 C 
ATOM     32  C   UNL     1     -12.025  52.694  45.144  0.00  0.00    +0.000 C 
ATOM     33  C   UNL     1     -10.932  53.079  44.187  0.00  0.00    +0.000 C 
ENDBRANCH  30  31
ENDBRANCH  28  30
ENDBRANCH   5  28
TORSDOF 5
ENDMDL
MODEL 6
REMARK VINA RESULT:      -7.9      3.371      7.749
REMARK  Name = 
REMARK  5 active torsions:
REMARK  status: ('A' for Active; 'I' for Inactive)
REMARK    1  A    between atoms: C_6  and  C_10
REMARK    2  A    between atoms: C_14  and  O_18
REMARK    3  A    between atoms: N_17  and  N_20
REMARK    4  A    between atoms: N_20  and  C_23
REMARK    5  A    between atoms: C_23  and  C_26
REMARK                            x       y       z     vdW  Elec       q    Type
REMARK                         _______ _______ _______ _____ _____    ______ ____
ROOT
ATOM      1  C   UNL     1      -9.431  54.997  50.864  0.00  0.00    +0.000 A 
ATOM      2  C   UNL     1     -10.713  55.080  51.622  0.00  0.00    +0.000 A 
ATOM      3  C   UNL     1      -9.419  55.146  49.528  0.00  0.00    +0.000 A 
ATOM      4  O   UNL     1     -10.665  54.891  52.841  0.00  0.00    +0.000 OA
ATOM      5  N   UNL     1     -11.880  55.391  50.917  0.00  0.00    +0.000 N 
ATOM      6  C   UNL     1     -10.662  55.438  48.798  0.00  0.00    +0.000 A 
ATOM      7  C   UNL     1     -11.876  55.556  49.499  0.00  0.00    +0.000 A 
ATOM      8  C   UNL     1     -10.647  55.617  47.404  0.00  0.00    +0.000 A 
ATOM      9  C   UNL     1     -13.051  55.839  48.783  0.00  0.00    +0.000 A 
ATOM     10  C   UNL     1     -11.818  55.910  46.707  0.00  0.00    +0.000 A 
ATOM     11  C   UNL     1     -13.021  56.017  47.398  0.00  0.00    +0.000 A 
ENDROOT
BRANCH   1  17
ATOM     12  S   UNL     1      -6.669  55.421  53.627  0.00  0.00    +0.000 S 
ATOM     13  O   UNL     1      -6.992  54.715  54.851  0.00  0.00    +0.000 OA
ATOM     14  O   UNL     1      -6.089  56.751  53.679  0.00  0.00    +0.000 OA
ATOM     15  N   UNL     1      -8.018  55.502  52.733  0.00  0.00    +0.000 N 
ATOM     16  C   UNL     1      -5.502  54.417  52.782  0.00  0.00    +0.000 A 
ATOM     17  C   UNL     1      -8.143  54.803  51.642  0.00  0.00    +0.000 C 
ATOM     18  C   UNL     1      -5.912  53.788  51.617  0.00  0.00    +0.000 A 
ATOM     19  C   UNL     1      -4.204  54.286  53.276  0.00  0.00    +0.000 A 
ATOM     20  N   UNL     1      -7.215  53.918  51.140  0.00  0.00    +0.000 N 
ATOM     21  C   UNL     1      -5.007  52.937  50.971  0.00  0.00    +0.000 A 
ATOM     22  C   UNL     1      -3.300  53.467  52.602  0.00  0.00    +0.000 A 
ATOM     23  C   UNL     1      -3.705  52.785  51.455  0.00  0.00    +0.000 A 
ATOM     24  H   UNL     1      -8.756  56.087  53.020  0.00  0.00    +0.000 HD
ATOM     25  H   UNL     1      -7.489  53.339  50.393  0.00  0.00    +0.000 HD
ENDBRANCH   1  17
BRANCH   3  26
ATOM     26  O   UNL     1      -8.280  55.075  48.747  0.00  0.00    +0.000 OA
ATOM     27  H   UNL     1      -7.510  55.547  48.996  0.00  0.00    +0.000 HD
ENDBRANCH   3  26
BRANCH   5  28
ATOM     28  N   UNL     1     -13.144  55.458  51.607  0.00  0.00    +0.000 N 
ATOM     29  H   UNL     1     -13.778  54.705  51.643  0.00  0.00    +0.000 HD
BRANCH  28  30
ATOM     30  C   UNL     1     -13.400  56.752  52.250  0.00  0.00    +0.000 C 
BRANCH  30  31
ATOM     31  C   UNL     1     -14.863  57.075  52.204  0.00  0.00    +0.000 C 
ATOM     32  C   UNL     1     -15.718  56.787  51.000  0.00  0.00    +0.000 C 
ATOM     33  C   UNL     1     -15.331  58.204  51.318  0.00  0.00    +0.000 C 
ENDBRANCH  30  31
ENDBRANCH  28  30
ENDBRANCH   5  28
TORSDOF 5
ENDMDL
MODEL 7
REMARK VINA RESULT:      -7.8      3.054      7.362
REMARK  Name = 
REMARK  5 active torsions:
REMARK  status: ('A' for Active; 'I' for Inactive)
REMARK    1  A    between atoms: C_6  and  C_10
REMARK    2  A    between atoms: C_14  and  O_18
REMARK    3  A    between atoms: N_17  and  N_20
REMARK    4  A    between atoms: N_20  and  C_23
REMARK    5  A    between atoms: C_23  and  C_26
REMARK                            x       y       z     vdW  Elec       q    Type
REMARK                         _______ _______ _______ _____ _____    ______ ____
ROOT
ATOM      1  C   UNL     1      -9.880  54.451  50.936  0.00  0.00    +0.000 A 
ATOM      2  C   UNL     1     -11.044  55.310  51.305  0.00  0.00    +0.000 A 
ATOM      3  C   UNL     1      -9.630  54.163  49.647  0.00  0.00    +0.000 A 
ATOM      4  O   UNL     1     -11.246  55.503  52.508  0.00  0.00    +0.000 OA
ATOM      5  N   UNL     1     -11.812  55.862  50.276  0.00  0.00    +0.000 N 
ATOM      6  C   UNL     1     -10.470  54.724  48.579  0.00  0.00    +0.000 A 
ATOM      7  C   UNL     1     -11.550  55.565  48.905  0.00  0.00    +0.000 A 
ATOM      8  C   UNL     1     -10.196  54.441  47.230  0.00  0.00    +0.000 A 
ATOM      9  C   UNL     1     -12.339  56.093  47.869  0.00  0.00    +0.000 A 
ATOM     10  C   UNL     1     -10.979  54.982  46.210  0.00  0.00    +0.000 A 
ATOM     11  C   UNL     1     -12.053  55.805  46.533  0.00  0.00    +0.000 A 
ENDROOT
BRANCH   1  17
ATOM     12  S   UNL     1      -6.676  54.030  53.171  0.00  0.00    +0.000 S 
ATOM     13  O   UNL     1      -6.508  55.117  54.115  0.00  0.00    +0.000 OA
ATOM     14  O   UNL     1      -5.530  53.493  52.461  0.00  0.00    +0.000 OA
ATOM     15  N   UNL     1      -7.770  54.497  52.071  0.00  0.00    +0.000 N 
ATOM     16  C   UNL     1      -7.348  52.691  54.088  0.00  0.00    +0.000 A 
ATOM     17  C   UNL     1      -8.959  53.970  52.040  0.00  0.00    +0.000 C 
ATOM     18  C   UNL     1      -8.662  52.330  53.838  0.00  0.00    +0.000 A 
ATOM     19  C   UNL     1      -6.559  52.016  55.019  0.00  0.00    +0.000 A 
ATOM     20  N   UNL     1      -9.443  53.019  52.912  0.00  0.00    +0.000 N 
ATOM     21  C   UNL     1      -9.223  51.304  54.607  0.00  0.00    +0.000 A 
ATOM     22  C   UNL     1      -7.118  50.970  55.752  0.00  0.00    +0.000 A 
ATOM     23  C   UNL     1      -8.453  50.621  55.552  0.00  0.00    +0.000 A 
ATOM     24  H   UNL     1      -7.531  55.192  51.415  0.00  0.00    +0.000 HD
ATOM     25  H   UNL     1     -10.404  52.813  52.879  0.00  0.00    +0.000 HD
ENDBRANCH   1  17
BRANCH   3  26
ATOM     26  O   UNL     1      -8.581  53.370  49.216  0.00  0.00    +0.000 OA
ATOM     27  H   UNL     1      -8.744  52.494  48.927  0.00  0.00    +0.000 HD
ENDBRANCH   3  26
BRANCH   5  28
ATOM     28  N   UNL     1     -12.959  56.677  50.590  0.00  0.00    +0.000 N 
ATOM     29  H   UNL     1     -12.944  57.662  50.559  0.00  0.00    +0.000 HD
BRANCH  28  30
ATOM     30  C   UNL     1     -14.151  55.905  50.960  0.00  0.00    +0.000 C 
BRANCH  30  31
ATOM     31  C   UNL     1     -15.277  56.827  51.317  0.00  0.00    +0.000 C 
ATOM     32  C   UNL     1     -15.050  58.183  51.931  0.00  0.00    +0.000 C 
ATOM     33  C   UNL     1     -15.590  57.062  52.775  0.00  0.00    +0.000 C 
ENDBRANCH  30  31
ENDBRANCH  28  30
ENDBRANCH   5  28
TORSDOF 5
ENDMDL
MODEL 8
REMARK VINA RESULT:      -7.7      3.519      4.173
REMARK  Name = 
REMARK  5 active torsions:
REMARK  status: ('A' for Active; 'I' for Inactive)
REMARK    1  A    between atoms: C_6  and  C_10
REMARK    2  A    between atoms: C_14  and  O_18
REMARK    3  A    between atoms: N_17  and  N_20
REMARK    4  A    between atoms: N_20  and  C_23
REMARK    5  A    between atoms: C_23  and  C_26
REMARK                            x       y       z     vdW  Elec       q    Type
REMARK                         _______ _______ _______ _____ _____    ______ ____
ROOT
ATOM      1  C   UNL     1     -11.478  56.040  48.803  0.00  0.00    +0.000 A 
ATOM      2  C   UNL     1     -10.397  55.464  49.656  0.00  0.00    +0.000 A 
ATOM      3  C   UNL     1     -11.603  55.665  47.518  0.00  0.00    +0.000 A 
ATOM      4  O   UNL     1     -10.308  55.880  50.815  0.00  0.00    +0.000 OA
ATOM      5  N   UNL     1      -9.576  54.475  49.106  0.00  0.00    +0.000 N 
ATOM      6  C   UNL     1     -10.707  54.650  46.945  0.00  0.00    +0.000 A 
ATOM      7  C   UNL     1      -9.705  54.068  47.744  0.00  0.00    +0.000 A 
ATOM      8  C   UNL     1     -10.851  54.241  45.608  0.00  0.00    +0.000 A 
ATOM      9  C   UNL     1      -8.861  53.097  47.179  0.00  0.00    +0.000 A 
ATOM     10  C   UNL     1     -10.015  53.267  45.063  0.00  0.00    +0.000 A 
ATOM     11  C   UNL     1      -9.018  52.699  45.849  0.00  0.00    +0.000 A 
ENDROOT
BRANCH   1  17
ATOM     12  S   UNL     1     -13.572  59.298  49.466  0.00  0.00    +0.000 S 
ATOM     13  O   UNL     1     -14.710  59.419  48.578  0.00  0.00    +0.000 OA
ATOM     14  O   UNL     1     -12.764  60.461  49.787  0.00  0.00    +0.000 OA
ATOM     15  N   UNL     1     -12.590  58.162  48.857  0.00  0.00    +0.000 N 
ATOM     16  C   UNL     1     -14.210  58.717  50.996  0.00  0.00    +0.000 A 
ATOM     17  C   UNL     1     -12.461  57.004  49.437  0.00  0.00    +0.000 C 
ATOM     18  C   UNL     1     -13.900  57.422  51.377  0.00  0.00    +0.000 A 
ATOM     19  C   UNL     1     -14.987  59.558  51.793  0.00  0.00    +0.000 A 
ATOM     20  N   UNL     1     -13.132  56.589  50.567  0.00  0.00    +0.000 N 
ATOM     21  C   UNL     1     -14.456  56.931  52.564  0.00  0.00    +0.000 A 
ATOM     22  C   UNL     1     -15.503  59.070  52.993  0.00  0.00    +0.000 A 
ATOM     23  C   UNL     1     -15.245  57.754  53.374  0.00  0.00    +0.000 A 
ATOM     24  H   UNL     1     -12.082  58.351  48.035  0.00  0.00    +0.000 HD
ATOM     25  H   UNL     1     -13.064  55.640  50.818  0.00  0.00    +0.000 HD
ENDBRANCH   1  17
BRANCH   3  26
ATOM     26  O   UNL     1     -12.567  56.154  46.655  0.00  0.00    +0.000 OA
ATOM     27  H   UNL     1     -13.247  55.590  46.344  0.00  0.00    +0.000 HD
ENDBRANCH   3  26
BRANCH   5  28
ATOM     28  N   UNL     1      -8.505  53.909  49.888  0.00  0.00    +0.000 N 
ATOM     29  H   UNL     1      -8.554  53.016  50.302  0.00  0.00    +0.000 HD
BRANCH  28  30
ATOM     30  C   UNL     1      -7.334  54.785  50.011  0.00  0.00    +0.000 C 
BRANCH  30  31
ATOM     31  C   UNL     1      -6.083  54.032  49.674  0.00  0.00    +0.000 C 
ATOM     32  C   UNL     1      -4.854  54.075  50.541  0.00  0.00    +0.000 C 
ATOM     33  C   UNL     1      -4.866  54.806  49.228  0.00  0.00    +0.000 C 
ENDBRANCH  30  31
ENDBRANCH  28  30
ENDBRANCH   5  28
TORSDOF 5
ENDMDL
MODEL 9
REMARK VINA RESULT:      -7.6      3.249      7.629
REMARK  Name = 
REMARK  5 active torsions:
REMARK  status: ('A' for Active; 'I' for Inactive)
REMARK    1  A    between atoms: C_6  and  C_10
REMARK    2  A    between atoms: C_14  and  O_18
REMARK    3  A    between atoms: N_17  and  N_20
REMARK    4  A    between atoms: N_20  and  C_23
REMARK    5  A    between atoms: C_23  and  C_26
REMARK                            x       y       z     vdW  Elec       q    Type
REMARK                         _______ _______ _______ _____ _____    ______ ____
ROOT
ATOM      1  C   UNL     1     -10.395  54.853  50.466  0.00  0.00    +0.000 A 
ATOM      2  C   UNL     1      -9.929  54.938  49.051  0.00  0.00    +0.000 A 
ATOM      3  C   UNL     1     -11.599  55.337  50.816  0.00  0.00    +0.000 A 
ATOM      4  O   UNL     1      -8.796  54.514  48.801  0.00  0.00    +0.000 OA
ATOM      5  N   UNL     1     -10.805  55.461  48.095  0.00  0.00    +0.000 N 
ATOM      6  C   UNL     1     -12.494  55.917  49.803  0.00  0.00    +0.000 A 
ATOM      7  C   UNL     1     -12.087  55.973  48.457  0.00  0.00    +0.000 A 
ATOM      8  C   UNL     1     -13.762  56.403  50.164  0.00  0.00    +0.000 A 
ATOM      9  C   UNL     1     -12.958  56.528  47.505  0.00  0.00    +0.000 A 
ATOM     10  C   UNL     1     -14.623  56.940  49.207  0.00  0.00    +0.000 A 
ATOM     11  C   UNL     1     -14.217  57.005  47.878  0.00  0.00    +0.000 A 
ENDROOT
BRANCH   1  17
ATOM     12  S   UNL     1      -9.087  52.176  53.028  0.00  0.00    +0.000 S 
ATOM     13  O   UNL     1      -8.491  51.026  52.377  0.00  0.00    +0.000 OA
ATOM     14  O   UNL     1      -9.946  52.000  54.185  0.00  0.00    +0.000 OA
ATOM     15  N   UNL     1      -9.921  52.999  51.909  0.00  0.00    +0.000 N 
ATOM     16  C   UNL     1      -7.748  53.175  53.569  0.00  0.00    +0.000 A 
ATOM     17  C   UNL     1      -9.507  54.155  51.478  0.00  0.00    +0.000 C 
ATOM     18  C   UNL     1      -7.542  54.385  52.925  0.00  0.00    +0.000 A 
ATOM     19  C   UNL     1      -6.942  52.753  54.626  0.00  0.00    +0.000 A 
ATOM     20  N   UNL     1      -8.347  54.791  51.863  0.00  0.00    +0.000 N 
ATOM     21  C   UNL     1      -6.439  55.158  53.308  0.00  0.00    +0.000 A 
ATOM     22  C   UNL     1      -5.871  53.550  55.025  0.00  0.00    +0.000 A 
ATOM     23  C   UNL     1      -5.614  54.748  54.359  0.00  0.00    +0.000 A 
ATOM     24  H   UNL     1     -10.754  52.618  51.548  0.00  0.00    +0.000 HD
ATOM     25  H   UNL     1      -8.068  55.585  51.354  0.00  0.00    +0.000 HD
ENDBRANCH   1  17
BRANCH   3  26
ATOM     26  O   UNL     1     -12.106  55.309  52.102  0.00  0.00    +0.000 OA
ATOM     27  H   UNL     1     -12.084  56.082  52.632  0.00  0.00    +0.000 HD
ENDBRANCH   3  26
BRANCH   5  28
ATOM     28  N   UNL     1     -10.386  55.582  46.721  0.00  0.00    +0.000 N 
ATOM     29  H   UNL     1     -10.230  56.450  46.281  0.00  0.00    +0.000 HD
BRANCH  28  30
ATOM     30  C   UNL     1     -10.212  54.295  46.039  0.00  0.00    +0.000 C 
BRANCH  30  31
ATOM     31  C   UNL     1     -11.542  53.747  45.616  0.00  0.00    +0.000 C 
ATOM     32  C   UNL     1     -12.133  52.501  46.217  0.00  0.00    +0.000 C 
ATOM     33  C   UNL     1     -11.580  52.465  44.820  0.00  0.00    +0.000 C 
ENDBRANCH  30  31
ENDBRANCH  28  30
ENDBRANCH   5  28
TORSDOF 5
ENDMDL
