MODEL 1
REMARK VINA RESULT:      -8.4      0.000      0.000
REMARK  Name = 
REMARK  5 active torsions:
REMARK  status: ('A' for Active; 'I' for Inactive)
REMARK    1  A    between atoms: C_6  and  C_10
REMARK    2  A    between atoms: C_14  and  O_18
REMARK    3  A    between atoms: N_17  and  N_20
REMARK    4  A    between atoms: N_20  and  C_23
REMARK    5  A    between atoms: C_23  and  C_26
REMARK                            x       y       z     vdW  Elec       q    Type
REMARK                         _______ _______ _______ _____ _____    ______ ____
ROOT
ATOM      1  C   UNL     1     -10.140  54.547  52.213  0.00  0.00    +0.000 A 
ATOM      2  C   UNL     1      -8.771  55.109  52.028  0.00  0.00    +0.000 A 
ATOM      3  C   UNL     1     -10.326  53.439  52.951  0.00  0.00    +0.000 A 
ATOM      4  O   UNL     1      -8.659  56.117  51.323  0.00  0.00    +0.000 OA
ATOM      5  N   UNL     1      -7.708  54.489  52.688  0.00  0.00    +0.000 N 
ATOM      6  C   UNL     1      -9.190  52.782  53.615  0.00  0.00    +0.000 A 
ATOM      7  C   UNL     1      -7.895  53.313  53.473  0.00  0.00    +0.000 A 
ATOM      8  C   UNL     1      -9.388  51.642  54.411  0.00  0.00    +0.000 A 
ATOM      9  C   UNL     1      -6.823  52.680  54.122  0.00  0.00    +0.000 A 
ATOM     10  C   UNL     1      -8.320  51.037  55.070  0.00  0.00    +0.000 A 
ATOM     11  C   UNL     1      -7.038  51.553  54.923  0.00  0.00    +0.000 A 
ENDROOT
BRANCH   1  17
ATOM     12  S   UNL     1     -12.552  56.148  49.560  0.00  0.00    +0.000 S 
ATOM     13  O   UNL     1     -13.432  55.166  48.956  0.00  0.00    +0.000 OA
ATOM     14  O   UNL     1     -11.941  57.182  48.755  0.00  0.00    +0.000 OA
ATOM     15  N   UNL     1     -11.368  55.341  50.318  0.00  0.00    +0.000 N 
ATOM     16  C   UNL     1     -13.512  56.983  50.769  0.00  0.00    +0.000 A 
ATOM     17  C   UNL     1     -11.317  55.292  51.616  0.00  0.00    +0.000 C 
ATOM     18  C   UNL     1     -13.224  56.749  52.105  0.00  0.00    +0.000 A 
ATOM     19  C   UNL     1     -14.519  57.864  50.372  0.00  0.00    +0.000 A 
ATOM     20  N   UNL     1     -12.228  55.855  52.485  0.00  0.00    +0.000 N 
ATOM     21  C   UNL     1     -14.021  57.370  53.071  0.00  0.00    +0.000 A 
ATOM     22  C   UNL     1     -15.283  58.504  51.345  0.00  0.00    +0.000 A 
ATOM     23  C   UNL     1     -15.040  58.251  52.695  0.00  0.00    +0.000 A 
ATOM     24  H   UNL     1     -10.678  54.882  49.788  0.00  0.00    +0.000 HD
ATOM     25  H   UNL     1     -12.171  55.607  53.435  0.00  0.00    +0.000 HD
ENDBRANCH   1  17
BRANCH   3  26
ATOM     26  O   UNL     1     -11.559  52.854  53.184  0.00  0.00    +0.000 OA
ATOM     27  H   UNL     1     -11.675  52.284  53.920  0.00  0.00    +0.000 HD
ENDBRANCH   3  26
BRANCH   5  28
ATOM     28  N   UNL     1      -6.369  54.986  52.526  0.00  0.00    +0.000 N 
ATOM     29  H   UNL     1      -5.884  55.457  53.242  0.00  0.00    +0.000 HD
BRANCH  28  30
ATOM     30  C   UNL     1      -5.785  54.731  51.201  0.00  0.00    +0.000 C 
BRANCH  30  31
ATOM     31  C   UNL     1      -5.000  53.452  51.202  0.00  0.00    +0.000 A 
ATOM     32  S   UNL     1      -5.631  52.055  50.429  0.00  0.00    +0.000 S 
ATOM     33  C   UNL     1      -3.746  53.217  51.727  0.00  0.00    +0.000 A 
ATOM     34  C   UNL     1      -4.228  51.148  50.789  0.00  0.00    +0.000 A 
ATOM     35  C   UNL     1      -3.300  51.885  51.489  0.00  0.00    +0.000 A 
ENDBRANCH  30  31
ENDBRANCH  28  30
ENDBRANCH   5  28
TORSDOF 5
ENDMDL
MODEL 2
REMARK VINA RESULT:      -8.3      2.157      2.431
REMARK  Name = 
REMARK  5 active torsions:
REMARK  status: ('A' for Active; 'I' for Inactive)
REMARK    1  A    between atoms: C_6  and  C_10
REMARK    2  A    between atoms: C_14  and  O_18
REMARK    3  A    between atoms: N_17  and  N_20
REMARK    4  A    between atoms: N_20  and  C_23
REMARK    5  A    between atoms: C_23  and  C_26
REMARK                            x       y       z     vdW  Elec       q    Type
REMARK                         _______ _______ _______ _____ _____    ______ ____
ROOT
ATOM      1  C   UNL     1     -11.165  54.610  50.825  0.00  0.00    +0.000 A 
ATOM      2  C   UNL     1      -9.771  55.002  50.466  0.00  0.00    +0.000 A 
ATOM      3  C   UNL     1     -11.426  53.374  51.283  0.00  0.00    +0.000 A 
ATOM      4  O   UNL     1      -9.594  56.145  50.030  0.00  0.00    +0.000 OA
ATOM      5  N   UNL     1      -8.749  54.075  50.676  0.00  0.00    +0.000 N 
ATOM      6  C   UNL     1     -10.340  52.399  51.469  0.00  0.00    +0.000 A 
ATOM      7  C   UNL     1      -9.016  52.761  51.162  0.00  0.00    +0.000 A 
ATOM      8  C   UNL     1     -10.608  51.118  51.977  0.00  0.00    +0.000 A 
ATOM      9  C   UNL     1      -7.990  51.822  51.357  0.00  0.00    +0.000 A 
ATOM     10  C   UNL     1      -9.578  50.204  52.190  0.00  0.00    +0.000 A 
ATOM     11  C   UNL     1      -8.270  50.554  51.876  0.00  0.00    +0.000 A 
ENDROOT
BRANCH   1  17
ATOM     12  S   UNL     1     -13.631  57.269  49.319  0.00  0.00    +0.000 S 
ATOM     13  O   UNL     1     -14.772  56.652  48.669  0.00  0.00    +0.000 OA
ATOM     14  O   UNL     1     -12.976  58.412  48.725  0.00  0.00    +0.000 OA
ATOM     15  N   UNL     1     -12.515  56.115  49.543  0.00  0.00    +0.000 N 
ATOM     16  C   UNL     1     -14.197  57.801  50.893  0.00  0.00    +0.000 A 
ATOM     17  C   UNL     1     -12.258  55.654  50.731  0.00  0.00    +0.000 C 
ATOM     18  C   UNL     1     -13.741  57.123  52.012  0.00  0.00    +0.000 A 
ATOM     19  C   UNL     1     -15.068  58.888  50.989  0.00  0.00    +0.000 A 
ATOM     20  N   UNL     1     -12.886  56.031  51.900  0.00  0.00    +0.000 N 
ATOM     21  C   UNL     1     -14.232  57.510  53.264  0.00  0.00    +0.000 A 
ATOM     22  C   UNL     1     -15.522  59.285  52.244  0.00  0.00    +0.000 A 
ATOM     23  C   UNL     1     -15.110  58.591  53.381  0.00  0.00    +0.000 A 
ATOM     24  H   UNL     1     -12.024  55.758  48.769  0.00  0.00    +0.000 HD
ATOM     25  H   UNL     1     -12.720  55.493  52.706  0.00  0.00    +0.000 HD
ENDBRANCH   1  17
BRANCH   3  26
ATOM     26  O   UNL     1     -12.684  52.927  51.648  0.00  0.00    +0.000 OA
ATOM     27  H   UNL     1     -13.347  52.812  50.996  0.00  0.00    +0.000 HD
ENDBRANCH   3  26
BRANCH   5  28
ATOM     28  N   UNL     1      -7.393  54.403  50.330  0.00  0.00    +0.000 N 
ATOM     29  H   UNL     1      -6.902  53.950  49.606  0.00  0.00    +0.000 HD
BRANCH  28  30
ATOM     30  C   UNL     1      -6.802  55.472  51.147  0.00  0.00    +0.000 C 
BRANCH  30  31
ATOM     31  C   UNL     1      -6.361  54.943  52.480  0.00  0.00    +0.000 A 
ATOM     32  S   UNL     1      -7.238  55.350  53.898  0.00  0.00    +0.000 S 
ATOM     33  C   UNL     1      -5.314  54.089  52.760  0.00  0.00    +0.000 A 
ATOM     34  C   UNL     1      -6.226  54.380  54.876  0.00  0.00    +0.000 A 
ATOM     35  C   UNL     1      -5.236  53.764  54.144  0.00  0.00    +0.000 A 
ENDBRANCH  30  31
ENDBRANCH  28  30
ENDBRANCH   5  28
TORSDOF 5
ENDMDL
MODEL 3
REMARK VINA RESULT:      -8.3      3.134      8.384
REMARK  Name = 
REMARK  5 active torsions:
REMARK  status: ('A' for Active; 'I' for Inactive)
REMARK    1  A    between atoms: C_6  and  C_10
REMARK    2  A    between atoms: C_14  and  O_18
REMARK    3  A    between atoms: N_17  and  N_20
REMARK    4  A    between atoms: N_20  and  C_23
REMARK    5  A    between atoms: C_23  and  C_26
REMARK                            x       y       z     vdW  Elec       q    Type
REMARK                         _______ _______ _______ _____ _____    ______ ____
ROOT
ATOM      1  C   UNL     1      -9.110  54.325  49.931  0.00  0.00    +0.000 A 
ATOM      2  C   UNL     1     -10.161  55.377  50.044  0.00  0.00    +0.000 A 
ATOM      3  C   UNL     1      -9.002  53.590  48.811  0.00  0.00    +0.000 A 
ATOM      4  O   UNL     1     -10.226  56.007  51.104  0.00  0.00    +0.000 OA
ATOM      5  N   UNL     1     -10.981  55.613  48.939  0.00  0.00    +0.000 N 
ATOM      6  C   UNL     1      -9.895  53.832  47.667  0.00  0.00    +0.000 A 
ATOM      7  C   UNL     1     -10.874  54.838  47.746  0.00  0.00    +0.000 A 
ATOM      8  C   UNL     1      -9.762  53.084  46.485  0.00  0.00    +0.000 A 
ATOM      9  C   UNL     1     -11.711  55.063  46.641  0.00  0.00    +0.000 A 
ATOM     10  C   UNL     1     -10.581  53.335  45.387  0.00  0.00    +0.000 A 
ATOM     11  C   UNL     1     -11.558  54.320  45.465  0.00  0.00    +0.000 A 
ENDROOT
BRANCH   1  17
ATOM     12  S   UNL     1      -7.673  54.058  53.575  0.00  0.00    +0.000 S 
ATOM     13  O   UNL     1      -7.897  52.749  54.158  0.00  0.00    +0.000 OA
ATOM     14  O   UNL     1      -7.845  55.255  54.367  0.00  0.00    +0.000 OA
ATOM     15  N   UNL     1      -8.627  54.180  52.271  0.00  0.00    +0.000 N 
ATOM     16  C   UNL     1      -6.002  54.071  53.039  0.00  0.00    +0.000 A 
ATOM     17  C   UNL     1      -8.127  54.157  51.071  0.00  0.00    +0.000 C 
ATOM     18  C   UNL     1      -5.755  54.056  51.675  0.00  0.00    +0.000 A 
ATOM     19  C   UNL     1      -4.969  54.114  53.977  0.00  0.00    +0.000 A 
ATOM     20  N   UNL     1      -6.795  53.997  50.751  0.00  0.00    +0.000 N 
ATOM     21  C   UNL     1      -4.425  54.012  51.244  0.00  0.00    +0.000 A 
ATOM     22  C   UNL     1      -3.648  54.105  53.534  0.00  0.00    +0.000 A 
ATOM     23  C   UNL     1      -3.376  54.047  52.168  0.00  0.00    +0.000 A 
ATOM     24  H   UNL     1      -9.599  54.275  52.389  0.00  0.00    +0.000 HD
ATOM     25  H   UNL     1      -6.565  53.830  49.810  0.00  0.00    +0.000 HD
ENDBRANCH   1  17
BRANCH   3  26
ATOM     26  O   UNL     1      -8.053  52.601  48.615  0.00  0.00    +0.000 OA
ATOM     27  H   UNL     1      -7.857  51.997  49.305  0.00  0.00    +0.000 HD
ENDBRANCH   3  26
BRANCH   5  28
ATOM     28  N   UNL     1     -12.019  56.605  49.007  0.00  0.00    +0.000 N 
ATOM     29  H   UNL     1     -11.904  57.521  48.665  0.00  0.00    +0.000 HD
BRANCH  28  30
ATOM     30  C   UNL     1     -13.264  56.137  49.630  0.00  0.00    +0.000 C 
BRANCH  30  31
ATOM     31  C   UNL     1     -13.639  57.008  50.793  0.00  0.00    +0.000 A 
ATOM     32  S   UNL     1     -14.240  58.593  50.521  0.00  0.00    +0.000 S 
ATOM     33  C   UNL     1     -13.613  56.701  52.138  0.00  0.00    +0.000 A 
ATOM     34  C   UNL     1     -14.472  58.858  52.193  0.00  0.00    +0.000 A 
ATOM     35  C   UNL     1     -14.094  57.770  52.947  0.00  0.00    +0.000 A 
ENDBRANCH  30  31
ENDBRANCH  28  30
ENDBRANCH   5  28
TORSDOF 5
ENDMDL
MODEL 4
REMARK VINA RESULT:      -8.2      3.161      4.597
REMARK  Name = 
REMARK  5 active torsions:
REMARK  status: ('A' for Active; 'I' for Inactive)
REMARK    1  A    between atoms: C_6  and  C_10
REMARK    2  A    between atoms: C_14  and  O_18
REMARK    3  A    between atoms: N_17  and  N_20
REMARK    4  A    between atoms: N_20  and  C_23
REMARK    5  A    between atoms: C_23  and  C_26
REMARK                            x       y       z     vdW  Elec       q    Type
REMARK                         _______ _______ _______ _____ _____    ______ ____
ROOT
ATOM      1  C   UNL     1     -11.190  55.964  49.065  0.00  0.00    +0.000 A 
ATOM      2  C   UNL     1     -10.204  55.391  50.026  0.00  0.00    +0.000 A 
ATOM      3  C   UNL     1     -11.173  55.596  47.773  0.00  0.00    +0.000 A 
ATOM      4  O   UNL     1     -10.254  55.782  51.196  0.00  0.00    +0.000 OA
ATOM      5  N   UNL     1      -9.312  54.424  49.558  0.00  0.00    +0.000 N 
ATOM      6  C   UNL     1     -10.206  54.598  47.291  0.00  0.00    +0.000 A 
ATOM      7  C   UNL     1      -9.287  54.026  48.189  0.00  0.00    +0.000 A 
ATOM      8  C   UNL     1     -10.208  54.190  45.947  0.00  0.00    +0.000 A 
ATOM      9  C   UNL     1      -8.377  53.066  47.715  0.00  0.00    +0.000 A 
ATOM     10  C   UNL     1      -9.318  53.218  45.495  0.00  0.00    +0.000 A 
ATOM     11  C   UNL     1      -8.400  52.659  46.377  0.00  0.00    +0.000 A 
ENDROOT
BRANCH   1  17
ATOM     12  S   UNL     1     -13.487  59.129  49.421  0.00  0.00    +0.000 S 
ATOM     13  O   UNL     1     -14.595  59.110  48.486  0.00  0.00    +0.000 OA
ATOM     14  O   UNL     1     -12.766  60.355  49.682  0.00  0.00    +0.000 OA
ATOM     15  N   UNL     1     -12.416  58.016  48.930  0.00  0.00    +0.000 N 
ATOM     16  C   UNL     1     -14.145  58.618  50.966  0.00  0.00    +0.000 A 
ATOM     17  C   UNL     1     -12.250  56.909  49.592  0.00  0.00    +0.000 C 
ATOM     18  C   UNL     1     -13.780  57.371  51.448  0.00  0.00    +0.000 A 
ATOM     19  C   UNL     1     -14.994  59.468  51.677  0.00  0.00    +0.000 A 
ATOM     20  N   UNL     1     -12.946  56.528  50.720  0.00  0.00    +0.000 N 
ATOM     21  C   UNL     1     -14.345  56.937  52.652  0.00  0.00    +0.000 A 
ATOM     22  C   UNL     1     -15.521  59.038  52.892  0.00  0.00    +0.000 A 
ATOM     23  C   UNL     1     -15.203  57.770  53.376  0.00  0.00    +0.000 A 
ATOM     24  H   UNL     1     -11.883  58.181  48.120  0.00  0.00    +0.000 HD
ATOM     25  H   UNL     1     -12.847  55.600  51.029  0.00  0.00    +0.000 HD
ENDBRANCH   1  17
BRANCH   3  26
ATOM     26  O   UNL     1     -12.053  56.068  46.814  0.00  0.00    +0.000 OA
ATOM     27  H   UNL     1     -12.691  55.491  46.440  0.00  0.00    +0.000 HD
ENDBRANCH   3  26
BRANCH   5  28
ATOM     28  N   UNL     1      -8.333  53.855  50.444  0.00  0.00    +0.000 N 
ATOM     29  H   UNL     1      -8.414  52.946  50.815  0.00  0.00    +0.000 HD
BRANCH  28  30
ATOM     30  C   UNL     1      -7.203  54.744  50.749  0.00  0.00    +0.000 C 
BRANCH  30  31
ATOM     31  C   UNL     1      -6.735  54.545  52.160  0.00  0.00    +0.000 A 
ATOM     32  S   UNL     1      -7.369  55.522  53.422  0.00  0.00    +0.000 S 
ATOM     33  C   UNL     1      -5.842  53.611  52.644  0.00  0.00    +0.000 A 
ATOM     34  C   UNL     1      -6.461  54.689  54.606  0.00  0.00    +0.000 A 
ATOM     35  C   UNL     1      -5.684  53.694  54.057  0.00  0.00    +0.000 A 
ENDBRANCH  30  31
ENDBRANCH  28  30
ENDBRANCH   5  28
TORSDOF 5
ENDMDL
MODEL 5
REMARK VINA RESULT:      -8.2      4.265      5.223
REMARK  Name = 
REMARK  5 active torsions:
REMARK  status: ('A' for Active; 'I' for Inactive)
REMARK    1  A    between atoms: C_6  and  C_10
REMARK    2  A    between atoms: C_14  and  O_18
REMARK    3  A    between atoms: N_17  and  N_20
REMARK    4  A    between atoms: N_20  and  C_23
REMARK    5  A    between atoms: C_23  and  C_26
REMARK                            x       y       z     vdW  Elec       q    Type
REMARK                         _______ _______ _______ _____ _____    ______ ____
ROOT
ATOM      1  C   UNL     1     -12.278  54.285  50.122  0.00  0.00    +0.000 A 
ATOM      2  C   UNL     1     -11.981  53.957  48.698  0.00  0.00    +0.000 A 
ATOM      3  C   UNL     1     -11.743  53.552  51.114  0.00  0.00    +0.000 A 
ATOM      4  O   UNL     1     -12.517  54.653  47.829  0.00  0.00    +0.000 OA
ATOM      5  N   UNL     1     -11.091  52.915  48.431  0.00  0.00    +0.000 N 
ATOM      6  C   UNL     1     -10.831  52.437  50.813  0.00  0.00    +0.000 A 
ATOM      7  C   UNL     1     -10.518  52.132  49.476  0.00  0.00    +0.000 A 
ATOM      8  C   UNL     1     -10.247  51.691  51.850  0.00  0.00    +0.000 A 
ATOM      9  C   UNL     1      -9.637  51.072  49.207  0.00  0.00    +0.000 A 
ATOM     10  C   UNL     1      -9.354  50.658  51.570  0.00  0.00    +0.000 A 
ATOM     11  C   UNL     1      -9.052  50.346  50.250  0.00  0.00    +0.000 A 
ENDROOT
BRANCH   1  17
ATOM     12  S   UNL     1     -15.280  56.487  51.367  0.00  0.00    +0.000 S 
ATOM     13  O   UNL     1     -15.245  56.703  52.802  0.00  0.00    +0.000 OA
ATOM     14  O   UNL     1     -16.531  56.214  50.696  0.00  0.00    +0.000 OA
ATOM     15  N   UNL     1     -14.259  55.275  51.031  0.00  0.00    +0.000 N 
ATOM     16  C   UNL     1     -14.653  57.955  50.639  0.00  0.00    +0.000 A 
ATOM     17  C   UNL     1     -13.131  55.499  50.425  0.00  0.00    +0.000 C 
ATOM     18  C   UNL     1     -13.406  57.902  50.037  0.00  0.00    +0.000 A 
ATOM     19  C   UNL     1     -15.415  59.125  50.664  0.00  0.00    +0.000 A 
ATOM     20  N   UNL     1     -12.652  56.733  50.035  0.00  0.00    +0.000 N 
ATOM     21  C   UNL     1     -12.879  59.083  49.503  0.00  0.00    +0.000 A 
ATOM     22  C   UNL     1     -14.893  60.286  50.097  0.00  0.00    +0.000 A 
ATOM     23  C   UNL     1     -13.622  60.267  49.524  0.00  0.00    +0.000 A 
ATOM     24  H   UNL     1     -14.495  54.356  51.289  0.00  0.00    +0.000 HD
ATOM     25  H   UNL     1     -11.716  56.790  49.737  0.00  0.00    +0.000 HD
ENDBRANCH   1  17
BRANCH   3  26
ATOM     26  O   UNL     1     -11.955  53.788  52.461  0.00  0.00    +0.000 OA
ATOM     27  H   UNL     1     -11.312  54.251  52.962  0.00  0.00    +0.000 HD
ENDBRANCH   3  26
BRANCH   5  28
ATOM     28  N   UNL     1     -10.788  52.553  47.074  0.00  0.00    +0.000 N 
ATOM     29  H   UNL     1     -11.248  51.823  46.600  0.00  0.00    +0.000 HD
BRANCH  28  30
ATOM     30  C   UNL     1      -9.732  53.366  46.452  0.00  0.00    +0.000 C 
BRANCH  30  31
ATOM     31  C   UNL     1      -9.547  52.989  45.012  0.00  0.00    +0.000 A 
ATOM     32  S   UNL     1     -10.700  51.984  44.232  0.00  0.00    +0.000 S 
ATOM     33  C   UNL     1      -8.550  53.383  44.144  0.00  0.00    +0.000 A 
ATOM     34  C   UNL     1      -9.871  52.087  42.741  0.00  0.00    +0.000 A 
ATOM     35  C   UNL     1      -8.736  52.861  42.832  0.00  0.00    +0.000 A 
ENDBRANCH  30  31
ENDBRANCH  28  30
ENDBRANCH   5  28
TORSDOF 5
ENDMDL
MODEL 6
REMARK VINA RESULT:      -8.2      4.183      5.578
REMARK  Name = 
REMARK  5 active torsions:
REMARK  status: ('A' for Active; 'I' for Inactive)
REMARK    1  A    between atoms: C_6  and  C_10
REMARK    2  A    between atoms: C_14  and  O_18
REMARK    3  A    between atoms: N_17  and  N_20
REMARK    4  A    between atoms: N_20  and  C_23
REMARK    5  A    between atoms: C_23  and  C_26
REMARK                            x       y       z     vdW  Elec       q    Type
REMARK                         _______ _______ _______ _____ _____    ______ ____
ROOT
ATOM      1  C   UNL     1     -10.340  54.914  47.742  0.00  0.00    +0.000 A 
ATOM      2  C   UNL     1      -8.852  55.019  47.730  0.00  0.00    +0.000 A 
ATOM      3  C   UNL     1     -10.991  54.371  46.699  0.00  0.00    +0.000 A 
ATOM      4  O   UNL     1      -8.309  55.546  48.707  0.00  0.00    +0.000 OA
ATOM      5  N   UNL     1      -8.161  54.486  46.640  0.00  0.00    +0.000 N 
ATOM      6  C   UNL     1     -10.248  53.842  45.545  0.00  0.00    +0.000 A 
ATOM      7  C   UNL     1      -8.843  53.907  45.529  0.00  0.00    +0.000 A 
ATOM      8  C   UNL     1     -10.927  53.247  44.469  0.00  0.00    +0.000 A 
ATOM      9  C   UNL     1      -8.149  53.388  44.424  0.00  0.00    +0.000 A 
ATOM     10  C   UNL     1     -10.225  52.711  43.391  0.00  0.00    +0.000 A 
ATOM     11  C   UNL     1      -8.837  52.785  43.366  0.00  0.00    +0.000 A 
ENDROOT
BRANCH   1  17
ATOM     12  S   UNL     1     -11.746  54.964  51.407  0.00  0.00    +0.000 S 
ATOM     13  O   UNL     1     -10.765  55.441  52.364  0.00  0.00    +0.000 OA
ATOM     14  O   UNL     1     -12.600  53.842  51.727  0.00  0.00    +0.000 OA
ATOM     15  N   UNL     1     -10.958  54.615  50.035  0.00  0.00    +0.000 N 
ATOM     16  C   UNL     1     -12.820  56.316  51.098  0.00  0.00    +0.000 A 
ATOM     17  C   UNL     1     -11.088  55.363  48.980  0.00  0.00    +0.000 C 
ATOM     18  C   UNL     1     -12.755  56.929  49.857  0.00  0.00    +0.000 A 
ATOM     19  C   UNL     1     -13.718  56.732  52.083  0.00  0.00    +0.000 A 
ATOM     20  N   UNL     1     -11.843  56.514  48.891  0.00  0.00    +0.000 N 
ATOM     21  C   UNL     1     -13.571  58.041  49.625  0.00  0.00    +0.000 A 
ATOM     22  C   UNL     1     -14.551  57.819  51.827  0.00  0.00    +0.000 A 
ATOM     23  C   UNL     1     -14.472  58.478  50.601  0.00  0.00    +0.000 A 
ATOM     24  H   UNL     1     -10.372  53.825  50.000  0.00  0.00    +0.000 HD
ATOM     25  H   UNL     1     -11.729  57.078  48.094  0.00  0.00    +0.000 HD
ENDBRANCH   1  17
BRANCH   3  26
ATOM     26  O   UNL     1     -12.366  54.225  46.627  0.00  0.00    +0.000 OA
ATOM     27  H   UNL     1     -12.756  53.386  46.784  0.00  0.00    +0.000 HD
ENDBRANCH   3  26
BRANCH   5  28
ATOM     28  N   UNL     1      -6.728  54.579  46.577  0.00  0.00    +0.000 N 
ATOM     29  H   UNL     1      -6.259  55.372  46.231  0.00  0.00    +0.000 HD
BRANCH  28  30
ATOM     30  C   UNL     1      -6.023  53.389  47.074  0.00  0.00    +0.000 C 
BRANCH  30  31
ATOM     31  C   UNL     1      -5.692  53.535  48.531  0.00  0.00    +0.000 A 
ATOM     32  S   UNL     1      -6.400  52.477  49.683  0.00  0.00    +0.000 S 
ATOM     33  C   UNL     1      -4.818  54.421  49.127  0.00  0.00    +0.000 A 
ATOM     34  C   UNL     1      -5.531  53.196  50.967  0.00  0.00    +0.000 A 
ATOM     35  C   UNL     1      -4.726  54.225  50.535  0.00  0.00    +0.000 A 
ENDBRANCH  30  31
ENDBRANCH  28  30
ENDBRANCH   5  28
TORSDOF 5
ENDMDL
MODEL 7
REMARK VINA RESULT:      -8.1      3.704      7.409
REMARK  Name = 
REMARK  5 active torsions:
REMARK  status: ('A' for Active; 'I' for Inactive)
REMARK    1  A    between atoms: C_6  and  C_10
REMARK    2  A    between atoms: C_14  and  O_18
REMARK    3  A    between atoms: N_17  and  N_20
REMARK    4  A    between atoms: N_20  and  C_23
REMARK    5  A    between atoms: C_23  and  C_26
REMARK                            x       y       z     vdW  Elec       q    Type
REMARK                         _______ _______ _______ _____ _____    ______ ____
ROOT
ATOM      1  C   UNL     1     -10.313  55.245  50.766  0.00  0.00    +0.000 A 
ATOM      2  C   UNL     1      -9.958  55.121  49.323  0.00  0.00    +0.000 A 
ATOM      3  C   UNL     1     -11.492  55.776  51.132  0.00  0.00    +0.000 A 
ATOM      4  O   UNL     1      -8.852  54.644  49.047  0.00  0.00    +0.000 OA
ATOM      5  N   UNL     1     -10.904  55.512  48.374  0.00  0.00    +0.000 N 
ATOM      6  C   UNL     1     -12.465  56.212  50.118  0.00  0.00    +0.000 A 
ATOM      7  C   UNL     1     -12.158  56.076  48.752  0.00  0.00    +0.000 A 
ATOM      8  C   UNL     1     -13.710  56.738  50.500  0.00  0.00    +0.000 A 
ATOM      9  C   UNL     1     -13.102  56.487  47.797  0.00  0.00    +0.000 A 
ATOM     10  C   UNL     1     -14.648  57.118  49.543  0.00  0.00    +0.000 A 
ATOM     11  C   UNL     1     -14.343  56.997  48.192  0.00  0.00    +0.000 A 
ENDROOT
BRANCH   1  17
ATOM     12  S   UNL     1      -7.063  54.756  52.914  0.00  0.00    +0.000 S 
ATOM     13  O   UNL     1      -6.958  55.734  53.981  0.00  0.00    +0.000 OA
ATOM     14  O   UNL     1      -5.898  54.379  52.145  0.00  0.00    +0.000 OA
ATOM     15  N   UNL     1      -8.195  55.282  51.881  0.00  0.00    +0.000 N 
ATOM     16  C   UNL     1      -7.644  53.280  53.664  0.00  0.00    +0.000 A 
ATOM     17  C   UNL     1      -9.352  54.695  51.800  0.00  0.00    +0.000 C 
ATOM     18  C   UNL     1      -8.939  52.874  53.385  0.00  0.00    +0.000 A 
ATOM     19  C   UNL     1      -6.801  52.545  54.500  0.00  0.00    +0.000 A 
ATOM     20  N   UNL     1      -9.773  53.626  52.563  0.00  0.00    +0.000 N 
ATOM     21  C   UNL     1      -9.425  51.727  54.023  0.00  0.00    +0.000 A 
ATOM     22  C   UNL     1      -7.286  51.385  55.102  0.00  0.00    +0.000 A 
ATOM     23  C   UNL     1      -8.599  50.981  54.869  0.00  0.00    +0.000 A 
ATOM     24  H   UNL     1      -8.003  56.056  51.305  0.00  0.00    +0.000 HD
ATOM     25  H   UNL     1     -10.725  53.380  52.524  0.00  0.00    +0.000 HD
ENDBRANCH   1  17
BRANCH   3  26
ATOM     26  O   UNL     1     -11.909  55.922  52.444  0.00  0.00    +0.000 OA
ATOM     27  H   UNL     1     -12.165  55.168  52.941  0.00  0.00    +0.000 HD
ENDBRANCH   3  26
BRANCH   5  28
ATOM     28  N   UNL     1     -10.599  55.425  46.972  0.00  0.00    +0.000 N 
ATOM     29  H   UNL     1      -9.965  56.032  46.525  0.00  0.00    +0.000 HD
BRANCH  28  30
ATOM     30  C   UNL     1     -11.314  54.355  46.262  0.00  0.00    +0.000 C 
BRANCH  30  31
ATOM     31  C   UNL     1     -10.429  53.711  45.237  0.00  0.00    +0.000 A 
ATOM     32  S   UNL     1      -8.726  53.921  45.317  0.00  0.00    +0.000 S 
ATOM     33  C   UNL     1     -10.788  52.886  44.191  0.00  0.00    +0.000 A 
ATOM     34  C   UNL     1      -8.476  52.905  43.966  0.00  0.00    +0.000 A 
ATOM     35  C   UNL     1      -9.659  52.421  43.456  0.00  0.00    +0.000 A 
ENDBRANCH  30  31
ENDBRANCH  28  30
ENDBRANCH   5  28
TORSDOF 5
ENDMDL
MODEL 8
REMARK VINA RESULT:      -8.1      3.725      5.198
REMARK  Name = 
REMARK  5 active torsions:
REMARK  status: ('A' for Active; 'I' for Inactive)
REMARK    1  A    between atoms: C_6  and  C_10
REMARK    2  A    between atoms: C_14  and  O_18
REMARK    3  A    between atoms: N_17  and  N_20
REMARK    4  A    between atoms: N_20  and  C_23
REMARK    5  A    between atoms: C_23  and  C_26
REMARK                            x       y       z     vdW  Elec       q    Type
REMARK                         _______ _______ _______ _____ _____    ______ ____
ROOT
ATOM      1  C   UNL     1     -10.676  55.683  48.207  0.00  0.00    +0.000 A 
ATOM      2  C   UNL     1      -9.220  55.736  48.523  0.00  0.00    +0.000 A 
ATOM      3  C   UNL     1     -11.108  55.061  47.096  0.00  0.00    +0.000 A 
ATOM      4  O   UNL     1      -8.880  56.339  49.547  0.00  0.00    +0.000 OA
ATOM      5  N   UNL     1      -8.334  55.075  47.671  0.00  0.00    +0.000 N 
ATOM      6  C   UNL     1     -10.156  54.396  46.193  0.00  0.00    +0.000 A 
ATOM      7  C   UNL     1      -8.782  54.412  46.490  0.00  0.00    +0.000 A 
ATOM      8  C   UNL     1     -10.610  53.720  45.048  0.00  0.00    +0.000 A 
ATOM      9  C   UNL     1      -7.889  53.762  45.623  0.00  0.00    +0.000 A 
ATOM     10  C   UNL     1      -9.716  53.057  44.209  0.00  0.00    +0.000 A 
ATOM     11  C   UNL     1      -8.356  53.082  44.494  0.00  0.00    +0.000 A 
ENDROOT
BRANCH   1  17
ATOM     12  S   UNL     1     -13.094  56.014  51.283  0.00  0.00    +0.000 S 
ATOM     13  O   UNL     1     -12.377  56.251  52.521  0.00  0.00    +0.000 OA
ATOM     14  O   UNL     1     -14.221  55.110  51.247  0.00  0.00    +0.000 OA
ATOM     15  N   UNL     1     -12.016  55.510  50.184  0.00  0.00    +0.000 N 
ATOM     16  C   UNL     1     -13.712  57.575  50.773  0.00  0.00    +0.000 A 
ATOM     17  C   UNL     1     -11.656  56.277  49.198  0.00  0.00    +0.000 C 
ATOM     18  C   UNL     1     -13.141  58.169  49.658  0.00  0.00    +0.000 A 
ATOM     19  C   UNL     1     -14.759  58.173  51.476  0.00  0.00    +0.000 A 
ATOM     20  N   UNL     1     -12.086  57.568  48.978  0.00  0.00    +0.000 N 
ATOM     21  C   UNL     1     -13.594  59.438  49.281  0.00  0.00    +0.000 A 
ATOM     22  C   UNL     1     -15.225  59.422  51.068  0.00  0.00    +0.000 A 
ATOM     23  C   UNL     1     -14.637  60.057  49.976  0.00  0.00    +0.000 A 
ATOM     24  H   UNL     1     -11.627  54.609  50.263  0.00  0.00    +0.000 HD
ATOM     25  H   UNL     1     -11.617  58.100  48.296  0.00  0.00    +0.000 HD
ENDBRANCH   1  17
BRANCH   3  26
ATOM     26  O   UNL     1     -12.438  54.955  46.728  0.00  0.00    +0.000 OA
ATOM     27  H   UNL     1     -12.669  54.512  45.934  0.00  0.00    +0.000 HD
ENDBRANCH   3  26
BRANCH   5  28
ATOM     28  N   UNL     1      -6.920  55.112  47.927  0.00  0.00    +0.000 N 
ATOM     29  H   UNL     1      -6.376  55.923  47.801  0.00  0.00    +0.000 HD
BRANCH  28  30
ATOM     30  C   UNL     1      -6.355  53.838  48.394  0.00  0.00    +0.000 C 
BRANCH  30  31
ATOM     31  C   UNL     1      -6.330  53.784  49.894  0.00  0.00    +0.000 A 
ATOM     32  S   UNL     1      -4.915  54.252  50.747  0.00  0.00    +0.000 S 
ATOM     33  C   UNL     1      -7.347  53.431  50.756  0.00  0.00    +0.000 A 
ATOM     34  C   UNL     1      -5.668  53.993  52.259  0.00  0.00    +0.000 A 
ATOM     35  C   UNL     1      -6.964  53.551  52.123  0.00  0.00    +0.000 A 
ENDBRANCH  30  31
ENDBRANCH  28  30
ENDBRANCH   5  28
TORSDOF 5
ENDMDL
MODEL 9
REMARK VINA RESULT:      -8.0      2.799      8.285
REMARK  Name = 
REMARK  5 active torsions:
REMARK  status: ('A' for Active; 'I' for Inactive)
REMARK    1  A    between atoms: C_6  and  C_10
REMARK    2  A    between atoms: C_14  and  O_18
REMARK    3  A    between atoms: N_17  and  N_20
REMARK    4  A    between atoms: N_20  and  C_23
REMARK    5  A    between atoms: C_23  and  C_26
REMARK                            x       y       z     vdW  Elec       q    Type
REMARK                         _______ _______ _______ _____ _____    ______ ____
ROOT
ATOM      1  C   UNL     1      -9.831  53.930  50.645  0.00  0.00    +0.000 A 
ATOM      2  C   UNL     1     -11.133  54.612  50.895  0.00  0.00    +0.000 A 
ATOM      3  C   UNL     1      -9.422  53.684  49.389  0.00  0.00    +0.000 A 
ATOM      4  O   UNL     1     -11.467  54.794  52.071  0.00  0.00    +0.000 OA
ATOM      5  N   UNL     1     -11.878  55.038  49.793  0.00  0.00    +0.000 N 
ATOM      6  C   UNL     1     -10.235  54.112  48.240  0.00  0.00    +0.000 A 
ATOM      7  C   UNL     1     -11.452  54.782  48.456  0.00  0.00    +0.000 A 
ATOM      8  C   UNL     1      -9.793  53.882  46.926  0.00  0.00    +0.000 A 
ATOM      9  C   UNL     1     -12.210  55.193  47.347  0.00  0.00    +0.000 A 
ATOM     10  C   UNL     1     -10.541  54.319  45.835  0.00  0.00    +0.000 A 
ATOM     11  C   UNL     1     -11.751  54.970  46.045  0.00  0.00    +0.000 A 
ENDROOT
BRANCH   1  17
ATOM     12  S   UNL     1      -6.744  53.860  53.071  0.00  0.00    +0.000 S 
ATOM     13  O   UNL     1      -6.696  55.028  53.931  0.00  0.00    +0.000 OA
ATOM     14  O   UNL     1      -5.536  53.337  52.475  0.00  0.00    +0.000 OA
ATOM     15  N   UNL     1      -7.793  54.177  51.878  0.00  0.00    +0.000 N 
ATOM     16  C   UNL     1      -7.400  52.561  54.052  0.00  0.00    +0.000 A 
ATOM     17  C   UNL     1      -8.952  53.590  51.831  0.00  0.00    +0.000 C 
ATOM     18  C   UNL     1      -8.680  52.113  53.766  0.00  0.00    +0.000 A 
ATOM     19  C   UNL     1      -6.629  52.001  55.072  0.00  0.00    +0.000 A 
ATOM     20  N   UNL     1      -9.443  52.692  52.757  0.00  0.00    +0.000 N 
ATOM     21  C   UNL     1      -9.227  51.114  54.579  0.00  0.00    +0.000 A 
ATOM     22  C   UNL     1      -7.173  50.983  55.852  0.00  0.00    +0.000 A 
ATOM     23  C   UNL     1      -8.475  50.545  55.611  0.00  0.00    +0.000 A 
ATOM     24  H   UNL     1      -7.550  54.824  51.177  0.00  0.00    +0.000 HD
ATOM     25  H   UNL     1     -10.393  52.446  52.700  0.00  0.00    +0.000 HD
ENDBRANCH   1  17
BRANCH   3  26
ATOM     26  O   UNL     1      -8.228  53.065  49.064  0.00  0.00    +0.000 OA
ATOM     27  H   UNL     1      -7.740  53.353  48.316  0.00  0.00    +0.000 HD
ENDBRANCH   3  26
BRANCH   5  28
ATOM     28  N   UNL     1     -13.147  55.686  49.984  0.00  0.00    +0.000 N 
ATOM     29  H   UNL     1     -13.989  55.188  50.091  0.00  0.00    +0.000 HD
BRANCH  28  30
ATOM     30  C   UNL     1     -13.079  57.154  50.007  0.00  0.00    +0.000 C 
BRANCH  30  31
ATOM     31  C   UNL     1     -13.851  57.705  51.169  0.00  0.00    +0.000 A 
ATOM     32  S   UNL     1     -14.525  59.282  51.083  0.00  0.00    +0.000 S 
ATOM     33  C   UNL     1     -14.161  57.087  52.363  0.00  0.00    +0.000 A 
ATOM     34  C   UNL     1     -15.234  59.130  52.631  0.00  0.00    +0.000 A 
ATOM     35  C   UNL     1     -14.960  57.910  53.208  0.00  0.00    +0.000 A 
ENDBRANCH  30  31
ENDBRANCH  28  30
ENDBRANCH   5  28
TORSDOF 5
ENDMDL
