MODEL 1
REMARK VINA RESULT:      -8.4      0.000      0.000
REMARK  Name = 
REMARK  5 active torsions:
REMARK  status: ('A' for Active; 'I' for Inactive)
REMARK    1  A    between atoms: C_6  and  C_10
REMARK    2  A    between atoms: C_14  and  O_18
REMARK    3  A    between atoms: N_17  and  N_20
REMARK    4  A    between atoms: N_20  and  C_23
REMARK    5  A    between atoms: C_23  and  C_26
REMARK                            x       y       z     vdW  Elec       q    Type
REMARK                         _______ _______ _______ _____ _____    ______ ____
ROOT
ATOM      1  C   UNL     1     -10.058  54.592  52.209  0.00  0.00    +0.000 A 
ATOM      2  C   UNL     1      -8.722  55.212  52.026  0.00  0.00    +0.000 A 
ATOM      3  C   UNL     1     -10.226  53.467  52.919  0.00  0.00    +0.000 A 
ATOM      4  O   UNL     1      -8.672  56.275  51.401  0.00  0.00    +0.000 OA
ATOM      5  N   UNL     1      -7.622  54.566  52.609  0.00  0.00    +0.000 N 
ATOM      6  C   UNL     1      -9.071  52.840  53.577  0.00  0.00    +0.000 A 
ATOM      7  C   UNL     1      -7.784  53.397  53.424  0.00  0.00    +0.000 A 
ATOM      8  C   UNL     1      -9.249  51.694  54.373  0.00  0.00    +0.000 A 
ATOM      9  C   UNL     1      -6.712  52.802  54.113  0.00  0.00    +0.000 A 
ATOM     10  C   UNL     1      -8.178  51.127  55.057  0.00  0.00    +0.000 A 
ATOM     11  C   UNL     1      -6.913  51.686  54.935  0.00  0.00    +0.000 A 
ENDROOT
BRANCH   1  17
ATOM     12  S   UNL     1     -12.515  56.032  49.556  0.00  0.00    +0.000 S 
ATOM     13  O   UNL     1     -13.407  55.028  49.013  0.00  0.00    +0.000 OA
ATOM     14  O   UNL     1     -11.924  57.037  48.688  0.00  0.00    +0.000 OA
ATOM     15  N   UNL     1     -11.325  55.260  50.328  0.00  0.00    +0.000 N 
ATOM     16  C   UNL     1     -13.458  56.915  50.747  0.00  0.00    +0.000 A 
ATOM     17  C   UNL     1     -11.248  55.282  51.621  0.00  0.00    +0.000 C 
ATOM     18  C   UNL     1     -13.156  56.730  52.087  0.00  0.00    +0.000 A 
ATOM     19  C   UNL     1     -14.480  57.774  50.328  0.00  0.00    +0.000 A 
ATOM     20  N   UNL     1     -12.145  55.860  52.490  0.00  0.00    +0.000 N 
ATOM     21  C   UNL     1     -13.947  57.381  53.039  0.00  0.00    +0.000 A 
ATOM     22  C   UNL     1     -15.236  58.443  51.288  0.00  0.00    +0.000 A 
ATOM     23  C   UNL     1     -14.977  58.238  52.642  0.00  0.00    +0.000 A 
ATOM     24  H   UNL     1     -10.648  54.767  49.808  0.00  0.00    +0.000 HD
ATOM     25  H   UNL     1     -12.069  55.648  53.449  0.00  0.00    +0.000 HD
ENDBRANCH   1  17
BRANCH   3  26
ATOM     26  O   UNL     1     -11.448  52.855  53.139  0.00  0.00    +0.000 OA
ATOM     27  H   UNL     1     -12.240  53.290  52.891  0.00  0.00    +0.000 HD
ENDBRANCH   3  26
BRANCH   5  28
ATOM     28  N   UNL     1      -6.322  54.975  52.175  0.00  0.00    +0.000 N 
ATOM     29  H   UNL     1      -5.687  55.443  52.763  0.00  0.00    +0.000 HD
BRANCH  28  30
ATOM     30  C   UNL     1      -6.010  54.644  50.782  0.00  0.00    +0.000 C 
BRANCH  30  31
ATOM     31  C   UNL     1      -4.920  53.564  50.719  0.00  0.00    +0.000 C 
ATOM     32  C   UNL     1      -5.495  52.149  50.789  0.00  0.00    +0.000 C 
ATOM     33  C   UNL     1      -3.958  53.582  51.909  0.00  0.00    +0.000 C 
ATOM     34  C   UNL     1      -4.334  51.269  51.246  0.00  0.00    +0.000 C 
ATOM     35  C   UNL     1      -3.304  52.207  51.873  0.00  0.00    +0.000 C 
ENDBRANCH  30  31
ENDBRANCH  28  30
ENDBRANCH   5  28
TORSDOF 5
ENDMDL
MODEL 2
REMARK VINA RESULT:      -8.3      3.290      5.061
REMARK  Name = 
REMARK  5 active torsions:
REMARK  status: ('A' for Active; 'I' for Inactive)
REMARK    1  A    between atoms: C_6  and  C_10
REMARK    2  A    between atoms: C_14  and  O_18
REMARK    3  A    between atoms: N_17  and  N_20
REMARK    4  A    between atoms: N_20  and  C_23
REMARK    5  A    between atoms: C_23  and  C_26
REMARK                            x       y       z     vdW  Elec       q    Type
REMARK                         _______ _______ _______ _____ _____    ______ ____
ROOT
ATOM      1  C   UNL     1     -11.562  56.152  48.733  0.00  0.00    +0.000 A 
ATOM      2  C   UNL     1     -10.390  55.684  49.515  0.00  0.00    +0.000 A 
ATOM      3  C   UNL     1     -11.793  55.731  47.481  0.00  0.00    +0.000 A 
ATOM      4  O   UNL     1     -10.288  56.084  50.678  0.00  0.00    +0.000 OA
ATOM      5  N   UNL     1      -9.507  54.793  48.887  0.00  0.00    +0.000 N 
ATOM      6  C   UNL     1     -10.892  54.748  46.864  0.00  0.00    +0.000 A 
ATOM      7  C   UNL     1      -9.764  54.282  47.572  0.00  0.00    +0.000 A 
ATOM      8  C   UNL     1     -11.162  54.258  45.573  0.00  0.00    +0.000 A 
ATOM      9  C   UNL     1      -8.957  53.300  46.971  0.00  0.00    +0.000 A 
ATOM     10  C   UNL     1     -10.358  53.277  45.000  0.00  0.00    +0.000 A 
ATOM     11  C   UNL     1      -9.262  52.792  45.703  0.00  0.00    +0.000 A 
ENDROOT
BRANCH   1  17
ATOM     12  S   UNL     1     -13.614  59.370  49.497  0.00  0.00    +0.000 S 
ATOM     13  O   UNL     1     -14.769  59.516  48.636  0.00  0.00    +0.000 OA
ATOM     14  O   UNL     1     -12.798  60.524  49.835  0.00  0.00    +0.000 OA
ATOM     15  N   UNL     1     -12.659  58.243  48.842  0.00  0.00    +0.000 N 
ATOM     16  C   UNL     1     -14.229  58.749  51.021  0.00  0.00    +0.000 A 
ATOM     17  C   UNL     1     -12.533  57.078  49.396  0.00  0.00    +0.000 C 
ATOM     18  C   UNL     1     -13.943  57.435  51.354  0.00  0.00    +0.000 A 
ATOM     19  C   UNL     1     -14.985  59.579  51.856  0.00  0.00    +0.000 A 
ATOM     20  N   UNL     1     -13.201  56.615  50.506  0.00  0.00    +0.000 N 
ATOM     21  C   UNL     1     -14.486  56.918  52.535  0.00  0.00    +0.000 A 
ATOM     22  C   UNL     1     -15.490  59.060  53.046  0.00  0.00    +0.000 A 
ATOM     23  C   UNL     1     -15.250  57.728  53.380  0.00  0.00    +0.000 A 
ATOM     24  H   UNL     1     -12.166  58.445  48.014  0.00  0.00    +0.000 HD
ATOM     25  H   UNL     1     -13.153  55.654  50.713  0.00  0.00    +0.000 HD
ENDBRANCH   1  17
BRANCH   3  26
ATOM     26  O   UNL     1     -12.878  56.118  46.714  0.00  0.00    +0.000 OA
ATOM     27  H   UNL     1     -12.892  55.931  45.796  0.00  0.00    +0.000 HD
ENDBRANCH   3  26
BRANCH   5  28
ATOM     28  N   UNL     1      -8.232  54.595  49.507  0.00  0.00    +0.000 N 
ATOM     29  H   UNL     1      -7.441  55.132  49.279  0.00  0.00    +0.000 HD
BRANCH  28  30
ATOM     30  C   UNL     1      -8.201  53.526  50.509  0.00  0.00    +0.000 C 
BRANCH  30  31
ATOM     31  C   UNL     1      -7.637  54.051  51.837  0.00  0.00    +0.000 C 
ATOM     32  C   UNL     1      -8.708  54.162  52.922  0.00  0.00    +0.000 C 
ATOM     33  C   UNL     1      -7.103  55.483  51.762  0.00  0.00    +0.000 C 
ATOM     34  C   UNL     1      -8.146  55.155  53.937  0.00  0.00    +0.000 C 
ATOM     35  C   UNL     1      -7.045  55.931  53.217  0.00  0.00    +0.000 C 
ENDBRANCH  30  31
ENDBRANCH  28  30
ENDBRANCH   5  28
TORSDOF 5
ENDMDL
MODEL 3
REMARK VINA RESULT:      -8.3      2.877      8.232
REMARK  Name = 
REMARK  5 active torsions:
REMARK  status: ('A' for Active; 'I' for Inactive)
REMARK    1  A    between atoms: C_6  and  C_10
REMARK    2  A    between atoms: C_14  and  O_18
REMARK    3  A    between atoms: N_17  and  N_20
REMARK    4  A    between atoms: N_20  and  C_23
REMARK    5  A    between atoms: C_23  and  C_26
REMARK                            x       y       z     vdW  Elec       q    Type
REMARK                         _______ _______ _______ _____ _____    ______ ____
ROOT
ATOM      1  C   UNL     1      -9.822  54.399  50.545  0.00  0.00    +0.000 A 
ATOM      2  C   UNL     1     -11.078  55.152  50.785  0.00  0.00    +0.000 A 
ATOM      3  C   UNL     1      -9.456  54.006  49.317  0.00  0.00    +0.000 A 
ATOM      4  O   UNL     1     -11.307  55.519  51.941  0.00  0.00    +0.000 OA
ATOM      5  N   UNL     1     -11.893  55.425  49.676  0.00  0.00    +0.000 N 
ATOM      6  C   UNL     1     -10.289  54.357  48.159  0.00  0.00    +0.000 A 
ATOM      7  C   UNL     1     -11.493  55.069  48.346  0.00  0.00    +0.000 A 
ATOM      8  C   UNL     1      -9.880  54.000  46.861  0.00  0.00    +0.000 A 
ATOM      9  C   UNL     1     -12.235  55.436  47.210  0.00  0.00    +0.000 A 
ATOM     10  C   UNL     1     -10.622  54.383  45.748  0.00  0.00    +0.000 A 
ATOM     11  C   UNL     1     -11.794  55.109  45.922  0.00  0.00    +0.000 A 
ENDROOT
BRANCH   1  17
ATOM     12  S   UNL     1      -6.808  54.683  52.991  0.00  0.00    +0.000 S 
ATOM     13  O   UNL     1      -6.965  55.754  53.953  0.00  0.00    +0.000 OA
ATOM     14  O   UNL     1      -5.518  54.436  52.369  0.00  0.00    +0.000 OA
ATOM     15  N   UNL     1      -7.901  54.912  51.824  0.00  0.00    +0.000 N 
ATOM     16  C   UNL     1      -7.222  53.206  53.848  0.00  0.00    +0.000 A 
ATOM     17  C   UNL     1      -8.924  54.125  51.710  0.00  0.00    +0.000 C 
ATOM     18  C   UNL     1      -8.410  52.571  53.519  0.00  0.00    +0.000 A 
ATOM     19  C   UNL     1      -6.361  52.707  54.832  0.00  0.00    +0.000 A 
ATOM     20  N   UNL     1      -9.265  53.088  52.548  0.00  0.00    +0.000 N 
ATOM     21  C   UNL     1      -8.774  51.432  54.245  0.00  0.00    +0.000 A 
ATOM     22  C   UNL     1      -6.721  51.551  55.522  0.00  0.00    +0.000 A 
ATOM     23  C   UNL     1      -7.931  50.921  55.236  0.00  0.00    +0.000 A 
ATOM     24  H   UNL     1      -7.788  55.659  51.192  0.00  0.00    +0.000 HD
ATOM     25  H   UNL     1     -10.160  52.688  52.457  0.00  0.00    +0.000 HD
ENDBRANCH   1  17
BRANCH   3  26
ATOM     26  O   UNL     1      -8.289  53.319  49.031  0.00  0.00    +0.000 OA
ATOM     27  H   UNL     1      -8.330  52.468  48.641  0.00  0.00    +0.000 HD
ENDBRANCH   3  26
BRANCH   5  28
ATOM     28  N   UNL     1     -13.230  55.860  49.942  0.00  0.00    +0.000 N 
ATOM     29  H   UNL     1     -13.972  55.233  50.097  0.00  0.00    +0.000 HD
BRANCH  28  30
ATOM     30  C   UNL     1     -13.407  57.314  49.963  0.00  0.00    +0.000 C 
BRANCH  30  31
ATOM     31  C   UNL     1     -14.498  57.707  50.968  0.00  0.00    +0.000 C 
ATOM     32  C   UNL     1     -14.399  59.172  51.395  0.00  0.00    +0.000 C 
ATOM     33  C   UNL     1     -14.403  56.973  52.307  0.00  0.00    +0.000 C 
ATOM     34  C   UNL     1     -15.151  59.253  52.722  0.00  0.00    +0.000 C 
ATOM     35  C   UNL     1     -15.241  57.823  53.254  0.00  0.00    +0.000 C 
ENDBRANCH  30  31
ENDBRANCH  28  30
ENDBRANCH   5  28
TORSDOF 5
ENDMDL
MODEL 4
REMARK VINA RESULT:      -8.1      3.306      8.290
REMARK  Name = 
REMARK  5 active torsions:
REMARK  status: ('A' for Active; 'I' for Inactive)
REMARK    1  A    between atoms: C_6  and  C_10
REMARK    2  A    between atoms: C_14  and  O_18
REMARK    3  A    between atoms: N_17  and  N_20
REMARK    4  A    between atoms: N_20  and  C_23
REMARK    5  A    between atoms: C_23  and  C_26
REMARK                            x       y       z     vdW  Elec       q    Type
REMARK                         _______ _______ _______ _____ _____    ______ ____
ROOT
ATOM      1  C   UNL     1      -9.109  54.255  49.799  0.00  0.00    +0.000 A 
ATOM      2  C   UNL     1     -10.084  55.374  49.801  0.00  0.00    +0.000 A 
ATOM      3  C   UNL     1      -9.013  53.400  48.771  0.00  0.00    +0.000 A 
ATOM      4  O   UNL     1     -10.064  56.142  50.768  0.00  0.00    +0.000 OA
ATOM      5  N   UNL     1     -10.929  55.500  48.689  0.00  0.00    +0.000 N 
ATOM      6  C   UNL     1      -9.863  53.587  47.586  0.00  0.00    +0.000 A 
ATOM      7  C   UNL     1     -10.805  54.636  47.551  0.00  0.00    +0.000 A 
ATOM      8  C   UNL     1      -9.726  52.729  46.479  0.00  0.00    +0.000 A 
ATOM      9  C   UNL     1     -11.560  54.816  46.379  0.00  0.00    +0.000 A 
ATOM     10  C   UNL     1     -10.474  52.932  45.323  0.00  0.00    +0.000 A 
ATOM     11  C   UNL     1     -11.383  53.981  45.269  0.00  0.00    +0.000 A 
ENDROOT
BRANCH   1  17
ATOM     12  S   UNL     1      -7.845  54.083  53.477  0.00  0.00    +0.000 S 
ATOM     13  O   UNL     1      -8.044  52.780  54.078  0.00  0.00    +0.000 OA
ATOM     14  O   UNL     1      -8.094  55.292  54.243  0.00  0.00    +0.000 OA
ATOM     15  N   UNL     1      -8.738  54.139  52.131  0.00  0.00    +0.000 N 
ATOM     16  C   UNL     1      -6.152  54.143  53.014  0.00  0.00    +0.000 A 
ATOM     17  C   UNL     1      -8.177  54.123  50.963  0.00  0.00    +0.000 C 
ATOM     18  C   UNL     1      -5.841  54.095  51.664  0.00  0.00    +0.000 A 
ATOM     19  C   UNL     1      -5.164  54.236  54.000  0.00  0.00    +0.000 A 
ATOM     20  N   UNL     1      -6.835  53.988  50.694  0.00  0.00    +0.000 N 
ATOM     21  C   UNL     1      -4.491  54.076  51.296  0.00  0.00    +0.000 A 
ATOM     22  C   UNL     1      -3.825  54.252  53.616  0.00  0.00    +0.000 A 
ATOM     23  C   UNL     1      -3.489  54.160  52.266  0.00  0.00    +0.000 A 
ATOM     24  H   UNL     1      -9.719  54.188  52.200  0.00  0.00    +0.000 HD
ATOM     25  H   UNL     1      -6.560  53.805  49.765  0.00  0.00    +0.000 HD
ENDBRANCH   1  17
BRANCH   3  26
ATOM     26  O   UNL     1      -8.112  52.352  48.706  0.00  0.00    +0.000 OA
ATOM     27  H   UNL     1      -7.684  52.054  49.484  0.00  0.00    +0.000 HD
ENDBRANCH   3  26
BRANCH   5  28
ATOM     28  N   UNL     1     -12.062  56.363  48.826  0.00  0.00    +0.000 N 
ATOM     29  H   UNL     1     -12.051  57.305  48.543  0.00  0.00    +0.000 HD
BRANCH  28  30
ATOM     30  C   UNL     1     -13.242  55.732  49.425  0.00  0.00    +0.000 C 
BRANCH  30  31
ATOM     31  C   UNL     1     -13.929  56.696  50.401  0.00  0.00    +0.000 C 
ATOM     32  C   UNL     1     -13.309  56.654  51.798  0.00  0.00    +0.000 C 
ATOM     33  C   UNL     1     -15.393  56.353  50.686  0.00  0.00    +0.000 C 
ATOM     34  C   UNL     1     -14.383  57.213  52.729  0.00  0.00    +0.000 C 
ATOM     35  C   UNL     1     -15.705  57.112  51.970  0.00  0.00    +0.000 C 
ENDBRANCH  30  31
ENDBRANCH  28  30
ENDBRANCH   5  28
TORSDOF 5
ENDMDL
MODEL 5
REMARK VINA RESULT:      -8.1      4.372      5.450
REMARK  Name = 
REMARK  5 active torsions:
REMARK  status: ('A' for Active; 'I' for Inactive)
REMARK    1  A    between atoms: C_6  and  C_10
REMARK    2  A    between atoms: C_14  and  O_18
REMARK    3  A    between atoms: N_17  and  N_20
REMARK    4  A    between atoms: N_20  and  C_23
REMARK    5  A    between atoms: C_23  and  C_26
REMARK                            x       y       z     vdW  Elec       q    Type
REMARK                         _______ _______ _______ _____ _____    ______ ____
ROOT
ATOM      1  C   UNL     1     -12.440  54.345  49.593  0.00  0.00    +0.000 A 
ATOM      2  C   UNL     1     -11.935  54.326  48.198  0.00  0.00    +0.000 A 
ATOM      3  C   UNL     1     -12.159  53.364  50.462  0.00  0.00    +0.000 A 
ATOM      4  O   UNL     1     -12.201  55.297  47.485  0.00  0.00    +0.000 OA
ATOM      5  N   UNL     1     -11.162  53.224  47.804  0.00  0.00    +0.000 N 
ATOM      6  C   UNL     1     -11.293  52.250  50.051  0.00  0.00    +0.000 A 
ATOM      7  C   UNL     1     -10.796  52.193  48.732  0.00  0.00    +0.000 A 
ATOM      8  C   UNL     1     -10.946  51.249  50.976  0.00  0.00    +0.000 A 
ATOM      9  C   UNL     1      -9.927  51.142  48.391  0.00  0.00    +0.000 A 
ATOM     10  C   UNL     1     -10.073  50.223  50.623  0.00  0.00    +0.000 A 
ATOM     11  C   UNL     1      -9.557  50.176  49.335  0.00  0.00    +0.000 A 
ENDROOT
BRANCH   1  17
ATOM     12  S   UNL     1     -15.352  56.428  51.121  0.00  0.00    +0.000 S 
ATOM     13  O   UNL     1     -15.291  56.503  52.566  0.00  0.00    +0.000 OA
ATOM     14  O   UNL     1     -16.626  56.243  50.448  0.00  0.00    +0.000 OA
ATOM     15  N   UNL     1     -14.351  55.250  50.651  0.00  0.00    +0.000 N 
ATOM     16  C   UNL     1     -14.713  57.956  50.536  0.00  0.00    +0.000 A 
ATOM     17  C   UNL     1     -13.241  55.527  50.042  0.00  0.00    +0.000 C 
ATOM     18  C   UNL     1     -13.470  57.953  49.923  0.00  0.00    +0.000 A 
ATOM     19  C   UNL     1     -15.457  59.130  50.698  0.00  0.00    +0.000 A 
ATOM     20  N   UNL     1     -12.733  56.779  49.781  0.00  0.00    +0.000 N 
ATOM     21  C   UNL     1     -12.930  59.177  49.515  0.00  0.00    +0.000 A 
ATOM     22  C   UNL     1     -14.920  60.337  50.255  0.00  0.00    +0.000 A 
ATOM     23  C   UNL     1     -13.653  60.362  49.674  0.00  0.00    +0.000 A 
ATOM     24  H   UNL     1     -14.588  54.311  50.830  0.00  0.00    +0.000 HD
ATOM     25  H   UNL     1     -11.798  56.850  49.478  0.00  0.00    +0.000 HD
ENDBRANCH   1  17
BRANCH   3  26
ATOM     26  O   UNL     1     -12.586  53.339  51.779  0.00  0.00    +0.000 OA
ATOM     27  H   UNL     1     -13.437  53.007  51.988  0.00  0.00    +0.000 HD
ENDBRANCH   3  26
BRANCH   5  28
ATOM     28  N   UNL     1     -10.946  53.048  46.400  0.00  0.00    +0.000 N 
ATOM     29  H   UNL     1     -11.499  52.448  45.849  0.00  0.00    +0.000 HD
BRANCH  28  30
ATOM     30  C   UNL     1      -9.837  53.830  45.850  0.00  0.00    +0.000 C 
BRANCH  30  31
ATOM     31  C   UNL     1      -9.211  53.103  44.651  0.00  0.00    +0.000 C 
ATOM     32  C   UNL     1     -10.230  52.806  43.550  0.00  0.00    +0.000 C 
ATOM     33  C   UNL     1      -8.675  51.708  44.980  0.00  0.00    +0.000 C 
ATOM     34  C   UNL     1      -9.618  51.669  42.735  0.00  0.00    +0.000 C 
ATOM     35  C   UNL     1      -8.548  51.032  43.621  0.00  0.00    +0.000 C 
ENDBRANCH  30  31
ENDBRANCH  28  30
ENDBRANCH   5  28
TORSDOF 5
ENDMDL
MODEL 6
REMARK VINA RESULT:      -8.0      0.993      1.412
REMARK  Name = 
REMARK  5 active torsions:
REMARK  status: ('A' for Active; 'I' for Inactive)
REMARK    1  A    between atoms: C_6  and  C_10
REMARK    2  A    between atoms: C_14  and  O_18
REMARK    3  A    between atoms: N_17  and  N_20
REMARK    4  A    between atoms: N_20  and  C_23
REMARK    5  A    between atoms: C_23  and  C_26
REMARK                            x       y       z     vdW  Elec       q    Type
REMARK                         _______ _______ _______ _____ _____    ______ ____
ROOT
ATOM      1  C   UNL     1      -9.962  54.579  52.162  0.00  0.00    +0.000 A 
ATOM      2  C   UNL     1      -8.633  55.212  51.971  0.00  0.00    +0.000 A 
ATOM      3  C   UNL     1     -10.118  53.465  52.891  0.00  0.00    +0.000 A 
ATOM      4  O   UNL     1      -8.593  56.265  51.329  0.00  0.00    +0.000 OA
ATOM      5  N   UNL     1      -7.526  54.587  52.566  0.00  0.00    +0.000 N 
ATOM      6  C   UNL     1      -8.957  52.861  53.560  0.00  0.00    +0.000 A 
ATOM      7  C   UNL     1      -7.676  53.430  53.400  0.00  0.00    +0.000 A 
ATOM      8  C   UNL     1      -9.124  51.726  54.374  0.00  0.00    +0.000 A 
ATOM      9  C   UNL     1      -6.599  52.858  54.099  0.00  0.00    +0.000 A 
ATOM     10  C   UNL     1      -8.048  51.182  55.069  0.00  0.00    +0.000 A 
ATOM     11  C   UNL     1      -6.789  51.754  54.939  0.00  0.00    +0.000 A 
ENDROOT
BRANCH   1  17
ATOM     12  S   UNL     1     -12.424  55.961  49.483  0.00  0.00    +0.000 S 
ATOM     13  O   UNL     1     -13.297  54.939  48.943  0.00  0.00    +0.000 OA
ATOM     14  O   UNL     1     -11.843  56.968  48.611  0.00  0.00    +0.000 OA
ATOM     15  N   UNL     1     -11.227  55.213  50.268  0.00  0.00    +0.000 N 
ATOM     16  C   UNL     1     -13.388  56.839  50.661  0.00  0.00    +0.000 A 
ATOM     17  C   UNL     1     -11.159  55.247  51.562  0.00  0.00    +0.000 C 
ATOM     18  C   UNL     1     -13.091  56.669  52.005  0.00  0.00    +0.000 A 
ATOM     19  C   UNL     1     -14.420  57.679  50.229  0.00  0.00    +0.000 A 
ATOM     20  N   UNL     1     -12.070  55.817  52.421  0.00  0.00    +0.000 N 
ATOM     21  C   UNL     1     -13.898  57.315  52.947  0.00  0.00    +0.000 A 
ATOM     22  C   UNL     1     -15.193  58.343  51.179  0.00  0.00    +0.000 A 
ATOM     23  C   UNL     1     -14.939  58.152  52.537  0.00  0.00    +0.000 A 
ATOM     24  H   UNL     1     -10.539  54.727  49.757  0.00  0.00    +0.000 HD
ATOM     25  H   UNL     1     -11.997  55.614  53.382  0.00  0.00    +0.000 HD
ENDBRANCH   1  17
BRANCH   3  26
ATOM     26  O   UNL     1     -11.333  52.843  53.119  0.00  0.00    +0.000 OA
ATOM     27  H   UNL     1     -12.074  53.349  53.388  0.00  0.00    +0.000 HD
ENDBRANCH   3  26
BRANCH   5  28
ATOM     28  N   UNL     1      -6.230  55.004  52.127  0.00  0.00    +0.000 N 
ATOM     29  H   UNL     1      -5.856  55.889  52.340  0.00  0.00    +0.000 HD
BRANCH  28  30
ATOM     30  C   UNL     1      -5.504  54.009  51.333  0.00  0.00    +0.000 C 
BRANCH  30  31
ATOM     31  C   UNL     1      -5.938  54.077  49.862  0.00  0.00    +0.000 C 
ATOM     32  C   UNL     1      -6.830  52.902  49.461  0.00  0.00    +0.000 C 
ATOM     33  C   UNL     1      -4.780  53.958  48.868  0.00  0.00    +0.000 C 
ATOM     34  C   UNL     1      -6.723  52.821  47.940  0.00  0.00    +0.000 C 
ATOM     35  C   UNL     1      -5.459  53.589  47.555  0.00  0.00    +0.000 C 
ENDBRANCH  30  31
ENDBRANCH  28  30
ENDBRANCH   5  28
TORSDOF 5
ENDMDL
MODEL 7
REMARK VINA RESULT:      -8.0      3.285      4.858
REMARK  Name = 
REMARK  5 active torsions:
REMARK  status: ('A' for Active; 'I' for Inactive)
REMARK    1  A    between atoms: C_6  and  C_10
REMARK    2  A    between atoms: C_14  and  O_18
REMARK    3  A    between atoms: N_17  and  N_20
REMARK    4  A    between atoms: N_20  and  C_23
REMARK    5  A    between atoms: C_23  and  C_26
REMARK                            x       y       z     vdW  Elec       q    Type
REMARK                         _______ _______ _______ _____ _____    ______ ____
ROOT
ATOM      1  C   UNL     1     -11.653  56.197  48.781  0.00  0.00    +0.000 A 
ATOM      2  C   UNL     1     -10.513  55.668  49.572  0.00  0.00    +0.000 A 
ATOM      3  C   UNL     1     -11.870  55.822  47.512  0.00  0.00    +0.000 A 
ATOM      4  O   UNL     1     -10.423  56.029  50.748  0.00  0.00    +0.000 OA
ATOM      5  N   UNL     1      -9.646  54.767  48.936  0.00  0.00    +0.000 N 
ATOM      6  C   UNL     1     -10.988  54.828  46.884  0.00  0.00    +0.000 A 
ATOM      7  C   UNL     1      -9.892  54.304  47.601  0.00  0.00    +0.000 A 
ATOM      8  C   UNL     1     -11.246  54.385  45.574  0.00  0.00    +0.000 A 
ATOM      9  C   UNL     1      -9.104  53.314  46.987  0.00  0.00    +0.000 A 
ATOM     10  C   UNL     1     -10.462  53.396  44.988  0.00  0.00    +0.000 A 
ATOM     11  C   UNL     1      -9.399  52.854  45.698  0.00  0.00    +0.000 A 
ENDROOT
BRANCH   1  17
ATOM     12  S   UNL     1     -13.642  59.447  49.575  0.00  0.00    +0.000 S 
ATOM     13  O   UNL     1     -14.792  59.626  48.712  0.00  0.00    +0.000 OA
ATOM     14  O   UNL     1     -12.804  60.580  49.928  0.00  0.00    +0.000 OA
ATOM     15  N   UNL     1     -12.708  58.309  48.911  0.00  0.00    +0.000 N 
ATOM     16  C   UNL     1     -14.274  58.822  51.090  0.00  0.00    +0.000 A 
ATOM     17  C   UNL     1     -12.607  57.135  49.451  0.00  0.00    +0.000 C 
ATOM     18  C   UNL     1     -14.015  57.498  51.409  0.00  0.00    +0.000 A 
ATOM     19  C   UNL     1     -15.016  59.657  51.932  0.00  0.00    +0.000 A 
ATOM     20  N   UNL     1     -13.287  56.674  50.554  0.00  0.00    +0.000 N 
ATOM     21  C   UNL     1     -14.572  56.979  52.583  0.00  0.00    +0.000 A 
ATOM     22  C   UNL     1     -15.535  59.135  53.115  0.00  0.00    +0.000 A 
ATOM     23  C   UNL     1     -15.323  57.795  53.434  0.00  0.00    +0.000 A 
ATOM     24  H   UNL     1     -12.208  58.510  48.086  0.00  0.00    +0.000 HD
ATOM     25  H   UNL     1     -13.259  55.709  50.750  0.00  0.00    +0.000 HD
ENDBRANCH   1  17
BRANCH   3  26
ATOM     26  O   UNL     1     -12.924  56.267  46.734  0.00  0.00    +0.000 OA
ATOM     27  H   UNL     1     -13.321  55.692  46.110  0.00  0.00    +0.000 HD
ENDBRANCH   3  26
BRANCH   5  28
ATOM     28  N   UNL     1      -8.393  54.508  49.576  0.00  0.00    +0.000 N 
ATOM     29  H   UNL     1      -8.198  53.662  50.040  0.00  0.00    +0.000 HD
BRANCH  28  30
ATOM     30  C   UNL     1      -7.424  55.603  49.487  0.00  0.00    +0.000 C 
BRANCH  30  31
ATOM     31  C   UNL     1      -5.998  55.048  49.364  0.00  0.00    +0.000 C 
ATOM     32  C   UNL     1      -5.873  53.993  48.264  0.00  0.00    +0.000 C 
ATOM     33  C   UNL     1      -5.519  54.284  50.601  0.00  0.00    +0.000 C 
ATOM     34  C   UNL     1      -4.621  53.194  48.618  0.00  0.00    +0.000 C 
ATOM     35  C   UNL     1      -4.338  53.466  50.094  0.00  0.00    +0.000 C 
ENDBRANCH  30  31
ENDBRANCH  28  30
ENDBRANCH   5  28
TORSDOF 5
ENDMDL
MODEL 8
REMARK VINA RESULT:      -7.9      3.618      7.327
REMARK  Name = 
REMARK  5 active torsions:
REMARK  status: ('A' for Active; 'I' for Inactive)
REMARK    1  A    between atoms: C_6  and  C_10
REMARK    2  A    between atoms: C_14  and  O_18
REMARK    3  A    between atoms: N_17  and  N_20
REMARK    4  A    between atoms: N_20  and  C_23
REMARK    5  A    between atoms: C_23  and  C_26
REMARK                            x       y       z     vdW  Elec       q    Type
REMARK                         _______ _______ _______ _____ _____    ______ ____
ROOT
ATOM      1  C   UNL     1     -10.419  55.141  50.935  0.00  0.00    +0.000 A 
ATOM      2  C   UNL     1     -10.101  54.990  49.492  0.00  0.00    +0.000 A 
ATOM      3  C   UNL     1     -11.564  55.698  51.353  0.00  0.00    +0.000 A 
ATOM      4  O   UNL     1      -9.048  54.417  49.201  0.00  0.00    +0.000 OA
ATOM      5  N   UNL     1     -11.038  55.475  48.568  0.00  0.00    +0.000 N 
ATOM      6  C   UNL     1     -12.562  56.141  50.370  0.00  0.00    +0.000 A 
ATOM      7  C   UNL     1     -12.296  56.019  48.990  0.00  0.00    +0.000 A 
ATOM      8  C   UNL     1     -13.791  56.672  50.802  0.00  0.00    +0.000 A 
ATOM      9  C   UNL     1     -13.297  56.402  48.080  0.00  0.00    +0.000 A 
ATOM     10  C   UNL     1     -14.775  57.034  49.887  0.00  0.00    +0.000 A 
ATOM     11  C   UNL     1     -14.531  56.890  48.527  0.00  0.00    +0.000 A 
ENDROOT
BRANCH   1  17
ATOM     12  S   UNL     1      -7.123  54.667  52.949  0.00  0.00    +0.000 S 
ATOM     13  O   UNL     1      -6.968  55.642  54.009  0.00  0.00    +0.000 OA
ATOM     14  O   UNL     1      -5.984  54.280  52.134  0.00  0.00    +0.000 OA
ATOM     15  N   UNL     1      -8.295  55.195  51.970  0.00  0.00    +0.000 N 
ATOM     16  C   UNL     1      -7.682  53.197  53.731  0.00  0.00    +0.000 A 
ATOM     17  C   UNL     1      -9.447  54.602  51.936  0.00  0.00    +0.000 C 
ATOM     18  C   UNL     1      -8.994  52.803  53.520  0.00  0.00    +0.000 A 
ATOM     19  C   UNL     1      -6.807  52.462  54.539  0.00  0.00    +0.000 A 
ATOM     20  N   UNL     1      -9.858  53.552  52.724  0.00  0.00    +0.000 N 
ATOM     21  C   UNL     1      -9.460  51.668  54.193  0.00  0.00    +0.000 A 
ATOM     22  C   UNL     1      -7.277  51.315  55.174  0.00  0.00    +0.000 A 
ATOM     23  C   UNL     1      -8.605  50.925  55.010  0.00  0.00    +0.000 A 
ATOM     24  H   UNL     1      -8.131  55.975  51.392  0.00  0.00    +0.000 HD
ATOM     25  H   UNL     1     -10.814  53.316  52.727  0.00  0.00    +0.000 HD
ENDBRANCH   1  17
BRANCH   3  26
ATOM     26  O   UNL     1     -11.922  55.847  52.682  0.00  0.00    +0.000 OA
ATOM     27  H   UNL     1     -11.468  55.366  53.345  0.00  0.00    +0.000 HD
ENDBRANCH   3  26
BRANCH   5  28
ATOM     28  N   UNL     1     -10.601  55.620  47.213  0.00  0.00    +0.000 N 
ATOM     29  H   UNL     1      -9.868  56.221  46.952  0.00  0.00    +0.000 HD
BRANCH  28  30
ATOM     30  C   UNL     1     -11.334  54.801  46.244  0.00  0.00    +0.000 C 
BRANCH  30  31
ATOM     31  C   UNL     1     -10.450  53.655  45.732  0.00  0.00    +0.000 C 
ATOM     32  C   UNL     1      -9.007  54.096  45.484  0.00  0.00    +0.000 C 
ATOM     33  C   UNL     1     -10.863  53.117  44.360  0.00  0.00    +0.000 C 
ATOM     34  C   UNL     1      -8.434  53.063  44.517  0.00  0.00    +0.000 C 
ATOM     35  C   UNL     1      -9.631  52.365  43.873  0.00  0.00    +0.000 C 
ENDBRANCH  30  31
ENDBRANCH  28  30
ENDBRANCH   5  28
TORSDOF 5
ENDMDL
MODEL 9
REMARK VINA RESULT:      -7.8      3.301      8.103
REMARK  Name = 
REMARK  5 active torsions:
REMARK  status: ('A' for Active; 'I' for Inactive)
REMARK    1  A    between atoms: C_6  and  C_10
REMARK    2  A    between atoms: C_14  and  O_18
REMARK    3  A    between atoms: N_17  and  N_20
REMARK    4  A    between atoms: N_20  and  C_23
REMARK    5  A    between atoms: C_23  and  C_26
REMARK                            x       y       z     vdW  Elec       q    Type
REMARK                         _______ _______ _______ _____ _____    ______ ____
ROOT
ATOM      1  C   UNL     1      -9.833  53.874  49.927  0.00  0.00    +0.000 A 
ATOM      2  C   UNL     1     -10.555  55.171  49.970  0.00  0.00    +0.000 A 
ATOM      3  C   UNL     1      -9.864  53.082  48.846  0.00  0.00    +0.000 A 
ATOM      4  O   UNL     1     -10.426  55.857  50.988  0.00  0.00    +0.000 OA
ATOM      5  N   UNL     1     -11.297  55.537  48.838  0.00  0.00    +0.000 N 
ATOM      6  C   UNL     1     -10.593  53.514  47.645  0.00  0.00    +0.000 A 
ATOM      7  C   UNL     1     -11.295  54.737  47.648  0.00  0.00    +0.000 A 
ATOM      8  C   UNL     1     -10.580  52.715  46.487  0.00  0.00    +0.000 A 
ATOM      9  C   UNL     1     -11.936  55.143  46.464  0.00  0.00    +0.000 A 
ATOM     10  C   UNL     1     -11.209  53.140  45.320  0.00  0.00    +0.000 A 
ATOM     11  C   UNL     1     -11.878  54.357  45.306  0.00  0.00    +0.000 A 
ENDROOT
BRANCH   1  17
ATOM     12  S   UNL     1      -8.588  51.849  53.009  0.00  0.00    +0.000 S 
ATOM     13  O   UNL     1      -7.766  50.715  52.640  0.00  0.00    +0.000 OA
ATOM     14  O   UNL     1      -9.570  51.730  54.073  0.00  0.00    +0.000 OA
ATOM     15  N   UNL     1      -9.341  52.359  51.673  0.00  0.00    +0.000 N 
ATOM     16  C   UNL     1      -7.470  53.103  53.520  0.00  0.00    +0.000 A 
ATOM     17  C   UNL     1      -9.010  53.479  51.113  0.00  0.00    +0.000 C 
ATOM     18  C   UNL     1      -7.304  54.206  52.697  0.00  0.00    +0.000 A 
ATOM     19  C   UNL     1      -6.778  52.969  54.729  0.00  0.00    +0.000 A 
ATOM     20  N   UNL     1      -7.989  54.320  51.489  0.00  0.00    +0.000 N 
ATOM     21  C   UNL     1      -6.366  55.175  53.070  0.00  0.00    +0.000 A 
ATOM     22  C   UNL     1      -5.873  53.960  55.104  0.00  0.00    +0.000 A 
ATOM     23  C   UNL     1      -5.659  55.056  54.270  0.00  0.00    +0.000 A 
ATOM     24  H   UNL     1     -10.060  51.812  51.282  0.00  0.00    +0.000 HD
ATOM     25  H   UNL     1      -7.726  55.042  50.872  0.00  0.00    +0.000 HD
ENDBRANCH   1  17
BRANCH   3  26
ATOM     26  O   UNL     1      -9.196  51.874  48.741  0.00  0.00    +0.000 OA
ATOM     27  H   UNL     1      -8.903  51.434  49.515  0.00  0.00    +0.000 HD
ENDBRANCH   3  26
BRANCH   5  28
ATOM     28  N   UNL     1     -12.233  56.609  48.993  0.00  0.00    +0.000 N 
ATOM     29  H   UNL     1     -12.077  57.508  48.624  0.00  0.00    +0.000 HD
BRANCH  28  30
ATOM     30  C   UNL     1     -13.441  56.261  49.745  0.00  0.00    +0.000 C 
BRANCH  30  31
ATOM     31  C   UNL     1     -13.641  57.231  50.917  0.00  0.00    +0.000 C 
ATOM     32  C   UNL     1     -14.438  56.607  52.063  0.00  0.00    +0.000 C 
ATOM     33  C   UNL     1     -14.484  58.461  50.570  0.00  0.00    +0.000 C 
ATOM     34  C   UNL     1     -14.993  57.789  52.854  0.00  0.00    +0.000 C 
ATOM     35  C   UNL     1     -14.925  59.000  51.925  0.00  0.00    +0.000 C 
ENDBRANCH  30  31
ENDBRANCH  28  30
ENDBRANCH   5  28
TORSDOF 5
ENDMDL
