MODEL 1
REMARK VINA RESULT:      -8.0      0.000      0.000
REMARK  Name = 
REMARK  8 active torsions:
REMARK  status: ('A' for Active; 'I' for Inactive)
REMARK    1  A    between atoms: C_6  and  C_10
REMARK    2  A    between atoms: C_14  and  O_18
REMARK    3  A    between atoms: N_17  and  N_20
REMARK    4  A    between atoms: N_20  and  C_23
REMARK    5  A    between atoms: C_23  and  C_26
REMARK    6  A    between atoms: C_23  and  C_27
REMARK    7  A    between atoms: C_26  and  C_29
REMARK    8  A    between atoms: C_27  and  C_30
REMARK                            x       y       z     vdW  Elec       q    Type
REMARK                         _______ _______ _______ _____ _____    ______ ____
ROOT
ATOM      1  C   UNL     1     -10.077  55.386  50.653  0.00  0.00    +0.000 A 
ATOM      2  C   UNL     1      -9.612  55.519  49.236  0.00  0.00    +0.000 A 
ATOM      3  C   UNL     1     -11.315  55.811  50.978  0.00  0.00    +0.000 A 
ATOM      4  O   UNL     1      -8.403  55.440  48.995  0.00  0.00    +0.000 OA
ATOM      5  N   UNL     1     -10.609  55.658  48.262  0.00  0.00    +0.000 N 
ATOM      6  C   UNL     1     -12.253  56.270  49.945  0.00  0.00    +0.000 A 
ATOM      7  C   UNL     1     -11.912  56.123  48.594  0.00  0.00    +0.000 A 
ATOM      8  C   UNL     1     -13.529  56.749  50.283  0.00  0.00    +0.000 A 
ATOM      9  C   UNL     1     -12.853  56.455  47.605  0.00  0.00    +0.000 A 
ATOM     10  C   UNL     1     -14.462  57.060  49.294  0.00  0.00    +0.000 A 
ATOM     11  C   UNL     1     -14.124  56.910  47.954  0.00  0.00    +0.000 A 
ENDROOT
BRANCH   1  17
ATOM     12  S   UNL     1      -7.012  54.791  53.034  0.00  0.00    +0.000 S 
ATOM     13  O   UNL     1      -7.071  55.763  54.109  0.00  0.00    +0.000 OA
ATOM     14  O   UNL     1      -5.746  54.464  52.403  0.00  0.00    +0.000 OA
ATOM     15  N   UNL     1      -8.022  55.276  51.869  0.00  0.00    +0.000 N 
ATOM     16  C   UNL     1      -7.631  53.294  53.696  0.00  0.00    +0.000 A 
ATOM     17  C   UNL     1      -9.181  54.707  51.680  0.00  0.00    +0.000 C 
ATOM     18  C   UNL     1      -8.895  52.881  53.298  0.00  0.00    +0.000 A 
ATOM     19  C   UNL     1      -6.843  52.568  54.594  0.00  0.00    +0.000 A 
ATOM     20  N   UNL     1      -9.637  53.607  52.368  0.00  0.00    +0.000 N 
ATOM     21  C   UNL     1      -9.390  51.699  53.855  0.00  0.00    +0.000 A 
ATOM     22  C   UNL     1      -7.346  51.387  55.129  0.00  0.00    +0.000 A 
ATOM     23  C   UNL     1      -8.621  50.957  54.763  0.00  0.00    +0.000 A 
ATOM     24  H   UNL     1      -7.755  56.021  51.285  0.00  0.00    +0.000 HD
ATOM     25  H   UNL     1     -10.559  53.309  52.189  0.00  0.00    +0.000 HD
ENDBRANCH   1  17
BRANCH   3  26
ATOM     26  O   UNL     1     -11.853  55.777  52.252  0.00  0.00    +0.000 OA
ATOM     27  H   UNL     1     -11.374  55.380  52.952  0.00  0.00    +0.000 HD
ENDBRANCH   3  26
BRANCH   5  28
ATOM     28  N   UNL     1     -10.301  55.504  46.881  0.00  0.00    +0.000 N 
ATOM     29  H   UNL     1     -10.085  56.268  46.297  0.00  0.00    +0.000 HD
BRANCH  28  30
ATOM     30  C   UNL     1     -10.330  54.112  46.391  0.00  0.00    +0.000 C 
BRANCH  30  31
ATOM     31  C   UNL     1     -11.376  53.872  45.276  0.00  0.00    +0.000 C 
ATOM     32  C   UNL     1     -10.950  52.916  44.171  0.00  0.00    +0.000 C 
ENDBRANCH  30  31
BRANCH  30  33
ATOM     33  C   UNL     1      -8.916  53.708  45.917  0.00  0.00    +0.000 C 
ATOM     34  C   UNL     1      -8.026  54.898  45.568  0.00  0.00    +0.000 C 
ENDBRANCH  30  33
ENDBRANCH  28  30
ENDBRANCH   5  28
TORSDOF 6
ENDMDL
MODEL 2
REMARK VINA RESULT:      -7.9      3.269      7.344
REMARK  Name = 
REMARK  8 active torsions:
REMARK  status: ('A' for Active; 'I' for Inactive)
REMARK    1  A    between atoms: C_6  and  C_10
REMARK    2  A    between atoms: C_14  and  O_18
REMARK    3  A    between atoms: N_17  and  N_20
REMARK    4  A    between atoms: N_20  and  C_23
REMARK    5  A    between atoms: C_23  and  C_26
REMARK    6  A    between atoms: C_23  and  C_27
REMARK    7  A    between atoms: C_26  and  C_29
REMARK    8  A    between atoms: C_27  and  C_30
REMARK                            x       y       z     vdW  Elec       q    Type
REMARK                         _______ _______ _______ _____ _____    ______ ____
ROOT
ATOM      1  C   UNL     1      -9.983  54.369  52.162  0.00  0.00    +0.000 A 
ATOM      2  C   UNL     1      -8.569  54.800  51.924  0.00  0.00    +0.000 A 
ATOM      3  C   UNL     1     -10.217  53.290  52.936  0.00  0.00    +0.000 A 
ATOM      4  O   UNL     1      -8.328  55.563  50.982  0.00  0.00    +0.000 OA
ATOM      5  N   UNL     1      -7.615  54.349  52.845  0.00  0.00    +0.000 N 
ATOM      6  C   UNL     1      -9.123  52.622  53.653  0.00  0.00    +0.000 A 
ATOM      7  C   UNL     1      -7.848  53.201  53.652  0.00  0.00    +0.000 A 
ATOM      8  C   UNL     1      -9.356  51.475  54.429  0.00  0.00    +0.000 A 
ATOM      9  C   UNL     1      -6.829  52.625  54.430  0.00  0.00    +0.000 A 
ATOM     10  C   UNL     1      -8.343  50.921  55.211  0.00  0.00    +0.000 A 
ATOM     11  C   UNL     1      -7.079  51.499  55.213  0.00  0.00    +0.000 A 
ENDROOT
BRANCH   1  17
ATOM     12  S   UNL     1     -12.441  55.920  49.522  0.00  0.00    +0.000 S 
ATOM     13  O   UNL     1     -13.294  54.863  49.013  0.00  0.00    +0.000 OA
ATOM     14  O   UNL     1     -11.892  56.922  48.624  0.00  0.00    +0.000 OA
ATOM     15  N   UNL     1     -11.200  55.230  50.293  0.00  0.00    +0.000 N 
ATOM     16  C   UNL     1     -13.394  56.790  50.703  0.00  0.00    +0.000 A 
ATOM     17  C   UNL     1     -11.129  55.197  51.595  0.00  0.00    +0.000 C 
ATOM     18  C   UNL     1     -13.087  56.611  52.045  0.00  0.00    +0.000 A 
ATOM     19  C   UNL     1     -14.423  57.629  50.266  0.00  0.00    +0.000 A 
ATOM     20  N   UNL     1     -12.027  55.799  52.445  0.00  0.00    +0.000 N 
ATOM     21  C   UNL     1     -13.873  57.288  52.981  0.00  0.00    +0.000 A 
ATOM     22  C   UNL     1     -15.187  58.306  51.210  0.00  0.00    +0.000 A 
ATOM     23  C   UNL     1     -14.915  58.131  52.566  0.00  0.00    +0.000 A 
ATOM     24  H   UNL     1     -10.476  54.823  49.765  0.00  0.00    +0.000 HD
ATOM     25  H   UNL     1     -11.911  55.646  53.411  0.00  0.00    +0.000 HD
ENDBRANCH   1  17
BRANCH   3  26
ATOM     26  O   UNL     1     -11.469  52.769  53.208  0.00  0.00    +0.000 OA
ATOM     27  H   UNL     1     -11.762  51.998  52.764  0.00  0.00    +0.000 HD
ENDBRANCH   3  26
BRANCH   5  28
ATOM     28  N   UNL     1      -6.313  54.922  52.881  0.00  0.00    +0.000 N 
ATOM     29  H   UNL     1      -6.125  55.785  53.317  0.00  0.00    +0.000 HD
BRANCH  28  30
ATOM     30  C   UNL     1      -5.266  54.124  52.212  0.00  0.00    +0.000 C 
BRANCH  30  31
ATOM     31  C   UNL     1      -5.159  54.396  50.693  0.00  0.00    +0.000 C 
ATOM     32  C   UNL     1      -5.797  53.348  49.792  0.00  0.00    +0.000 C 
ENDBRANCH  30  31
BRANCH  30  33
ATOM     33  C   UNL     1      -3.912  54.369  52.914  0.00  0.00    +0.000 C 
ATOM     34  C   UNL     1      -4.032  55.157  54.216  0.00  0.00    +0.000 C 
ENDBRANCH  30  33
ENDBRANCH  28  30
ENDBRANCH   5  28
TORSDOF 6
ENDMDL
MODEL 3
REMARK VINA RESULT:      -7.8      1.486      2.081
REMARK  Name = 
REMARK  8 active torsions:
REMARK  status: ('A' for Active; 'I' for Inactive)
REMARK    1  A    between atoms: C_6  and  C_10
REMARK    2  A    between atoms: C_14  and  O_18
REMARK    3  A    between atoms: N_17  and  N_20
REMARK    4  A    between atoms: N_20  and  C_23
REMARK    5  A    between atoms: C_23  and  C_26
REMARK    6  A    between atoms: C_23  and  C_27
REMARK    7  A    between atoms: C_26  and  C_29
REMARK    8  A    between atoms: C_27  and  C_30
REMARK                            x       y       z     vdW  Elec       q    Type
REMARK                         _______ _______ _______ _____ _____    ______ ____
ROOT
ATOM      1  C   UNL     1     -10.312  55.257  50.615  0.00  0.00    +0.000 A 
ATOM      2  C   UNL     1      -9.783  55.420  49.224  0.00  0.00    +0.000 A 
ATOM      3  C   UNL     1     -11.549  55.711  50.902  0.00  0.00    +0.000 A 
ATOM      4  O   UNL     1      -8.567  55.310  49.031  0.00  0.00    +0.000 OA
ATOM      5  N   UNL     1     -10.733  55.623  48.214  0.00  0.00    +0.000 N 
ATOM      6  C   UNL     1     -12.427  56.233  49.847  0.00  0.00    +0.000 A 
ATOM      7  C   UNL     1     -12.033  56.120  48.507  0.00  0.00    +0.000 A 
ATOM      8  C   UNL     1     -13.701  56.743  50.147  0.00  0.00    +0.000 A 
ATOM      9  C   UNL     1     -12.919  56.514  47.492  0.00  0.00    +0.000 A 
ATOM     10  C   UNL     1     -14.580  57.116  49.131  0.00  0.00    +0.000 A 
ATOM     11  C   UNL     1     -14.189  56.998  47.802  0.00  0.00    +0.000 A 
ENDROOT
BRANCH   1  17
ATOM     12  S   UNL     1      -9.119  52.358  52.979  0.00  0.00    +0.000 S 
ATOM     13  O   UNL     1      -8.569  51.295  52.160  0.00  0.00    +0.000 OA
ATOM     14  O   UNL     1      -9.967  52.049  54.117  0.00  0.00    +0.000 OA
ATOM     15  N   UNL     1      -9.949  53.352  52.013  0.00  0.00    +0.000 N 
ATOM     16  C   UNL     1      -7.750  53.242  53.615  0.00  0.00    +0.000 A 
ATOM     17  C   UNL     1      -9.482  54.516  51.656  0.00  0.00    +0.000 C 
ATOM     18  C   UNL     1      -7.485  54.498  53.086  0.00  0.00    +0.000 A 
ATOM     19  C   UNL     1      -6.974  52.665  54.624  0.00  0.00    +0.000 A 
ATOM     20  N   UNL     1      -8.304  55.062  52.109  0.00  0.00    +0.000 N 
ATOM     21  C   UNL     1      -6.372  55.182  53.581  0.00  0.00    +0.000 A 
ATOM     22  C   UNL     1      -5.878  53.366  55.115  0.00  0.00    +0.000 A 
ATOM     23  C   UNL     1      -5.575  54.621  54.589  0.00  0.00    +0.000 A 
ATOM     24  H   UNL     1     -10.834  53.071  51.685  0.00  0.00    +0.000 HD
ATOM     25  H   UNL     1      -8.017  55.917  51.714  0.00  0.00    +0.000 HD
ENDBRANCH   1  17
BRANCH   3  26
ATOM     26  O   UNL     1     -12.142  55.653  52.150  0.00  0.00    +0.000 OA
ATOM     27  H   UNL     1     -13.075  55.677  52.228  0.00  0.00    +0.000 HD
ENDBRANCH   3  26
BRANCH   5  28
ATOM     28  N   UNL     1     -10.370  55.504  46.843  0.00  0.00    +0.000 N 
ATOM     29  H   UNL     1     -10.132  56.282  46.288  0.00  0.00    +0.000 HD
BRANCH  28  30
ATOM     30  C   UNL     1     -10.380  54.125  46.317  0.00  0.00    +0.000 C 
BRANCH  30  31
ATOM     31  C   UNL     1     -11.391  53.911  45.166  0.00  0.00    +0.000 C 
ATOM     32  C   UNL     1     -11.038  52.807  44.179  0.00  0.00    +0.000 C 
ENDBRANCH  30  31
BRANCH  30  33
ATOM     33  C   UNL     1      -8.951  53.737  45.876  0.00  0.00    +0.000 C 
ATOM     34  C   UNL     1      -8.055  54.937  45.584  0.00  0.00    +0.000 C 
ENDBRANCH  30  33
ENDBRANCH  28  30
ENDBRANCH   5  28
TORSDOF 6
ENDMDL
MODEL 4
REMARK VINA RESULT:      -7.7      2.287      4.638
REMARK  Name = 
REMARK  8 active torsions:
REMARK  status: ('A' for Active; 'I' for Inactive)
REMARK    1  A    between atoms: C_6  and  C_10
REMARK    2  A    between atoms: C_14  and  O_18
REMARK    3  A    between atoms: N_17  and  N_20
REMARK    4  A    between atoms: N_20  and  C_23
REMARK    5  A    between atoms: C_23  and  C_26
REMARK    6  A    between atoms: C_23  and  C_27
REMARK    7  A    between atoms: C_26  and  C_29
REMARK    8  A    between atoms: C_27  and  C_30
REMARK                            x       y       z     vdW  Elec       q    Type
REMARK                         _______ _______ _______ _____ _____    ______ ____
ROOT
ATOM      1  C   UNL     1      -9.007  54.539  50.308  0.00  0.00    +0.000 A 
ATOM      2  C   UNL     1     -10.420  54.540  50.802  0.00  0.00    +0.000 A 
ATOM      3  C   UNL     1      -8.778  54.448  48.982  0.00  0.00    +0.000 A 
ATOM      4  O   UNL     1     -10.635  54.300  51.995  0.00  0.00    +0.000 OA
ATOM      5  N   UNL     1     -11.408  54.885  49.870  0.00  0.00    +0.000 N 
ATOM      6  C   UNL     1      -9.886  54.488  48.017  0.00  0.00    +0.000 A 
ATOM      7  C   UNL     1     -11.180  54.774  48.471  0.00  0.00    +0.000 A 
ATOM      8  C   UNL     1      -9.655  54.354  46.639  0.00  0.00    +0.000 A 
ATOM      9  C   UNL     1     -12.219  54.926  47.539  0.00  0.00    +0.000 A 
ATOM     10  C   UNL     1     -10.690  54.523  45.720  0.00  0.00    +0.000 A 
ATOM     11  C   UNL     1     -11.973  54.812  46.171  0.00  0.00    +0.000 A 
ENDROOT
BRANCH   1  17
ATOM     12  S   UNL     1      -7.045  55.787  53.471  0.00  0.00    +0.000 S 
ATOM     13  O   UNL     1      -7.616  55.153  54.644  0.00  0.00    +0.000 OA
ATOM     14  O   UNL     1      -6.671  57.190  53.499  0.00  0.00    +0.000 OA
ATOM     15  N   UNL     1      -8.079  55.587  52.245  0.00  0.00    +0.000 N 
ATOM     16  C   UNL     1      -5.586  54.898  53.098  0.00  0.00    +0.000 A 
ATOM     17  C   UNL     1      -7.862  54.719  51.295  0.00  0.00    +0.000 C 
ATOM     18  C   UNL     1      -5.601  54.058  51.993  0.00  0.00    +0.000 A 
ATOM     19  C   UNL     1      -4.462  55.058  53.913  0.00  0.00    +0.000 A 
ATOM     20  N   UNL     1      -6.726  53.954  51.176  0.00  0.00    +0.000 N 
ATOM     21  C   UNL     1      -4.439  53.332  51.721  0.00  0.00    +0.000 A 
ATOM     22  C   UNL     1      -3.309  54.338  53.621  0.00  0.00    +0.000 A 
ATOM     23  C   UNL     1      -3.301  53.471  52.528  0.00  0.00    +0.000 A 
ATOM     24  H   UNL     1      -8.895  56.136  52.214  0.00  0.00    +0.000 HD
ATOM     25  H   UNL     1      -6.705  53.280  50.457  0.00  0.00    +0.000 HD
ENDBRANCH   1  17
BRANCH   3  26
ATOM     26  O   UNL     1      -7.525  54.404  48.398  0.00  0.00    +0.000 OA
ATOM     27  H   UNL     1      -6.926  55.113  48.520  0.00  0.00    +0.000 HD
ENDBRANCH   3  26
BRANCH   5  28
ATOM     28  N   UNL     1     -12.731  55.194  50.297  0.00  0.00    +0.000 N 
ATOM     29  H   UNL     1     -13.445  54.518  50.340  0.00  0.00    +0.000 HD
BRANCH  28  30
ATOM     30  C   UNL     1     -12.949  56.607  50.667  0.00  0.00    +0.000 C 
BRANCH  30  31
ATOM     31  C   UNL     1     -13.920  57.350  49.719  0.00  0.00    +0.000 C 
ATOM     32  C   UNL     1     -13.505  58.763  49.331  0.00  0.00    +0.000 C 
ENDBRANCH  30  31
BRANCH  30  33
ATOM     33  C   UNL     1     -13.439  56.681  52.129  0.00  0.00    +0.000 C 
ATOM     34  C   UNL     1     -14.921  57.021  52.261  0.00  0.00    +0.000 C 
ENDBRANCH  30  33
ENDBRANCH  28  30
ENDBRANCH   5  28
TORSDOF 6
ENDMDL
MODEL 5
REMARK VINA RESULT:      -7.5      3.056      6.289
REMARK  Name = 
REMARK  8 active torsions:
REMARK  status: ('A' for Active; 'I' for Inactive)
REMARK    1  A    between atoms: C_6  and  C_10
REMARK    2  A    between atoms: C_14  and  O_18
REMARK    3  A    between atoms: N_17  and  N_20
REMARK    4  A    between atoms: N_20  and  C_23
REMARK    5  A    between atoms: C_23  and  C_26
REMARK    6  A    between atoms: C_23  and  C_27
REMARK    7  A    between atoms: C_26  and  C_29
REMARK    8  A    between atoms: C_27  and  C_30
REMARK                            x       y       z     vdW  Elec       q    Type
REMARK                         _______ _______ _______ _____ _____    ______ ____
ROOT
ATOM      1  C   UNL     1     -11.223  54.978  50.039  0.00  0.00    +0.000 A 
ATOM      2  C   UNL     1     -11.416  54.134  48.818  0.00  0.00    +0.000 A 
ATOM      3  C   UNL     1     -10.164  54.736  50.839  0.00  0.00    +0.000 A 
ATOM      4  O   UNL     1     -12.523  54.125  48.267  0.00  0.00    +0.000 OA
ATOM      5  N   UNL     1     -10.287  53.454  48.342  0.00  0.00    +0.000 N 
ATOM      6  C   UNL     1      -9.136  53.759  50.461  0.00  0.00    +0.000 A 
ATOM      7  C   UNL     1      -9.175  53.180  49.186  0.00  0.00    +0.000 A 
ATOM      8  C   UNL     1      -8.053  53.476  51.310  0.00  0.00    +0.000 A 
ATOM      9  C   UNL     1      -8.131  52.333  48.780  0.00  0.00    +0.000 A 
ATOM     10  C   UNL     1      -7.013  52.647  50.892  0.00  0.00    +0.000 A 
ATOM     11  C   UNL     1      -7.051  52.078  49.625  0.00  0.00    +0.000 A 
ENDROOT
BRANCH   1  17
ATOM     12  S   UNL     1     -13.297  58.253  49.420  0.00  0.00    +0.000 S 
ATOM     13  O   UNL     1     -14.347  57.957  48.464  0.00  0.00    +0.000 OA
ATOM     14  O   UNL     1     -12.551  59.496  49.334  0.00  0.00    +0.000 OA
ATOM     15  N   UNL     1     -12.228  57.042  49.375  0.00  0.00    +0.000 N 
ATOM     16  C   UNL     1     -14.056  58.245  50.996  0.00  0.00    +0.000 A 
ATOM     17  C   UNL     1     -12.171  56.137  50.312  0.00  0.00    +0.000 C 
ATOM     18  C   UNL     1     -13.798  57.170  51.836  0.00  0.00    +0.000 A 
ATOM     19  C   UNL     1     -14.888  59.308  51.358  0.00  0.00    +0.000 A 
ATOM     20  N   UNL     1     -12.929  56.147  51.460  0.00  0.00    +0.000 N 
ATOM     21  C   UNL     1     -14.432  57.161  53.081  0.00  0.00    +0.000 A 
ATOM     22  C   UNL     1     -15.501  59.289  52.606  0.00  0.00    +0.000 A 
ATOM     23  C   UNL     1     -15.277  58.213  53.464  0.00  0.00    +0.000 A 
ATOM     24  H   UNL     1     -11.601  56.986  48.619  0.00  0.00    +0.000 HD
ATOM     25  H   UNL     1     -12.852  55.372  52.063  0.00  0.00    +0.000 HD
ENDBRANCH   1  17
BRANCH   3  26
ATOM     26  O   UNL     1      -9.889  55.418  52.011  0.00  0.00    +0.000 OA
ATOM     27  H   UNL     1      -9.948  54.977  52.835  0.00  0.00    +0.000 HD
ENDBRANCH   3  26
BRANCH   5  28
ATOM     28  N   UNL     1     -10.288  52.865  47.046  0.00  0.00    +0.000 N 
ATOM     29  H   UNL     1     -10.395  51.896  46.905  0.00  0.00    +0.000 HD
BRANCH  28  30
ATOM     30  C   UNL     1     -10.114  53.817  45.932  0.00  0.00    +0.000 C 
BRANCH  30  31
ATOM     31  C   UNL     1      -8.775  53.645  45.177  0.00  0.00    +0.000 C 
ATOM     32  C   UNL     1      -7.768  54.773  45.360  0.00  0.00    +0.000 C 
ENDBRANCH  30  31
BRANCH  30  33
ATOM     33  C   UNL     1     -11.313  53.695  44.965  0.00  0.00    +0.000 C 
ATOM     34  C   UNL     1     -11.985  52.326  44.995  0.00  0.00    +0.000 C 
ENDBRANCH  30  33
ENDBRANCH  28  30
ENDBRANCH   5  28
TORSDOF 6
ENDMDL
MODEL 6
REMARK VINA RESULT:      -7.5      3.537      6.051
REMARK  Name = 
REMARK  8 active torsions:
REMARK  status: ('A' for Active; 'I' for Inactive)
REMARK    1  A    between atoms: C_6  and  C_10
REMARK    2  A    between atoms: C_14  and  O_18
REMARK    3  A    between atoms: N_17  and  N_20
REMARK    4  A    between atoms: N_20  and  C_23
REMARK    5  A    between atoms: C_23  and  C_26
REMARK    6  A    between atoms: C_23  and  C_27
REMARK    7  A    between atoms: C_26  and  C_29
REMARK    8  A    between atoms: C_27  and  C_30
REMARK                            x       y       z     vdW  Elec       q    Type
REMARK                         _______ _______ _______ _____ _____    ______ ____
ROOT
ATOM      1  C   UNL     1     -10.388  54.979  47.557  0.00  0.00    +0.000 A 
ATOM      2  C   UNL     1      -8.904  55.173  47.535  0.00  0.00    +0.000 A 
ATOM      3  C   UNL     1     -10.987  54.399  46.497  0.00  0.00    +0.000 A 
ATOM      4  O   UNL     1      -8.395  55.973  48.328  0.00  0.00    +0.000 OA
ATOM      5  N   UNL     1      -8.181  54.368  46.644  0.00  0.00    +0.000 N 
ATOM      6  C   UNL     1     -10.197  53.837  45.394  0.00  0.00    +0.000 A 
ATOM      7  C   UNL     1      -8.803  53.768  45.514  0.00  0.00    +0.000 A 
ATOM      8  C   UNL     1     -10.818  53.267  44.270  0.00  0.00    +0.000 A 
ATOM      9  C   UNL     1      -8.055  53.129  44.512  0.00  0.00    +0.000 A 
ATOM     10  C   UNL     1     -10.068  52.619  43.289  0.00  0.00    +0.000 A 
ATOM     11  C   UNL     1      -8.685  52.548  43.413  0.00  0.00    +0.000 A 
ENDROOT
BRANCH   1  17
ATOM     12  S   UNL     1     -11.607  54.968  51.289  0.00  0.00    +0.000 S 
ATOM     13  O   UNL     1     -10.542  55.495  52.120  0.00  0.00    +0.000 OA
ATOM     14  O   UNL     1     -12.382  53.819  51.722  0.00  0.00    +0.000 OA
ATOM     15  N   UNL     1     -10.979  54.611  49.843  0.00  0.00    +0.000 N 
ATOM     16  C   UNL     1     -12.749  56.276  51.073  0.00  0.00    +0.000 A 
ATOM     17  C   UNL     1     -11.181  55.365  48.798  0.00  0.00    +0.000 C 
ATOM     18  C   UNL     1     -12.797  56.899  49.833  0.00  0.00    +0.000 A 
ATOM     19  C   UNL     1     -13.568  56.650  52.142  0.00  0.00    +0.000 A 
ATOM     20  N   UNL     1     -11.996  56.473  48.775  0.00  0.00    +0.000 N 
ATOM     21  C   UNL     1     -13.693  57.960  49.681  0.00  0.00    +0.000 A 
ATOM     22  C   UNL     1     -14.463  57.700  51.970  0.00  0.00    +0.000 A 
ATOM     23  C   UNL     1     -14.521  58.357  50.742  0.00  0.00    +0.000 A 
ATOM     24  H   UNL     1     -10.429  53.801  49.748  0.00  0.00    +0.000 HD
ATOM     25  H   UNL     1     -12.015  57.007  47.947  0.00  0.00    +0.000 HD
ENDBRANCH   1  17
BRANCH   3  26
ATOM     26  O   UNL     1     -12.349  54.192  46.376  0.00  0.00    +0.000 OA
ATOM     27  H   UNL     1     -12.936  54.551  47.011  0.00  0.00    +0.000 HD
ENDBRANCH   3  26
BRANCH   5  28
ATOM     28  N   UNL     1      -6.765  54.266  46.745  0.00  0.00    +0.000 N 
ATOM     29  H   UNL     1      -6.154  54.747  46.141  0.00  0.00    +0.000 HD
BRANCH  28  30
ATOM     30  C   UNL     1      -6.283  53.381  47.824  0.00  0.00    +0.000 C 
BRANCH  30  31
ATOM     31  C   UNL     1      -6.094  51.911  47.379  0.00  0.00    +0.000 C 
ATOM     32  C   UNL     1      -7.293  50.999  47.601  0.00  0.00    +0.000 C 
ENDBRANCH  30  31
BRANCH  30  33
ATOM     33  C   UNL     1      -4.972  53.954  48.406  0.00  0.00    +0.000 C 
ATOM     34  C   UNL     1      -5.193  55.046  49.449  0.00  0.00    +0.000 C 
ENDBRANCH  30  33
ENDBRANCH  28  30
ENDBRANCH   5  28
TORSDOF 6
ENDMDL
MODEL 7
REMARK VINA RESULT:      -7.5      1.541      4.321
REMARK  Name = 
REMARK  8 active torsions:
REMARK  status: ('A' for Active; 'I' for Inactive)
REMARK    1  A    between atoms: C_6  and  C_10
REMARK    2  A    between atoms: C_14  and  O_18
REMARK    3  A    between atoms: N_17  and  N_20
REMARK    4  A    between atoms: N_20  and  C_23
REMARK    5  A    between atoms: C_23  and  C_26
REMARK    6  A    between atoms: C_23  and  C_27
REMARK    7  A    between atoms: C_26  and  C_29
REMARK    8  A    between atoms: C_27  and  C_30
REMARK                            x       y       z     vdW  Elec       q    Type
REMARK                         _______ _______ _______ _____ _____    ______ ____
ROOT
ATOM      1  C   UNL     1     -10.174  54.613  50.802  0.00  0.00    +0.000 A 
ATOM      2  C   UNL     1     -11.412  55.307  51.280  0.00  0.00    +0.000 A 
ATOM      3  C   UNL     1     -10.005  54.415  49.479  0.00  0.00    +0.000 A 
ATOM      4  O   UNL     1     -11.730  55.208  52.470  0.00  0.00    +0.000 OA
ATOM      5  N   UNL     1     -12.095  56.086  50.338  0.00  0.00    +0.000 N 
ATOM      6  C   UNL     1     -10.942  54.987  48.502  0.00  0.00    +0.000 A 
ATOM      7  C   UNL     1     -11.935  55.871  48.941  0.00  0.00    +0.000 A 
ATOM      8  C   UNL     1     -10.791  54.751  47.126  0.00  0.00    +0.000 A 
ATOM      9  C   UNL     1     -12.758  56.507  47.997  0.00  0.00    +0.000 A 
ATOM     10  C   UNL     1     -11.602  55.400  46.195  0.00  0.00    +0.000 A 
ATOM     11  C   UNL     1     -12.584  56.281  46.632  0.00  0.00    +0.000 A 
ENDROOT
BRANCH   1  17
ATOM     12  S   UNL     1      -6.857  54.787  52.895  0.00  0.00    +0.000 S 
ATOM     13  O   UNL     1      -6.969  55.881  53.841  0.00  0.00    +0.000 OA
ATOM     14  O   UNL     1      -5.616  54.556  52.177  0.00  0.00    +0.000 OA
ATOM     15  N   UNL     1      -8.028  54.960  51.795  0.00  0.00    +0.000 N 
ATOM     16  C   UNL     1      -7.180  53.326  53.801  0.00  0.00    +0.000 A 
ATOM     17  C   UNL     1      -9.098  54.215  51.803  0.00  0.00    +0.000 C 
ATOM     18  C   UNL     1      -8.396  52.689  53.596  0.00  0.00    +0.000 A 
ATOM     19  C   UNL     1      -6.215  52.849  54.693  0.00  0.00    +0.000 A 
ATOM     20  N   UNL     1      -9.319  53.168  52.668  0.00  0.00    +0.000 N 
ATOM     21  C   UNL     1      -8.654  51.539  54.346  0.00  0.00    +0.000 A 
ATOM     22  C   UNL     1      -6.482  51.695  55.422  0.00  0.00    +0.000 A 
ATOM     23  C   UNL     1      -7.703  51.045  55.252  0.00  0.00    +0.000 A 
ATOM     24  H   UNL     1      -7.930  55.646  51.097  0.00  0.00    +0.000 HD
ATOM     25  H   UNL     1     -10.196  52.722  52.628  0.00  0.00    +0.000 HD
ENDBRANCH   1  17
BRANCH   3  26
ATOM     26  O   UNL     1      -8.928  53.761  48.910  0.00  0.00    +0.000 OA
ATOM     27  H   UNL     1      -8.347  53.260  49.447  0.00  0.00    +0.000 HD
ENDBRANCH   3  26
BRANCH   5  28
ATOM     28  N   UNL     1     -13.102  57.004  50.749  0.00  0.00    +0.000 N 
ATOM     29  H   UNL     1     -13.014  57.977  50.627  0.00  0.00    +0.000 HD
BRANCH  28  30
ATOM     30  C   UNL     1     -14.288  56.384  51.374  0.00  0.00    +0.000 C 
BRANCH  30  31
ATOM     31  C   UNL     1     -14.879  57.218  52.535  0.00  0.00    +0.000 C 
ATOM     32  C   UNL     1     -14.467  58.683  52.568  0.00  0.00    +0.000 C 
ENDBRANCH  30  31
BRANCH  30  33
ATOM     33  C   UNL     1     -15.353  56.115  50.288  0.00  0.00    +0.000 C 
ATOM     34  C   UNL     1     -16.784  56.344  50.767  0.00  0.00    +0.000 C 
ENDBRANCH  30  33
ENDBRANCH  28  30
ENDBRANCH   5  28
TORSDOF 6
ENDMDL
MODEL 8
REMARK VINA RESULT:      -7.5      3.227      6.670
REMARK  Name = 
REMARK  8 active torsions:
REMARK  status: ('A' for Active; 'I' for Inactive)
REMARK    1  A    between atoms: C_6  and  C_10
REMARK    2  A    between atoms: C_14  and  O_18
REMARK    3  A    between atoms: N_17  and  N_20
REMARK    4  A    between atoms: N_20  and  C_23
REMARK    5  A    between atoms: C_23  and  C_26
REMARK    6  A    between atoms: C_23  and  C_27
REMARK    7  A    between atoms: C_26  and  C_29
REMARK    8  A    between atoms: C_27  and  C_30
REMARK                            x       y       z     vdW  Elec       q    Type
REMARK                         _______ _______ _______ _____ _____    ______ ____
ROOT
ATOM      1  C   UNL     1     -11.483  55.967  48.804  0.00  0.00    +0.000 A 
ATOM      2  C   UNL     1     -10.370  55.302  49.552  0.00  0.00    +0.000 A 
ATOM      3  C   UNL     1     -11.702  55.625  47.517  0.00  0.00    +0.000 A 
ATOM      4  O   UNL     1      -9.959  55.821  50.596  0.00  0.00    +0.000 OA
ATOM      5  N   UNL     1      -9.913  54.081  49.038  0.00  0.00    +0.000 N 
ATOM      6  C   UNL     1     -10.959  54.524  46.889  0.00  0.00    +0.000 A 
ATOM      7  C   UNL     1     -10.124  53.723  47.678  0.00  0.00    +0.000 A 
ATOM      8  C   UNL     1     -11.156  54.191  45.539  0.00  0.00    +0.000 A 
ATOM      9  C   UNL     1      -9.502  52.601  47.105  0.00  0.00    +0.000 A 
ATOM     10  C   UNL     1     -10.548  53.066  44.984  0.00  0.00    +0.000 A 
ATOM     11  C   UNL     1      -9.723  52.269  45.769  0.00  0.00    +0.000 A 
ENDROOT
BRANCH   1  17
ATOM     12  S   UNL     1     -13.557  59.229  49.489  0.00  0.00    +0.000 S 
ATOM     13  O   UNL     1     -14.680  59.260  48.571  0.00  0.00    +0.000 OA
ATOM     14  O   UNL     1     -12.803  60.437  49.773  0.00  0.00    +0.000 OA
ATOM     15  N   UNL     1     -12.510  58.120  48.956  0.00  0.00    +0.000 N 
ATOM     16  C   UNL     1     -14.195  58.677  51.021  0.00  0.00    +0.000 A 
ATOM     17  C   UNL     1     -12.394  56.952  49.524  0.00  0.00    +0.000 C 
ATOM     18  C   UNL     1     -13.889  57.385  51.425  0.00  0.00    +0.000 A 
ATOM     19  C   UNL     1     -14.984  59.543  51.783  0.00  0.00    +0.000 A 
ATOM     20  N   UNL     1     -13.063  56.562  50.661  0.00  0.00    +0.000 N 
ATOM     21  C   UNL     1     -14.427  56.945  52.637  0.00  0.00    +0.000 A 
ATOM     22  C   UNL     1     -15.502  59.094  52.993  0.00  0.00    +0.000 A 
ATOM     23  C   UNL     1     -15.228  57.794  53.416  0.00  0.00    +0.000 A 
ATOM     24  H   UNL     1     -11.942  58.332  48.181  0.00  0.00    +0.000 HD
ATOM     25  H   UNL     1     -12.951  55.629  50.958  0.00  0.00    +0.000 HD
ENDBRANCH   1  17
BRANCH   3  26
ATOM     26  O   UNL     1     -12.672  56.185  46.706  0.00  0.00    +0.000 OA
ATOM     27  H   UNL     1     -13.168  56.920  47.007  0.00  0.00    +0.000 HD
ENDBRANCH   3  26
BRANCH   5  28
ATOM     28  N   UNL     1      -9.072  53.236  49.816  0.00  0.00    +0.000 N 
ATOM     29  H   UNL     1      -8.092  53.229  49.719  0.00  0.00    +0.000 HD
BRANCH  28  30
ATOM     30  C   UNL     1      -9.783  52.371  50.778  0.00  0.00    +0.000 C 
BRANCH  30  31
ATOM     31  C   UNL     1      -9.653  50.862  50.463  0.00  0.00    +0.000 C 
ATOM     32  C   UNL     1     -10.802  50.256  49.668  0.00  0.00    +0.000 C 
ENDBRANCH  30  31
BRANCH  30  33
ATOM     33  C   UNL     1      -9.286  52.681  52.207  0.00  0.00    +0.000 C 
ATOM     34  C   UNL     1     -10.341  53.337  53.093  0.00  0.00    +0.000 C 
ENDBRANCH  30  33
ENDBRANCH  28  30
ENDBRANCH   5  28
TORSDOF 6
ENDMDL
MODEL 9
REMARK VINA RESULT:      -7.4      3.098      7.655
REMARK  Name = 
REMARK  8 active torsions:
REMARK  status: ('A' for Active; 'I' for Inactive)
REMARK    1  A    between atoms: C_6  and  C_10
REMARK    2  A    between atoms: C_14  and  O_18
REMARK    3  A    between atoms: N_17  and  N_20
REMARK    4  A    between atoms: N_20  and  C_23
REMARK    5  A    between atoms: C_23  and  C_26
REMARK    6  A    between atoms: C_23  and  C_27
REMARK    7  A    between atoms: C_26  and  C_29
REMARK    8  A    between atoms: C_27  and  C_30
REMARK                            x       y       z     vdW  Elec       q    Type
REMARK                         _______ _______ _______ _____ _____    ______ ____
ROOT
ATOM      1  C   UNL     1      -9.241  55.128  51.480  0.00  0.00    +0.000 A 
ATOM      2  C   UNL     1      -9.039  54.664  52.889  0.00  0.00    +0.000 A 
ATOM      3  C   UNL     1      -8.175  55.207  50.658  0.00  0.00    +0.000 A 
ATOM      4  O   UNL     1      -9.921  54.891  53.724  0.00  0.00    +0.000 OA
ATOM      5  N   UNL     1      -7.870  53.936  53.145  0.00  0.00    +0.000 N 
ATOM      6  C   UNL     1      -6.855  54.720  51.080  0.00  0.00    +0.000 A 
ATOM      7  C   UNL     1      -6.735  54.029  52.293  0.00  0.00    +0.000 A 
ATOM      8  C   UNL     1      -5.734  54.837  50.242  0.00  0.00    +0.000 A 
ATOM      9  C   UNL     1      -5.498  53.464  52.644  0.00  0.00    +0.000 A 
ATOM     10  C   UNL     1      -4.515  54.258  50.592  0.00  0.00    +0.000 A 
ATOM     11  C   UNL     1      -4.399  53.569  51.794  0.00  0.00    +0.000 A 
ENDROOT
BRANCH   1  17
ATOM     12  S   UNL     1     -12.326  55.260  49.054  0.00  0.00    +0.000 S 
ATOM     13  O   UNL     1     -12.822  53.910  48.869  0.00  0.00    +0.000 OA
ATOM     14  O   UNL     1     -12.236  56.174  47.929  0.00  0.00    +0.000 OA
ATOM     15  N   UNL     1     -10.855  55.163  49.717  0.00  0.00    +0.000 N 
ATOM     16  C   UNL     1     -13.393  56.016  50.217  0.00  0.00    +0.000 A 
ATOM     17  C   UNL     1     -10.648  55.424  50.978  0.00  0.00    +0.000 C 
ATOM     18  C   UNL     1     -12.912  56.223  51.502  0.00  0.00    +0.000 A 
ATOM     19  C   UNL     1     -14.681  56.386  49.821  0.00  0.00    +0.000 A 
ATOM     20  N   UNL     1     -11.607  55.881  51.853  0.00  0.00    +0.000 N 
ATOM     21  C   UNL     1     -13.782  56.801  52.429  0.00  0.00    +0.000 A 
ATOM     22  C   UNL     1     -15.530  56.973  50.752  0.00  0.00    +0.000 A 
ATOM     23  C   UNL     1     -15.082  57.174  52.057  0.00  0.00    +0.000 A 
ATOM     24  H   UNL     1     -10.093  54.901  49.152  0.00  0.00    +0.000 HD
ATOM     25  H   UNL     1     -11.351  55.974  52.800  0.00  0.00    +0.000 HD
ENDBRANCH   1  17
BRANCH   3  26
ATOM     26  O   UNL     1      -8.219  55.650  49.348  0.00  0.00    +0.000 OA
ATOM     27  H   UNL     1      -8.868  55.315  48.762  0.00  0.00    +0.000 HD
ENDBRANCH   3  26
BRANCH   5  28
ATOM     28  N   UNL     1      -7.718  53.212  54.362  0.00  0.00    +0.000 N 
ATOM     29  H   UNL     1      -7.503  53.651  55.216  0.00  0.00    +0.000 HD
BRANCH  28  30
ATOM     30  C   UNL     1      -7.908  51.753  54.242  0.00  0.00    +0.000 C 
BRANCH  30  31
ATOM     31  C   UNL     1      -7.521  50.974  55.521  0.00  0.00    +0.000 C 
ATOM     32  C   UNL     1      -8.621  50.107  56.119  0.00  0.00    +0.000 C 
ENDBRANCH  30  31
BRANCH  30  33
ATOM     33  C   UNL     1      -9.370  51.460  53.837  0.00  0.00    +0.000 C 
ATOM     34  C   UNL     1      -9.512  50.895  52.427  0.00  0.00    +0.000 C 
ENDBRANCH  30  33
ENDBRANCH  28  30
ENDBRANCH   5  28
TORSDOF 6
ENDMDL
