MODEL 1
REMARK VINA RESULT:      -8.4      0.000      0.000
REMARK  Name = 
REMARK  5 active torsions:
REMARK  status: ('A' for Active; 'I' for Inactive)
REMARK    1  A    between atoms: C_6  and  C_10
REMARK    2  A    between atoms: C_14  and  O_18
REMARK    3  A    between atoms: N_17  and  N_20
REMARK    4  A    between atoms: N_20  and  C_23
REMARK    5  A    between atoms: C_23  and  C_26
REMARK                            x       y       z     vdW  Elec       q    Type
REMARK                         _______ _______ _______ _____ _____    ______ ____
ROOT
ATOM      1  C   UNL     1     -11.394  56.072  48.803  0.00  0.00    +0.000 A 
ATOM      2  C   UNL     1     -10.285  55.535  49.645  0.00  0.00    +0.000 A 
ATOM      3  C   UNL     1     -11.536  55.665  47.529  0.00  0.00    +0.000 A 
ATOM      4  O   UNL     1     -10.192  55.954  50.804  0.00  0.00    +0.000 OA
ATOM      5  N   UNL     1      -9.448  54.561  49.095  0.00  0.00    +0.000 N 
ATOM      6  C   UNL     1     -10.622  54.666  46.956  0.00  0.00    +0.000 A 
ATOM      7  C   UNL     1      -9.588  54.129  47.743  0.00  0.00    +0.000 A 
ATOM      8  C   UNL     1     -10.787  54.219  45.633  0.00  0.00    +0.000 A 
ATOM      9  C   UNL     1      -8.725  53.174  47.179  0.00  0.00    +0.000 A 
ATOM     10  C   UNL     1      -9.939  53.256  45.093  0.00  0.00    +0.000 A 
ATOM     11  C   UNL     1      -8.904  52.738  45.864  0.00  0.00    +0.000 A 
ENDROOT
BRANCH   1  17
ATOM     12  S   UNL     1     -13.567  59.279  49.449  0.00  0.00    +0.000 S 
ATOM     13  O   UNL     1     -14.710  59.362  48.563  0.00  0.00    +0.000 OA
ATOM     14  O   UNL     1     -12.794  60.464  49.757  0.00  0.00    +0.000 OA
ATOM     15  N   UNL     1     -12.559  58.165  48.848  0.00  0.00    +0.000 N 
ATOM     16  C   UNL     1     -14.188  58.696  50.984  0.00  0.00    +0.000 A 
ATOM     17  C   UNL     1     -12.397  57.018  49.437  0.00  0.00    +0.000 C 
ATOM     18  C   UNL     1     -13.842  57.414  51.378  0.00  0.00    +0.000 A 
ATOM     19  C   UNL     1     -14.994  59.521  51.773  0.00  0.00    +0.000 A 
ATOM     20  N   UNL     1     -13.053  56.594  50.575  0.00  0.00    +0.000 N 
ATOM     21  C   UNL     1     -14.385  56.920  52.571  0.00  0.00    +0.000 A 
ATOM     22  C   UNL     1     -15.495  59.030  52.976  0.00  0.00    +0.000 A 
ATOM     23  C   UNL     1     -15.198  57.726  53.370  0.00  0.00    +0.000 A 
ATOM     24  H   UNL     1     -12.059  58.359  48.023  0.00  0.00    +0.000 HD
ATOM     25  H   UNL     1     -12.955  55.651  50.837  0.00  0.00    +0.000 HD
ENDBRANCH   1  17
BRANCH   3  26
ATOM     26  O   UNL     1     -12.536  56.101  46.679  0.00  0.00    +0.000 OA
ATOM     27  H   UNL     1     -13.408  55.771  46.773  0.00  0.00    +0.000 HD
ENDBRANCH   3  26
BRANCH   5  28
ATOM     28  N   UNL     1      -8.383  53.992  49.880  0.00  0.00    +0.000 N 
ATOM     29  H   UNL     1      -8.448  53.110  50.312  0.00  0.00    +0.000 HD
BRANCH  28  30
ATOM     30  C   UNL     1      -7.184  54.847  49.979  0.00  0.00    +0.000 C 
BRANCH  30  31
ATOM     31  C   UNL     1      -6.761  55.076  51.405  0.00  0.00    +0.000 A 
ATOM     32  S   UNL     1      -5.538  54.090  52.110  0.00  0.00    +0.000 S 
ATOM     33  N   UNL     1      -7.335  55.937  52.224  0.00  0.00    +0.000 NA
ATOM     34  C   UNL     1      -5.810  54.854  53.619  0.00  0.00    +0.000 A 
ATOM     35  C   UNL     1      -6.793  55.808  53.487  0.00  0.00    +0.000 A 
ENDBRANCH  30  31
ENDBRANCH  28  30
ENDBRANCH   5  28
TORSDOF 5
ENDMDL
MODEL 2
REMARK VINA RESULT:      -8.3      3.281      4.868
REMARK  Name = 
REMARK  5 active torsions:
REMARK  status: ('A' for Active; 'I' for Inactive)
REMARK    1  A    between atoms: C_6  and  C_10
REMARK    2  A    between atoms: C_14  and  O_18
REMARK    3  A    between atoms: N_17  and  N_20
REMARK    4  A    between atoms: N_20  and  C_23
REMARK    5  A    between atoms: C_23  and  C_26
REMARK                            x       y       z     vdW  Elec       q    Type
REMARK                         _______ _______ _______ _____ _____    ______ ____
ROOT
ATOM      1  C   UNL     1     -10.107  54.539  52.168  0.00  0.00    +0.000 A 
ATOM      2  C   UNL     1      -8.739  55.097  51.956  0.00  0.00    +0.000 A 
ATOM      3  C   UNL     1     -10.283  53.447  52.933  0.00  0.00    +0.000 A 
ATOM      4  O   UNL     1      -8.634  56.092  51.232  0.00  0.00    +0.000 OA
ATOM      5  N   UNL     1      -7.668  54.495  52.621  0.00  0.00    +0.000 N 
ATOM      6  C   UNL     1      -9.137  52.804  53.596  0.00  0.00    +0.000 A 
ATOM      7  C   UNL     1      -7.845  53.333  53.429  0.00  0.00    +0.000 A 
ATOM      8  C   UNL     1      -9.323  51.680  54.419  0.00  0.00    +0.000 A 
ATOM      9  C   UNL     1      -6.763  52.707  54.071  0.00  0.00    +0.000 A 
ATOM     10  C   UNL     1      -8.246  51.082  55.067  0.00  0.00    +0.000 A 
ATOM     11  C   UNL     1      -6.964  51.592  54.888  0.00  0.00    +0.000 A 
ENDROOT
BRANCH   1  17
ATOM     12  S   UNL     1     -12.581  56.044  49.515  0.00  0.00    +0.000 S 
ATOM     13  O   UNL     1     -13.482  55.048  48.971  0.00  0.00    +0.000 OA
ATOM     14  O   UNL     1     -11.986  57.041  48.651  0.00  0.00    +0.000 OA
ATOM     15  N   UNL     1     -11.387  55.261  50.276  0.00  0.00    +0.000 N 
ATOM     16  C   UNL     1     -13.511  56.933  50.709  0.00  0.00    +0.000 A 
ATOM     17  C   UNL     1     -11.293  55.273  51.572  0.00  0.00    +0.000 C 
ATOM     18  C   UNL     1     -13.184  56.761  52.045  0.00  0.00    +0.000 A 
ATOM     19  C   UNL     1     -14.536  57.791  50.303  0.00  0.00    +0.000 A 
ATOM     20  N   UNL     1     -12.172  55.889  52.439  0.00  0.00    +0.000 N 
ATOM     21  C   UNL     1     -13.962  57.418  53.006  0.00  0.00    +0.000 A 
ATOM     22  C   UNL     1     -15.276  58.469  51.267  0.00  0.00    +0.000 A 
ATOM     23  C   UNL     1     -14.996  58.275  52.619  0.00  0.00    +0.000 A 
ATOM     24  H   UNL     1     -10.718  54.768  49.748  0.00  0.00    +0.000 HD
ATOM     25  H   UNL     1     -12.077  55.700  53.400  0.00  0.00    +0.000 HD
ENDBRANCH   1  17
BRANCH   3  26
ATOM     26  O   UNL     1     -11.510  52.866  53.192  0.00  0.00    +0.000 OA
ATOM     27  H   UNL     1     -12.238  53.035  52.626  0.00  0.00    +0.000 HD
ENDBRANCH   3  26
BRANCH   5  28
ATOM     28  N   UNL     1      -6.334  55.017  52.471  0.00  0.00    +0.000 N 
ATOM     29  H   UNL     1      -5.869  55.512  53.183  0.00  0.00    +0.000 HD
BRANCH  28  30
ATOM     30  C   UNL     1      -5.726  54.746  51.154  0.00  0.00    +0.000 C 
BRANCH  30  31
ATOM     31  C   UNL     1      -4.893  53.492  51.155  0.00  0.00    +0.000 A 
ATOM     32  S   UNL     1      -5.492  52.057  50.415  0.00  0.00    +0.000 S 
ATOM     33  N   UNL     1      -3.739  53.365  51.783  0.00  0.00    +0.000 NA
ATOM     34  C   UNL     1      -4.124  51.203  50.991  0.00  0.00    +0.000 A 
ATOM     35  C   UNL     1      -3.302  52.058  51.690  0.00  0.00    +0.000 A 
ENDBRANCH  30  31
ENDBRANCH  28  30
ENDBRANCH   5  28
TORSDOF 5
ENDMDL
MODEL 3
REMARK VINA RESULT:      -8.3      2.518      3.282
REMARK  Name = 
REMARK  5 active torsions:
REMARK  status: ('A' for Active; 'I' for Inactive)
REMARK    1  A    between atoms: C_6  and  C_10
REMARK    2  A    between atoms: C_14  and  O_18
REMARK    3  A    between atoms: N_17  and  N_20
REMARK    4  A    between atoms: N_20  and  C_23
REMARK    5  A    between atoms: C_23  and  C_26
REMARK                            x       y       z     vdW  Elec       q    Type
REMARK                         _______ _______ _______ _____ _____    ______ ____
ROOT
ATOM      1  C   UNL     1     -11.168  54.608  50.815  0.00  0.00    +0.000 A 
ATOM      2  C   UNL     1      -9.771  54.983  50.449  0.00  0.00    +0.000 A 
ATOM      3  C   UNL     1     -11.441  53.373  51.273  0.00  0.00    +0.000 A 
ATOM      4  O   UNL     1      -9.580  56.125  50.019  0.00  0.00    +0.000 OA
ATOM      5  N   UNL     1      -8.757  54.044  50.657  0.00  0.00    +0.000 N 
ATOM      6  C   UNL     1     -10.365  52.385  51.450  0.00  0.00    +0.000 A 
ATOM      7  C   UNL     1      -9.039  52.731  51.136  0.00  0.00    +0.000 A 
ATOM      8  C   UNL     1     -10.645  51.104  51.956  0.00  0.00    +0.000 A 
ATOM      9  C   UNL     1      -8.024  51.775  51.313  0.00  0.00    +0.000 A 
ATOM     10  C   UNL     1      -9.627  50.173  52.147  0.00  0.00    +0.000 A 
ATOM     11  C   UNL     1      -8.317  50.507  51.820  0.00  0.00    +0.000 A 
ENDROOT
BRANCH   1  17
ATOM     12  S   UNL     1     -13.619  57.296  49.335  0.00  0.00    +0.000 S 
ATOM     13  O   UNL     1     -14.766  56.700  48.680  0.00  0.00    +0.000 OA
ATOM     14  O   UNL     1     -12.956  58.441  48.748  0.00  0.00    +0.000 OA
ATOM     15  N   UNL     1     -12.516  56.132  49.550  0.00  0.00    +0.000 N 
ATOM     16  C   UNL     1     -14.185  57.823  50.911  0.00  0.00    +0.000 A 
ATOM     17  C   UNL     1     -12.251  55.667  50.734  0.00  0.00    +0.000 C 
ATOM     18  C   UNL     1     -13.726  57.140  52.026  0.00  0.00    +0.000 A 
ATOM     19  C   UNL     1     -15.062  58.906  51.016  0.00  0.00    +0.000 A 
ATOM     20  N   UNL     1     -12.866  56.051  51.908  0.00  0.00    +0.000 N 
ATOM     21  C   UNL     1     -14.222  57.515  53.281  0.00  0.00    +0.000 A 
ATOM     22  C   UNL     1     -15.516  59.292  52.274  0.00  0.00    +0.000 A 
ATOM     23  C   UNL     1     -15.104  58.590  53.406  0.00  0.00    +0.000 A 
ATOM     24  H   UNL     1     -12.036  55.770  48.771  0.00  0.00    +0.000 HD
ATOM     25  H   UNL     1     -12.684  55.520  52.717  0.00  0.00    +0.000 HD
ENDBRANCH   1  17
BRANCH   3  26
ATOM     26  O   UNL     1     -12.701  52.940  51.643  0.00  0.00    +0.000 OA
ATOM     27  H   UNL     1     -13.068  52.174  51.248  0.00  0.00    +0.000 HD
ENDBRANCH   3  26
BRANCH   5  28
ATOM     28  N   UNL     1      -7.390  54.372  50.347  0.00  0.00    +0.000 N 
ATOM     29  H   UNL     1      -6.885  53.936  49.622  0.00  0.00    +0.000 HD
BRANCH  28  30
ATOM     30  C   UNL     1      -6.810  55.418  51.212  0.00  0.00    +0.000 C 
BRANCH  30  31
ATOM     31  C   UNL     1      -6.405  54.885  52.560  0.00  0.00    +0.000 A 
ATOM     32  S   UNL     1      -7.369  55.224  53.946  0.00  0.00    +0.000 S 
ATOM     33  N   UNL     1      -5.280  54.237  52.798  0.00  0.00    +0.000 NA
ATOM     34  C   UNL     1      -6.191  54.469  54.935  0.00  0.00    +0.000 A 
ATOM     35  C   UNL     1      -5.158  54.002  54.153  0.00  0.00    +0.000 A 
ENDBRANCH  30  31
ENDBRANCH  28  30
ENDBRANCH   5  28
TORSDOF 5
ENDMDL
MODEL 4
REMARK VINA RESULT:      -8.2      2.582      3.343
REMARK  Name = 
REMARK  5 active torsions:
REMARK  status: ('A' for Active; 'I' for Inactive)
REMARK    1  A    between atoms: C_6  and  C_10
REMARK    2  A    between atoms: C_14  and  O_18
REMARK    3  A    between atoms: N_17  and  N_20
REMARK    4  A    between atoms: N_20  and  C_23
REMARK    5  A    between atoms: C_23  and  C_26
REMARK                            x       y       z     vdW  Elec       q    Type
REMARK                         _______ _______ _______ _____ _____    ______ ____
ROOT
ATOM      1  C   UNL     1     -10.313  54.894  47.673  0.00  0.00    +0.000 A 
ATOM      2  C   UNL     1      -8.827  55.024  47.645  0.00  0.00    +0.000 A 
ATOM      3  C   UNL     1     -10.965  54.330  46.641  0.00  0.00    +0.000 A 
ATOM      4  O   UNL     1      -8.281  55.564  48.613  0.00  0.00    +0.000 OA
ATOM      5  N   UNL     1      -8.136  54.489  46.554  0.00  0.00    +0.000 N 
ATOM      6  C   UNL     1     -10.223  53.806  45.484  0.00  0.00    +0.000 A 
ATOM      7  C   UNL     1      -8.820  53.895  45.453  0.00  0.00    +0.000 A 
ATOM      8  C   UNL     1     -10.900  53.190  44.417  0.00  0.00    +0.000 A 
ATOM      9  C   UNL     1      -8.128  53.387  44.340  0.00  0.00    +0.000 A 
ATOM     10  C   UNL     1     -10.202  52.671  43.330  0.00  0.00    +0.000 A 
ATOM     11  C   UNL     1      -8.815  52.775  43.289  0.00  0.00    +0.000 A 
ENDROOT
BRANCH   1  17
ATOM     12  S   UNL     1     -11.680  54.940  51.355  0.00  0.00    +0.000 S 
ATOM     13  O   UNL     1     -10.699  55.422  52.305  0.00  0.00    +0.000 OA
ATOM     14  O   UNL     1     -12.523  53.810  51.686  0.00  0.00    +0.000 OA
ATOM     15  N   UNL     1     -10.904  54.600  49.976  0.00  0.00    +0.000 N 
ATOM     16  C   UNL     1     -12.769  56.285  51.062  0.00  0.00    +0.000 A 
ATOM     17  C   UNL     1     -11.059  55.337  48.918  0.00  0.00    +0.000 C 
ATOM     18  C   UNL     1     -12.729  56.892  49.817  0.00  0.00    +0.000 A 
ATOM     19  C   UNL     1     -13.648  56.706  52.063  0.00  0.00    +0.000 A 
ATOM     20  N   UNL     1     -11.836  56.475  48.833  0.00  0.00    +0.000 N 
ATOM     21  C   UNL     1     -13.550  58.005  49.598  0.00  0.00    +0.000 A 
ATOM     22  C   UNL     1     -14.488  57.790  51.817  0.00  0.00    +0.000 A 
ATOM     23  C   UNL     1     -14.431  58.446  50.588  0.00  0.00    +0.000 A 
ATOM     24  H   UNL     1     -10.304  53.820  49.938  0.00  0.00    +0.000 HD
ATOM     25  H   UNL     1     -11.753  57.028  48.023  0.00  0.00    +0.000 HD
ENDBRANCH   1  17
BRANCH   3  26
ATOM     26  O   UNL     1     -12.336  54.161  46.583  0.00  0.00    +0.000 OA
ATOM     27  H   UNL     1     -12.701  53.298  46.561  0.00  0.00    +0.000 HD
ENDBRANCH   3  26
BRANCH   5  28
ATOM     28  N   UNL     1      -6.699  54.563  46.497  0.00  0.00    +0.000 N 
ATOM     29  H   UNL     1      -6.218  55.339  46.130  0.00  0.00    +0.000 HD
BRANCH  28  30
ATOM     30  C   UNL     1      -6.012  53.374  47.038  0.00  0.00    +0.000 C 
BRANCH  30  31
ATOM     31  C   UNL     1      -5.670  53.524  48.496  0.00  0.00    +0.000 A 
ATOM     32  S   UNL     1      -6.454  52.539  49.671  0.00  0.00    +0.000 S 
ATOM     33  N   UNL     1      -4.861  54.447  48.980  0.00  0.00    +0.000 NA
ATOM     34  C   UNL     1      -5.672  53.422  50.914  0.00  0.00    +0.000 A 
ATOM     35  C   UNL     1      -4.864  54.389  50.360  0.00  0.00    +0.000 A 
ENDBRANCH  30  31
ENDBRANCH  28  30
ENDBRANCH   5  28
TORSDOF 5
ENDMDL
MODEL 5
REMARK VINA RESULT:      -8.1      3.474      5.403
REMARK  Name = 
REMARK  5 active torsions:
REMARK  status: ('A' for Active; 'I' for Inactive)
REMARK    1  A    between atoms: C_6  and  C_10
REMARK    2  A    between atoms: C_14  and  O_18
REMARK    3  A    between atoms: N_17  and  N_20
REMARK    4  A    between atoms: N_20  and  C_23
REMARK    5  A    between atoms: C_23  and  C_26
REMARK                            x       y       z     vdW  Elec       q    Type
REMARK                         _______ _______ _______ _____ _____    ______ ____
ROOT
ATOM      1  C   UNL     1     -12.257  54.315  50.128  0.00  0.00    +0.000 A 
ATOM      2  C   UNL     1     -11.942  53.965  48.712  0.00  0.00    +0.000 A 
ATOM      3  C   UNL     1     -11.711  53.615  51.137  0.00  0.00    +0.000 A 
ATOM      4  O   UNL     1     -12.483  54.632  47.824  0.00  0.00    +0.000 OA
ATOM      5  N   UNL     1     -11.023  52.941  48.472  0.00  0.00    +0.000 N 
ATOM      6  C   UNL     1     -10.773  52.515  50.864  0.00  0.00    +0.000 A 
ATOM      7  C   UNL     1     -10.444  52.189  49.537  0.00  0.00    +0.000 A 
ATOM      8  C   UNL     1     -10.180  51.800  51.919  0.00  0.00    +0.000 A 
ATOM      9  C   UNL     1      -9.546  51.136  49.295  0.00  0.00    +0.000 A 
ATOM     10  C   UNL     1      -9.274  50.773  51.667  0.00  0.00    +0.000 A 
ATOM     11  C   UNL     1      -8.961  50.437  50.354  0.00  0.00    +0.000 A 
ENDROOT
BRANCH   1  17
ATOM     12  S   UNL     1     -15.329  56.477  51.274  0.00  0.00    +0.000 S 
ATOM     13  O   UNL     1     -15.361  56.679  52.708  0.00  0.00    +0.000 OA
ATOM     14  O   UNL     1     -16.551  56.199  50.548  0.00  0.00    +0.000 OA
ATOM     15  N   UNL     1     -14.281  55.283  50.969  0.00  0.00    +0.000 N 
ATOM     16  C   UNL     1     -14.691  57.963  50.592  0.00  0.00    +0.000 A 
ATOM     17  C   UNL     1     -13.136  55.521  50.402  0.00  0.00    +0.000 C 
ATOM     18  C   UNL     1     -13.424  57.928  50.033  0.00  0.00    +0.000 A 
ATOM     19  C   UNL     1     -15.459  59.131  50.614  0.00  0.00    +0.000 A 
ATOM     20  N   UNL     1     -12.662  56.763  50.033  0.00  0.00    +0.000 N 
ATOM     21  C   UNL     1     -12.884  59.124  49.543  0.00  0.00    +0.000 A 
ATOM     22  C   UNL     1     -14.924  60.304  50.089  0.00  0.00    +0.000 A 
ATOM     23  C   UNL     1     -13.633  60.303  49.562  0.00  0.00    +0.000 A 
ATOM     24  H   UNL     1     -14.514  54.359  51.216  0.00  0.00    +0.000 HD
ATOM     25  H   UNL     1     -11.721  56.830  49.750  0.00  0.00    +0.000 HD
ENDBRANCH   1  17
BRANCH   3  26
ATOM     26  O   UNL     1     -11.938  53.872  52.477  0.00  0.00    +0.000 OA
ATOM     27  H   UNL     1     -11.550  54.622  52.883  0.00  0.00    +0.000 HD
ENDBRANCH   3  26
BRANCH   5  28
ATOM     28  N   UNL     1     -10.665  52.588  47.123  0.00  0.00    +0.000 N 
ATOM     29  H   UNL     1     -11.025  51.796  46.663  0.00  0.00    +0.000 HD
BRANCH  28  30
ATOM     30  C   UNL     1      -9.709  53.517  46.490  0.00  0.00    +0.000 C 
BRANCH  30  31
ATOM     31  C   UNL     1      -9.549  53.257  45.016  0.00  0.00    +0.000 A 
ATOM     32  S   UNL     1     -10.821  52.508  44.129  0.00  0.00    +0.000 S 
ATOM     33  N   UNL     1      -8.437  53.475  44.338  0.00  0.00    +0.000 NA
ATOM     34  C   UNL     1      -9.808  52.452  42.748  0.00  0.00    +0.000 A 
ATOM     35  C   UNL     1      -8.586  53.014  43.044  0.00  0.00    +0.000 A 
ENDBRANCH  30  31
ENDBRANCH  28  30
ENDBRANCH   5  28
TORSDOF 5
ENDMDL
MODEL 6
REMARK VINA RESULT:      -8.1      3.066      7.221
REMARK  Name = 
REMARK  5 active torsions:
REMARK  status: ('A' for Active; 'I' for Inactive)
REMARK    1  A    between atoms: C_6  and  C_10
REMARK    2  A    between atoms: C_14  and  O_18
REMARK    3  A    between atoms: N_17  and  N_20
REMARK    4  A    between atoms: N_20  and  C_23
REMARK    5  A    between atoms: C_23  and  C_26
REMARK                            x       y       z     vdW  Elec       q    Type
REMARK                         _______ _______ _______ _____ _____    ______ ____
ROOT
ATOM      1  C   UNL     1     -10.273  55.251  50.731  0.00  0.00    +0.000 A 
ATOM      2  C   UNL     1      -9.913  55.146  49.287  0.00  0.00    +0.000 A 
ATOM      3  C   UNL     1     -11.462  55.760  51.099  0.00  0.00    +0.000 A 
ATOM      4  O   UNL     1      -8.802  54.686  49.006  0.00  0.00    +0.000 OA
ATOM      5  N   UNL     1     -10.865  55.529  48.338  0.00  0.00    +0.000 N 
ATOM      6  C   UNL     1     -12.437  56.192  50.087  0.00  0.00    +0.000 A 
ATOM      7  C   UNL     1     -12.127  56.075  48.720  0.00  0.00    +0.000 A 
ATOM      8  C   UNL     1     -13.692  56.697  50.469  0.00  0.00    +0.000 A 
ATOM      9  C   UNL     1     -13.071  56.491  47.767  0.00  0.00    +0.000 A 
ATOM     10  C   UNL     1     -14.628  57.086  49.514  0.00  0.00    +0.000 A 
ATOM     11  C   UNL     1     -14.315  56.988  48.163  0.00  0.00    +0.000 A 
ENDROOT
BRANCH   1  17
ATOM     12  S   UNL     1      -7.022  54.781  52.884  0.00  0.00    +0.000 S 
ATOM     13  O   UNL     1      -6.915  55.758  53.948  0.00  0.00    +0.000 OA
ATOM     14  O   UNL     1      -5.853  54.408  52.116  0.00  0.00    +0.000 OA
ATOM     15  N   UNL     1      -8.156  55.299  51.853  0.00  0.00    +0.000 N 
ATOM     16  C   UNL     1      -7.592  53.304  53.642  0.00  0.00    +0.000 A 
ATOM     17  C   UNL     1      -9.307  54.701  51.764  0.00  0.00    +0.000 C 
ATOM     18  C   UNL     1      -8.882  52.885  53.357  0.00  0.00    +0.000 A 
ATOM     19  C   UNL     1      -6.751  52.583  54.494  0.00  0.00    +0.000 A 
ATOM     20  N   UNL     1      -9.717  53.622  52.520  0.00  0.00    +0.000 N 
ATOM     21  C   UNL     1      -9.365  51.743  54.006  0.00  0.00    +0.000 A 
ATOM     22  C   UNL     1      -7.232  51.427  55.103  0.00  0.00    +0.000 A 
ATOM     23  C   UNL     1      -8.542  51.012  54.867  0.00  0.00    +0.000 A 
ATOM     24  H   UNL     1      -7.972  56.080  51.283  0.00  0.00    +0.000 HD
ATOM     25  H   UNL     1     -10.662  53.354  52.464  0.00  0.00    +0.000 HD
ENDBRANCH   1  17
BRANCH   3  26
ATOM     26  O   UNL     1     -11.883  55.887  52.410  0.00  0.00    +0.000 OA
ATOM     27  H   UNL     1     -11.658  55.232  53.041  0.00  0.00    +0.000 HD
ENDBRANCH   3  26
BRANCH   5  28
ATOM     28  N   UNL     1     -10.575  55.417  46.932  0.00  0.00    +0.000 N 
ATOM     29  H   UNL     1      -9.979  56.040  46.458  0.00  0.00    +0.000 HD
BRANCH  28  30
ATOM     30  C   UNL     1     -11.251  54.287  46.265  0.00  0.00    +0.000 C 
BRANCH  30  31
ATOM     31  C   UNL     1     -10.387  53.644  45.214  0.00  0.00    +0.000 A 
ATOM     32  S   UNL     1      -8.683  53.894  45.226  0.00  0.00    +0.000 S 
ATOM     33  N   UNL     1     -10.850  52.958  44.186  0.00  0.00    +0.000 NA
ATOM     34  C   UNL     1      -8.559  53.042  43.746  0.00  0.00    +0.000 A 
ATOM     35  C   UNL     1      -9.807  52.615  43.348  0.00  0.00    +0.000 A 
ENDBRANCH  30  31
ENDBRANCH  28  30
ENDBRANCH   5  28
TORSDOF 5
ENDMDL
MODEL 7
REMARK VINA RESULT:      -8.1      2.169      7.229
REMARK  Name = 
REMARK  5 active torsions:
REMARK  status: ('A' for Active; 'I' for Inactive)
REMARK    1  A    between atoms: C_6  and  C_10
REMARK    2  A    between atoms: C_14  and  O_18
REMARK    3  A    between atoms: N_17  and  N_20
REMARK    4  A    between atoms: N_20  and  C_23
REMARK    5  A    between atoms: C_23  and  C_26
REMARK                            x       y       z     vdW  Elec       q    Type
REMARK                         _______ _______ _______ _____ _____    ______ ____
ROOT
ATOM      1  C   UNL     1      -9.099  54.343  49.963  0.00  0.00    +0.000 A 
ATOM      2  C   UNL     1     -10.194  55.347  50.102  0.00  0.00    +0.000 A 
ATOM      3  C   UNL     1      -8.957  53.648  48.821  0.00  0.00    +0.000 A 
ATOM      4  O   UNL     1     -10.288  55.946  51.179  0.00  0.00    +0.000 OA
ATOM      5  N   UNL     1     -11.017  55.586  48.998  0.00  0.00    +0.000 N 
ATOM      6  C   UNL     1      -9.857  53.886  47.682  0.00  0.00    +0.000 A 
ATOM      7  C   UNL     1     -10.877  54.848  47.786  0.00  0.00    +0.000 A 
ATOM      8  C   UNL     1      -9.691  53.181  46.478  0.00  0.00    +0.000 A 
ATOM      9  C   UNL     1     -11.726  55.064  46.687  0.00  0.00    +0.000 A 
ATOM     10  C   UNL     1     -10.526  53.420  45.388  0.00  0.00    +0.000 A 
ATOM     11  C   UNL     1     -11.547  54.357  45.496  0.00  0.00    +0.000 A 
ENDROOT
BRANCH   1  17
ATOM     12  S   UNL     1      -7.649  54.075  53.604  0.00  0.00    +0.000 S 
ATOM     13  O   UNL     1      -7.866  52.769  54.192  0.00  0.00    +0.000 OA
ATOM     14  O   UNL     1      -7.825  55.272  54.399  0.00  0.00    +0.000 OA
ATOM     15  N   UNL     1      -8.604  54.192  52.303  0.00  0.00    +0.000 N 
ATOM     16  C   UNL     1      -5.978  54.091  53.069  0.00  0.00    +0.000 A 
ATOM     17  C   UNL     1      -8.109  54.183  51.102  0.00  0.00    +0.000 C 
ATOM     18  C   UNL     1      -5.734  54.087  51.705  0.00  0.00    +0.000 A 
ATOM     19  C   UNL     1      -4.942  54.119  54.006  0.00  0.00    +0.000 A 
ATOM     20  N   UNL     1      -6.774  54.042  50.780  0.00  0.00    +0.000 N 
ATOM     21  C   UNL     1      -4.403  54.037  51.271  0.00  0.00    +0.000 A 
ATOM     22  C   UNL     1      -3.623  54.108  53.560  0.00  0.00    +0.000 A 
ATOM     23  C   UNL     1      -3.353  54.057  52.193  0.00  0.00    +0.000 A 
ATOM     24  H   UNL     1      -9.578  54.273  52.423  0.00  0.00    +0.000 HD
ATOM     25  H   UNL     1      -6.542  53.900  49.834  0.00  0.00    +0.000 HD
ENDBRANCH   1  17
BRANCH   3  26
ATOM     26  O   UNL     1      -7.969  52.705  48.599  0.00  0.00    +0.000 OA
ATOM     27  H   UNL     1      -7.796  52.404  47.729  0.00  0.00    +0.000 HD
ENDBRANCH   3  26
BRANCH   5  28
ATOM     28  N   UNL     1     -12.068  56.567  49.076  0.00  0.00    +0.000 N 
ATOM     29  H   UNL     1     -11.969  57.485  48.737  0.00  0.00    +0.000 HD
BRANCH  28  30
ATOM     30  C   UNL     1     -13.307  56.074  49.709  0.00  0.00    +0.000 C 
BRANCH  30  31
ATOM     31  C   UNL     1     -13.748  56.943  50.855  0.00  0.00    +0.000 A 
ATOM     32  S   UNL     1     -14.298  58.549  50.559  0.00  0.00    +0.000 S 
ATOM     33  N   UNL     1     -13.656  56.603  52.127  0.00  0.00    +0.000 NA
ATOM     34  C   UNL     1     -14.400  58.812  52.249  0.00  0.00    +0.000 A 
ATOM     35  C   UNL     1     -14.027  57.670  52.921  0.00  0.00    +0.000 A 
ENDBRANCH  30  31
ENDBRANCH  28  30
ENDBRANCH   5  28
TORSDOF 5
ENDMDL
MODEL 8
REMARK VINA RESULT:      -8.1      3.027      4.301
REMARK  Name = 
REMARK  5 active torsions:
REMARK  status: ('A' for Active; 'I' for Inactive)
REMARK    1  A    between atoms: C_6  and  C_10
REMARK    2  A    between atoms: C_14  and  O_18
REMARK    3  A    between atoms: N_17  and  N_20
REMARK    4  A    between atoms: N_20  and  C_23
REMARK    5  A    between atoms: C_23  and  C_26
REMARK                            x       y       z     vdW  Elec       q    Type
REMARK                         _______ _______ _______ _____ _____    ______ ____
ROOT
ATOM      1  C   UNL     1     -12.406  54.285  49.759  0.00  0.00    +0.000 A 
ATOM      2  C   UNL     1     -11.976  54.137  48.337  0.00  0.00    +0.000 A 
ATOM      3  C   UNL     1     -12.001  53.399  50.686  0.00  0.00    +0.000 A 
ATOM      4  O   UNL     1     -12.390  54.971  47.525  0.00  0.00    +0.000 OA
ATOM      5  N   UNL     1     -11.098  53.098  48.016  0.00  0.00    +0.000 N 
ATOM      6  C   UNL     1     -11.107  52.290  50.321  0.00  0.00    +0.000 A 
ATOM      7  C   UNL     1     -10.670  52.150  48.992  0.00  0.00    +0.000 A 
ATOM      8  C   UNL     1     -10.660  51.379  51.294  0.00  0.00    +0.000 A 
ATOM      9  C   UNL     1      -9.814  51.086  48.662  0.00  0.00    +0.000 A 
ATOM     10  C   UNL     1      -9.794  50.341  50.959  0.00  0.00    +0.000 A 
ATOM     11  C   UNL     1      -9.376  50.191  49.641  0.00  0.00    +0.000 A 
ENDROOT
BRANCH   1  17
ATOM     12  S   UNL     1     -15.348  56.451  51.200  0.00  0.00    +0.000 S 
ATOM     13  O   UNL     1     -15.287  56.581  52.641  0.00  0.00    +0.000 OA
ATOM     14  O   UNL     1     -16.619  56.236  50.539  0.00  0.00    +0.000 OA
ATOM     15  N   UNL     1     -14.350  55.252  50.771  0.00  0.00    +0.000 N 
ATOM     16  C   UNL     1     -14.717  57.956  50.553  0.00  0.00    +0.000 A 
ATOM     17  C   UNL     1     -13.237  55.494  50.146  0.00  0.00    +0.000 C 
ATOM     18  C   UNL     1     -13.488  57.922  49.914  0.00  0.00    +0.000 A 
ATOM     19  C   UNL     1     -15.453  59.137  50.680  0.00  0.00    +0.000 A 
ATOM     20  N   UNL     1     -12.756  56.742  49.810  0.00  0.00    +0.000 N 
ATOM     21  C   UNL     1     -12.950  59.130  49.452  0.00  0.00    +0.000 A 
ATOM     22  C   UNL     1     -14.923  60.324  50.181  0.00  0.00    +0.000 A 
ATOM     23  C   UNL     1     -13.667  60.322  49.575  0.00  0.00    +0.000 A 
ATOM     24  H   UNL     1     -14.591  54.322  50.987  0.00  0.00    +0.000 HD
ATOM     25  H   UNL     1     -11.833  56.803  49.472  0.00  0.00    +0.000 HD
ENDBRANCH   1  17
BRANCH   3  26
ATOM     26  O   UNL     1     -12.342  53.461  52.024  0.00  0.00    +0.000 OA
ATOM     27  H   UNL     1     -13.114  53.029  52.332  0.00  0.00    +0.000 HD
ENDBRANCH   3  26
BRANCH   5  28
ATOM     28  N   UNL     1     -10.633  52.934  46.663  0.00  0.00    +0.000 N 
ATOM     29  H   UNL     1     -10.879  52.164  46.102  0.00  0.00    +0.000 HD
BRANCH  28  30
ATOM     30  C   UNL     1      -9.752  54.021  46.193  0.00  0.00    +0.000 C 
BRANCH  30  31
ATOM     31  C   UNL     1      -8.382  53.955  46.810  0.00  0.00    +0.000 A 
ATOM     32  S   UNL     1      -7.977  54.991  48.126  0.00  0.00    +0.000 S 
ATOM     33  N   UNL     1      -7.393  53.211  46.351  0.00  0.00    +0.000 NA
ATOM     34  C   UNL     1      -6.364  54.419  48.063  0.00  0.00    +0.000 A 
ATOM     35  C   UNL     1      -6.241  53.478  47.066  0.00  0.00    +0.000 A 
ENDBRANCH  30  31
ENDBRANCH  28  30
ENDBRANCH   5  28
TORSDOF 5
ENDMDL
MODEL 9
REMARK VINA RESULT:      -7.8      1.898      2.393
REMARK  Name = 
REMARK  5 active torsions:
REMARK  status: ('A' for Active; 'I' for Inactive)
REMARK    1  A    between atoms: C_6  and  C_10
REMARK    2  A    between atoms: C_14  and  O_18
REMARK    3  A    between atoms: N_17  and  N_20
REMARK    4  A    between atoms: N_20  and  C_23
REMARK    5  A    between atoms: C_23  and  C_26
REMARK                            x       y       z     vdW  Elec       q    Type
REMARK                         _______ _______ _______ _____ _____    ______ ____
ROOT
ATOM      1  C   UNL     1     -10.780  55.636  48.669  0.00  0.00    +0.000 A 
ATOM      2  C   UNL     1      -9.467  55.328  49.309  0.00  0.00    +0.000 A 
ATOM      3  C   UNL     1     -11.038  55.220  47.417  0.00  0.00    +0.000 A 
ATOM      4  O   UNL     1      -9.278  55.747  50.455  0.00  0.00    +0.000 OA
ATOM      5  N   UNL     1      -8.551  54.548  48.598  0.00  0.00    +0.000 N 
ATOM      6  C   UNL     1     -10.047  54.431  46.670  0.00  0.00    +0.000 A 
ATOM      7  C   UNL     1      -8.815  54.108  47.267  0.00  0.00    +0.000 A 
ATOM      8  C   UNL     1     -10.326  53.972  45.371  0.00  0.00    +0.000 A 
ATOM      9  C   UNL     1      -7.880  53.353  46.540  0.00  0.00    +0.000 A 
ATOM     10  C   UNL     1      -9.400  53.205  44.669  0.00  0.00    +0.000 A 
ATOM     11  C   UNL     1      -8.174  52.901  45.251  0.00  0.00    +0.000 A 
ENDROOT
BRANCH   1  17
ATOM     12  S   UNL     1     -13.503  56.333  51.413  0.00  0.00    +0.000 S 
ATOM     13  O   UNL     1     -12.923  56.643  52.703  0.00  0.00    +0.000 OA
ATOM     14  O   UNL     1     -14.666  55.475  51.322  0.00  0.00    +0.000 OA
ATOM     15  N   UNL     1     -12.336  55.696  50.490  0.00  0.00    +0.000 N 
ATOM     16  C   UNL     1     -13.983  57.871  50.717  0.00  0.00    +0.000 A 
ATOM     17  C   UNL     1     -11.838  56.353  49.486  0.00  0.00    +0.000 C 
ATOM     18  C   UNL     1     -13.270  58.339  49.626  0.00  0.00    +0.000 A 
ATOM     19  C   UNL     1     -15.060  58.579  51.257  0.00  0.00    +0.000 A 
ATOM     20  N   UNL     1     -12.187  57.634  49.108  0.00  0.00    +0.000 N 
ATOM     21  C   UNL     1     -13.607  59.595  49.105  0.00  0.00    +0.000 A 
ATOM     22  C   UNL     1     -15.410  59.808  50.704  0.00  0.00    +0.000 A 
ATOM     23  C   UNL     1     -14.677  60.321  49.635  0.00  0.00    +0.000 A 
ATOM     24  H   UNL     1     -11.998  54.793  50.692  0.00  0.00    +0.000 HD
ATOM     25  H   UNL     1     -11.633  58.078  48.425  0.00  0.00    +0.000 HD
ENDBRANCH   1  17
BRANCH   3  26
ATOM     26  O   UNL     1     -12.226  55.451  46.748  0.00  0.00    +0.000 OA
ATOM     27  H   UNL     1     -12.215  55.709  45.847  0.00  0.00    +0.000 HD
ENDBRANCH   3  26
BRANCH   5  28
ATOM     28  N   UNL     1      -7.284  54.200  49.186  0.00  0.00    +0.000 N 
ATOM     29  H   UNL     1      -6.473  54.745  49.071  0.00  0.00    +0.000 HD
BRANCH  28  30
ATOM     30  C   UNL     1      -7.308  52.954  49.977  0.00  0.00    +0.000 C 
BRANCH  30  31
ATOM     31  C   UNL     1      -7.266  53.215  51.458  0.00  0.00    +0.000 A 
ATOM     32  S   UNL     1      -6.108  54.312  52.108  0.00  0.00    +0.000 S 
ATOM     33  N   UNL     1      -8.004  52.579  52.349  0.00  0.00    +0.000 NA
ATOM     34  C   UNL     1      -6.616  53.892  53.689  0.00  0.00    +0.000 A 
ATOM     35  C   UNL     1      -7.632  52.965  53.621  0.00  0.00    +0.000 A 
ENDBRANCH  30  31
ENDBRANCH  28  30
ENDBRANCH   5  28
TORSDOF 5
ENDMDL
