MODEL 1
REMARK VINA RESULT:      -9.3      0.000      0.000
REMARK  Name = 
REMARK  5 active torsions:
REMARK  status: ('A' for Active; 'I' for Inactive)
REMARK    1  A    between atoms: C_5  and  C_8
REMARK    2  A    between atoms: C_8  and  N_9
REMARK    3  A    between atoms: N_9  and  N_10
REMARK    4  A    between atoms: C_14  and  C_17
REMARK    5  A    between atoms: C_18  and  O_23
REMARK                            x       y       z     vdW  Elec       q    Type
REMARK                         _______ _______ _______ _____ _____    ______ ____
ROOT
ATOM      1  N   UNL     1      -9.652  54.458  50.131  0.00  0.00    +0.000 N 
ATOM      2  C   UNL     1     -10.609  55.253  50.759  0.00  0.00    +0.000 A 
ATOM      3  C   UNL     1      -9.873  53.069  49.915  0.00  0.00    +0.000 A 
ATOM      4  O   UNL     1     -10.422  56.453  50.978  0.00  0.00    +0.000 OA
ATOM      5  C   UNL     1     -11.916  54.610  51.112  0.00  0.00    +0.000 A 
ATOM      6  C   UNL     1     -10.986  52.451  50.516  0.00  0.00    +0.000 A 
ATOM      7  C   UNL     1      -9.060  52.325  49.051  0.00  0.00    +0.000 A 
ATOM      8  C   UNL     1     -11.988  53.270  51.214  0.00  0.00    +0.000 A 
ATOM      9  C   UNL     1     -11.263  51.102  50.240  0.00  0.00    +0.000 A 
ATOM     10  C   UNL     1      -9.391  51.007  48.730  0.00  0.00    +0.000 A 
ATOM     11  C   UNL     1     -10.488  50.394  49.327  0.00  0.00    +0.000 A 
ENDROOT
BRANCH   5  12
ATOM     12  C   UNL     1     -13.122  55.469  51.369  0.00  0.00    +0.000 C 
ATOM     13  N   UNL     1     -13.085  56.400  52.296  0.00  0.00    +0.000 N 
ATOM     14  N   UNL     1     -14.240  55.304  50.558  0.00  0.00    +0.000 N 
ATOM     15  S   UNL     1     -14.383  57.426  52.330  0.00  0.00    +0.000 S 
ATOM     16  C   UNL     1     -14.449  56.515  49.837  0.00  0.00    +0.000 A 
ATOM     17  O   UNL     1     -13.962  58.684  52.921  0.00  0.00    +0.000 OA
ATOM     18  O   UNL     1     -15.548  56.712  52.799  0.00  0.00    +0.000 OA
ATOM     19  C   UNL     1     -14.618  57.688  50.585  0.00  0.00    +0.000 A 
ATOM     20  C   UNL     1     -14.036  56.589  48.505  0.00  0.00    +0.000 A 
ATOM     21  C   UNL     1     -14.477  58.936  50.011  0.00  0.00    +0.000 A 
ATOM     22  C   UNL     1     -13.805  57.838  47.942  0.00  0.00    +0.000 A 
ATOM     23  C   UNL     1     -14.060  59.003  48.679  0.00  0.00    +0.000 A 
ATOM     24  H   UNL     1     -12.335  56.483  52.928  0.00  0.00    +0.000 HD
ATOM     25  H   UNL     1     -14.791  54.490  50.494  0.00  0.00    +0.000 HD
ENDBRANCH   5  12
BRANCH   1  26
ATOM     26  N   UNL     1      -8.598  55.125  49.403  0.00  0.00    +0.000 N 
ATOM     27  H   UNL     1      -7.707  55.307  49.781  0.00  0.00    +0.000 HD
BRANCH  26  28
ATOM     28  C   UNL     1      -8.995  55.505  48.042  0.00  0.00    +0.000 C 
BRANCH  28  33
ATOM     29 BR   UNL     1     -11.356  51.478  44.318  0.00  0.00    +0.000 Br
ATOM     30  C   UNL     1     -10.735  53.045  45.171  0.00  0.00    +0.000 A 
ATOM     31  C   UNL     1      -9.408  53.433  45.022  0.00  0.00    +0.000 A 
ATOM     32  C   UNL     1     -11.602  53.799  45.957  0.00  0.00    +0.000 A 
ATOM     33  C   UNL     1      -8.938  54.537  45.728  0.00  0.00    +0.000 A 
ATOM     34  C   UNL     1     -11.082  54.784  46.795  0.00  0.00    +0.000 A 
ATOM     35  C   UNL     1      -9.711  55.052  46.778  0.00  0.00    +0.000 A 
ENDBRANCH  28  33
ENDBRANCH  26  28
ENDBRANCH   1  26
BRANCH   8  36
ATOM     36  O   UNL     1     -13.048  52.568  51.759  0.00  0.00    +0.000 OA
ATOM     37  H   UNL     1     -13.863  52.520  51.301  0.00  0.00    +0.000 HD
ENDBRANCH   8  36
TORSDOF 5
ENDMDL
MODEL 2
REMARK VINA RESULT:      -9.0      3.278      4.850
REMARK  Name = 
REMARK  5 active torsions:
REMARK  status: ('A' for Active; 'I' for Inactive)
REMARK    1  A    between atoms: C_5  and  C_8
REMARK    2  A    between atoms: C_8  and  N_9
REMARK    3  A    between atoms: N_9  and  N_10
REMARK    4  A    between atoms: C_14  and  C_17
REMARK    5  A    between atoms: C_18  and  O_23
REMARK                            x       y       z     vdW  Elec       q    Type
REMARK                         _______ _______ _______ _____ _____    ______ ____
ROOT
ATOM      1  N   UNL     1      -9.732  55.189  51.033  0.00  0.00    +0.000 N 
ATOM      2  C   UNL     1     -11.099  55.327  51.270  0.00  0.00    +0.000 A 
ATOM      3  C   UNL     1      -9.243  54.734  49.777  0.00  0.00    +0.000 A 
ATOM      4  O   UNL     1     -11.540  55.695  52.361  0.00  0.00    +0.000 OA
ATOM      5  C   UNL     1     -12.026  55.067  50.122  0.00  0.00    +0.000 A 
ATOM      6  C   UNL     1     -10.154  54.231  48.829  0.00  0.00    +0.000 A 
ATOM      7  C   UNL     1      -7.891  54.855  49.431  0.00  0.00    +0.000 A 
ATOM      8  C   UNL     1     -11.599  54.335  49.077  0.00  0.00    +0.000 A 
ATOM      9  C   UNL     1      -9.694  53.860  47.554  0.00  0.00    +0.000 A 
ATOM     10  C   UNL     1      -7.463  54.551  48.137  0.00  0.00    +0.000 A 
ATOM     11  C   UNL     1      -8.362  54.050  47.201  0.00  0.00    +0.000 A 
ENDROOT
BRANCH   5  12
ATOM     12  C   UNL     1     -13.427  55.609  50.162  0.00  0.00    +0.000 C 
ATOM     13  N   UNL     1     -14.130  55.545  51.270  0.00  0.00    +0.000 N 
ATOM     14  N   UNL     1     -13.928  56.241  49.028  0.00  0.00    +0.000 N 
ATOM     15  S   UNL     1     -15.563  56.374  51.258  0.00  0.00    +0.000 S 
ATOM     16  C   UNL     1     -14.181  57.606  49.355  0.00  0.00    +0.000 A 
ATOM     17  O   UNL     1     -15.906  56.723  52.625  0.00  0.00    +0.000 OA
ATOM     18  O   UNL     1     -16.497  55.707  50.381  0.00  0.00    +0.000 OA
ATOM     19  C   UNL     1     -15.054  57.860  50.420  0.00  0.00    +0.000 A 
ATOM     20  C   UNL     1     -13.262  58.578  48.957  0.00  0.00    +0.000 A 
ATOM     21  C   UNL     1     -15.098  59.095  51.038  0.00  0.00    +0.000 A 
ATOM     22  C   UNL     1     -13.236  59.794  49.630  0.00  0.00    +0.000 A 
ATOM     23  C   UNL     1     -14.173  60.062  50.638  0.00  0.00    +0.000 A 
ATOM     24  H   UNL     1     -13.826  55.037  52.057  0.00  0.00    +0.000 HD
ATOM     25  H   UNL     1     -14.080  55.819  48.152  0.00  0.00    +0.000 HD
ENDBRANCH   5  12
BRANCH   1  26
ATOM     26  N   UNL     1      -8.823  55.837  51.950  0.00  0.00    +0.000 N 
ATOM     27  H   UNL     1      -8.501  56.761  51.834  0.00  0.00    +0.000 HD
BRANCH  26  28
ATOM     28  C   UNL     1      -8.430  54.976  53.070  0.00  0.00    +0.000 C 
BRANCH  28  33
ATOM     29 BR   UNL     1      -8.439  49.921  56.251  0.00  0.00    +0.000 Br
ATOM     30  C   UNL     1      -8.478  51.233  54.893  0.00  0.00    +0.000 A 
ATOM     31  C   UNL     1      -7.285  51.722  54.369  0.00  0.00    +0.000 A 
ATOM     32  C   UNL     1      -9.698  51.719  54.430  0.00  0.00    +0.000 A 
ATOM     33  C   UNL     1      -7.324  52.753  53.435  0.00  0.00    +0.000 A 
ATOM     34  C   UNL     1      -9.719  52.867  53.639  0.00  0.00    +0.000 A 
ATOM     35  C   UNL     1      -8.516  53.468  53.260  0.00  0.00    +0.000 A 
ENDBRANCH  28  33
ENDBRANCH  26  28
ENDBRANCH   1  26
BRANCH   8  36
ATOM     36  O   UNL     1     -12.408  53.822  48.080  0.00  0.00    +0.000 OA
ATOM     37  H   UNL     1     -13.336  53.792  48.199  0.00  0.00    +0.000 HD
ENDBRANCH   8  36
TORSDOF 5
ENDMDL
MODEL 3
REMARK VINA RESULT:      -8.9      2.334      5.608
REMARK  Name = 
REMARK  5 active torsions:
REMARK  status: ('A' for Active; 'I' for Inactive)
REMARK    1  A    between atoms: C_5  and  C_8
REMARK    2  A    between atoms: C_8  and  N_9
REMARK    3  A    between atoms: N_9  and  N_10
REMARK    4  A    between atoms: C_14  and  C_17
REMARK    5  A    between atoms: C_18  and  O_23
REMARK                            x       y       z     vdW  Elec       q    Type
REMARK                         _______ _______ _______ _____ _____    ______ ____
ROOT
ATOM      1  N   UNL     1     -13.438  56.213  48.791  0.00  0.00    +0.000 N 
ATOM      2  C   UNL     1     -12.946  55.180  49.588  0.00  0.00    +0.000 A 
ATOM      3  C   UNL     1     -13.813  57.465  49.354  0.00  0.00    +0.000 A 
ATOM      4  O   UNL     1     -12.641  54.080  49.119  0.00  0.00    +0.000 OA
ATOM      5  C   UNL     1     -12.738  55.472  51.043  0.00  0.00    +0.000 A 
ATOM      6  C   UNL     1     -13.871  57.596  50.754  0.00  0.00    +0.000 A 
ATOM      7  C   UNL     1     -14.040  58.589  48.550  0.00  0.00    +0.000 A 
ATOM      8  C   UNL     1     -13.390  56.503  51.611  0.00  0.00    +0.000 A 
ATOM      9  C   UNL     1     -14.155  58.849  51.322  0.00  0.00    +0.000 A 
ATOM     10  C   UNL     1     -14.248  59.841  49.131  0.00  0.00    +0.000 A 
ATOM     11  C   UNL     1     -14.310  59.971  50.515  0.00  0.00    +0.000 A 
ENDROOT
BRANCH   5  12
ATOM     12  C   UNL     1     -11.823  54.597  51.853  0.00  0.00    +0.000 C 
ATOM     13  N   UNL     1     -11.946  53.290  51.807  0.00  0.00    +0.000 N 
ATOM     14  N   UNL     1     -10.806  55.199  52.586  0.00  0.00    +0.000 N 
ATOM     15  S   UNL     1     -10.745  52.432  52.555  0.00  0.00    +0.000 S 
ATOM     16  C   UNL     1      -9.557  54.754  52.062  0.00  0.00    +0.000 A 
ATOM     17  O   UNL     1     -10.662  51.120  51.940  0.00  0.00    +0.000 OA
ATOM     18  O   UNL     1     -10.853  52.600  53.986  0.00  0.00    +0.000 OA
ATOM     19  C   UNL     1      -9.324  53.373  52.040  0.00  0.00    +0.000 A 
ATOM     20  C   UNL     1      -8.844  55.597  51.207  0.00  0.00    +0.000 A 
ATOM     21  C   UNL     1      -8.331  52.821  51.254  0.00  0.00    +0.000 A 
ATOM     22  C   UNL     1      -7.903  55.041  50.347  0.00  0.00    +0.000 A 
ATOM     23  C   UNL     1      -7.624  53.668  50.398  0.00  0.00    +0.000 A 
ATOM     24  H   UNL     1     -12.703  52.848  51.357  0.00  0.00    +0.000 HD
ATOM     25  H   UNL     1     -10.928  55.825  53.337  0.00  0.00    +0.000 HD
ENDBRANCH   5  12
BRANCH   1  26
ATOM     26  N   UNL     1     -13.237  56.114  47.364  0.00  0.00    +0.000 N 
ATOM     27  H   UNL     1     -13.973  56.016  46.717  0.00  0.00    +0.000 HD
BRANCH  26  28
ATOM     28  C   UNL     1     -11.822  56.172  46.981  0.00  0.00    +0.000 C 
BRANCH  28  33
ATOM     29 BR   UNL     1      -9.744  50.584  46.637  0.00  0.00    +0.000 Br
ATOM     30  C   UNL     1     -10.107  52.422  46.405  0.00  0.00    +0.000 A 
ATOM     31  C   UNL     1      -9.445  53.362  47.188  0.00  0.00    +0.000 A 
ATOM     32  C   UNL     1     -11.046  52.833  45.462  0.00  0.00    +0.000 A 
ATOM     33  C   UNL     1      -9.787  54.707  47.073  0.00  0.00    +0.000 A 
ATOM     34  C   UNL     1     -11.507  54.148  45.485  0.00  0.00    +0.000 A 
ATOM     35  C   UNL     1     -10.967  55.053  46.402  0.00  0.00    +0.000 A 
ENDBRANCH  28  33
ENDBRANCH  26  28
ENDBRANCH   1  26
BRANCH   8  36
ATOM     36  O   UNL     1     -13.480  56.736  52.971  0.00  0.00    +0.000 OA
ATOM     37  H   UNL     1     -13.029  56.178  53.573  0.00  0.00    +0.000 HD
ENDBRANCH   8  36
TORSDOF 5
ENDMDL
MODEL 4
REMARK VINA RESULT:      -8.8      3.890      6.714
REMARK  Name = 
REMARK  5 active torsions:
REMARK  status: ('A' for Active; 'I' for Inactive)
REMARK    1  A    between atoms: C_5  and  C_8
REMARK    2  A    between atoms: C_8  and  N_9
REMARK    3  A    between atoms: N_9  and  N_10
REMARK    4  A    between atoms: C_14  and  C_17
REMARK    5  A    between atoms: C_18  and  O_23
REMARK                            x       y       z     vdW  Elec       q    Type
REMARK                         _______ _______ _______ _____ _____    ______ ____
ROOT
ATOM      1  N   UNL     1      -9.968  53.598  51.939  0.00  0.00    +0.000 N 
ATOM      2  C   UNL     1      -9.924  53.023  50.669  0.00  0.00    +0.000 A 
ATOM      3  C   UNL     1      -8.795  54.111  52.557  0.00  0.00    +0.000 A 
ATOM      4  O   UNL     1     -10.927  52.550  50.129  0.00  0.00    +0.000 OA
ATOM      5  C   UNL     1      -8.613  53.054  49.944  0.00  0.00    +0.000 A 
ATOM      6  C   UNL     1      -7.543  53.862  51.964  0.00  0.00    +0.000 A 
ATOM      7  C   UNL     1      -8.865  54.930  53.691  0.00  0.00    +0.000 A 
ATOM      8  C   UNL     1      -7.475  53.224  50.641  0.00  0.00    +0.000 A 
ATOM      9  C   UNL     1      -6.386  54.435  52.517  0.00  0.00    +0.000 A 
ATOM     10  C   UNL     1      -7.716  55.552  54.185  0.00  0.00    +0.000 A 
ATOM     11  C   UNL     1      -6.478  55.302  53.602  0.00  0.00    +0.000 A 
ENDROOT
BRANCH   5  12
ATOM     12  C   UNL     1      -8.584  52.872  48.453  0.00  0.00    +0.000 C 
ATOM     13  N   UNL     1      -9.013  51.753  47.914  0.00  0.00    +0.000 N 
ATOM     14  N   UNL     1      -8.165  53.937  47.662  0.00  0.00    +0.000 N 
ATOM     15  S   UNL     1      -9.146  51.758  46.264  0.00  0.00    +0.000 S 
ATOM     16  C   UNL     1      -9.262  54.346  46.848  0.00  0.00    +0.000 A 
ATOM     17  O   UNL     1     -10.145  50.778  45.879  0.00  0.00    +0.000 OA
ATOM     18  O   UNL     1      -7.827  51.779  45.676  0.00  0.00    +0.000 OA
ATOM     19  C   UNL     1      -9.838  53.379  46.014  0.00  0.00    +0.000 A 
ATOM     20  C   UNL     1      -9.993  55.476  47.217  0.00  0.00    +0.000 A 
ATOM     21  C   UNL     1     -11.092  53.558  45.461  0.00  0.00    +0.000 A 
ATOM     22  C   UNL     1     -11.290  55.623  46.738  0.00  0.00    +0.000 A 
ATOM     23  C   UNL     1     -11.820  54.689  45.838  0.00  0.00    +0.000 A 
ATOM     24  H   UNL     1      -9.241  50.963  48.455  0.00  0.00    +0.000 HD
ATOM     25  H   UNL     1      -7.266  54.339  47.664  0.00  0.00    +0.000 HD
ENDBRANCH   5  12
BRANCH   1  26
ATOM     26  N   UNL     1     -11.262  53.972  52.461  0.00  0.00    +0.000 N 
ATOM     27  H   UNL     1     -11.823  53.372  53.004  0.00  0.00    +0.000 HD
BRANCH  26  28
ATOM     28  C   UNL     1     -11.652  55.339  52.096  0.00  0.00    +0.000 C 
BRANCH  28  33
ATOM     29 BR   UNL     1     -14.330  60.095  49.675  0.00  0.00    +0.000 Br
ATOM     30  C   UNL     1     -13.852  58.373  50.285  0.00  0.00    +0.000 A 
ATOM     31  C   UNL     1     -14.161  57.990  51.586  0.00  0.00    +0.000 A 
ATOM     32  C   UNL     1     -13.180  57.496  49.437  0.00  0.00    +0.000 A 
ATOM     33  C   UNL     1     -13.723  56.754  52.054  0.00  0.00    +0.000 A 
ATOM     34  C   UNL     1     -12.592  56.349  49.969  0.00  0.00    +0.000 A 
ATOM     35  C   UNL     1     -12.751  56.057  51.326  0.00  0.00    +0.000 A 
ENDBRANCH  28  33
ENDBRANCH  26  28
ENDBRANCH   1  26
BRANCH   8  36
ATOM     36  O   UNL     1      -6.199  53.033  50.143  0.00  0.00    +0.000 OA
ATOM     37  H   UNL     1      -5.844  53.638  49.521  0.00  0.00    +0.000 HD
ENDBRANCH   8  36
TORSDOF 5
ENDMDL
MODEL 5
REMARK VINA RESULT:      -8.7      4.445      7.672
REMARK  Name = 
REMARK  5 active torsions:
REMARK  status: ('A' for Active; 'I' for Inactive)
REMARK    1  A    between atoms: C_5  and  C_8
REMARK    2  A    between atoms: C_8  and  N_9
REMARK    3  A    between atoms: N_9  and  N_10
REMARK    4  A    between atoms: C_14  and  C_17
REMARK    5  A    between atoms: C_18  and  O_23
REMARK                            x       y       z     vdW  Elec       q    Type
REMARK                         _______ _______ _______ _____ _____    ______ ____
ROOT
ATOM      1  N   UNL     1      -8.386  55.990  49.200  0.00  0.00    +0.000 N 
ATOM      2  C   UNL     1      -7.460  55.825  50.230  0.00  0.00    +0.000 A 
ATOM      3  C   UNL     1      -8.234  55.316  47.956  0.00  0.00    +0.000 A 
ATOM      4  O   UNL     1      -7.563  56.421  51.304  0.00  0.00    +0.000 OA
ATOM      5  C   UNL     1      -6.353  54.839  50.009  0.00  0.00    +0.000 A 
ATOM      6  C   UNL     1      -7.034  54.628  47.692  0.00  0.00    +0.000 A 
ATOM      7  C   UNL     1      -9.281  55.249  47.029  0.00  0.00    +0.000 A 
ATOM      8  C   UNL     1      -6.030  54.475  48.755  0.00  0.00    +0.000 A 
ATOM      9  C   UNL     1      -6.906  53.888  46.505  0.00  0.00    +0.000 A 
ATOM     10  C   UNL     1      -9.165  54.450  45.890  0.00  0.00    +0.000 A 
ATOM     11  C   UNL     1      -7.978  53.773  45.625  0.00  0.00    +0.000 A 
ENDROOT
BRANCH   5  12
ATOM     12  C   UNL     1      -5.604  54.287  51.189  0.00  0.00    +0.000 C 
ATOM     13  N   UNL     1      -5.315  55.061  52.211  0.00  0.00    +0.000 N 
ATOM     14  N   UNL     1      -5.294  52.931  51.204  0.00  0.00    +0.000 N 
ATOM     15  S   UNL     1      -4.696  54.293  53.539  0.00  0.00    +0.000 S 
ATOM     16  C   UNL     1      -5.983  52.329  52.298  0.00  0.00    +0.000 A 
ATOM     17  O   UNL     1      -4.992  55.091  54.714  0.00  0.00    +0.000 OA
ATOM     18  O   UNL     1      -3.360  53.827  53.246  0.00  0.00    +0.000 OA
ATOM     19  C   UNL     1      -5.738  52.850  53.575  0.00  0.00    +0.000 A 
ATOM     20  C   UNL     1      -7.154  51.612  52.048  0.00  0.00    +0.000 A 
ATOM     21  C   UNL     1      -6.587  52.592  54.634  0.00  0.00    +0.000 A 
ATOM     22  C   UNL     1      -8.060  51.422  53.085  0.00  0.00    +0.000 A 
ATOM     23  C   UNL     1      -7.760  51.877  54.376  0.00  0.00    +0.000 A 
ATOM     24  H   UNL     1      -5.457  56.036  52.188  0.00  0.00    +0.000 HD
ATOM     25  H   UNL     1      -4.702  52.467  50.568  0.00  0.00    +0.000 HD
ENDBRANCH   5  12
BRANCH   1  26
ATOM     26  N   UNL     1      -9.665  56.572  49.534  0.00  0.00    +0.000 N 
ATOM     27  H   UNL     1      -9.917  57.496  49.306  0.00  0.00    +0.000 HD
BRANCH  26  28
ATOM     28  C   UNL     1     -10.546  55.643  50.252  0.00  0.00    +0.000 C 
BRANCH  28  33
ATOM     29 BR   UNL     1     -15.030  59.062  52.219  0.00  0.00    +0.000 Br
ATOM     30  C   UNL     1     -13.952  57.726  51.432  0.00  0.00    +0.000 A 
ATOM     31  C   UNL     1     -13.507  56.655  52.199  0.00  0.00    +0.000 A 
ATOM     32  C   UNL     1     -13.592  57.823  50.090  0.00  0.00    +0.000 A 
ATOM     33  C   UNL     1     -12.638  55.726  51.634  0.00  0.00    +0.000 A 
ATOM     34  C   UNL     1     -12.586  56.998  49.591  0.00  0.00    +0.000 A 
ATOM     35  C   UNL     1     -12.007  56.035  50.422  0.00  0.00    +0.000 A 
ENDBRANCH  28  33
ENDBRANCH  26  28
ENDBRANCH   1  26
BRANCH   8  36
ATOM     36  O   UNL     1      -4.893  53.775  48.396  0.00  0.00    +0.000 OA
ATOM     37  H   UNL     1      -4.926  52.843  48.304  0.00  0.00    +0.000 HD
ENDBRANCH   8  36
TORSDOF 5
ENDMDL
MODEL 6
REMARK VINA RESULT:      -8.6      3.548      6.949
REMARK  Name = 
REMARK  5 active torsions:
REMARK  status: ('A' for Active; 'I' for Inactive)
REMARK    1  A    between atoms: C_5  and  C_8
REMARK    2  A    between atoms: C_8  and  N_9
REMARK    3  A    between atoms: N_9  and  N_10
REMARK    4  A    between atoms: C_14  and  C_17
REMARK    5  A    between atoms: C_18  and  O_23
REMARK                            x       y       z     vdW  Elec       q    Type
REMARK                         _______ _______ _______ _____ _____    ______ ____
ROOT
ATOM      1  N   UNL     1     -10.600  54.917  48.461  0.00  0.00    +0.000 N 
ATOM      2  C   UNL     1      -9.946  55.185  49.664  0.00  0.00    +0.000 A 
ATOM      3  C   UNL     1      -9.872  54.688  47.261  0.00  0.00    +0.000 A 
ATOM      4  O   UNL     1     -10.563  55.412  50.707  0.00  0.00    +0.000 OA
ATOM      5  C   UNL     1      -8.449  55.128  49.661  0.00  0.00    +0.000 A 
ATOM      6  C   UNL     1      -8.484  54.925  47.246  0.00  0.00    +0.000 A 
ATOM      7  C   UNL     1     -10.487  54.150  46.124  0.00  0.00    +0.000 A 
ATOM      8  C   UNL     1      -7.783  55.244  48.498  0.00  0.00    +0.000 A 
ATOM      9  C   UNL     1      -7.741  54.620  46.094  0.00  0.00    +0.000 A 
ATOM     10  C   UNL     1      -9.723  53.783  45.014  0.00  0.00    +0.000 A 
ATOM     11  C   UNL     1      -8.353  54.022  44.996  0.00  0.00    +0.000 A 
ENDROOT
BRANCH   5  12
ATOM     12  C   UNL     1      -7.710  54.963  50.959  0.00  0.00    +0.000 C 
ATOM     13  N   UNL     1      -8.096  55.622  52.029  0.00  0.00    +0.000 N 
ATOM     14  N   UNL     1      -6.664  54.047  51.017  0.00  0.00    +0.000 N 
ATOM     15  S   UNL     1      -7.354  55.188  53.443  0.00  0.00    +0.000 S 
ATOM     16  C   UNL     1      -7.019  53.023  51.942  0.00  0.00    +0.000 A 
ATOM     17  O   UNL     1      -8.241  55.507  54.547  0.00  0.00    +0.000 OA
ATOM     18  O   UNL     1      -5.977  55.623  53.417  0.00  0.00    +0.000 OA
ATOM     19  C   UNL     1      -7.330  53.418  53.250  0.00  0.00    +0.000 A 
ATOM     20  C   UNL     1      -7.483  51.801  51.452  0.00  0.00    +0.000 A 
ATOM     21  C   UNL     1      -8.011  52.582  54.114  0.00  0.00    +0.000 A 
ATOM     22  C   UNL     1      -8.246  50.990  52.285  0.00  0.00    +0.000 A 
ATOM     23  C   UNL     1      -8.475  51.362  53.616  0.00  0.00    +0.000 A 
ATOM     24  H   UNL     1      -8.782  56.327  51.992  0.00  0.00    +0.000 HD
ATOM     25  H   UNL     1      -5.824  54.099  50.506  0.00  0.00    +0.000 HD
ENDBRANCH   5  12
BRANCH   1  26
ATOM     26  N   UNL     1     -11.992  54.539  48.524  0.00  0.00    +0.000 N 
ATOM     27  H   UNL     1     -12.300  53.604  48.561  0.00  0.00    +0.000 HD
BRANCH  26  28
ATOM     28  C   UNL     1     -12.899  55.692  48.527  0.00  0.00    +0.000 C 
BRANCH  28  33
ATOM     29 BR   UNL     1     -15.234  59.182  52.773  0.00  0.00    +0.000 Br
ATOM     30  C   UNL     1     -14.783  58.308  51.161  0.00  0.00    +0.000 A 
ATOM     31  C   UNL     1     -15.407  57.111  50.825  0.00  0.00    +0.000 A 
ATOM     32  C   UNL     1     -13.817  58.855  50.319  0.00  0.00    +0.000 A 
ATOM     33  C   UNL     1     -15.001  56.429  49.682  0.00  0.00    +0.000 A 
ATOM     34  C   UNL     1     -13.295  58.080  49.285  0.00  0.00    +0.000 A 
ATOM     35  C   UNL     1     -13.801  56.797  49.060  0.00  0.00    +0.000 A 
ENDBRANCH  28  33
ENDBRANCH  26  28
ENDBRANCH   1  26
BRANCH   8  36
ATOM     36  O   UNL     1      -6.421  55.449  48.376  0.00  0.00    +0.000 OA
ATOM     37  H   UNL     1      -6.092  56.302  48.169  0.00  0.00    +0.000 HD
ENDBRANCH   8  36
TORSDOF 5
ENDMDL
MODEL 7
REMARK VINA RESULT:      -8.5      3.108      4.518
REMARK  Name = 
REMARK  5 active torsions:
REMARK  status: ('A' for Active; 'I' for Inactive)
REMARK    1  A    between atoms: C_5  and  C_8
REMARK    2  A    between atoms: C_8  and  N_9
REMARK    3  A    between atoms: N_9  and  N_10
REMARK    4  A    between atoms: C_14  and  C_17
REMARK    5  A    between atoms: C_18  and  O_23
REMARK                            x       y       z     vdW  Elec       q    Type
REMARK                         _______ _______ _______ _____ _____    ______ ____
ROOT
ATOM      1  N   UNL     1      -9.787  55.064  51.223  0.00  0.00    +0.000 N 
ATOM      2  C   UNL     1     -11.160  55.219  51.411  0.00  0.00    +0.000 A 
ATOM      3  C   UNL     1      -9.256  54.649  49.970  0.00  0.00    +0.000 A 
ATOM      4  O   UNL     1     -11.638  55.552  52.498  0.00  0.00    +0.000 OA
ATOM      5  C   UNL     1     -12.045  55.023  50.217  0.00  0.00    +0.000 A 
ATOM      6  C   UNL     1     -10.137  54.202  48.967  0.00  0.00    +0.000 A 
ATOM      7  C   UNL     1      -7.890  54.756  49.683  0.00  0.00    +0.000 A 
ATOM      8  C   UNL     1     -11.589  54.324  49.162  0.00  0.00    +0.000 A 
ATOM      9  C   UNL     1      -9.634  53.872  47.698  0.00  0.00    +0.000 A 
ATOM     10  C   UNL     1      -7.416  54.495  48.396  0.00  0.00    +0.000 A 
ATOM     11  C   UNL     1      -8.285  54.050  47.405  0.00  0.00    +0.000 A 
ENDROOT
BRANCH   5  12
ATOM     12  C   UNL     1     -13.437  55.591  50.224  0.00  0.00    +0.000 C 
ATOM     13  N   UNL     1     -14.167  55.541  51.316  0.00  0.00    +0.000 N 
ATOM     14  N   UNL     1     -13.898  56.230  49.078  0.00  0.00    +0.000 N 
ATOM     15  S   UNL     1     -15.583  56.396  51.269  0.00  0.00    +0.000 S 
ATOM     16  C   UNL     1     -14.134  57.600  49.397  0.00  0.00    +0.000 A 
ATOM     17  O   UNL     1     -15.951  56.754  52.626  0.00  0.00    +0.000 OA
ATOM     18  O   UNL     1     -16.508  55.745  50.370  0.00  0.00    +0.000 OA
ATOM     19  C   UNL     1     -15.027  57.872  50.442  0.00  0.00    +0.000 A 
ATOM     20  C   UNL     1     -13.188  58.554  49.020  0.00  0.00    +0.000 A 
ATOM     21  C   UNL     1     -15.063  59.108  51.057  0.00  0.00    +0.000 A 
ATOM     22  C   UNL     1     -13.156  59.770  49.692  0.00  0.00    +0.000 A 
ATOM     23  C   UNL     1     -14.111  60.058  50.677  0.00  0.00    +0.000 A 
ATOM     24  H   UNL     1     -13.890  55.029  52.110  0.00  0.00    +0.000 HD
ATOM     25  H   UNL     1     -14.038  55.810  48.199  0.00  0.00    +0.000 HD
ENDBRANCH   5  12
BRANCH   1  26
ATOM     26  N   UNL     1      -8.905  55.657  52.200  0.00  0.00    +0.000 N 
ATOM     27  H   UNL     1      -8.726  56.624  52.254  0.00  0.00    +0.000 HD
BRANCH  26  28
ATOM     28  C   UNL     1      -8.302  54.669  53.102  0.00  0.00    +0.000 C 
BRANCH  28  33
ATOM     29 BR   UNL     1      -3.815  51.726  50.481  0.00  0.00    +0.000 Br
ATOM     30  C   UNL     1      -5.012  52.544  51.691  0.00  0.00    +0.000 A 
ATOM     31  C   UNL     1      -6.135  51.851  52.128  0.00  0.00    +0.000 A 
ATOM     32  C   UNL     1      -4.775  53.844  52.131  0.00  0.00    +0.000 A 
ATOM     33  C   UNL     1      -7.058  52.495  52.947  0.00  0.00    +0.000 A 
ATOM     34  C   UNL     1      -5.788  54.535  52.796  0.00  0.00    +0.000 A 
ATOM     35  C   UNL     1      -6.995  53.889  53.077  0.00  0.00    +0.000 A 
ENDBRANCH  28  33
ENDBRANCH  26  28
ENDBRANCH   1  26
BRANCH   8  36
ATOM     36  O   UNL     1     -12.367  53.867  48.114  0.00  0.00    +0.000 OA
ATOM     37  H   UNL     1     -13.044  53.240  48.272  0.00  0.00    +0.000 HD
ENDBRANCH   8  36
TORSDOF 5
ENDMDL
MODEL 8
REMARK VINA RESULT:      -8.4      3.898      6.896
REMARK  Name = 
REMARK  5 active torsions:
REMARK  status: ('A' for Active; 'I' for Inactive)
REMARK    1  A    between atoms: C_5  and  C_8
REMARK    2  A    between atoms: C_8  and  N_9
REMARK    3  A    between atoms: N_9  and  N_10
REMARK    4  A    between atoms: C_14  and  C_17
REMARK    5  A    between atoms: C_18  and  O_23
REMARK                            x       y       z     vdW  Elec       q    Type
REMARK                         _______ _______ _______ _____ _____    ______ ____
ROOT
ATOM      1  N   UNL     1     -10.792  54.959  48.603  0.00  0.00    +0.000 N 
ATOM      2  C   UNL     1     -10.698  54.780  49.982  0.00  0.00    +0.000 A 
ATOM      3  C   UNL     1      -9.639  54.898  47.770  0.00  0.00    +0.000 A 
ATOM      4  O   UNL     1     -11.683  54.856  50.721  0.00  0.00    +0.000 OA
ATOM      5  C   UNL     1      -9.353  54.427  50.541  0.00  0.00    +0.000 A 
ATOM      6  C   UNL     1      -8.365  54.850  48.367  0.00  0.00    +0.000 A 
ATOM      7  C   UNL     1      -9.748  54.797  46.378  0.00  0.00    +0.000 A 
ATOM      8  C   UNL     1      -8.246  54.697  49.825  0.00  0.00    +0.000 A 
ATOM      9  C   UNL     1      -7.226  54.702  47.559  0.00  0.00    +0.000 A 
ATOM     10  C   UNL     1      -8.613  54.576  45.595  0.00  0.00    +0.000 A 
ATOM     11  C   UNL     1      -7.353  54.533  46.184  0.00  0.00    +0.000 A 
ENDROOT
BRANCH   5  12
ATOM     12  C   UNL     1      -9.255  53.797  51.902  0.00  0.00    +0.000 C 
ATOM     13  N   UNL     1      -8.942  52.526  52.022  0.00  0.00    +0.000 N 
ATOM     14  N   UNL     1      -9.431  54.603  53.021  0.00  0.00    +0.000 N 
ATOM     15  S   UNL     1      -8.642  52.006  53.564  0.00  0.00    +0.000 S 
ATOM     16  C   UNL     1      -8.208  54.618  53.754  0.00  0.00    +0.000 A 
ATOM     17  O   UNL     1      -7.763  50.852  53.499  0.00  0.00    +0.000 OA
ATOM     18  O   UNL     1      -9.877  51.986  54.313  0.00  0.00    +0.000 OA
ATOM     19  C   UNL     1      -7.698  53.384  54.178  0.00  0.00    +0.000 A 
ATOM     20  C   UNL     1      -7.361  55.721  53.634  0.00  0.00    +0.000 A 
ATOM     21  C   UNL     1      -6.382  53.246  54.575  0.00  0.00    +0.000 A 
ATOM     22  C   UNL     1      -6.015  55.571  53.946  0.00  0.00    +0.000 A 
ATOM     23  C   UNL     1      -5.538  54.352  54.448  0.00  0.00    +0.000 A 
ATOM     24  H   UNL     1      -8.889  51.922  51.245  0.00  0.00    +0.000 HD
ATOM     25  H   UNL     1     -10.256  55.082  53.264  0.00  0.00    +0.000 HD
ENDBRANCH   5  12
BRANCH   1  26
ATOM     26  N   UNL     1     -12.101  54.862  48.001  0.00  0.00    +0.000 N 
ATOM     27  H   UNL     1     -12.392  54.098  47.452  0.00  0.00    +0.000 HD
BRANCH  26  28
ATOM     28  C   UNL     1     -12.952  56.022  48.293  0.00  0.00    +0.000 C 
BRANCH  28  33
ATOM     29 BR   UNL     1     -15.192  59.119  52.880  0.00  0.00    +0.000 Br
ATOM     30  C   UNL     1     -14.803  58.364  51.194  0.00  0.00    +0.000 A 
ATOM     31  C   UNL     1     -15.374  57.149  50.832  0.00  0.00    +0.000 A 
ATOM     32  C   UNL     1     -13.934  59.017  50.323  0.00  0.00    +0.000 A 
ATOM     33  C   UNL     1     -15.009  56.557  49.626  0.00  0.00    +0.000 A 
ATOM     34  C   UNL     1     -13.439  58.334  49.213  0.00  0.00    +0.000 A 
ATOM     35  C   UNL     1     -13.880  57.035  48.949  0.00  0.00    +0.000 A 
ENDBRANCH  28  33
ENDBRANCH  26  28
ENDBRANCH   1  26
BRANCH   8  36
ATOM     36  O   UNL     1      -6.952  54.650  50.309  0.00  0.00    +0.000 OA
ATOM     37  H   UNL     1      -6.293  54.177  49.840  0.00  0.00    +0.000 HD
ENDBRANCH   8  36
TORSDOF 5
ENDMDL
MODEL 9
REMARK VINA RESULT:      -8.4      3.846      7.224
REMARK  Name = 
REMARK  5 active torsions:
REMARK  status: ('A' for Active; 'I' for Inactive)
REMARK    1  A    between atoms: C_5  and  C_8
REMARK    2  A    between atoms: C_8  and  N_9
REMARK    3  A    between atoms: N_9  and  N_10
REMARK    4  A    between atoms: C_14  and  C_17
REMARK    5  A    between atoms: C_18  and  O_23
REMARK                            x       y       z     vdW  Elec       q    Type
REMARK                         _______ _______ _______ _____ _____    ______ ____
ROOT
ATOM      1  N   UNL     1     -10.977  55.725  47.636  0.00  0.00    +0.000 N 
ATOM      2  C   UNL     1     -10.117  56.103  48.666  0.00  0.00    +0.000 A 
ATOM      3  C   UNL     1     -10.526  54.914  46.558  0.00  0.00    +0.000 A 
ATOM      4  O   UNL     1     -10.485  56.828  49.594  0.00  0.00    +0.000 OA
ATOM      5  C   UNL     1      -8.726  55.545  48.641  0.00  0.00    +0.000 A 
ATOM      6  C   UNL     1      -9.149  54.652  46.427  0.00  0.00    +0.000 A 
ATOM      7  C   UNL     1     -11.426  54.300  45.678  0.00  0.00    +0.000 A 
ATOM      8  C   UNL     1      -8.221  55.076  47.486  0.00  0.00    +0.000 A 
ATOM      9  C   UNL     1      -8.700  53.783  45.419  0.00  0.00    +0.000 A 
ATOM     10  C   UNL     1     -10.972  53.382  44.729  0.00  0.00    +0.000 A 
ATOM     11  C   UNL     1      -9.611  53.127  44.596  0.00  0.00    +0.000 A 
ENDROOT
BRANCH   5  12
ATOM     12  C   UNL     1      -7.906  55.538  49.900  0.00  0.00    +0.000 C 
ATOM     13  N   UNL     1      -8.361  54.946  50.982  0.00  0.00    +0.000 N 
ATOM     14  N   UNL     1      -6.635  56.103  49.869  0.00  0.00    +0.000 N 
ATOM     15  S   UNL     1      -7.280  54.805  52.228  0.00  0.00    +0.000 S 
ATOM     16  C   UNL     1      -5.684  55.072  50.123  0.00  0.00    +0.000 A 
ATOM     17  O   UNL     1      -7.666  53.671  53.048  0.00  0.00    +0.000 OA
ATOM     18  O   UNL     1      -7.028  56.109  52.796  0.00  0.00    +0.000 OA
ATOM     19  C   UNL     1      -5.817  54.355  51.319  0.00  0.00    +0.000 A 
ATOM     20  C   UNL     1      -4.986  54.517  49.049  0.00  0.00    +0.000 A 
ATOM     21  C   UNL     1      -5.190  53.138  51.505  0.00  0.00    +0.000 A 
ATOM     22  C   UNL     1      -4.427  53.253  49.194  0.00  0.00    +0.000 A 
ATOM     23  C   UNL     1      -4.497  52.586  50.425  0.00  0.00    +0.000 A 
ATOM     24  H   UNL     1      -9.283  54.608  51.048  0.00  0.00    +0.000 HD
ATOM     25  H   UNL     1      -6.429  57.051  49.701  0.00  0.00    +0.000 HD
ENDBRANCH   5  12
BRANCH   1  26
ATOM     26  N   UNL     1     -12.396  55.876  47.858  0.00  0.00    +0.000 N 
ATOM     27  H   UNL     1     -12.996  56.352  47.239  0.00  0.00    +0.000 HD
BRANCH  26  28
ATOM     28  C   UNL     1     -12.851  55.247  49.104  0.00  0.00    +0.000 C 
BRANCH  28  33
ATOM     29 BR   UNL     1     -15.239  59.026  53.063  0.00  0.00    +0.000 Br
ATOM     30  C   UNL     1     -14.709  57.520  52.056  0.00  0.00    +0.000 A 
ATOM     31  C   UNL     1     -13.503  56.887  52.340  0.00  0.00    +0.000 A 
ATOM     32  C   UNL     1     -15.518  57.054  51.023  0.00  0.00    +0.000 A 
ATOM     33  C   UNL     1     -13.079  55.835  51.533  0.00  0.00    +0.000 A 
ATOM     34  C   UNL     1     -15.003  56.129  50.116  0.00  0.00    +0.000 A 
ATOM     35  C   UNL     1     -13.712  55.626  50.301  0.00  0.00    +0.000 A 
ENDBRANCH  28  33
ENDBRANCH  26  28
ENDBRANCH   1  26
BRANCH   8  36
ATOM     36  O   UNL     1      -6.892  54.762  47.266  0.00  0.00    +0.000 OA
ATOM     37  H   UNL     1      -6.229  55.117  47.824  0.00  0.00    +0.000 HD
ENDBRANCH   8  36
TORSDOF 5
ENDMDL
