MODEL 1
REMARK VINA RESULT:      -9.7      0.000      0.000
REMARK  Name = 
REMARK  6 active torsions:
REMARK  status: ('A' for Active; 'I' for Inactive)
REMARK    1  A    between atoms: C_6  and  C_10
REMARK    2  A    between atoms: C_14  and  O_18
REMARK    3  A    between atoms: N_17  and  N_20
REMARK    4  A    between atoms: N_20  and  C_23
REMARK    5  A    between atoms: C_23  and  C_26
REMARK    6  A    between atoms: C_28  and  C_31
REMARK                            x       y       z     vdW  Elec       q    Type
REMARK                         _______ _______ _______ _____ _____    ______ ____
ROOT
ATOM      1  C   UNL     1      -9.076  54.696  50.115  0.00  0.00    +0.000 A 
ATOM      2  C   UNL     1     -10.453  55.222  50.367  0.00  0.00    +0.000 A 
ATOM      3  C   UNL     1      -8.732  54.243  48.898  0.00  0.00    +0.000 A 
ATOM      4  O   UNL     1     -10.683  55.648  51.503  0.00  0.00    +0.000 OA
ATOM      5  N   UNL     1     -11.370  55.212  49.308  0.00  0.00    +0.000 N 
ATOM      6  C   UNL     1      -9.687  54.293  47.784  0.00  0.00    +0.000 A 
ATOM      7  C   UNL     1     -10.988  54.779  47.999  0.00  0.00    +0.000 A 
ATOM      8  C   UNL     1      -9.309  53.880  46.494  0.00  0.00    +0.000 A 
ATOM      9  C   UNL     1     -11.881  54.842  46.912  0.00  0.00    +0.000 A 
ATOM     10  C   UNL     1     -10.200  53.957  45.426  0.00  0.00    +0.000 A 
ATOM     11  C   UNL     1     -11.486  54.439  45.635  0.00  0.00    +0.000 A 
ENDROOT
BRANCH   1  17
ATOM     12  S   UNL     1      -7.197  55.863  53.362  0.00  0.00    +0.000 S 
ATOM     13  O   UNL     1      -7.857  55.413  54.573  0.00  0.00    +0.000 OA
ATOM     14  O   UNL     1      -6.651  57.204  53.281  0.00  0.00    +0.000 OA
ATOM     15  N   UNL     1      -8.241  55.678  52.137  0.00  0.00    +0.000 N 
ATOM     16  C   UNL     1      -5.845  54.774  53.109  0.00  0.00    +0.000 A 
ATOM     17  C   UNL     1      -8.069  54.744  51.248  0.00  0.00    +0.000 C 
ATOM     18  C   UNL     1      -5.927  53.874  52.060  0.00  0.00    +0.000 A 
ATOM     19  C   UNL     1      -4.726  54.839  53.944  0.00  0.00    +0.000 A 
ATOM     20  N   UNL     1      -7.055  53.810  51.247  0.00  0.00    +0.000 N 
ATOM     21  C   UNL     1      -4.880  52.958  51.889  0.00  0.00    +0.000 A 
ATOM     22  C   UNL     1      -3.677  53.947  53.741  0.00  0.00    +0.000 A 
ATOM     23  C   UNL     1      -3.757  53.003  52.719  0.00  0.00    +0.000 A 
ATOM     24  H   UNL     1      -9.015  56.281  52.063  0.00  0.00    +0.000 HD
ATOM     25  H   UNL     1      -7.133  53.047  50.630  0.00  0.00    +0.000 HD
ENDBRANCH   1  17
BRANCH   3  26
ATOM     26  O   UNL     1      -7.482  53.743  48.578  0.00  0.00    +0.000 OA
ATOM     27  H   UNL     1      -6.893  53.483  49.259  0.00  0.00    +0.000 HD
ENDBRANCH   3  26
BRANCH   5  28
ATOM     28  N   UNL     1     -12.732  55.648  49.472  0.00  0.00    +0.000 N 
ATOM     29  H   UNL     1     -13.462  55.004  49.621  0.00  0.00    +0.000 HD
BRANCH  28  30
ATOM     30  C   UNL     1     -12.991  57.090  49.407  0.00  0.00    +0.000 C 
BRANCH  30  31
ATOM     31  C   UNL     1     -13.788  57.571  50.601  0.00  0.00    +0.000 A 
ATOM     32  C   UNL     1     -14.113  58.928  50.797  0.00  0.00    +0.000 A 
ATOM     33  C   UNL     1     -14.193  56.622  51.561  0.00  0.00    +0.000 A 
ATOM     34  C   UNL     1     -14.843  59.295  51.939  0.00  0.00    +0.000 A 
ATOM     35  C   UNL     1     -13.709  60.023  49.845  0.00  0.00    +0.000 C 
ATOM     36  C   UNL     1     -14.916  57.005  52.688  0.00  0.00    +0.000 A 
ATOM     37  C   UNL     1     -15.244  58.342  52.877  0.00  0.00    +0.000 A 
ENDBRANCH  30  31
ENDBRANCH  28  30
ENDBRANCH   5  28
TORSDOF 5
ENDMDL
MODEL 2
REMARK VINA RESULT:      -9.6      1.804      1.901
REMARK  Name = 
REMARK  6 active torsions:
REMARK  status: ('A' for Active; 'I' for Inactive)
REMARK    1  A    between atoms: C_6  and  C_10
REMARK    2  A    between atoms: C_14  and  O_18
REMARK    3  A    between atoms: N_17  and  N_20
REMARK    4  A    between atoms: N_20  and  C_23
REMARK    5  A    between atoms: C_23  and  C_26
REMARK    6  A    between atoms: C_28  and  C_31
REMARK                            x       y       z     vdW  Elec       q    Type
REMARK                         _______ _______ _______ _____ _____    ______ ____
ROOT
ATOM      1  C   UNL     1      -9.656  54.105  50.194  0.00  0.00    +0.000 A 
ATOM      2  C   UNL     1     -10.955  54.826  50.363  0.00  0.00    +0.000 A 
ATOM      3  C   UNL     1      -9.264  53.683  48.981  0.00  0.00    +0.000 A 
ATOM      4  O   UNL     1     -11.231  55.209  51.504  0.00  0.00    +0.000 OA
ATOM      5  N   UNL     1     -11.752  55.030  49.229  0.00  0.00    +0.000 N 
ATOM      6  C   UNL     1     -10.084  53.956  47.793  0.00  0.00    +0.000 A 
ATOM      7  C   UNL     1     -11.311  54.627  47.929  0.00  0.00    +0.000 A 
ATOM      8  C   UNL     1      -9.645  53.571  46.513  0.00  0.00    +0.000 A 
ATOM      9  C   UNL     1     -12.069  54.902  46.775  0.00  0.00    +0.000 A 
ATOM     10  C   UNL     1     -10.402  53.858  45.379  0.00  0.00    +0.000 A 
ATOM     11  C   UNL     1     -11.614  54.524  45.510  0.00  0.00    +0.000 A 
ENDROOT
BRANCH   1  17
ATOM     12  S   UNL     1      -6.671  54.531  52.712  0.00  0.00    +0.000 S 
ATOM     13  O   UNL     1      -6.834  55.688  53.571  0.00  0.00    +0.000 OA
ATOM     14  O   UNL     1      -5.372  54.214  52.151  0.00  0.00    +0.000 OA
ATOM     15  N   UNL     1      -7.719  54.678  51.486  0.00  0.00    +0.000 N 
ATOM     16  C   UNL     1      -7.134  53.139  53.676  0.00  0.00    +0.000 A 
ATOM     17  C   UNL     1      -8.773  53.919  51.413  0.00  0.00    +0.000 C 
ATOM     18  C   UNL     1      -8.324  52.503  53.362  0.00  0.00    +0.000 A 
ATOM     19  C   UNL     1      -6.309  52.698  54.712  0.00  0.00    +0.000 A 
ATOM     20  N   UNL     1      -9.144  52.965  52.336  0.00  0.00    +0.000 N 
ATOM     21  C   UNL     1      -8.734  51.430  54.165  0.00  0.00    +0.000 A 
ATOM     22  C   UNL     1      -6.710  51.608  55.480  0.00  0.00    +0.000 A 
ATOM     23  C   UNL     1      -7.924  50.980  55.211  0.00  0.00    +0.000 A 
ATOM     24  H   UNL     1      -7.556  55.350  50.785  0.00  0.00    +0.000 HD
ATOM     25  H   UNL     1     -10.049  52.584  52.266  0.00  0.00    +0.000 HD
ENDBRANCH   1  17
BRANCH   3  26
ATOM     26  O   UNL     1      -8.079  53.012  48.734  0.00  0.00    +0.000 OA
ATOM     27  H   UNL     1      -7.265  53.378  49.020  0.00  0.00    +0.000 HD
ENDBRANCH   3  26
BRANCH   5  28
ATOM     28  N   UNL     1     -13.042  55.666  49.305  0.00  0.00    +0.000 N 
ATOM     29  H   UNL     1     -13.874  55.139  49.299  0.00  0.00    +0.000 HD
BRANCH  28  30
ATOM     30  C   UNL     1     -13.067  57.130  49.389  0.00  0.00    +0.000 C 
BRANCH  30  31
ATOM     31  C   UNL     1     -13.860  57.608  50.588  0.00  0.00    +0.000 A 
ATOM     32  C   UNL     1     -14.113  58.972  50.831  0.00  0.00    +0.000 A 
ATOM     33  C   UNL     1     -14.334  56.647  51.503  0.00  0.00    +0.000 A 
ATOM     34  C   UNL     1     -14.844  59.335  51.974  0.00  0.00    +0.000 A 
ATOM     35  C   UNL     1     -13.633  60.079  49.930  0.00  0.00    +0.000 C 
ATOM     36  C   UNL     1     -15.056  57.026  52.632  0.00  0.00    +0.000 A 
ATOM     37  C   UNL     1     -15.314  58.371  52.867  0.00  0.00    +0.000 A 
ENDBRANCH  30  31
ENDBRANCH  28  30
ENDBRANCH   5  28
TORSDOF 5
ENDMDL
MODEL 3
REMARK VINA RESULT:      -9.6      2.555      7.091
REMARK  Name = 
REMARK  6 active torsions:
REMARK  status: ('A' for Active; 'I' for Inactive)
REMARK    1  A    between atoms: C_6  and  C_10
REMARK    2  A    between atoms: C_14  and  O_18
REMARK    3  A    between atoms: N_17  and  N_20
REMARK    4  A    between atoms: N_20  and  C_23
REMARK    5  A    between atoms: C_23  and  C_26
REMARK    6  A    between atoms: C_28  and  C_31
REMARK                            x       y       z     vdW  Elec       q    Type
REMARK                         _______ _______ _______ _____ _____    ______ ____
ROOT
ATOM      1  C   UNL     1     -11.714  55.860  48.797  0.00  0.00    +0.000 A 
ATOM      2  C   UNL     1     -10.753  55.128  49.678  0.00  0.00    +0.000 A 
ATOM      3  C   UNL     1     -11.788  55.579  47.486  0.00  0.00    +0.000 A 
ATOM      4  O   UNL     1     -10.767  55.423  50.877  0.00  0.00    +0.000 OA
ATOM      5  N   UNL     1      -9.926  54.160  49.095  0.00  0.00    +0.000 N 
ATOM      6  C   UNL     1     -10.955  54.520  46.901  0.00  0.00    +0.000 A 
ATOM      7  C   UNL     1     -10.041  53.822  47.709  0.00  0.00    +0.000 A 
ATOM      8  C   UNL     1     -11.075  54.179  45.541  0.00  0.00    +0.000 A 
ATOM      9  C   UNL     1      -9.270  52.793  47.135  0.00  0.00    +0.000 A 
ATOM     10  C   UNL     1     -10.312  53.152  44.989  0.00  0.00    +0.000 A 
ATOM     11  C   UNL     1      -9.411  52.459  45.786  0.00  0.00    +0.000 A 
ENDROOT
BRANCH   1  17
ATOM     12  S   UNL     1     -13.588  59.242  49.496  0.00  0.00    +0.000 S 
ATOM     13  O   UNL     1     -14.722  59.437  48.614  0.00  0.00    +0.000 OA
ATOM     14  O   UNL     1     -12.710  60.351  49.815  0.00  0.00    +0.000 OA
ATOM     15  N   UNL     1     -12.680  58.054  48.874  0.00  0.00    +0.000 N 
ATOM     16  C   UNL     1     -14.248  58.693  51.027  0.00  0.00    +0.000 A 
ATOM     17  C   UNL     1     -12.639  56.881  49.433  0.00  0.00    +0.000 C 
ATOM     18  C   UNL     1     -14.039  57.372  51.384  0.00  0.00    +0.000 A 
ATOM     19  C   UNL     1     -14.949  59.580  51.847  0.00  0.00    +0.000 A 
ATOM     20  N   UNL     1     -13.352  56.495  50.549  0.00  0.00    +0.000 N 
ATOM     21  C   UNL     1     -14.616  56.907  52.574  0.00  0.00    +0.000 A 
ATOM     22  C   UNL     1     -15.487  59.115  53.044  0.00  0.00    +0.000 A 
ATOM     23  C   UNL     1     -15.326  57.778  53.403  0.00  0.00    +0.000 A 
ATOM     24  H   UNL     1     -12.150  58.222  48.061  0.00  0.00    +0.000 HD
ATOM     25  H   UNL     1     -13.378  55.536  50.769  0.00  0.00    +0.000 HD
ENDBRANCH   1  17
BRANCH   3  26
ATOM     26  O   UNL     1     -12.648  56.205  46.601  0.00  0.00    +0.000 OA
ATOM     27  H   UNL     1     -12.560  56.058  45.679  0.00  0.00    +0.000 HD
ENDBRANCH   3  26
BRANCH   5  28
ATOM     28  N   UNL     1      -8.935  53.443  49.854  0.00  0.00    +0.000 N 
ATOM     29  H   UNL     1      -9.117  52.546  50.217  0.00  0.00    +0.000 HD
BRANCH  28  30
ATOM     30  C   UNL     1      -7.642  54.104  50.067  0.00  0.00    +0.000 C 
BRANCH  30  31
ATOM     31  C   UNL     1      -7.442  54.487  51.518  0.00  0.00    +0.000 A 
ATOM     32  C   UNL     1      -7.417  55.828  51.949  0.00  0.00    +0.000 A 
ATOM     33  C   UNL     1      -7.247  53.458  52.461  0.00  0.00    +0.000 A 
ATOM     34  C   UNL     1      -7.211  56.101  53.312  0.00  0.00    +0.000 A 
ATOM     35  C   UNL     1      -7.593  57.001  51.022  0.00  0.00    +0.000 C 
ATOM     36  C   UNL     1      -7.042  53.748  53.808  0.00  0.00    +0.000 A 
ATOM     37  C   UNL     1      -7.027  55.070  54.235  0.00  0.00    +0.000 A 
ENDBRANCH  30  31
ENDBRANCH  28  30
ENDBRANCH   5  28
TORSDOF 5
ENDMDL
MODEL 4
REMARK VINA RESULT:      -9.5      2.794      7.876
REMARK  Name = 
REMARK  6 active torsions:
REMARK  status: ('A' for Active; 'I' for Inactive)
REMARK    1  A    between atoms: C_6  and  C_10
REMARK    2  A    between atoms: C_14  and  O_18
REMARK    3  A    between atoms: N_17  and  N_20
REMARK    4  A    between atoms: N_20  and  C_23
REMARK    5  A    between atoms: C_23  and  C_26
REMARK    6  A    between atoms: C_28  and  C_31
REMARK                            x       y       z     vdW  Elec       q    Type
REMARK                         _______ _______ _______ _____ _____    ______ ____
ROOT
ATOM      1  C   UNL     1     -11.173  54.601  50.750  0.00  0.00    +0.000 A 
ATOM      2  C   UNL     1      -9.805  54.996  50.295  0.00  0.00    +0.000 A 
ATOM      3  C   UNL     1     -11.396  53.379  51.260  0.00  0.00    +0.000 A 
ATOM      4  O   UNL     1      -9.675  56.146  49.866  0.00  0.00    +0.000 OA
ATOM      5  N   UNL     1      -8.774  54.052  50.400  0.00  0.00    +0.000 N 
ATOM      6  C   UNL     1     -10.293  52.422  51.417  0.00  0.00    +0.000 A 
ATOM      7  C   UNL     1      -8.999  52.769  50.991  0.00  0.00    +0.000 A 
ATOM      8  C   UNL     1     -10.511  51.165  52.010  0.00  0.00    +0.000 A 
ATOM      9  C   UNL     1      -7.951  51.848  51.174  0.00  0.00    +0.000 A 
ATOM     10  C   UNL     1      -9.461  50.267  52.193  0.00  0.00    +0.000 A 
ATOM     11  C   UNL     1      -8.181  50.609  51.776  0.00  0.00    +0.000 A 
ENDROOT
BRANCH   1  17
ATOM     12  S   UNL     1     -13.690  57.244  49.294  0.00  0.00    +0.000 S 
ATOM     13  O   UNL     1     -14.846  56.623  48.677  0.00  0.00    +0.000 OA
ATOM     14  O   UNL     1     -13.053  58.388  48.671  0.00  0.00    +0.000 OA
ATOM     15  N   UNL     1     -12.563  56.096  49.493  0.00  0.00    +0.000 N 
ATOM     16  C   UNL     1     -14.215  57.787  50.879  0.00  0.00    +0.000 A 
ATOM     17  C   UNL     1     -12.282  55.634  50.675  0.00  0.00    +0.000 C 
ATOM     18  C   UNL     1     -13.739  57.105  51.986  0.00  0.00    +0.000 A 
ATOM     19  C   UNL     1     -15.076  58.881  50.996  0.00  0.00    +0.000 A 
ATOM     20  N   UNL     1     -12.894  56.007  51.853  0.00  0.00    +0.000 N 
ATOM     21  C   UNL     1     -14.201  57.491  53.252  0.00  0.00    +0.000 A 
ATOM     22  C   UNL     1     -15.500  59.277  52.261  0.00  0.00    +0.000 A 
ATOM     23  C   UNL     1     -15.069  58.577  53.387  0.00  0.00    +0.000 A 
ATOM     24  H   UNL     1     -12.085  55.745  48.708  0.00  0.00    +0.000 HD
ATOM     25  H   UNL     1     -12.723  55.460  52.653  0.00  0.00    +0.000 HD
ENDBRANCH   1  17
BRANCH   3  26
ATOM     26  O   UNL     1     -12.628  52.933  51.706  0.00  0.00    +0.000 OA
ATOM     27  H   UNL     1     -12.766  52.020  51.865  0.00  0.00    +0.000 HD
ENDBRANCH   3  26
BRANCH   5  28
ATOM     28  N   UNL     1      -7.439  54.325  49.937  0.00  0.00    +0.000 N 
ATOM     29  H   UNL     1      -7.044  53.823  49.187  0.00  0.00    +0.000 HD
BRANCH  28  30
ATOM     30  C   UNL     1      -6.687  55.377  50.629  0.00  0.00    +0.000 C 
BRANCH  30  31
ATOM     31  C   UNL     1      -6.418  55.015  52.075  0.00  0.00    +0.000 A 
ATOM     32  C   UNL     1      -5.315  54.231  52.465  0.00  0.00    +0.000 A 
ATOM     33  C   UNL     1      -7.325  55.461  53.056  0.00  0.00    +0.000 A 
ATOM     34  C   UNL     1      -5.144  53.926  53.826  0.00  0.00    +0.000 A 
ATOM     35  C   UNL     1      -4.300  53.686  51.495  0.00  0.00    +0.000 C 
ATOM     36  C   UNL     1      -7.140  55.148  54.401  0.00  0.00    +0.000 A 
ATOM     37  C   UNL     1      -6.047  54.382  54.787  0.00  0.00    +0.000 A 
ENDBRANCH  30  31
ENDBRANCH  28  30
ENDBRANCH   5  28
TORSDOF 5
ENDMDL
MODEL 5
REMARK VINA RESULT:      -9.5      2.887      8.673
REMARK  Name = 
REMARK  6 active torsions:
REMARK  status: ('A' for Active; 'I' for Inactive)
REMARK    1  A    between atoms: C_6  and  C_10
REMARK    2  A    between atoms: C_14  and  O_18
REMARK    3  A    between atoms: N_17  and  N_20
REMARK    4  A    between atoms: N_20  and  C_23
REMARK    5  A    between atoms: C_23  and  C_26
REMARK    6  A    between atoms: C_28  and  C_31
REMARK                            x       y       z     vdW  Elec       q    Type
REMARK                         _______ _______ _______ _____ _____    ______ ____
ROOT
ATOM      1  C   UNL     1     -10.114  54.554  52.182  0.00  0.00    +0.000 A 
ATOM      2  C   UNL     1      -8.753  55.133  51.969  0.00  0.00    +0.000 A 
ATOM      3  C   UNL     1     -10.276  53.450  52.930  0.00  0.00    +0.000 A 
ATOM      4  O   UNL     1      -8.691  56.165  51.294  0.00  0.00    +0.000 OA
ATOM      5  N   UNL     1      -7.658  54.484  52.554  0.00  0.00    +0.000 N 
ATOM      6  C   UNL     1      -9.125  52.815  53.585  0.00  0.00    +0.000 A 
ATOM      7  C   UNL     1      -7.835  53.339  53.394  0.00  0.00    +0.000 A 
ATOM      8  C   UNL     1      -9.300  51.697  54.420  0.00  0.00    +0.000 A 
ATOM      9  C   UNL     1      -6.748  52.731  54.050  0.00  0.00    +0.000 A 
ATOM     10  C   UNL     1      -8.215  51.111  55.071  0.00  0.00    +0.000 A 
ATOM     11  C   UNL     1      -6.940  51.629  54.886  0.00  0.00    +0.000 A 
ENDROOT
BRANCH   1  17
ATOM     12  S   UNL     1     -12.585  56.071  49.531  0.00  0.00    +0.000 S 
ATOM     13  O   UNL     1     -13.494  55.078  48.992  0.00  0.00    +0.000 OA
ATOM     14  O   UNL     1     -11.984  57.063  48.660  0.00  0.00    +0.000 OA
ATOM     15  N   UNL     1     -11.388  55.283  50.286  0.00  0.00    +0.000 N 
ATOM     16  C   UNL     1     -13.500  56.971  50.729  0.00  0.00    +0.000 A 
ATOM     17  C   UNL     1     -11.306  55.277  51.584  0.00  0.00    +0.000 C 
ATOM     18  C   UNL     1     -13.185  56.776  52.063  0.00  0.00    +0.000 A 
ATOM     19  C   UNL     1     -14.500  57.859  50.326  0.00  0.00    +0.000 A 
ATOM     20  N   UNL     1     -12.196  55.875  52.450  0.00  0.00    +0.000 N 
ATOM     21  C   UNL     1     -13.951  57.442  53.029  0.00  0.00    +0.000 A 
ATOM     22  C   UNL     1     -15.230  58.542  51.294  0.00  0.00    +0.000 A 
ATOM     23  C   UNL     1     -14.960  58.328  52.645  0.00  0.00    +0.000 A 
ATOM     24  H   UNL     1     -10.712  54.803  49.755  0.00  0.00    +0.000 HD
ATOM     25  H   UNL     1     -12.130  55.650  53.406  0.00  0.00    +0.000 HD
ENDBRANCH   1  17
BRANCH   3  26
ATOM     26  O   UNL     1     -11.498  52.850  53.180  0.00  0.00    +0.000 OA
ATOM     27  H   UNL     1     -12.267  53.377  53.275  0.00  0.00    +0.000 HD
ENDBRANCH   3  26
BRANCH   5  28
ATOM     28  N   UNL     1      -6.306  54.938  52.358  0.00  0.00    +0.000 N 
ATOM     29  H   UNL     1      -5.820  55.419  53.067  0.00  0.00    +0.000 HD
BRANCH  28  30
ATOM     30  C   UNL     1      -5.681  54.658  51.061  0.00  0.00    +0.000 C 
BRANCH  30  31
ATOM     31  C   UNL     1      -5.122  53.252  51.001  0.00  0.00    +0.000 A 
ATOM     32  C   UNL     1      -5.826  52.183  50.413  0.00  0.00    +0.000 A 
ATOM     33  C   UNL     1      -3.862  53.008  51.581  0.00  0.00    +0.000 A 
ATOM     34  C   UNL     1      -5.245  50.904  50.411  0.00  0.00    +0.000 A 
ATOM     35  C   UNL     1      -7.188  52.331  49.787  0.00  0.00    +0.000 C 
ATOM     36  C   UNL     1      -3.301  51.733  51.570  0.00  0.00    +0.000 A 
ATOM     37  C   UNL     1      -3.992  50.680  50.982  0.00  0.00    +0.000 A 
ENDBRANCH  30  31
ENDBRANCH  28  30
ENDBRANCH   5  28
TORSDOF 5
ENDMDL
MODEL 6
REMARK VINA RESULT:      -9.4      2.366      2.792
REMARK  Name = 
REMARK  6 active torsions:
REMARK  status: ('A' for Active; 'I' for Inactive)
REMARK    1  A    between atoms: C_6  and  C_10
REMARK    2  A    between atoms: C_14  and  O_18
REMARK    3  A    between atoms: N_17  and  N_20
REMARK    4  A    between atoms: N_20  and  C_23
REMARK    5  A    between atoms: C_23  and  C_26
REMARK    6  A    between atoms: C_28  and  C_31
REMARK                            x       y       z     vdW  Elec       q    Type
REMARK                         _______ _______ _______ _____ _____    ______ ____
ROOT
ATOM      1  C   UNL     1      -9.731  53.827  50.916  0.00  0.00    +0.000 A 
ATOM      2  C   UNL     1     -11.138  54.258  51.180  0.00  0.00    +0.000 A 
ATOM      3  C   UNL     1      -9.242  53.825  49.664  0.00  0.00    +0.000 A 
ATOM      4  O   UNL     1     -11.503  54.261  52.359  0.00  0.00    +0.000 OA
ATOM      5  N   UNL     1     -11.929  54.641  50.089  0.00  0.00    +0.000 N 
ATOM      6  C   UNL     1     -10.066  54.284  48.539  0.00  0.00    +0.000 A 
ATOM      7  C   UNL     1     -11.393  54.689  48.763  0.00  0.00    +0.000 A 
ATOM      8  C   UNL     1      -9.535  54.344  47.238  0.00  0.00    +0.000 A 
ATOM      9  C   UNL     1     -12.158  55.150  47.675  0.00  0.00    +0.000 A 
ATOM     10  C   UNL     1     -10.302  54.812  46.172  0.00  0.00    +0.000 A 
ATOM     11  C   UNL     1     -11.613  55.215  46.391  0.00  0.00    +0.000 A 
ENDROOT
BRANCH   1  17
ATOM     12  S   UNL     1      -6.637  53.624  53.329  0.00  0.00    +0.000 S 
ATOM     13  O   UNL     1      -6.547  54.774  54.208  0.00  0.00    +0.000 OA
ATOM     14  O   UNL     1      -5.443  53.075  52.717  0.00  0.00    +0.000 OA
ATOM     15  N   UNL     1      -7.678  53.992  52.143  0.00  0.00    +0.000 N 
ATOM     16  C   UNL     1      -7.327  52.328  54.291  0.00  0.00    +0.000 A 
ATOM     17  C   UNL     1      -8.860  53.451  52.099  0.00  0.00    +0.000 C 
ATOM     18  C   UNL     1      -8.627  51.938  54.013  0.00  0.00    +0.000 A 
ATOM     19  C   UNL     1      -6.568  51.716  55.291  0.00  0.00    +0.000 A 
ATOM     20  N   UNL     1      -9.376  52.568  53.023  0.00  0.00    +0.000 N 
ATOM     21  C   UNL     1      -9.208  50.948  54.816  0.00  0.00    +0.000 A 
ATOM     22  C   UNL     1      -7.145  50.709  56.059  0.00  0.00    +0.000 A 
ATOM     23  C   UNL     1      -8.466  50.330  55.826  0.00  0.00    +0.000 A 
ATOM     24  H   UNL     1      -7.412  54.634  51.446  0.00  0.00    +0.000 HD
ATOM     25  H   UNL     1     -10.340  52.369  52.981  0.00  0.00    +0.000 HD
ENDBRANCH   1  17
BRANCH   3  26
ATOM     26  O   UNL     1      -7.953  53.444  49.332  0.00  0.00    +0.000 OA
ATOM     27  H   UNL     1      -7.379  53.109  49.992  0.00  0.00    +0.000 HD
ENDBRANCH   3  26
BRANCH   5  28
ATOM     28  N   UNL     1     -13.310  55.019  50.241  0.00  0.00    +0.000 N 
ATOM     29  H   UNL     1     -13.998  54.710  49.608  0.00  0.00    +0.000 HD
BRANCH  28  30
ATOM     30  C   UNL     1     -13.650  55.884  51.375  0.00  0.00    +0.000 C 
BRANCH  30  31
ATOM     31  C   UNL     1     -13.969  57.295  50.927  0.00  0.00    +0.000 A 
ATOM     32  C   UNL     1     -14.661  58.210  51.745  0.00  0.00    +0.000 A 
ATOM     33  C   UNL     1     -13.580  57.690  49.632  0.00  0.00    +0.000 A 
ATOM     34  C   UNL     1     -14.932  59.496  51.250  0.00  0.00    +0.000 A 
ATOM     35  C   UNL     1     -15.141  57.882  53.134  0.00  0.00    +0.000 C 
ATOM     36  C   UNL     1     -13.858  58.970  49.157  0.00  0.00    +0.000 A 
ATOM     37  C   UNL     1     -14.532  59.875  49.967  0.00  0.00    +0.000 A 
ENDBRANCH  30  31
ENDBRANCH  28  30
ENDBRANCH   5  28
TORSDOF 5
ENDMDL
MODEL 7
REMARK VINA RESULT:      -9.4      1.236      1.840
REMARK  Name = 
REMARK  6 active torsions:
REMARK  status: ('A' for Active; 'I' for Inactive)
REMARK    1  A    between atoms: C_6  and  C_10
REMARK    2  A    between atoms: C_14  and  O_18
REMARK    3  A    between atoms: N_17  and  N_20
REMARK    4  A    between atoms: N_20  and  C_23
REMARK    5  A    between atoms: C_23  and  C_26
REMARK    6  A    between atoms: C_28  and  C_31
REMARK                            x       y       z     vdW  Elec       q    Type
REMARK                         _______ _______ _______ _____ _____    ______ ____
ROOT
ATOM      1  C   UNL     1      -9.199  54.083  49.554  0.00  0.00    +0.000 A 
ATOM      2  C   UNL     1     -10.153  55.227  49.423  0.00  0.00    +0.000 A 
ATOM      3  C   UNL     1      -9.081  53.177  48.569  0.00  0.00    +0.000 A 
ATOM      4  O   UNL     1     -10.181  56.033  50.358  0.00  0.00    +0.000 OA
ATOM      5  N   UNL     1     -10.926  55.314  48.259  0.00  0.00    +0.000 N 
ATOM      6  C   UNL     1      -9.857  53.316  47.329  0.00  0.00    +0.000 A 
ATOM      7  C   UNL     1     -10.764  54.380  47.187  0.00  0.00    +0.000 A 
ATOM      8  C   UNL     1      -9.688  52.405  46.271  0.00  0.00    +0.000 A 
ATOM      9  C   UNL     1     -11.479  54.509  45.981  0.00  0.00    +0.000 A 
ATOM     10  C   UNL     1     -10.396  52.551  45.080  0.00  0.00    +0.000 A 
ATOM     11  C   UNL     1     -11.291  53.603  44.935  0.00  0.00    +0.000 A 
ENDROOT
BRANCH   1  17
ATOM     12  S   UNL     1      -8.123  54.057  53.333  0.00  0.00    +0.000 S 
ATOM     13  O   UNL     1      -8.336  52.766  53.958  0.00  0.00    +0.000 OA
ATOM     14  O   UNL     1      -8.440  55.278  54.048  0.00  0.00    +0.000 OA
ATOM     15  N   UNL     1      -8.948  54.070  51.938  0.00  0.00    +0.000 N 
ATOM     16  C   UNL     1      -6.409  54.143  52.964  0.00  0.00    +0.000 A 
ATOM     17  C   UNL     1      -8.331  54.009  50.796  0.00  0.00    +0.000 C 
ATOM     18  C   UNL     1      -6.029  54.064  51.635  0.00  0.00    +0.000 A 
ATOM     19  C   UNL     1      -5.477  54.298  53.994  0.00  0.00    +0.000 A 
ATOM     20  N   UNL     1      -6.968  53.894  50.621  0.00  0.00    +0.000 N 
ATOM     21  C   UNL     1      -4.659  54.069  51.336  0.00  0.00    +0.000 A 
ATOM     22  C   UNL     1      -4.122  54.338  53.680  0.00  0.00    +0.000 A 
ATOM     23  C   UNL     1      -3.713  54.216  52.353  0.00  0.00    +0.000 A 
ATOM     24  H   UNL     1      -9.931  54.125  51.956  0.00  0.00    +0.000 HD
ATOM     25  H   UNL     1      -6.636  53.675  49.721  0.00  0.00    +0.000 HD
ENDBRANCH   1  17
BRANCH   3  26
ATOM     26  O   UNL     1      -8.223  52.092  48.606  0.00  0.00    +0.000 OA
ATOM     27  H   UNL     1      -7.611  51.955  47.910  0.00  0.00    +0.000 HD
ENDBRANCH   3  26
BRANCH   5  28
ATOM     28  N   UNL     1     -11.909  56.349  48.069  0.00  0.00    +0.000 N 
ATOM     29  H   UNL     1     -11.702  57.163  47.554  0.00  0.00    +0.000 HD
BRANCH  28  30
ATOM     30  C   UNL     1     -13.229  56.145  48.674  0.00  0.00    +0.000 C 
BRANCH  30  31
ATOM     31  C   UNL     1     -13.654  57.335  49.507  0.00  0.00    +0.000 A 
ATOM     32  C   UNL     1     -13.886  57.244  50.893  0.00  0.00    +0.000 A 
ATOM     33  C   UNL     1     -13.848  58.571  48.858  0.00  0.00    +0.000 A 
ATOM     34  C   UNL     1     -14.293  58.393  51.593  0.00  0.00    +0.000 A 
ATOM     35  C   UNL     1     -13.730  55.968  51.678  0.00  0.00    +0.000 C 
ATOM     36  C   UNL     1     -14.253  59.699  49.568  0.00  0.00    +0.000 A 
ATOM     37  C   UNL     1     -14.473  59.611  50.937  0.00  0.00    +0.000 A 
ENDBRANCH  30  31
ENDBRANCH  28  30
ENDBRANCH   5  28
TORSDOF 5
ENDMDL
MODEL 8
REMARK VINA RESULT:      -9.4      3.862      7.946
REMARK  Name = 
REMARK  6 active torsions:
REMARK  status: ('A' for Active; 'I' for Inactive)
REMARK    1  A    between atoms: C_6  and  C_10
REMARK    2  A    between atoms: C_14  and  O_18
REMARK    3  A    between atoms: N_17  and  N_20
REMARK    4  A    between atoms: N_20  and  C_23
REMARK    5  A    between atoms: C_23  and  C_26
REMARK    6  A    between atoms: C_28  and  C_31
REMARK                            x       y       z     vdW  Elec       q    Type
REMARK                         _______ _______ _______ _____ _____    ______ ____
ROOT
ATOM      1  C   UNL     1     -12.581  54.292  49.551  0.00  0.00    +0.000 A 
ATOM      2  C   UNL     1     -12.152  54.246  48.119  0.00  0.00    +0.000 A 
ATOM      3  C   UNL     1     -12.244  53.304  50.396  0.00  0.00    +0.000 A 
ATOM      4  O   UNL     1     -12.477  55.206  47.414  0.00  0.00    +0.000 OA
ATOM      5  N   UNL     1     -11.409  53.140  47.686  0.00  0.00    +0.000 N 
ATOM      6  C   UNL     1     -11.414  52.181  49.940  0.00  0.00    +0.000 A 
ATOM      7  C   UNL     1     -11.004  52.114  48.598  0.00  0.00    +0.000 A 
ATOM      8  C   UNL     1     -11.006  51.179  50.838  0.00  0.00    +0.000 A 
ATOM      9  C   UNL     1     -10.189  51.043  48.186  0.00  0.00    +0.000 A 
ATOM     10  C   UNL     1     -10.190  50.129  50.419  0.00  0.00    +0.000 A 
ATOM     11  C   UNL     1      -9.781  50.062  49.093  0.00  0.00    +0.000 A 
ENDROOT
BRANCH   1  17
ATOM     12  S   UNL     1     -15.382  56.492  51.210  0.00  0.00    +0.000 S 
ATOM     13  O   UNL     1     -15.232  56.582  52.650  0.00  0.00    +0.000 OA
ATOM     14  O   UNL     1     -16.696  56.323  50.621  0.00  0.00    +0.000 OA
ATOM     15  N   UNL     1     -14.446  55.274  50.694  0.00  0.00    +0.000 N 
ATOM     16  C   UNL     1     -14.749  57.994  50.559  0.00  0.00    +0.000 A 
ATOM     17  C   UNL     1     -13.351  55.507  50.032  0.00  0.00    +0.000 C 
ATOM     18  C   UNL     1     -13.547  57.945  49.873  0.00  0.00    +0.000 A 
ATOM     19  C   UNL     1     -15.458  59.185  50.728  0.00  0.00    +0.000 A 
ATOM     20  N   UNL     1     -12.843  56.753  49.727  0.00  0.00    +0.000 N 
ATOM     21  C   UNL     1     -13.002  59.148  49.404  0.00  0.00    +0.000 A 
ATOM     22  C   UNL     1     -14.924  60.369  50.225  0.00  0.00    +0.000 A 
ATOM     23  C   UNL     1     -13.694  60.350  49.570  0.00  0.00    +0.000 A 
ATOM     24  H   UNL     1     -14.709  54.345  50.884  0.00  0.00    +0.000 HD
ATOM     25  H   UNL     1     -11.922  56.802  49.383  0.00  0.00    +0.000 HD
ENDBRANCH   1  17
BRANCH   3  26
ATOM     26  O   UNL     1     -12.595  53.269  51.734  0.00  0.00    +0.000 OA
ATOM     27  H   UNL     1     -12.578  54.055  52.243  0.00  0.00    +0.000 HD
ENDBRANCH   3  26
BRANCH   5  28
ATOM     28  N   UNL     1     -11.000  52.984  46.315  0.00  0.00    +0.000 N 
ATOM     29  H   UNL     1     -11.325  52.234  45.765  0.00  0.00    +0.000 HD
BRANCH  28  30
ATOM     30  C   UNL     1     -10.076  53.984  45.769  0.00  0.00    +0.000 C 
BRANCH  30  31
ATOM     31  C   UNL     1      -8.745  53.971  46.490  0.00  0.00    +0.000 A 
ATOM     32  C   UNL     1      -7.765  52.989  46.250  0.00  0.00    +0.000 A 
ATOM     33  C   UNL     1      -8.498  54.966  47.456  0.00  0.00    +0.000 A 
ATOM     34  C   UNL     1      -6.561  53.037  46.972  0.00  0.00    +0.000 A 
ATOM     35  C   UNL     1      -7.938  51.870  45.257  0.00  0.00    +0.000 C 
ATOM     36  C   UNL     1      -7.298  54.998  48.164  0.00  0.00    +0.000 A 
ATOM     37  C   UNL     1      -6.327  54.034  47.920  0.00  0.00    +0.000 A 
ENDBRANCH  30  31
ENDBRANCH  28  30
ENDBRANCH   5  28
TORSDOF 5
ENDMDL
MODEL 9
REMARK VINA RESULT:      -9.2      1.897      2.267
REMARK  Name = 
REMARK  6 active torsions:
REMARK  status: ('A' for Active; 'I' for Inactive)
REMARK    1  A    between atoms: C_6  and  C_10
REMARK    2  A    between atoms: C_14  and  O_18
REMARK    3  A    between atoms: N_17  and  N_20
REMARK    4  A    between atoms: N_20  and  C_23
REMARK    5  A    between atoms: C_23  and  C_26
REMARK    6  A    between atoms: C_28  and  C_31
REMARK                            x       y       z     vdW  Elec       q    Type
REMARK                         _______ _______ _______ _____ _____    ______ ____
ROOT
ATOM      1  C   UNL     1      -9.716  53.726  49.793  0.00  0.00    +0.000 A 
ATOM      2  C   UNL     1     -10.556  54.961  49.864  0.00  0.00    +0.000 A 
ATOM      3  C   UNL     1      -9.663  53.001  48.663  0.00  0.00    +0.000 A 
ATOM      4  O   UNL     1     -10.529  55.588  50.927  0.00  0.00    +0.000 OA
ATOM      5  N   UNL     1     -11.293  55.326  48.730  0.00  0.00    +0.000 N 
ATOM      6  C   UNL     1     -10.396  53.431  47.465  0.00  0.00    +0.000 A 
ATOM      7  C   UNL     1     -11.195  54.585  47.510  0.00  0.00    +0.000 A 
ATOM      8  C   UNL     1     -10.290  52.709  46.262  0.00  0.00    +0.000 A 
ATOM      9  C   UNL     1     -11.869  54.994  46.344  0.00  0.00    +0.000 A 
ATOM     10  C   UNL     1     -10.956  53.131  45.112  0.00  0.00    +0.000 A 
ATOM     11  C   UNL     1     -11.745  54.274  45.153  0.00  0.00    +0.000 A 
ENDROOT
BRANCH   1  17
ATOM     12  S   UNL     1      -8.365  51.715  52.886  0.00  0.00    +0.000 S 
ATOM     13  O   UNL     1      -7.452  50.656  52.500  0.00  0.00    +0.000 OA
ATOM     14  O   UNL     1      -9.352  51.488  53.923  0.00  0.00    +0.000 OA
ATOM     15  N   UNL     1      -9.147  52.200  51.553  0.00  0.00    +0.000 N 
ATOM     16  C   UNL     1      -7.362  53.039  53.454  0.00  0.00    +0.000 A 
ATOM     17  C   UNL     1      -8.886  53.350  51.006  0.00  0.00    +0.000 C 
ATOM     18  C   UNL     1      -7.274  54.170  52.660  0.00  0.00    +0.000 A 
ATOM     19  C   UNL     1      -6.694  52.938  54.677  0.00  0.00    +0.000 A 
ATOM     20  N   UNL     1      -7.934  54.250  51.437  0.00  0.00    +0.000 N 
ATOM     21  C   UNL     1      -6.427  55.207  53.075  0.00  0.00    +0.000 A 
ATOM     22  C   UNL     1      -5.883  53.990  55.095  0.00  0.00    +0.000 A 
ATOM     23  C   UNL     1      -5.745  55.120  54.290  0.00  0.00    +0.000 A 
ATOM     24  H   UNL     1      -9.831  51.616  51.152  0.00  0.00    +0.000 HD
ATOM     25  H   UNL     1      -7.704  54.998  50.840  0.00  0.00    +0.000 HD
ENDBRANCH   1  17
BRANCH   3  26
ATOM     26  O   UNL     1      -8.911  51.849  48.510  0.00  0.00    +0.000 OA
ATOM     27  H   UNL     1      -8.046  51.805  48.867  0.00  0.00    +0.000 HD
ENDBRANCH   3  26
BRANCH   5  28
ATOM     28  N   UNL     1     -12.170  56.468  48.723  0.00  0.00    +0.000 N 
ATOM     29  H   UNL     1     -11.861  57.349  48.409  0.00  0.00    +0.000 HD
BRANCH  28  30
ATOM     30  C   UNL     1     -13.540  56.268  49.206  0.00  0.00    +0.000 C 
BRANCH  30  31
ATOM     31  C   UNL     1     -13.855  57.165  50.385  0.00  0.00    +0.000 A 
ATOM     32  C   UNL     1     -14.162  58.531  50.234  0.00  0.00    +0.000 A 
ATOM     33  C   UNL     1     -13.810  56.610  51.679  0.00  0.00    +0.000 A 
ATOM     34  C   UNL     1     -14.428  59.300  51.380  0.00  0.00    +0.000 A 
ATOM     35  C   UNL     1     -14.215  59.228  48.900  0.00  0.00    +0.000 C 
ATOM     36  C   UNL     1     -14.075  57.387  52.804  0.00  0.00    +0.000 A 
ATOM     37  C   UNL     1     -14.387  58.733  52.655  0.00  0.00    +0.000 A 
ENDBRANCH  30  31
ENDBRANCH  28  30
ENDBRANCH   5  28
TORSDOF 5
ENDMDL
