MODEL 1
REMARK VINA RESULT:      -8.0      0.000      0.000
REMARK  Name = 
REMARK  8 active torsions:
REMARK  status: ('A' for Active; 'I' for Inactive)
REMARK    1  A    between atoms: C_6  and  C_10
REMARK    2  A    between atoms: C_14  and  O_18
REMARK    3  A    between atoms: N_17  and  N_20
REMARK    4  A    between atoms: N_20  and  C_23
REMARK    5  A    between atoms: C_23  and  C_26
REMARK    6  A    between atoms: C_26  and  C_28
REMARK    7  A    between atoms: C_28  and  C_29
REMARK    8  A    between atoms: C_28  and  C_30
REMARK                            x       y       z     vdW  Elec       q    Type
REMARK                         _______ _______ _______ _____ _____    ______ ____
ROOT
ATOM      1  C   UNL     1     -10.089  54.437  52.261  0.00  0.00    +0.000 A 
ATOM      2  C   UNL     1      -8.721  55.014  52.139  0.00  0.00    +0.000 A 
ATOM      3  C   UNL     1     -10.303  53.327  52.986  0.00  0.00    +0.000 A 
ATOM      4  O   UNL     1      -8.610  56.043  51.467  0.00  0.00    +0.000 OA
ATOM      5  N   UNL     1      -7.673  54.378  52.815  0.00  0.00    +0.000 N 
ATOM      6  C   UNL     1      -9.193  52.672  53.688  0.00  0.00    +0.000 A 
ATOM      7  C   UNL     1      -7.892  53.199  53.592  0.00  0.00    +0.000 A 
ATOM      8  C   UNL     1      -9.428  51.542  54.490  0.00  0.00    +0.000 A 
ATOM      9  C   UNL     1      -6.850  52.568  54.287  0.00  0.00    +0.000 A 
ATOM     10  C   UNL     1      -8.392  50.949  55.204  0.00  0.00    +0.000 A 
ATOM     11  C   UNL     1      -7.104  51.458  55.100  0.00  0.00    +0.000 A 
ENDROOT
BRANCH   1  17
ATOM     12  S   UNL     1     -12.434  55.946  49.510  0.00  0.00    +0.000 S 
ATOM     13  O   UNL     1     -13.330  54.947  48.962  0.00  0.00    +0.000 OA
ATOM     14  O   UNL     1     -11.798  56.917  48.641  0.00  0.00    +0.000 OA
ATOM     15  N   UNL     1     -11.272  55.168  50.321  0.00  0.00    +0.000 N 
ATOM     16  C   UNL     1     -13.380  56.873  50.662  0.00  0.00    +0.000 A 
ATOM     17  C   UNL     1     -11.244  55.171  51.620  0.00  0.00    +0.000 C 
ATOM     18  C   UNL     1     -13.120  56.692  52.012  0.00  0.00    +0.000 A 
ATOM     19  C   UNL     1     -14.353  57.770  50.208  0.00  0.00    +0.000 A 
ATOM     20  N   UNL     1     -12.159  55.781  52.446  0.00  0.00    +0.000 N 
ATOM     21  C   UNL     1     -13.901  57.392  52.935  0.00  0.00    +0.000 A 
ATOM     22  C   UNL     1     -15.102  58.479  51.140  0.00  0.00    +0.000 A 
ATOM     23  C   UNL     1     -14.886  58.289  52.501  0.00  0.00    +0.000 A 
ATOM     24  H   UNL     1     -10.575  54.683  49.823  0.00  0.00    +0.000 HD
ATOM     25  H   UNL     1     -12.135  55.558  53.405  0.00  0.00    +0.000 HD
ENDBRANCH   1  17
BRANCH   3  26
ATOM     26  O   UNL     1     -11.545  52.745  53.173  0.00  0.00    +0.000 OA
ATOM     27  H   UNL     1     -11.805  52.459  54.027  0.00  0.00    +0.000 HD
ENDBRANCH   3  26
BRANCH   5  28
ATOM     28  N   UNL     1      -6.330  54.909  52.759  0.00  0.00    +0.000 N 
ATOM     29  H   UNL     1      -5.973  55.546  53.418  0.00  0.00    +0.000 HD
BRANCH  28  30
ATOM     30  C   UNL     1      -5.547  54.403  51.623  0.00  0.00    +0.000 C 
BRANCH  30  31
ATOM     31  C   UNL     1      -4.111  54.049  52.008  0.00  0.00    +0.000 C 
BRANCH  31  32
ATOM     32  C   UNL     1      -3.810  52.553  51.753  0.00  0.00    +0.000 C 
ATOM     33  C   UNL     1      -3.399  51.811  53.028  0.00  0.00    +0.000 C 
ATOM     34  C   UNL     1      -5.028  51.875  51.127  0.00  0.00    +0.000 C 
ENDBRANCH  31  32
ENDBRANCH  30  31
ENDBRANCH  28  30
ENDBRANCH   5  28
TORSDOF 6
ENDMDL
MODEL 2
REMARK VINA RESULT:      -7.8      3.826      5.332
REMARK  Name = 
REMARK  8 active torsions:
REMARK  status: ('A' for Active; 'I' for Inactive)
REMARK    1  A    between atoms: C_6  and  C_10
REMARK    2  A    between atoms: C_14  and  O_18
REMARK    3  A    between atoms: N_17  and  N_20
REMARK    4  A    between atoms: N_20  and  C_23
REMARK    5  A    between atoms: C_23  and  C_26
REMARK    6  A    between atoms: C_26  and  C_28
REMARK    7  A    between atoms: C_28  and  C_29
REMARK    8  A    between atoms: C_28  and  C_30
REMARK                            x       y       z     vdW  Elec       q    Type
REMARK                         _______ _______ _______ _____ _____    ______ ____
ROOT
ATOM      1  C   UNL     1     -10.679  55.667  48.140  0.00  0.00    +0.000 A 
ATOM      2  C   UNL     1      -9.215  55.779  48.394  0.00  0.00    +0.000 A 
ATOM      3  C   UNL     1     -11.140  54.999  47.070  0.00  0.00    +0.000 A 
ATOM      4  O   UNL     1      -8.871  56.396  49.406  0.00  0.00    +0.000 OA
ATOM      5  N   UNL     1      -8.339  55.152  47.499  0.00  0.00    +0.000 N 
ATOM      6  C   UNL     1     -10.208  54.349  46.141  0.00  0.00    +0.000 A 
ATOM      7  C   UNL     1      -8.822  54.437  46.361  0.00  0.00    +0.000 A 
ATOM      8  C   UNL     1     -10.695  53.606  45.052  0.00  0.00    +0.000 A 
ATOM      9  C   UNL     1      -7.950  53.792  45.470  0.00  0.00    +0.000 A 
ATOM     10  C   UNL     1      -9.821  52.940  44.198  0.00  0.00    +0.000 A 
ATOM     11  C   UNL     1      -8.450  53.036  44.404  0.00  0.00    +0.000 A 
ENDROOT
BRANCH   1  17
ATOM     12  S   UNL     1     -13.056  55.945  51.241  0.00  0.00    +0.000 S 
ATOM     13  O   UNL     1     -12.314  56.146  52.470  0.00  0.00    +0.000 OA
ATOM     14  O   UNL     1     -14.196  55.048  51.210  0.00  0.00    +0.000 OA
ATOM     15  N   UNL     1     -12.008  55.456  50.111  0.00  0.00    +0.000 N 
ATOM     16  C   UNL     1     -13.667  57.523  50.775  0.00  0.00    +0.000 A 
ATOM     17  C   UNL     1     -11.635  56.251  49.153  0.00  0.00    +0.000 C 
ATOM     18  C   UNL     1     -13.090  58.146  49.679  0.00  0.00    +0.000 A 
ATOM     19  C   UNL     1     -14.715  58.108  51.495  0.00  0.00    +0.000 A 
ATOM     20  N   UNL     1     -12.036  57.556  48.985  0.00  0.00    +0.000 N 
ATOM     21  C   UNL     1     -13.541  59.423  49.332  0.00  0.00    +0.000 A 
ATOM     22  C   UNL     1     -15.169  59.367  51.118  0.00  0.00    +0.000 A 
ATOM     23  C   UNL     1     -14.583  60.030  50.045  0.00  0.00    +0.000 A 
ATOM     24  H   UNL     1     -11.646  54.541  50.150  0.00  0.00    +0.000 HD
ATOM     25  H   UNL     1     -11.546  58.108  48.334  0.00  0.00    +0.000 HD
ENDBRANCH   1  17
BRANCH   3  26
ATOM     26  O   UNL     1     -12.482  54.825  46.778  0.00  0.00    +0.000 OA
ATOM     27  H   UNL     1     -13.135  55.115  47.385  0.00  0.00    +0.000 HD
ENDBRANCH   3  26
BRANCH   5  28
ATOM     28  N   UNL     1      -6.910  55.200  47.710  0.00  0.00    +0.000 N 
ATOM     29  H   UNL     1      -6.310  55.797  47.209  0.00  0.00    +0.000 HD
BRANCH  28  30
ATOM     30  C   UNL     1      -6.440  54.271  48.746  0.00  0.00    +0.000 C 
BRANCH  30  31
ATOM     31  C   UNL     1      -5.583  54.960  49.810  0.00  0.00    +0.000 C 
BRANCH  31  32
ATOM     32  C   UNL     1      -5.669  54.225  51.168  0.00  0.00    +0.000 C 
ATOM     33  C   UNL     1      -4.304  54.083  51.846  0.00  0.00    +0.000 C 
ATOM     34  C   UNL     1      -6.637  54.957  52.097  0.00  0.00    +0.000 C 
ENDBRANCH  31  32
ENDBRANCH  30  31
ENDBRANCH  28  30
ENDBRANCH   5  28
TORSDOF 6
ENDMDL
MODEL 3
REMARK VINA RESULT:      -7.8      1.929      2.408
REMARK  Name = 
REMARK  8 active torsions:
REMARK  status: ('A' for Active; 'I' for Inactive)
REMARK    1  A    between atoms: C_6  and  C_10
REMARK    2  A    between atoms: C_14  and  O_18
REMARK    3  A    between atoms: N_17  and  N_20
REMARK    4  A    between atoms: N_20  and  C_23
REMARK    5  A    between atoms: C_23  and  C_26
REMARK    6  A    between atoms: C_26  and  C_28
REMARK    7  A    between atoms: C_28  and  C_29
REMARK    8  A    between atoms: C_28  and  C_30
REMARK                            x       y       z     vdW  Elec       q    Type
REMARK                         _______ _______ _______ _____ _____    ______ ____
ROOT
ATOM      1  C   UNL     1     -11.114  54.659  50.936  0.00  0.00    +0.000 A 
ATOM      2  C   UNL     1      -9.715  55.086  50.649  0.00  0.00    +0.000 A 
ATOM      3  C   UNL     1     -11.376  53.413  51.361  0.00  0.00    +0.000 A 
ATOM      4  O   UNL     1      -9.555  56.252  50.277  0.00  0.00    +0.000 OA
ATOM      5  N   UNL     1      -8.686  54.160  50.855  0.00  0.00    +0.000 N 
ATOM      6  C   UNL     1     -10.285  52.454  51.571  0.00  0.00    +0.000 A 
ATOM      7  C   UNL     1      -8.956  52.833  51.311  0.00  0.00    +0.000 A 
ATOM      8  C   UNL     1     -10.557  51.167  52.067  0.00  0.00    +0.000 A 
ATOM      9  C   UNL     1      -7.928  51.906  51.536  0.00  0.00    +0.000 A 
ATOM     10  C   UNL     1      -9.524  50.270  52.322  0.00  0.00    +0.000 A 
ATOM     11  C   UNL     1      -8.212  50.637  52.053  0.00  0.00    +0.000 A 
ENDROOT
BRANCH   1  17
ATOM     12  S   UNL     1     -13.581  57.263  49.361  0.00  0.00    +0.000 S 
ATOM     13  O   UNL     1     -14.697  56.614  48.702  0.00  0.00    +0.000 OA
ATOM     14  O   UNL     1     -12.937  58.413  48.755  0.00  0.00    +0.000 OA
ATOM     15  N   UNL     1     -12.447  56.140  49.622  0.00  0.00    +0.000 N 
ATOM     16  C   UNL     1     -14.181  57.808  50.918  0.00  0.00    +0.000 A 
ATOM     17  C   UNL     1     -12.221  55.680  50.816  0.00  0.00    +0.000 C 
ATOM     18  C   UNL     1     -13.749  57.137  52.052  0.00  0.00    +0.000 A 
ATOM     19  C   UNL     1     -15.056  58.897  50.988  0.00  0.00    +0.000 A 
ATOM     20  N   UNL     1     -12.891  56.043  51.961  0.00  0.00    +0.000 N 
ATOM     21  C   UNL     1     -14.260  57.536  53.290  0.00  0.00    +0.000 A 
ATOM     22  C   UNL     1     -15.532  59.298  52.231  0.00  0.00    +0.000 A 
ATOM     23  C   UNL     1     -15.145  58.619  53.381  0.00  0.00    +0.000 A 
ATOM     24  H   UNL     1     -11.920  55.799  48.864  0.00  0.00    +0.000 HD
ATOM     25  H   UNL     1     -12.757  55.494  52.767  0.00  0.00    +0.000 HD
ENDBRANCH   1  17
BRANCH   3  26
ATOM     26  O   UNL     1     -12.641  52.946  51.676  0.00  0.00    +0.000 OA
ATOM     27  H   UNL     1     -13.100  53.298  52.413  0.00  0.00    +0.000 HD
ENDBRANCH   3  26
BRANCH   5  28
ATOM     28  N   UNL     1      -7.307  54.526  50.623  0.00  0.00    +0.000 N 
ATOM     29  H   UNL     1      -6.794  54.229  49.838  0.00  0.00    +0.000 HD
BRANCH  28  30
ATOM     30  C   UNL     1      -6.745  55.386  51.673  0.00  0.00    +0.000 C 
BRANCH  30  31
ATOM     31  C   UNL     1      -5.858  54.618  52.653  0.00  0.00    +0.000 C 
BRANCH  31  32
ATOM     32  C   UNL     1      -6.411  54.695  54.096  0.00  0.00    +0.000 C 
ATOM     33  C   UNL     1      -7.795  55.346  54.161  0.00  0.00    +0.000 C 
ATOM     34  C   UNL     1      -6.466  53.296  54.708  0.00  0.00    +0.000 C 
ENDBRANCH  31  32
ENDBRANCH  30  31
ENDBRANCH  28  30
ENDBRANCH   5  28
TORSDOF 6
ENDMDL
MODEL 4
REMARK VINA RESULT:      -7.7      2.773      8.254
REMARK  Name = 
REMARK  8 active torsions:
REMARK  status: ('A' for Active; 'I' for Inactive)
REMARK    1  A    between atoms: C_6  and  C_10
REMARK    2  A    between atoms: C_14  and  O_18
REMARK    3  A    between atoms: N_17  and  N_20
REMARK    4  A    between atoms: N_20  and  C_23
REMARK    5  A    between atoms: C_23  and  C_26
REMARK    6  A    between atoms: C_26  and  C_28
REMARK    7  A    between atoms: C_28  and  C_29
REMARK    8  A    between atoms: C_28  and  C_30
REMARK                            x       y       z     vdW  Elec       q    Type
REMARK                         _______ _______ _______ _____ _____    ______ ____
ROOT
ATOM      1  C   UNL     1      -9.895  54.358  50.952  0.00  0.00    +0.000 A 
ATOM      2  C   UNL     1     -11.054  55.231  51.292  0.00  0.00    +0.000 A 
ATOM      3  C   UNL     1      -9.616  54.056  49.674  0.00  0.00    +0.000 A 
ATOM      4  O   UNL     1     -11.236  55.475  52.488  0.00  0.00    +0.000 OA
ATOM      5  N   UNL     1     -11.828  55.740  50.242  0.00  0.00    +0.000 N 
ATOM      6  C   UNL     1     -10.438  54.597  48.586  0.00  0.00    +0.000 A 
ATOM      7  C   UNL     1     -11.535  55.426  48.879  0.00  0.00    +0.000 A 
ATOM      8  C   UNL     1     -10.111  54.323  47.247  0.00  0.00    +0.000 A 
ATOM      9  C   UNL     1     -12.295  55.947  47.821  0.00  0.00    +0.000 A 
ATOM     10  C   UNL     1     -10.851  54.877  46.206  0.00  0.00    +0.000 A 
ATOM     11  C   UNL     1     -11.944  55.685  46.493  0.00  0.00    +0.000 A 
ENDROOT
BRANCH   1  17
ATOM     12  S   UNL     1      -6.717  53.936  53.203  0.00  0.00    +0.000 S 
ATOM     13  O   UNL     1      -6.565  55.039  54.131  0.00  0.00    +0.000 OA
ATOM     14  O   UNL     1      -5.561  53.389  52.518  0.00  0.00    +0.000 OA
ATOM     15  N   UNL     1      -7.793  54.383  52.082  0.00  0.00    +0.000 N 
ATOM     16  C   UNL     1      -7.405  52.611  54.125  0.00  0.00    +0.000 A 
ATOM     17  C   UNL     1      -8.993  53.887  52.069  0.00  0.00    +0.000 C 
ATOM     18  C   UNL     1      -8.729  52.272  53.888  0.00  0.00    +0.000 A 
ATOM     19  C   UNL     1      -6.619  51.924  55.057  0.00  0.00    +0.000 A 
ATOM     20  N   UNL     1      -9.502  52.980  52.970  0.00  0.00    +0.000 N 
ATOM     21  C   UNL     1      -9.296  51.249  54.653  0.00  0.00    +0.000 A 
ATOM     22  C   UNL     1      -7.192  50.890  55.788  0.00  0.00    +0.000 A 
ATOM     23  C   UNL     1      -8.528  50.554  55.597  0.00  0.00    +0.000 A 
ATOM     24  H   UNL     1      -7.534  55.043  51.399  0.00  0.00    +0.000 HD
ATOM     25  H   UNL     1     -10.473  52.821  52.966  0.00  0.00    +0.000 HD
ENDBRANCH   1  17
BRANCH   3  26
ATOM     26  O   UNL     1      -8.544  53.277  49.274  0.00  0.00    +0.000 OA
ATOM     27  H   UNL     1      -7.985  53.569  48.581  0.00  0.00    +0.000 HD
ENDBRANCH   3  26
BRANCH   5  28
ATOM     28  N   UNL     1     -12.946  56.617  50.507  0.00  0.00    +0.000 N 
ATOM     29  H   UNL     1     -12.879  57.598  50.489  0.00  0.00    +0.000 HD
BRANCH  28  30
ATOM     30  C   UNL     1     -14.194  55.901  50.805  0.00  0.00    +0.000 C 
BRANCH  30  31
ATOM     31  C   UNL     1     -15.322  56.839  51.236  0.00  0.00    +0.000 C 
BRANCH  31  32
ATOM     32  C   UNL     1     -14.768  58.166  51.805  0.00  0.00    +0.000 C 
ATOM     33  C   UNL     1     -15.212  59.384  50.991  0.00  0.00    +0.000 C 
ATOM     34  C   UNL     1     -15.200  58.329  53.262  0.00  0.00    +0.000 C 
ENDBRANCH  31  32
ENDBRANCH  30  31
ENDBRANCH  28  30
ENDBRANCH   5  28
TORSDOF 6
ENDMDL
MODEL 5
REMARK VINA RESULT:      -7.7      3.902      4.887
REMARK  Name = 
REMARK  8 active torsions:
REMARK  status: ('A' for Active; 'I' for Inactive)
REMARK    1  A    between atoms: C_6  and  C_10
REMARK    2  A    between atoms: C_14  and  O_18
REMARK    3  A    between atoms: N_17  and  N_20
REMARK    4  A    between atoms: N_20  and  C_23
REMARK    5  A    between atoms: C_23  and  C_26
REMARK    6  A    between atoms: C_26  and  C_28
REMARK    7  A    between atoms: C_28  and  C_29
REMARK    8  A    between atoms: C_28  and  C_30
REMARK                            x       y       z     vdW  Elec       q    Type
REMARK                         _______ _______ _______ _____ _____    ______ ____
ROOT
ATOM      1  C   UNL     1     -12.525  54.296  49.550  0.00  0.00    +0.000 A 
ATOM      2  C   UNL     1     -12.024  54.270  48.148  0.00  0.00    +0.000 A 
ATOM      3  C   UNL     1     -12.228  53.302  50.404  0.00  0.00    +0.000 A 
ATOM      4  O   UNL     1     -12.328  55.227  47.430  0.00  0.00    +0.000 OA
ATOM      5  N   UNL     1     -11.220  53.193  47.753  0.00  0.00    +0.000 N 
ATOM      6  C   UNL     1     -11.385  52.180  49.973  0.00  0.00    +0.000 A 
ATOM      7  C   UNL     1     -10.896  52.134  48.655  0.00  0.00    +0.000 A 
ATOM      8  C   UNL     1     -11.031  51.170  50.883  0.00  0.00    +0.000 A 
ATOM      9  C   UNL     1     -10.077  51.062  48.272  0.00  0.00    +0.000 A 
ATOM     10  C   UNL     1     -10.187  50.132  50.500  0.00  0.00    +0.000 A 
ATOM     11  C   UNL     1      -9.713  50.075  49.195  0.00  0.00    +0.000 A 
ENDROOT
BRANCH   1  17
ATOM     12  S   UNL     1     -15.365  56.455  51.167  0.00  0.00    +0.000 S 
ATOM     13  O   UNL     1     -15.231  56.527  52.609  0.00  0.00    +0.000 OA
ATOM     14  O   UNL     1     -16.672  56.287  50.559  0.00  0.00    +0.000 OA
ATOM     15  N   UNL     1     -14.417  55.254  50.647  0.00  0.00    +0.000 N 
ATOM     16  C   UNL     1     -14.730  57.967  50.541  0.00  0.00    +0.000 A 
ATOM     17  C   UNL     1     -13.307  55.502  50.017  0.00  0.00    +0.000 C 
ATOM     18  C   UNL     1     -13.513  57.936  49.879  0.00  0.00    +0.000 A 
ATOM     19  C   UNL     1     -15.455  59.152  50.706  0.00  0.00    +0.000 A 
ATOM     20  N   UNL     1     -12.796  56.748  49.740  0.00  0.00    +0.000 N 
ATOM     21  C   UNL     1     -12.979  59.143  49.419  0.00  0.00    +0.000 A 
ATOM     22  C   UNL     1     -14.922  60.340  50.218  0.00  0.00    +0.000 A 
ATOM     23  C   UNL     1     -13.685  60.343  49.582  0.00  0.00    +0.000 A 
ATOM     24  H   UNL     1     -14.683  54.321  50.809  0.00  0.00    +0.000 HD
ATOM     25  H   UNL     1     -11.866  56.805  49.424  0.00  0.00    +0.000 HD
ENDBRANCH   1  17
BRANCH   3  26
ATOM     26  O   UNL     1     -12.630  53.265  51.728  0.00  0.00    +0.000 OA
ATOM     27  H   UNL     1     -13.504  53.006  51.945  0.00  0.00    +0.000 HD
ENDBRANCH   3  26
BRANCH   5  28
ATOM     28  N   UNL     1     -10.679  53.128  46.415  0.00  0.00    +0.000 N 
ATOM     29  H   UNL     1     -10.955  52.455  45.753  0.00  0.00    +0.000 HD
BRANCH  28  30
ATOM     30  C   UNL     1      -9.677  54.166  46.137  0.00  0.00    +0.000 C 
BRANCH  30  31
ATOM     31  C   UNL     1      -8.255  53.718  46.478  0.00  0.00    +0.000 C 
BRANCH  31  32
ATOM     32  C   UNL     1      -7.697  54.487  47.699  0.00  0.00    +0.000 C 
ATOM     33  C   UNL     1      -8.625  55.615  48.156  0.00  0.00    +0.000 C 
ATOM     34  C   UNL     1      -7.446  53.519  48.854  0.00  0.00    +0.000 C 
ENDBRANCH  31  32
ENDBRANCH  30  31
ENDBRANCH  28  30
ENDBRANCH   5  28
TORSDOF 6
ENDMDL
MODEL 6
REMARK VINA RESULT:      -7.7      3.634      7.591
REMARK  Name = 
REMARK  8 active torsions:
REMARK  status: ('A' for Active; 'I' for Inactive)
REMARK    1  A    between atoms: C_6  and  C_10
REMARK    2  A    between atoms: C_14  and  O_18
REMARK    3  A    between atoms: N_17  and  N_20
REMARK    4  A    between atoms: N_20  and  C_23
REMARK    5  A    between atoms: C_23  and  C_26
REMARK    6  A    between atoms: C_26  and  C_28
REMARK    7  A    between atoms: C_28  and  C_29
REMARK    8  A    between atoms: C_28  and  C_30
REMARK                            x       y       z     vdW  Elec       q    Type
REMARK                         _______ _______ _______ _____ _____    ______ ____
ROOT
ATOM      1  C   UNL     1     -10.202  55.264  50.740  0.00  0.00    +0.000 A 
ATOM      2  C   UNL     1      -9.766  55.181  49.318  0.00  0.00    +0.000 A 
ATOM      3  C   UNL     1     -11.416  55.743  51.059  0.00  0.00    +0.000 A 
ATOM      4  O   UNL     1      -8.642  54.716  49.107  0.00  0.00    +0.000 OA
ATOM      5  N   UNL     1     -10.662  55.598  48.326  0.00  0.00    +0.000 N 
ATOM      6  C   UNL     1     -12.343  56.176  50.007  0.00  0.00    +0.000 A 
ATOM      7  C   UNL     1     -11.957  56.105  48.656  0.00  0.00    +0.000 A 
ATOM      8  C   UNL     1     -13.632  56.626  50.339  0.00  0.00    +0.000 A 
ATOM      9  C   UNL     1     -12.867  56.507  47.667  0.00  0.00    +0.000 A 
ATOM     10  C   UNL     1     -14.538  56.986  49.345  0.00  0.00    +0.000 A 
ATOM     11  C   UNL     1     -14.155  56.930  48.012  0.00  0.00    +0.000 A 
ENDROOT
BRANCH   1  17
ATOM     12  S   UNL     1      -7.044  54.813  53.014  0.00  0.00    +0.000 S 
ATOM     13  O   UNL     1      -7.013  55.786  54.088  0.00  0.00    +0.000 OA
ATOM     14  O   UNL     1      -5.830  54.470  52.299  0.00  0.00    +0.000 OA
ATOM     15  N   UNL     1      -8.134  55.316  51.931  0.00  0.00    +0.000 N 
ATOM     16  C   UNL     1      -7.628  53.318  53.724  0.00  0.00    +0.000 A 
ATOM     17  C   UNL     1      -9.284  54.723  51.811  0.00  0.00    +0.000 C 
ATOM     18  C   UNL     1      -8.910  52.901  53.401  0.00  0.00    +0.000 A 
ATOM     19  C   UNL     1      -6.801  52.580  54.578  0.00  0.00    +0.000 A 
ATOM     20  N   UNL     1      -9.725  53.659  52.563  0.00  0.00    +0.000 N 
ATOM     21  C   UNL     1      -9.397  51.736  54.000  0.00  0.00    +0.000 A 
ATOM     22  C   UNL     1      -7.292  51.408  55.143  0.00  0.00    +0.000 A 
ATOM     23  C   UNL     1      -8.588  50.986  54.864  0.00  0.00    +0.000 A 
ATOM     24  H   UNL     1      -7.923  56.084  51.352  0.00  0.00    +0.000 HD
ATOM     25  H   UNL     1     -10.678  53.418  52.506  0.00  0.00    +0.000 HD
ENDBRANCH   1  17
BRANCH   3  26
ATOM     26  O   UNL     1     -11.907  55.826  52.350  0.00  0.00    +0.000 OA
ATOM     27  H   UNL     1     -11.341  55.662  53.078  0.00  0.00    +0.000 HD
ENDBRANCH   3  26
BRANCH   5  28
ATOM     28  N   UNL     1     -10.308  55.513  46.929  0.00  0.00    +0.000 N 
ATOM     29  H   UNL     1     -10.032  56.291  46.393  0.00  0.00    +0.000 HD
BRANCH  28  30
ATOM     30  C   UNL     1     -10.396  54.151  46.383  0.00  0.00    +0.000 C 
BRANCH  30  31
ATOM     31  C   UNL     1     -11.475  54.016  45.307  0.00  0.00    +0.000 C 
BRANCH  31  32
ATOM     32  C   UNL     1     -11.107  52.928  44.272  0.00  0.00    +0.000 C 
ATOM     33  C   UNL     1      -9.603  52.866  43.993  0.00  0.00    +0.000 C 
ATOM     34  C   UNL     1     -11.603  51.564  44.751  0.00  0.00    +0.000 C 
ENDBRANCH  31  32
ENDBRANCH  30  31
ENDBRANCH  28  30
ENDBRANCH   5  28
TORSDOF 6
ENDMDL
MODEL 7
REMARK VINA RESULT:      -7.7      3.342      5.103
REMARK  Name = 
REMARK  8 active torsions:
REMARK  status: ('A' for Active; 'I' for Inactive)
REMARK    1  A    between atoms: C_6  and  C_10
REMARK    2  A    between atoms: C_14  and  O_18
REMARK    3  A    between atoms: N_17  and  N_20
REMARK    4  A    between atoms: N_20  and  C_23
REMARK    5  A    between atoms: C_23  and  C_26
REMARK    6  A    between atoms: C_26  and  C_28
REMARK    7  A    between atoms: C_28  and  C_29
REMARK    8  A    between atoms: C_28  and  C_30
REMARK                            x       y       z     vdW  Elec       q    Type
REMARK                         _______ _______ _______ _____ _____    ______ ____
ROOT
ATOM      1  C   UNL     1     -11.593  55.904  48.860  0.00  0.00    +0.000 A 
ATOM      2  C   UNL     1     -10.619  55.208  49.747  0.00  0.00    +0.000 A 
ATOM      3  C   UNL     1     -11.666  55.603  47.553  0.00  0.00    +0.000 A 
ATOM      4  O   UNL     1     -10.623  55.530  50.938  0.00  0.00    +0.000 OA
ATOM      5  N   UNL     1      -9.800  54.221  49.185  0.00  0.00    +0.000 N 
ATOM      6  C   UNL     1     -10.800  54.566  46.979  0.00  0.00    +0.000 A 
ATOM      7  C   UNL     1      -9.875  53.892  47.796  0.00  0.00    +0.000 A 
ATOM      8  C   UNL     1     -10.917  54.215  45.624  0.00  0.00    +0.000 A 
ATOM      9  C   UNL     1      -9.071  52.892  47.230  0.00  0.00    +0.000 A 
ATOM     10  C   UNL     1     -10.139  53.195  45.083  0.00  0.00    +0.000 A 
ATOM     11  C   UNL     1      -9.215  52.537  45.884  0.00  0.00    +0.000 A 
ENDROOT
BRANCH   1  17
ATOM     12  S   UNL     1     -13.575  59.225  49.480  0.00  0.00    +0.000 S 
ATOM     13  O   UNL     1     -14.702  59.354  48.579  0.00  0.00    +0.000 OA
ATOM     14  O   UNL     1     -12.744  60.375  49.786  0.00  0.00    +0.000 OA
ATOM     15  N   UNL     1     -12.615  58.060  48.900  0.00  0.00    +0.000 N 
ATOM     16  C   UNL     1     -14.233  58.681  51.013  0.00  0.00    +0.000 A 
ATOM     17  C   UNL     1     -12.551  56.897  49.476  0.00  0.00    +0.000 C 
ATOM     18  C   UNL     1     -13.986  57.372  51.399  0.00  0.00    +0.000 A 
ATOM     19  C   UNL     1     -14.970  59.563  51.811  0.00  0.00    +0.000 A 
ATOM     20  N   UNL     1     -13.266  56.502  50.582  0.00  0.00    +0.000 N 
ATOM     21  C   UNL     1     -14.547  56.919  52.596  0.00  0.00    +0.000 A 
ATOM     22  C   UNL     1     -15.496  59.103  53.013  0.00  0.00    +0.000 A 
ATOM     23  C   UNL     1     -15.295  57.784  53.406  0.00  0.00    +0.000 A 
ATOM     24  H   UNL     1     -12.072  58.235  48.098  0.00  0.00    +0.000 HD
ATOM     25  H   UNL     1     -13.269  55.545  50.811  0.00  0.00    +0.000 HD
ENDBRANCH   1  17
BRANCH   3  26
ATOM     26  O   UNL     1     -12.561  56.181  46.669  0.00  0.00    +0.000 OA
ATOM     27  H   UNL     1     -12.355  57.000  46.263  0.00  0.00    +0.000 HD
ENDBRANCH   3  26
BRANCH   5  28
ATOM     28  N   UNL     1      -8.858  53.490  50.001  0.00  0.00    +0.000 N 
ATOM     29  H   UNL     1      -9.045  52.600  50.375  0.00  0.00    +0.000 HD
BRANCH  28  30
ATOM     30  C   UNL     1      -7.593  54.205  50.218  0.00  0.00    +0.000 C 
BRANCH  30  31
ATOM     31  C   UNL     1      -7.220  54.308  51.697  0.00  0.00    +0.000 C 
BRANCH  31  32
ATOM     32  C   UNL     1      -7.632  55.676  52.290  0.00  0.00    +0.000 C 
ATOM     33  C   UNL     1      -6.860  56.019  53.567  0.00  0.00    +0.000 C 
ATOM     34  C   UNL     1      -7.431  56.777  51.250  0.00  0.00    +0.000 C 
ENDBRANCH  31  32
ENDBRANCH  30  31
ENDBRANCH  28  30
ENDBRANCH   5  28
TORSDOF 6
ENDMDL
MODEL 8
REMARK VINA RESULT:      -7.6      2.967      8.384
REMARK  Name = 
REMARK  8 active torsions:
REMARK  status: ('A' for Active; 'I' for Inactive)
REMARK    1  A    between atoms: C_6  and  C_10
REMARK    2  A    between atoms: C_14  and  O_18
REMARK    3  A    between atoms: N_17  and  N_20
REMARK    4  A    between atoms: N_20  and  C_23
REMARK    5  A    between atoms: C_23  and  C_26
REMARK    6  A    between atoms: C_26  and  C_28
REMARK    7  A    between atoms: C_28  and  C_29
REMARK    8  A    between atoms: C_28  and  C_30
REMARK                            x       y       z     vdW  Elec       q    Type
REMARK                         _______ _______ _______ _____ _____    ______ ____
ROOT
ATOM      1  C   UNL     1      -9.029  54.483  50.361  0.00  0.00    +0.000 A 
ATOM      2  C   UNL     1     -10.446  54.418  50.816  0.00  0.00    +0.000 A 
ATOM      3  C   UNL     1      -8.730  54.518  49.052  0.00  0.00    +0.000 A 
ATOM      4  O   UNL     1     -10.638  54.405  52.035  0.00  0.00    +0.000 OA
ATOM      5  N   UNL     1     -11.453  54.415  49.844  0.00  0.00    +0.000 N 
ATOM      6  C   UNL     1      -9.798  54.512  48.045  0.00  0.00    +0.000 A 
ATOM      7  C   UNL     1     -11.144  54.456  48.449  0.00  0.00    +0.000 A 
ATOM      8  C   UNL     1      -9.485  54.603  46.679  0.00  0.00    +0.000 A 
ATOM      9  C   UNL     1     -12.148  54.471  47.470  0.00  0.00    +0.000 A 
ATOM     10  C   UNL     1     -10.492  54.655  45.720  0.00  0.00    +0.000 A 
ATOM     11  C   UNL     1     -11.822  54.585  46.115  0.00  0.00    +0.000 A 
ENDROOT
BRANCH   1  17
ATOM     12  S   UNL     1      -7.027  55.705  53.498  0.00  0.00    +0.000 S 
ATOM     13  O   UNL     1      -7.539  55.123  54.722  0.00  0.00    +0.000 OA
ATOM     14  O   UNL     1      -6.634  57.101  53.458  0.00  0.00    +0.000 OA
ATOM     15  N   UNL     1      -8.132  55.466  52.343  0.00  0.00    +0.000 N 
ATOM     16  C   UNL     1      -5.591  54.786  53.083  0.00  0.00    +0.000 A 
ATOM     17  C   UNL     1      -7.938  54.591  51.402  0.00  0.00    +0.000 C 
ATOM     18  C   UNL     1      -5.660  53.927  51.997  0.00  0.00    +0.000 A 
ATOM     19  C   UNL     1      -4.419  54.942  53.832  0.00  0.00    +0.000 A 
ATOM     20  N   UNL     1      -6.841  53.771  51.274  0.00  0.00    +0.000 N 
ATOM     21  C   UNL     1      -4.535  53.158  51.690  0.00  0.00    +0.000 A 
ATOM     22  C   UNL     1      -3.300  54.189  53.494  0.00  0.00    +0.000 A 
ATOM     23  C   UNL     1      -3.354  53.292  52.432  0.00  0.00    +0.000 A 
ATOM     24  H   UNL     1      -8.964  55.991  52.352  0.00  0.00    +0.000 HD
ATOM     25  H   UNL     1      -6.894  53.027  50.632  0.00  0.00    +0.000 HD
ENDBRANCH   1  17
BRANCH   3  26
ATOM     26  O   UNL     1      -7.443  54.607  48.548  0.00  0.00    +0.000 OA
ATOM     27  H   UNL     1      -7.105  53.923  48.004  0.00  0.00    +0.000 HD
ENDBRANCH   3  26
BRANCH   5  28
ATOM     28  N   UNL     1     -12.846  54.384  50.225  0.00  0.00    +0.000 N 
ATOM     29  H   UNL     1     -13.333  53.553  50.427  0.00  0.00    +0.000 HD
BRANCH  28  30
ATOM     30  C   UNL     1     -13.467  55.714  50.284  0.00  0.00    +0.000 C 
BRANCH  30  31
ATOM     31  C   UNL     1     -13.470  56.302  51.696  0.00  0.00    +0.000 C 
BRANCH  31  32
ATOM     32  C   UNL     1     -14.901  56.670  52.153  0.00  0.00    +0.000 C 
ATOM     33  C   UNL     1     -14.959  58.022  52.867  0.00  0.00    +0.000 C 
ATOM     34  C   UNL     1     -15.846  56.675  50.952  0.00  0.00    +0.000 C 
ENDBRANCH  31  32
ENDBRANCH  30  31
ENDBRANCH  28  30
ENDBRANCH   5  28
TORSDOF 6
ENDMDL
MODEL 9
REMARK VINA RESULT:      -7.5      2.655      8.409
REMARK  Name = 
REMARK  8 active torsions:
REMARK  status: ('A' for Active; 'I' for Inactive)
REMARK    1  A    between atoms: C_6  and  C_10
REMARK    2  A    between atoms: C_14  and  O_18
REMARK    3  A    between atoms: N_17  and  N_20
REMARK    4  A    between atoms: N_20  and  C_23
REMARK    5  A    between atoms: C_23  and  C_26
REMARK    6  A    between atoms: C_26  and  C_28
REMARK    7  A    between atoms: C_28  and  C_29
REMARK    8  A    between atoms: C_28  and  C_30
REMARK                            x       y       z     vdW  Elec       q    Type
REMARK                         _______ _______ _______ _____ _____    ______ ____
ROOT
ATOM      1  C   UNL     1      -9.902  55.014  50.400  0.00  0.00    +0.000 A 
ATOM      2  C   UNL     1     -10.972  55.077  51.435  0.00  0.00    +0.000 A 
ATOM      3  C   UNL     1     -10.159  55.350  49.126  0.00  0.00    +0.000 A 
ATOM      4  O   UNL     1     -10.652  54.767  52.586  0.00  0.00    +0.000 OA
ATOM      5  N   UNL     1     -12.244  55.515  51.045  0.00  0.00    +0.000 N 
ATOM      6  C   UNL     1     -11.498  55.806  48.733  0.00  0.00    +0.000 A 
ATOM      7  C   UNL     1     -12.525  55.879  49.692  0.00  0.00    +0.000 A 
ATOM      8  C   UNL     1     -11.751  56.209  47.411  0.00  0.00    +0.000 A 
ATOM      9  C   UNL     1     -13.792  56.335  49.298  0.00  0.00    +0.000 A 
ATOM     10  C   UNL     1     -13.002  56.695  47.043  0.00  0.00    +0.000 A 
ATOM     11  C   UNL     1     -14.022  56.755  47.984  0.00  0.00    +0.000 A 
ENDROOT
BRANCH   1  17
ATOM     12  S   UNL     1      -6.427  53.207  50.498  0.00  0.00    +0.000 S 
ATOM     13  O   UNL     1      -5.515  53.745  49.509  0.00  0.00    +0.000 OA
ATOM     14  O   UNL     1      -6.497  51.777  50.732  0.00  0.00    +0.000 OA
ATOM     15  N   UNL     1      -7.913  53.723  50.123  0.00  0.00    +0.000 N 
ATOM     16  C   UNL     1      -5.967  53.927  52.031  0.00  0.00    +0.000 A 
ATOM     17  C   UNL     1      -8.502  54.642  50.829  0.00  0.00    +0.000 C 
ATOM     18  C   UNL     1      -6.808  54.884  52.578  0.00  0.00    +0.000 A 
ATOM     19  C   UNL     1      -4.790  53.522  52.669  0.00  0.00    +0.000 A 
ATOM     20  N   UNL     1      -7.967  55.289  51.919  0.00  0.00    +0.000 N 
ATOM     21  C   UNL     1      -6.424  55.495  53.775  0.00  0.00    +0.000 A 
ATOM     22  C   UNL     1      -4.438  54.120  53.874  0.00  0.00    +0.000 A 
ATOM     23  C   UNL     1      -5.244  55.109  54.426  0.00  0.00    +0.000 A 
ATOM     24  H   UNL     1      -8.380  53.335  49.349  0.00  0.00    +0.000 HD
ATOM     25  H   UNL     1      -8.433  56.089  52.253  0.00  0.00    +0.000 HD
ENDBRANCH   1  17
BRANCH   3  26
ATOM     26  O   UNL     1      -9.216  55.346  48.112  0.00  0.00    +0.000 OA
ATOM     27  H   UNL     1      -9.441  55.670  47.262  0.00  0.00    +0.000 HD
ENDBRANCH   3  26
BRANCH   5  28
ATOM     28  N   UNL     1     -13.313  55.627  52.010  0.00  0.00    +0.000 N 
ATOM     29  H   UNL     1     -13.945  54.898  52.202  0.00  0.00    +0.000 HD
BRANCH  28  30
ATOM     30  C   UNL     1     -13.366  56.934  52.677  0.00  0.00    +0.000 C 
BRANCH  30  31
ATOM     31  C   UNL     1     -14.784  57.502  52.750  0.00  0.00    +0.000 C 
BRANCH  31  32
ATOM     32  C   UNL     1     -14.796  59.028  52.499  0.00  0.00    +0.000 C 
ATOM     33  C   UNL     1     -15.128  59.381  51.047  0.00  0.00    +0.000 C 
ATOM     34  C   UNL     1     -15.794  59.704  53.438  0.00  0.00    +0.000 C 
ENDBRANCH  31  32
ENDBRANCH  30  31
ENDBRANCH  28  30
ENDBRANCH   5  28
TORSDOF 6
ENDMDL
