MODEL 1
REMARK VINA RESULT:      -7.8      0.000      0.000
REMARK  Name = 
REMARK  9 active torsions:
REMARK  status: ('A' for Active; 'I' for Inactive)
REMARK    1  A    between atoms: C_6  and  C_10
REMARK    2  A    between atoms: C_14  and  O_18
REMARK    3  A    between atoms: N_17  and  N_20
REMARK    4  A    between atoms: N_20  and  C_23
REMARK    5  A    between atoms: C_23  and  C_26
REMARK    6  A    between atoms: C_23  and  C_27
REMARK    7  A    between atoms: C_26  and  C_29
REMARK    8  A    between atoms: C_27  and  C_30
REMARK    9  A    between atoms: C_29  and  C_31
REMARK                            x       y       z     vdW  Elec       q    Type
REMARK                         _______ _______ _______ _____ _____    ______ ____
ROOT
ATOM      1  C   UNL     1     -12.392  54.324  49.610  0.00  0.00    +0.000 A 
ATOM      2  C   UNL     1     -11.690  54.267  48.290  0.00  0.00    +0.000 A 
ATOM      3  C   UNL     1     -12.178  53.344  50.507  0.00  0.00    +0.000 A 
ATOM      4  O   UNL     1     -12.141  54.949  47.363  0.00  0.00    +0.000 OA
ATOM      5  N   UNL     1     -10.512  53.501  48.235  0.00  0.00    +0.000 N 
ATOM      6  C   UNL     1     -11.190  52.291  50.250  0.00  0.00    +0.000 A 
ATOM      7  C   UNL     1     -10.320  52.407  49.150  0.00  0.00    +0.000 A 
ATOM      8  C   UNL     1     -11.061  51.205  51.138  0.00  0.00    +0.000 A 
ATOM      9  C   UNL     1      -9.332  51.421  48.982  0.00  0.00    +0.000 A 
ATOM     10  C   UNL     1     -10.076  50.243  50.957  0.00  0.00    +0.000 A 
ATOM     11  C   UNL     1      -9.209  50.353  49.879  0.00  0.00    +0.000 A 
ENDROOT
BRANCH   1  17
ATOM     12  S   UNL     1     -15.353  56.405  51.135  0.00  0.00    +0.000 S 
ATOM     13  O   UNL     1     -15.206  56.467  52.576  0.00  0.00    +0.000 OA
ATOM     14  O   UNL     1     -16.657  56.192  50.542  0.00  0.00    +0.000 OA
ATOM     15  N   UNL     1     -14.372  55.248  50.590  0.00  0.00    +0.000 N 
ATOM     16  C   UNL     1     -14.778  57.939  50.524  0.00  0.00    +0.000 A 
ATOM     17  C   UNL     1     -13.277  55.519  49.938  0.00  0.00    +0.000 C 
ATOM     18  C   UNL     1     -13.586  57.958  49.819  0.00  0.00    +0.000 A 
ATOM     19  C   UNL     1     -15.527  59.098  50.771  0.00  0.00    +0.000 A 
ATOM     20  N   UNL     1     -12.865  56.788  49.590  0.00  0.00    +0.000 N 
ATOM     21  C   UNL     1     -13.110  59.195  49.383  0.00  0.00    +0.000 A 
ATOM     22  C   UNL     1     -15.049  60.318  50.310  0.00  0.00    +0.000 A 
ATOM     23  C   UNL     1     -13.840  60.369  49.622  0.00  0.00    +0.000 A 
ATOM     24  H   UNL     1     -14.608  54.306  50.754  0.00  0.00    +0.000 HD
ATOM     25  H   UNL     1     -11.991  56.874  49.144  0.00  0.00    +0.000 HD
ENDBRANCH   1  17
BRANCH   3  26
ATOM     26  O   UNL     1     -12.784  53.260  51.748  0.00  0.00    +0.000 OA
ATOM     27  H   UNL     1     -12.537  53.851  52.432  0.00  0.00    +0.000 HD
ENDBRANCH   3  26
BRANCH   5  28
ATOM     28  N   UNL     1      -9.676  53.604  47.076  0.00  0.00    +0.000 N 
ATOM     29  H   UNL     1      -9.646  52.892  46.397  0.00  0.00    +0.000 HD
BRANCH  28  30
ATOM     30  C   UNL     1      -8.859  54.837  46.951  0.00  0.00    +0.000 C 
BRANCH  30  31
ATOM     31  C   UNL     1      -7.933  54.613  45.729  0.00  0.00    +0.000 C 
ATOM     32  C   UNL     1      -8.521  53.687  44.669  0.00  0.00    +0.000 C 
ENDBRANCH  30  31
BRANCH  30  33
ATOM     33  C   UNL     1      -8.021  55.155  48.219  0.00  0.00    +0.000 C 
BRANCH  33  34
ATOM     34  C   UNL     1      -8.654  56.248  49.100  0.00  0.00    +0.000 C 
ATOM     35  C   UNL     1      -9.010  55.760  50.497  0.00  0.00    +0.000 C 
ENDBRANCH  33  34
ENDBRANCH  30  33
ENDBRANCH  28  30
ENDBRANCH   5  28
TORSDOF 7
ENDMDL
MODEL 2
REMARK VINA RESULT:      -7.8      3.654      6.793
REMARK  Name = 
REMARK  9 active torsions:
REMARK  status: ('A' for Active; 'I' for Inactive)
REMARK    1  A    between atoms: C_6  and  C_10
REMARK    2  A    between atoms: C_14  and  O_18
REMARK    3  A    between atoms: N_17  and  N_20
REMARK    4  A    between atoms: N_20  and  C_23
REMARK    5  A    between atoms: C_23  and  C_26
REMARK    6  A    between atoms: C_23  and  C_27
REMARK    7  A    between atoms: C_26  and  C_29
REMARK    8  A    between atoms: C_27  and  C_30
REMARK    9  A    between atoms: C_29  and  C_31
REMARK                            x       y       z     vdW  Elec       q    Type
REMARK                         _______ _______ _______ _____ _____    ______ ____
ROOT
ATOM      1  C   UNL     1      -9.926  55.322  50.384  0.00  0.00    +0.000 A 
ATOM      2  C   UNL     1      -9.450  55.412  48.969  0.00  0.00    +0.000 A 
ATOM      3  C   UNL     1     -11.167  55.750  50.685  0.00  0.00    +0.000 A 
ATOM      4  O   UNL     1      -8.233  55.353  48.761  0.00  0.00    +0.000 OA
ATOM      5  N   UNL     1     -10.441  55.469  47.972  0.00  0.00    +0.000 N 
ATOM      6  C   UNL     1     -12.086  56.196  49.632  0.00  0.00    +0.000 A 
ATOM      7  C   UNL     1     -11.745  55.996  48.282  0.00  0.00    +0.000 A 
ATOM      8  C   UNL     1     -13.334  56.755  49.968  0.00  0.00    +0.000 A 
ATOM      9  C   UNL     1     -12.685  56.361  47.302  0.00  0.00    +0.000 A 
ATOM     10  C   UNL     1     -14.250  57.106  48.985  0.00  0.00    +0.000 A 
ATOM     11  C   UNL     1     -13.926  56.905  47.650  0.00  0.00    +0.000 A 
ENDROOT
BRANCH   1  17
ATOM     12  S   UNL     1      -6.904  54.853  52.847  0.00  0.00    +0.000 S 
ATOM     13  O   UNL     1      -6.987  55.840  53.905  0.00  0.00    +0.000 OA
ATOM     14  O   UNL     1      -5.627  54.536  52.240  0.00  0.00    +0.000 OA
ATOM     15  N   UNL     1      -7.907  55.308  51.670  0.00  0.00    +0.000 N 
ATOM     16  C   UNL     1      -7.507  53.360  53.529  0.00  0.00    +0.000 A 
ATOM     17  C   UNL     1      -9.030  54.689  51.439  0.00  0.00    +0.000 C 
ATOM     18  C   UNL     1      -8.730  52.884  53.084  0.00  0.00    +0.000 A 
ATOM     19  C   UNL     1      -6.750  52.698  54.506  0.00  0.00    +0.000 A 
ATOM     20  N   UNL     1      -9.458  53.565  52.113  0.00  0.00    +0.000 N 
ATOM     21  C   UNL     1      -9.227  51.721  53.675  0.00  0.00    +0.000 A 
ATOM     22  C   UNL     1      -7.250  51.530  55.067  0.00  0.00    +0.000 A 
ATOM     23  C   UNL     1      -8.488  51.044  54.658  0.00  0.00    +0.000 A 
ATOM     24  H   UNL     1      -7.662  56.078  51.106  0.00  0.00    +0.000 HD
ATOM     25  H   UNL     1     -10.351  53.216  51.888  0.00  0.00    +0.000 HD
ENDBRANCH   1  17
BRANCH   3  26
ATOM     26  O   UNL     1     -11.718  55.752  51.954  0.00  0.00    +0.000 OA
ATOM     27  H   UNL     1     -12.557  56.145  52.100  0.00  0.00    +0.000 HD
ENDBRANCH   3  26
BRANCH   5  28
ATOM     28  N   UNL     1     -10.052  55.314  46.603  0.00  0.00    +0.000 N 
ATOM     29  H   UNL     1      -9.765  56.082  46.058  0.00  0.00    +0.000 HD
BRANCH  28  30
ATOM     30  C   UNL     1     -10.101  53.938  46.047  0.00  0.00    +0.000 C 
BRANCH  30  31
ATOM     31  C   UNL     1      -8.900  53.828  45.074  0.00  0.00    +0.000 C 
ATOM     32  C   UNL     1      -7.780  54.821  45.361  0.00  0.00    +0.000 C 
ENDBRANCH  30  31
BRANCH  30  33
ATOM     33  C   UNL     1     -11.431  53.617  45.311  0.00  0.00    +0.000 C 
BRANCH  33  34
ATOM     34  C   UNL     1     -12.141  52.370  45.871  0.00  0.00    +0.000 C 
ATOM     35  C   UNL     1     -12.217  52.356  47.391  0.00  0.00    +0.000 C 
ENDBRANCH  33  34
ENDBRANCH  30  33
ENDBRANCH  28  30
ENDBRANCH   5  28
TORSDOF 7
ENDMDL
MODEL 3
REMARK VINA RESULT:      -7.8      3.933      7.649
REMARK  Name = 
REMARK  9 active torsions:
REMARK  status: ('A' for Active; 'I' for Inactive)
REMARK    1  A    between atoms: C_6  and  C_10
REMARK    2  A    between atoms: C_14  and  O_18
REMARK    3  A    between atoms: N_17  and  N_20
REMARK    4  A    between atoms: N_20  and  C_23
REMARK    5  A    between atoms: C_23  and  C_26
REMARK    6  A    between atoms: C_23  and  C_27
REMARK    7  A    between atoms: C_26  and  C_29
REMARK    8  A    between atoms: C_27  and  C_30
REMARK    9  A    between atoms: C_29  and  C_31
REMARK                            x       y       z     vdW  Elec       q    Type
REMARK                         _______ _______ _______ _____ _____    ______ ____
ROOT
ATOM      1  C   UNL     1      -8.990  54.661  50.307  0.00  0.00    +0.000 A 
ATOM      2  C   UNL     1     -10.399  54.664  50.809  0.00  0.00    +0.000 A 
ATOM      3  C   UNL     1      -8.768  54.584  48.981  0.00  0.00    +0.000 A 
ATOM      4  O   UNL     1     -10.592  54.386  51.998  0.00  0.00    +0.000 OA
ATOM      5  N   UNL     1     -11.392  55.073  49.901  0.00  0.00    +0.000 N 
ATOM      6  C   UNL     1      -9.885  54.615  48.029  0.00  0.00    +0.000 A 
ATOM      7  C   UNL     1     -11.180  54.922  48.485  0.00  0.00    +0.000 A 
ATOM      8  C   UNL     1      -9.651  54.412  46.655  0.00  0.00    +0.000 A 
ATOM      9  C   UNL     1     -12.209  55.023  47.533  0.00  0.00    +0.000 A 
ATOM     10  C   UNL     1     -10.681  54.520  45.729  0.00  0.00    +0.000 A 
ATOM     11  C   UNL     1     -11.961  54.829  46.169  0.00  0.00    +0.000 A 
ENDROOT
BRANCH   1  17
ATOM     12  S   UNL     1      -7.004  55.794  53.499  0.00  0.00    +0.000 S 
ATOM     13  O   UNL     1      -7.561  55.144  54.669  0.00  0.00    +0.000 OA
ATOM     14  O   UNL     1      -6.618  57.190  53.551  0.00  0.00    +0.000 OA
ATOM     15  N   UNL     1      -8.057  55.621  52.292  0.00  0.00    +0.000 N 
ATOM     16  C   UNL     1      -5.558  54.900  53.092  0.00  0.00    +0.000 A 
ATOM     17  C   UNL     1      -7.841  54.812  51.294  0.00  0.00    +0.000 C 
ATOM     18  C   UNL     1      -5.567  54.128  51.941  0.00  0.00    +0.000 A 
ATOM     19  C   UNL     1      -4.443  54.979  53.938  0.00  0.00    +0.000 A 
ATOM     20  N   UNL     1      -6.691  54.071  51.121  0.00  0.00    +0.000 N 
ATOM     21  C   UNL     1      -4.426  53.376  51.655  0.00  0.00    +0.000 A 
ATOM     22  C   UNL     1      -3.308  54.241  53.626  0.00  0.00    +0.000 A 
ATOM     23  C   UNL     1      -3.301  53.436  52.490  0.00  0.00    +0.000 A 
ATOM     24  H   UNL     1      -8.891  56.146  52.308  0.00  0.00    +0.000 HD
ATOM     25  H   UNL     1      -6.663  53.452  50.356  0.00  0.00    +0.000 HD
ENDBRANCH   1  17
BRANCH   3  26
ATOM     26  O   UNL     1      -7.520  54.542  48.387  0.00  0.00    +0.000 OA
ATOM     27  H   UNL     1      -7.382  54.018  47.623  0.00  0.00    +0.000 HD
ENDBRANCH   3  26
BRANCH   5  28
ATOM     28  N   UNL     1     -12.714  55.325  50.391  0.00  0.00    +0.000 N 
ATOM     29  H   UNL     1     -13.380  54.605  50.473  0.00  0.00    +0.000 HD
BRANCH  28  30
ATOM     30  C   UNL     1     -13.029  56.726  50.770  0.00  0.00    +0.000 C 
BRANCH  30  31
ATOM     31  C   UNL     1     -13.588  56.661  52.213  0.00  0.00    +0.000 C 
ATOM     32  C   UNL     1     -14.971  57.284  52.368  0.00  0.00    +0.000 C 
ENDBRANCH  30  31
BRANCH  30  33
ATOM     33  C   UNL     1     -14.050  57.408  49.819  0.00  0.00    +0.000 C 
BRANCH  33  34
ATOM     34  C   UNL     1     -13.526  58.727  49.220  0.00  0.00    +0.000 C 
ATOM     35  C   UNL     1     -14.150  59.962  49.853  0.00  0.00    +0.000 C 
ENDBRANCH  33  34
ENDBRANCH  30  33
ENDBRANCH  28  30
ENDBRANCH   5  28
TORSDOF 7
ENDMDL
MODEL 4
REMARK VINA RESULT:      -7.7      3.390      6.480
REMARK  Name = 
REMARK  9 active torsions:
REMARK  status: ('A' for Active; 'I' for Inactive)
REMARK    1  A    between atoms: C_6  and  C_10
REMARK    2  A    between atoms: C_14  and  O_18
REMARK    3  A    between atoms: N_17  and  N_20
REMARK    4  A    between atoms: N_20  and  C_23
REMARK    5  A    between atoms: C_23  and  C_26
REMARK    6  A    between atoms: C_23  and  C_27
REMARK    7  A    between atoms: C_26  and  C_29
REMARK    8  A    between atoms: C_27  and  C_30
REMARK    9  A    between atoms: C_29  and  C_31
REMARK                            x       y       z     vdW  Elec       q    Type
REMARK                         _______ _______ _______ _____ _____    ______ ____
ROOT
ATOM      1  C   UNL     1     -10.334  55.219  50.522  0.00  0.00    +0.000 A 
ATOM      2  C   UNL     1      -9.764  55.364  49.146  0.00  0.00    +0.000 A 
ATOM      3  C   UNL     1     -11.579  55.670  50.764  0.00  0.00    +0.000 A 
ATOM      4  O   UNL     1      -8.538  55.277  49.014  0.00  0.00    +0.000 OA
ATOM      5  N   UNL     1     -10.685  55.503  48.092  0.00  0.00    +0.000 N 
ATOM      6  C   UNL     1     -12.413  56.198  49.678  0.00  0.00    +0.000 A 
ATOM      7  C   UNL     1     -11.990  56.054  48.344  0.00  0.00    +0.000 A 
ATOM      8  C   UNL     1     -13.664  56.779  49.963  0.00  0.00    +0.000 A 
ATOM      9  C   UNL     1     -12.853  56.498  47.327  0.00  0.00    +0.000 A 
ATOM     10  C   UNL     1     -14.504  57.208  48.943  0.00  0.00    +0.000 A 
ATOM     11  C   UNL     1     -14.099  57.064  47.623  0.00  0.00    +0.000 A 
ENDROOT
BRANCH   1  17
ATOM     12  S   UNL     1      -9.160  52.381  52.968  0.00  0.00    +0.000 S 
ATOM     13  O   UNL     1      -8.589  51.291  52.203  0.00  0.00    +0.000 OA
ATOM     14  O   UNL     1     -10.029  52.107  54.095  0.00  0.00    +0.000 OA
ATOM     15  N   UNL     1      -9.968  53.330  51.946  0.00  0.00    +0.000 N 
ATOM     16  C   UNL     1      -7.806  53.289  53.600  0.00  0.00    +0.000 A 
ATOM     17  C   UNL     1      -9.527  54.505  51.597  0.00  0.00    +0.000 C 
ATOM     18  C   UNL     1      -7.564  54.551  53.081  0.00  0.00    +0.000 A 
ATOM     19  C   UNL     1      -7.004  52.718  54.598  0.00  0.00    +0.000 A 
ATOM     20  N   UNL     1      -8.380  55.090  52.090  0.00  0.00    +0.000 N 
ATOM     21  C   UNL     1      -6.449  55.244  53.555  0.00  0.00    +0.000 A 
ATOM     22  C   UNL     1      -5.911  53.432  55.074  0.00  0.00    +0.000 A 
ATOM     23  C   UNL     1      -5.630  54.690  54.550  0.00  0.00    +0.000 A 
ATOM     24  H   UNL     1     -10.822  53.011  51.574  0.00  0.00    +0.000 HD
ATOM     25  H   UNL     1      -8.118  55.960  51.711  0.00  0.00    +0.000 HD
ENDBRANCH   1  17
BRANCH   3  26
ATOM     26  O   UNL     1     -12.212  55.626  51.993  0.00  0.00    +0.000 OA
ATOM     27  H   UNL     1     -12.044  56.291  52.632  0.00  0.00    +0.000 HD
ENDBRANCH   3  26
BRANCH   5  28
ATOM     28  N   UNL     1     -10.211  55.405  46.744  0.00  0.00    +0.000 N 
ATOM     29  H   UNL     1      -9.906  56.196  46.246  0.00  0.00    +0.000 HD
BRANCH  28  30
ATOM     30  C   UNL     1     -10.202  54.049  46.138  0.00  0.00    +0.000 C 
BRANCH  30  31
ATOM     31  C   UNL     1      -8.985  54.020  45.178  0.00  0.00    +0.000 C 
ATOM     32  C   UNL     1      -7.747  54.718  45.730  0.00  0.00    +0.000 C 
ENDBRANCH  30  31
BRANCH  30  33
ATOM     33  C   UNL     1     -11.509  53.706  45.372  0.00  0.00    +0.000 C 
BRANCH  33  34
ATOM     34  C   UNL     1     -12.165  52.400  45.859  0.00  0.00    +0.000 C 
ATOM     35  C   UNL     1     -12.203  52.278  47.375  0.00  0.00    +0.000 C 
ENDBRANCH  33  34
ENDBRANCH  30  33
ENDBRANCH  28  30
ENDBRANCH   5  28
TORSDOF 7
ENDMDL
MODEL 5
REMARK VINA RESULT:      -7.5      3.255      4.558
REMARK  Name = 
REMARK  9 active torsions:
REMARK  status: ('A' for Active; 'I' for Inactive)
REMARK    1  A    between atoms: C_6  and  C_10
REMARK    2  A    between atoms: C_14  and  O_18
REMARK    3  A    between atoms: N_17  and  N_20
REMARK    4  A    between atoms: N_20  and  C_23
REMARK    5  A    between atoms: C_23  and  C_26
REMARK    6  A    between atoms: C_23  and  C_27
REMARK    7  A    between atoms: C_26  and  C_29
REMARK    8  A    between atoms: C_27  and  C_30
REMARK    9  A    between atoms: C_29  and  C_31
REMARK                            x       y       z     vdW  Elec       q    Type
REMARK                         _______ _______ _______ _____ _____    ______ ____
ROOT
ATOM      1  C   UNL     1     -11.142  54.070  51.509  0.00  0.00    +0.000 A 
ATOM      2  C   UNL     1     -10.034  54.185  52.507  0.00  0.00    +0.000 A 
ATOM      3  C   UNL     1     -11.390  52.875  50.941  0.00  0.00    +0.000 A 
ATOM      4  O   UNL     1      -9.590  55.312  52.755  0.00  0.00    +0.000 OA
ATOM      5  N   UNL     1      -9.641  52.998  53.153  0.00  0.00    +0.000 N 
ATOM      6  C   UNL     1     -10.663  51.674  51.367  0.00  0.00    +0.000 A 
ATOM      7  C   UNL     1      -9.842  51.727  52.508  0.00  0.00    +0.000 A 
ATOM      8  C   UNL     1     -10.842  50.456  50.684  0.00  0.00    +0.000 A 
ATOM      9  C   UNL     1      -9.226  50.537  52.935  0.00  0.00    +0.000 A 
ATOM     10  C   UNL     1     -10.228  49.290  51.123  0.00  0.00    +0.000 A 
ATOM     11  C   UNL     1      -9.421  49.331  52.253  0.00  0.00    +0.000 A 
ENDROOT
BRANCH   1  17
ATOM     12  S   UNL     1     -12.983  56.860  49.449  0.00  0.00    +0.000 S 
ATOM     13  O   UNL     1     -14.032  56.257  48.651  0.00  0.00    +0.000 OA
ATOM     14  O   UNL     1     -12.145  57.901  48.888  0.00  0.00    +0.000 OA
ATOM     15  N   UNL     1     -12.017  55.679  49.967  0.00  0.00    +0.000 N 
ATOM     16  C   UNL     1     -13.777  57.563  50.839  0.00  0.00    +0.000 A 
ATOM     17  C   UNL     1     -12.009  55.285  51.208  0.00  0.00    +0.000 C 
ATOM     18  C   UNL     1     -13.577  56.972  52.076  0.00  0.00    +0.000 A 
ATOM     19  C   UNL     1     -14.594  58.689  50.664  0.00  0.00    +0.000 A 
ATOM     20  N   UNL     1     -12.759  55.854  52.216  0.00  0.00    +0.000 N 
ATOM     21  C   UNL     1     -14.259  57.509  53.169  0.00  0.00    +0.000 A 
ATOM     22  C   UNL     1     -15.247  59.224  51.767  0.00  0.00    +0.000 A 
ATOM     23  C   UNL     1     -15.085  58.632  53.017  0.00  0.00    +0.000 A 
ATOM     24  H   UNL     1     -11.413  55.241  49.323  0.00  0.00    +0.000 HD
ATOM     25  H   UNL     1     -12.711  55.436  53.106  0.00  0.00    +0.000 HD
ENDBRANCH   1  17
BRANCH   3  26
ATOM     26  O   UNL     1     -12.362  52.638  49.985  0.00  0.00    +0.000 OA
ATOM     27  H   UNL     1     -12.960  51.925  50.092  0.00  0.00    +0.000 HD
ENDBRANCH   3  26
BRANCH   5  28
ATOM     28  N   UNL     1      -8.760  53.085  54.279  0.00  0.00    +0.000 N 
ATOM     29  H   UNL     1      -9.091  52.993  55.201  0.00  0.00    +0.000 HD
BRANCH  28  30
ATOM     30  C   UNL     1      -7.324  53.319  53.985  0.00  0.00    +0.000 C 
BRANCH  30  31
ATOM     31  C   UNL     1      -6.567  52.093  54.556  0.00  0.00    +0.000 C 
ATOM     32  C   UNL     1      -5.395  51.635  53.695  0.00  0.00    +0.000 C 
ENDBRANCH  30  31
BRANCH  30  33
ATOM     33  C   UNL     1      -6.774  54.634  54.601  0.00  0.00    +0.000 C 
BRANCH  33  34
ATOM     34  C   UNL     1      -5.714  55.316  53.715  0.00  0.00    +0.000 C 
ATOM     35  C   UNL     1      -4.302  55.193  54.268  0.00  0.00    +0.000 C 
ENDBRANCH  33  34
ENDBRANCH  30  33
ENDBRANCH  28  30
ENDBRANCH   5  28
TORSDOF 7
ENDMDL
MODEL 6
REMARK VINA RESULT:      -7.5      1.608      2.025
REMARK  Name = 
REMARK  9 active torsions:
REMARK  status: ('A' for Active; 'I' for Inactive)
REMARK    1  A    between atoms: C_6  and  C_10
REMARK    2  A    between atoms: C_14  and  O_18
REMARK    3  A    between atoms: N_17  and  N_20
REMARK    4  A    between atoms: N_20  and  C_23
REMARK    5  A    between atoms: C_23  and  C_26
REMARK    6  A    between atoms: C_23  and  C_27
REMARK    7  A    between atoms: C_26  and  C_29
REMARK    8  A    between atoms: C_27  and  C_30
REMARK    9  A    between atoms: C_29  and  C_31
REMARK                            x       y       z     vdW  Elec       q    Type
REMARK                         _______ _______ _______ _____ _____    ______ ____
ROOT
ATOM      1  C   UNL     1     -11.605  54.822  50.485  0.00  0.00    +0.000 A 
ATOM      2  C   UNL     1     -11.587  54.152  49.147  0.00  0.00    +0.000 A 
ATOM      3  C   UNL     1     -10.698  54.458  51.410  0.00  0.00    +0.000 A 
ATOM      4  O   UNL     1     -12.603  54.228  48.446  0.00  0.00    +0.000 OA
ATOM      5  N   UNL     1     -10.374  53.558  48.755  0.00  0.00    +0.000 N 
ATOM      6  C   UNL     1      -9.635  53.500  51.086  0.00  0.00    +0.000 A 
ATOM      7  C   UNL     1      -9.439  53.104  49.751  0.00  0.00    +0.000 A 
ATOM      8  C   UNL     1      -8.768  53.034  52.094  0.00  0.00    +0.000 A 
ATOM      9  C   UNL     1      -8.360  52.248  49.467  0.00  0.00    +0.000 A 
ATOM     10  C   UNL     1      -7.705  52.192  51.792  0.00  0.00    +0.000 A 
ATOM     11  C   UNL     1      -7.499  51.802  50.476  0.00  0.00    +0.000 A 
ENDROOT
BRANCH   1  17
ATOM     12  S   UNL     1     -14.318  56.981  52.328  0.00  0.00    +0.000 S 
ATOM     13  O   UNL     1     -13.728  57.598  53.499  0.00  0.00    +0.000 OA
ATOM     14  O   UNL     1     -15.651  56.416  52.392  0.00  0.00    +0.000 OA
ATOM     15  N   UNL     1     -13.317  55.821  51.827  0.00  0.00    +0.000 N 
ATOM     16  C   UNL     1     -14.369  58.224  51.100  0.00  0.00    +0.000 A 
ATOM     17  C   UNL     1     -12.598  55.946  50.748  0.00  0.00    +0.000 C 
ATOM     18  C   UNL     1     -13.516  58.108  50.014  0.00  0.00    +0.000 A 
ATOM     19  C   UNL     1     -15.257  59.299  51.250  0.00  0.00    +0.000 A 
ATOM     20  N   UNL     1     -12.647  57.027  49.894  0.00  0.00    +0.000 N 
ATOM     21  C   UNL     1     -13.528  59.134  49.068  0.00  0.00    +0.000 A 
ATOM     22  C   UNL     1     -15.270  60.300  50.287  0.00  0.00    +0.000 A 
ATOM     23  C   UNL     1     -14.404  60.221  49.200  0.00  0.00    +0.000 A 
ATOM     24  H   UNL     1     -13.249  54.991  52.353  0.00  0.00    +0.000 HD
ATOM     25  H   UNL     1     -12.016  57.035  49.138  0.00  0.00    +0.000 HD
ENDBRANCH   1  17
BRANCH   3  26
ATOM     26  O   UNL     1     -10.622  54.974  52.692  0.00  0.00    +0.000 OA
ATOM     27  H   UNL     1      -9.828  55.371  52.991  0.00  0.00    +0.000 HD
ENDBRANCH   3  26
BRANCH   5  28
ATOM     28  N   UNL     1     -10.228  53.117  47.400  0.00  0.00    +0.000 N 
ATOM     29  H   UNL     1     -10.223  52.161  47.166  0.00  0.00    +0.000 HD
BRANCH  28  30
ATOM     30  C   UNL     1     -10.086  54.174  46.367  0.00  0.00    +0.000 C 
BRANCH  30  31
ATOM     31  C   UNL     1      -9.953  53.431  45.013  0.00  0.00    +0.000 C 
ATOM     32  C   UNL     1     -11.227  52.721  44.571  0.00  0.00    +0.000 C 
ENDBRANCH  30  31
BRANCH  30  33
ATOM     33  C   UNL     1      -8.865  55.105  46.600  0.00  0.00    +0.000 C 
BRANCH  33  34
ATOM     34  C   UNL     1      -7.612  54.661  45.821  0.00  0.00    +0.000 C 
ATOM     35  C   UNL     1      -6.631  53.865  46.668  0.00  0.00    +0.000 C 
ENDBRANCH  33  34
ENDBRANCH  30  33
ENDBRANCH  28  30
ENDBRANCH   5  28
TORSDOF 7
ENDMDL
MODEL 7
REMARK VINA RESULT:      -7.4      3.667      7.694
REMARK  Name = 
REMARK  9 active torsions:
REMARK  status: ('A' for Active; 'I' for Inactive)
REMARK    1  A    between atoms: C_6  and  C_10
REMARK    2  A    between atoms: C_14  and  O_18
REMARK    3  A    between atoms: N_17  and  N_20
REMARK    4  A    between atoms: N_20  and  C_23
REMARK    5  A    between atoms: C_23  and  C_26
REMARK    6  A    between atoms: C_23  and  C_27
REMARK    7  A    between atoms: C_26  and  C_29
REMARK    8  A    between atoms: C_27  and  C_30
REMARK    9  A    between atoms: C_29  and  C_31
REMARK                            x       y       z     vdW  Elec       q    Type
REMARK                         _______ _______ _______ _____ _____    ______ ____
ROOT
ATOM      1  C   UNL     1     -10.497  54.475  50.894  0.00  0.00    +0.000 A 
ATOM      2  C   UNL     1     -11.920  54.377  51.345  0.00  0.00    +0.000 A 
ATOM      3  C   UNL     1     -10.235  54.930  49.654  0.00  0.00    +0.000 A 
ATOM      4  O   UNL     1     -12.173  53.653  52.315  0.00  0.00    +0.000 OA
ATOM      5  N   UNL     1     -12.852  55.192  50.677  0.00  0.00    +0.000 N 
ATOM      6  C   UNL     1     -11.312  55.428  48.791  0.00  0.00    +0.000 A 
ATOM      7  C   UNL     1     -12.600  55.615  49.325  0.00  0.00    +0.000 A 
ATOM      8  C   UNL     1     -11.044  55.785  47.456  0.00  0.00    +0.000 A 
ATOM      9  C   UNL     1     -13.586  56.171  48.491  0.00  0.00    +0.000 A 
ATOM     10  C   UNL     1     -12.031  56.336  46.649  0.00  0.00    +0.000 A 
ATOM     11  C   UNL     1     -13.303  56.532  47.169  0.00  0.00    +0.000 A 
ENDROOT
BRANCH   1  17
ATOM     12  S   UNL     1      -7.205  54.844  53.001  0.00  0.00    +0.000 S 
ATOM     13  O   UNL     1      -7.393  55.864  54.014  0.00  0.00    +0.000 OA
ATOM     14  O   UNL     1      -5.960  54.767  52.264  0.00  0.00    +0.000 OA
ATOM     15  N   UNL     1      -8.401  54.987  51.931  0.00  0.00    +0.000 N 
ATOM     16  C   UNL     1      -7.388  53.310  53.820  0.00  0.00    +0.000 A 
ATOM     17  C   UNL     1      -9.377  54.127  51.864  0.00  0.00    +0.000 C 
ATOM     18  C   UNL     1      -8.514  52.551  53.545  0.00  0.00    +0.000 A 
ATOM     19  C   UNL     1      -6.404  52.899  54.730  0.00  0.00    +0.000 A 
ATOM     20  N   UNL     1      -9.473  52.988  52.635  0.00  0.00    +0.000 N 
ATOM     21  C   UNL     1      -8.675  51.354  54.245  0.00  0.00    +0.000 A 
ATOM     22  C   UNL     1      -6.570  51.693  55.401  0.00  0.00    +0.000 A 
ATOM     23  C   UNL     1      -7.706  50.925  55.164  0.00  0.00    +0.000 A 
ATOM     24  H   UNL     1      -8.394  55.750  51.307  0.00  0.00    +0.000 HD
ATOM     25  H   UNL     1     -10.285  52.440  52.534  0.00  0.00    +0.000 HD
ENDBRANCH   1  17
BRANCH   3  26
ATOM     26  O   UNL     1      -8.971  55.042  49.102  0.00  0.00    +0.000 OA
ATOM     27  H   UNL     1      -8.764  55.769  48.549  0.00  0.00    +0.000 HD
ENDBRANCH   3  26
BRANCH   5  28
ATOM     28  N   UNL     1     -14.172  55.318  51.219  0.00  0.00    +0.000 N 
ATOM     29  H   UNL     1     -14.871  54.650  51.036  0.00  0.00    +0.000 HD
BRANCH  28  30
ATOM     30  C   UNL     1     -14.432  56.506  52.072  0.00  0.00    +0.000 C 
BRANCH  30  31
ATOM     31  C   UNL     1     -15.928  56.855  51.872  0.00  0.00    +0.000 C 
ATOM     32  C   UNL     1     -16.541  56.250  50.614  0.00  0.00    +0.000 C 
ENDBRANCH  30  31
BRANCH  30  33
ATOM     33  C   UNL     1     -13.536  57.725  51.722  0.00  0.00    +0.000 C 
BRANCH  33  34
ATOM     34  C   UNL     1     -14.348  58.995  51.403  0.00  0.00    +0.000 C 
ATOM     35  C   UNL     1     -13.880  59.703  50.139  0.00  0.00    +0.000 C 
ENDBRANCH  33  34
ENDBRANCH  30  33
ENDBRANCH  28  30
ENDBRANCH   5  28
TORSDOF 7
ENDMDL
MODEL 8
REMARK VINA RESULT:      -7.3      3.001      7.313
REMARK  Name = 
REMARK  9 active torsions:
REMARK  status: ('A' for Active; 'I' for Inactive)
REMARK    1  A    between atoms: C_6  and  C_10
REMARK    2  A    between atoms: C_14  and  O_18
REMARK    3  A    between atoms: N_17  and  N_20
REMARK    4  A    between atoms: N_20  and  C_23
REMARK    5  A    between atoms: C_23  and  C_26
REMARK    6  A    between atoms: C_23  and  C_27
REMARK    7  A    between atoms: C_26  and  C_29
REMARK    8  A    between atoms: C_27  and  C_30
REMARK    9  A    between atoms: C_29  and  C_31
REMARK                            x       y       z     vdW  Elec       q    Type
REMARK                         _______ _______ _______ _____ _____    ______ ____
ROOT
ATOM      1  C   UNL     1     -11.829  54.444  48.276  0.00  0.00    +0.000 A 
ATOM      2  C   UNL     1     -11.892  53.623  49.525  0.00  0.00    +0.000 A 
ATOM      3  C   UNL     1     -12.548  55.579  48.203  0.00  0.00    +0.000 A 
ATOM      4  O   UNL     1     -11.526  52.444  49.463  0.00  0.00    +0.000 OA
ATOM      5  N   UNL     1     -12.284  54.290  50.700  0.00  0.00    +0.000 N 
ATOM      6  C   UNL     1     -13.299  56.071  49.364  0.00  0.00    +0.000 A 
ATOM      7  C   UNL     1     -13.115  55.462  50.619  0.00  0.00    +0.000 A 
ATOM      8  C   UNL     1     -14.144  57.190  49.241  0.00  0.00    +0.000 A 
ATOM      9  C   UNL     1     -13.788  56.012  51.725  0.00  0.00    +0.000 A 
ATOM     10  C   UNL     1     -14.798  57.720  50.346  0.00  0.00    +0.000 A 
ATOM     11  C   UNL     1     -14.617  57.132  51.590  0.00  0.00    +0.000 A 
ENDROOT
BRANCH   1  17
ATOM     12  S   UNL     1      -8.565  54.102  46.121  0.00  0.00    +0.000 S 
ATOM     13  O   UNL     1      -7.588  53.316  46.847  0.00  0.00    +0.000 OA
ATOM     14  O   UNL     1      -8.154  55.283  45.388  0.00  0.00    +0.000 OA
ATOM     15  N   UNL     1      -9.712  54.545  47.162  0.00  0.00    +0.000 N 
ATOM     16  C   UNL     1      -9.281  53.021  44.948  0.00  0.00    +0.000 A 
ATOM     17  C   UNL     1     -10.904  54.019  47.145  0.00  0.00    +0.000 C 
ATOM     18  C   UNL     1     -10.597  52.629  45.137  0.00  0.00    +0.000 A 
ATOM     19  C   UNL     1      -8.509  52.576  43.866  0.00  0.00    +0.000 A 
ATOM     20  N   UNL     1     -11.337  53.089  46.223  0.00  0.00    +0.000 N 
ATOM     21  C   UNL     1     -11.140  51.723  44.225  0.00  0.00    +0.000 A 
ATOM     22  C   UNL     1      -9.074  51.692  42.955  0.00  0.00    +0.000 A 
ATOM     23  C   UNL     1     -10.385  51.261  43.136  0.00  0.00    +0.000 A 
ATOM     24  H   UNL     1      -9.506  55.237  47.832  0.00  0.00    +0.000 HD
ATOM     25  H   UNL     1     -12.242  52.721  46.343  0.00  0.00    +0.000 HD
ENDBRANCH   1  17
BRANCH   3  26
ATOM     26  O   UNL     1     -12.604  56.413  47.100  0.00  0.00    +0.000 OA
ATOM     27  H   UNL     1     -12.896  56.079  46.275  0.00  0.00    +0.000 HD
ENDBRANCH   3  26
BRANCH   5  28
ATOM     28  N   UNL     1     -12.132  53.620  51.957  0.00  0.00    +0.000 N 
ATOM     29  H   UNL     1     -12.907  53.267  52.450  0.00  0.00    +0.000 HD
BRANCH  28  30
ATOM     30  C   UNL     1     -10.748  53.485  52.477  0.00  0.00    +0.000 C 
BRANCH  30  31
ATOM     31  C   UNL     1     -10.852  52.590  53.738  0.00  0.00    +0.000 C 
ATOM     32  C   UNL     1      -9.547  51.898  54.114  0.00  0.00    +0.000 C 
ENDBRANCH  30  31
BRANCH  30  33
ATOM     33  C   UNL     1     -10.083  54.844  52.826  0.00  0.00    +0.000 C 
BRANCH  33  34
ATOM     34  C   UNL     1      -9.135  55.350  51.723  0.00  0.00    +0.000 C 
ATOM     35  C   UNL     1      -8.465  54.226  50.947  0.00  0.00    +0.000 C 
ENDBRANCH  33  34
ENDBRANCH  30  33
ENDBRANCH  28  30
ENDBRANCH   5  28
TORSDOF 7
ENDMDL
MODEL 9
REMARK VINA RESULT:      -7.2      2.034      3.637
REMARK  Name = 
REMARK  9 active torsions:
REMARK  status: ('A' for Active; 'I' for Inactive)
REMARK    1  A    between atoms: C_6  and  C_10
REMARK    2  A    between atoms: C_14  and  O_18
REMARK    3  A    between atoms: N_17  and  N_20
REMARK    4  A    between atoms: N_20  and  C_23
REMARK    5  A    between atoms: C_23  and  C_26
REMARK    6  A    between atoms: C_23  and  C_27
REMARK    7  A    between atoms: C_26  and  C_29
REMARK    8  A    between atoms: C_27  and  C_30
REMARK    9  A    between atoms: C_29  and  C_31
REMARK                            x       y       z     vdW  Elec       q    Type
REMARK                         _______ _______ _______ _____ _____    ______ ____
ROOT
ATOM      1  C   UNL     1     -10.654  55.874  48.334  0.00  0.00    +0.000 A 
ATOM      2  C   UNL     1      -9.229  56.167  48.684  0.00  0.00    +0.000 A 
ATOM      3  C   UNL     1     -10.919  55.099  47.266  0.00  0.00    +0.000 A 
ATOM      4  O   UNL     1      -8.999  57.131  49.423  0.00  0.00    +0.000 OA
ATOM      5  N   UNL     1      -8.264  55.260  48.210  0.00  0.00    +0.000 N 
ATOM      6  C   UNL     1      -9.834  54.455  46.515  0.00  0.00    +0.000 A 
ATOM      7  C   UNL     1      -8.523  54.486  47.025  0.00  0.00    +0.000 A 
ATOM      8  C   UNL     1     -10.114  53.748  45.330  0.00  0.00    +0.000 A 
ATOM      9  C   UNL     1      -7.525  53.788  46.322  0.00  0.00    +0.000 A 
ATOM     10  C   UNL     1      -9.114  53.062  44.652  0.00  0.00    +0.000 A 
ATOM     11  C   UNL     1      -7.819  53.080  45.151  0.00  0.00    +0.000 A 
ENDROOT
BRANCH   1  17
ATOM     12  S   UNL     1     -13.216  56.053  51.304  0.00  0.00    +0.000 S 
ATOM     13  O   UNL     1     -12.499  56.253  52.547  0.00  0.00    +0.000 OA
ATOM     14  O   UNL     1     -14.332  55.131  51.243  0.00  0.00    +0.000 OA
ATOM     15  N   UNL     1     -12.146  55.602  50.186  0.00  0.00    +0.000 N 
ATOM     16  C   UNL     1     -13.847  57.620  50.853  0.00  0.00    +0.000 A 
ATOM     17  C   UNL     1     -11.769  56.400  49.227  0.00  0.00    +0.000 C 
ATOM     18  C   UNL     1     -13.293  58.258  49.755  0.00  0.00    +0.000 A 
ATOM     19  C   UNL     1     -14.881  58.186  51.612  0.00  0.00    +0.000 A 
ATOM     20  N   UNL     1     -12.268  57.668  49.020  0.00  0.00    +0.000 N 
ATOM     21  C   UNL     1     -13.768  59.532  49.437  0.00  0.00    +0.000 A 
ATOM     22  C   UNL     1     -15.356  59.445  51.268  0.00  0.00    +0.000 A 
ATOM     23  C   UNL     1     -14.798  60.120  50.186  0.00  0.00    +0.000 A 
ATOM     24  H   UNL     1     -11.767  54.694  50.228  0.00  0.00    +0.000 HD
ATOM     25  H   UNL     1     -11.867  58.199  48.295  0.00  0.00    +0.000 HD
ENDBRANCH   1  17
BRANCH   3  26
ATOM     26  O   UNL     1     -12.186  54.777  46.815  0.00  0.00    +0.000 OA
ATOM     27  H   UNL     1     -12.545  55.218  46.071  0.00  0.00    +0.000 HD
ENDBRANCH   3  26
BRANCH   5  28
ATOM     28  N   UNL     1      -6.925  55.353  48.710  0.00  0.00    +0.000 N 
ATOM     29  H   UNL     1      -6.230  55.860  48.232  0.00  0.00    +0.000 HD
BRANCH  28  30
ATOM     30  C   UNL     1      -6.639  54.649  49.986  0.00  0.00    +0.000 C 
BRANCH  30  31
ATOM     31  C   UNL     1      -5.097  54.522  50.066  0.00  0.00    +0.000 C 
ATOM     32  C   UNL     1      -4.452  53.999  48.787  0.00  0.00    +0.000 C 
ENDBRANCH  30  31
BRANCH  30  33
ATOM     33  C   UNL     1      -7.307  53.250  50.082  0.00  0.00    +0.000 C 
BRANCH  33  34
ATOM     34  C   UNL     1      -8.523  53.228  51.027  0.00  0.00    +0.000 C 
ATOM     35  C   UNL     1      -9.809  52.796  50.337  0.00  0.00    +0.000 C 
ENDBRANCH  33  34
ENDBRANCH  30  33
ENDBRANCH  28  30
ENDBRANCH   5  28
TORSDOF 7
ENDMDL
