MODEL 1
REMARK VINA RESULT:      -8.4      0.000      0.000
REMARK  Name = 
REMARK  5 active torsions:
REMARK  status: ('A' for Active; 'I' for Inactive)
REMARK    1  A    between atoms: C_6  and  C_10
REMARK    2  A    between atoms: C_14  and  O_18
REMARK    3  A    between atoms: N_17  and  N_20
REMARK    4  A    between atoms: N_20  and  C_23
REMARK    5  A    between atoms: C_23  and  C_26
REMARK                            x       y       z     vdW  Elec       q    Type
REMARK                         _______ _______ _______ _____ _____    ______ ____
ROOT
ATOM      1  C   UNL     1     -10.107  54.565  52.202  0.00  0.00    +0.000 A 
ATOM      2  C   UNL     1      -8.740  55.145  52.030  0.00  0.00    +0.000 A 
ATOM      3  C   UNL     1     -10.307  53.448  52.907  0.00  0.00    +0.000 A 
ATOM      4  O   UNL     1      -8.602  56.232  51.466  0.00  0.00    +0.000 OA
ATOM      5  N   UNL     1      -7.673  54.394  52.533  0.00  0.00    +0.000 N 
ATOM      6  C   UNL     1      -9.180  52.784  53.568  0.00  0.00    +0.000 A 
ATOM      7  C   UNL     1      -7.882  53.300  53.419  0.00  0.00    +0.000 A 
ATOM      8  C   UNL     1      -9.375  51.652  54.377  0.00  0.00    +0.000 A 
ATOM      9  C   UNL     1      -6.830  52.723  54.149  0.00  0.00    +0.000 A 
ATOM     10  C   UNL     1      -8.312  51.067  55.063  0.00  0.00    +0.000 A 
ATOM     11  C   UNL     1      -7.040  51.610  54.956  0.00  0.00    +0.000 A 
ENDROOT
BRANCH   1  17
ATOM     12  S   UNL     1     -12.520  56.079  49.552  0.00  0.00    +0.000 S 
ATOM     13  O   UNL     1     -13.420  55.083  49.005  0.00  0.00    +0.000 OA
ATOM     14  O   UNL     1     -11.911  57.079  48.688  0.00  0.00    +0.000 OA
ATOM     15  N   UNL     1     -11.338  55.298  50.325  0.00  0.00    +0.000 N 
ATOM     16  C   UNL     1     -13.458  56.971  50.740  0.00  0.00    +0.000 A 
ATOM     17  C   UNL     1     -11.280  55.292  51.621  0.00  0.00    +0.000 C 
ATOM     18  C   UNL     1     -13.178  56.757  52.082  0.00  0.00    +0.000 A 
ATOM     19  C   UNL     1     -14.457  57.857  50.319  0.00  0.00    +0.000 A 
ATOM     20  N   UNL     1     -12.185  55.865  52.484  0.00  0.00    +0.000 N 
ATOM     21  C   UNL     1     -13.968  57.414  53.031  0.00  0.00    +0.000 A 
ATOM     22  C   UNL     1     -15.214  58.526  51.276  0.00  0.00    +0.000 A 
ATOM     23  C   UNL     1     -14.975  58.299  52.630  0.00  0.00    +0.000 A 
ATOM     24  H   UNL     1     -10.652  54.819  49.806  0.00  0.00    +0.000 HD
ATOM     25  H   UNL     1     -12.128  55.632  53.439  0.00  0.00    +0.000 HD
ENDBRANCH   1  17
BRANCH   3  26
ATOM     26  O   UNL     1     -11.547  52.867  53.129  0.00  0.00    +0.000 OA
ATOM     27  H   UNL     1     -12.329  53.337  52.918  0.00  0.00    +0.000 HD
ENDBRANCH   3  26
BRANCH   5  28
ATOM     28  N   UNL     1      -6.333  54.858  52.251  0.00  0.00    +0.000 N 
ATOM     29  H   UNL     1      -5.786  55.370  52.889  0.00  0.00    +0.000 HD
BRANCH  28  30
ATOM     30  C   UNL     1      -5.877  54.478  50.898  0.00  0.00    +0.000 C 
BRANCH  30  31
ATOM     31  C   UNL     1      -4.782  53.409  50.954  0.00  0.00    +0.000 C 
ATOM     32  C   UNL     1      -5.355  51.988  50.958  0.00  0.00    +0.000 C 
ATOM     33  C   UNL     1      -3.968  53.427  52.250  0.00  0.00    +0.000 C 
ATOM     34  C   UNL     1      -4.245  51.116  51.538  0.00  0.00    +0.000 C 
ATOM     35  C   UNL     1      -3.300  52.058  52.281  0.00  0.00    +0.000 C 
ENDBRANCH  30  31
ENDBRANCH  28  30
ENDBRANCH   5  28
TORSDOF 5
ENDMDL
MODEL 2
REMARK VINA RESULT:      -8.1      3.306      5.005
REMARK  Name = 
REMARK  5 active torsions:
REMARK  status: ('A' for Active; 'I' for Inactive)
REMARK    1  A    between atoms: C_6  and  C_10
REMARK    2  A    between atoms: C_14  and  O_18
REMARK    3  A    between atoms: N_17  and  N_20
REMARK    4  A    between atoms: N_20  and  C_23
REMARK    5  A    between atoms: C_23  and  C_26
REMARK                            x       y       z     vdW  Elec       q    Type
REMARK                         _______ _______ _______ _____ _____    ______ ____
ROOT
ATOM      1  C   UNL     1     -11.655  55.978  48.756  0.00  0.00    +0.000 A 
ATOM      2  C   UNL     1     -10.605  55.312  49.585  0.00  0.00    +0.000 A 
ATOM      3  C   UNL     1     -11.812  55.687  47.462  0.00  0.00    +0.000 A 
ATOM      4  O   UNL     1     -10.556  55.523  50.798  0.00  0.00    +0.000 OA
ATOM      5  N   UNL     1      -9.717  54.467  48.910  0.00  0.00    +0.000 N 
ATOM      6  C   UNL     1     -10.973  54.663  46.832  0.00  0.00    +0.000 A 
ATOM      7  C   UNL     1      -9.972  54.025  47.581  0.00  0.00    +0.000 A 
ATOM      8  C   UNL     1     -11.169  54.285  45.492  0.00  0.00    +0.000 A 
ATOM      9  C   UNL     1      -9.252  52.968  47.000  0.00  0.00    +0.000 A 
ATOM     10  C   UNL     1     -10.418  53.260  44.919  0.00  0.00    +0.000 A 
ATOM     11  C   UNL     1      -9.466  52.595  45.677  0.00  0.00    +0.000 A 
ENDROOT
BRANCH   1  17
ATOM     12  S   UNL     1     -13.586  59.280  49.471  0.00  0.00    +0.000 S 
ATOM     13  O   UNL     1     -14.732  59.439  48.597  0.00  0.00    +0.000 OA
ATOM     14  O   UNL     1     -12.735  60.416  49.788  0.00  0.00    +0.000 OA
ATOM     15  N   UNL     1     -12.657  58.115  48.851  0.00  0.00    +0.000 N 
ATOM     16  C   UNL     1     -14.228  58.713  51.005  0.00  0.00    +0.000 A 
ATOM     17  C   UNL     1     -12.589  56.947  49.413  0.00  0.00    +0.000 C 
ATOM     18  C   UNL     1     -14.004  57.388  51.353  0.00  0.00    +0.000 A 
ATOM     19  C   UNL     1     -14.949  59.588  51.826  0.00  0.00    +0.000 A 
ATOM     20  N   UNL     1     -13.291  56.528  50.520  0.00  0.00    +0.000 N 
ATOM     21  C   UNL     1     -14.572  56.916  52.541  0.00  0.00    +0.000 A 
ATOM     22  C   UNL     1     -15.482  59.110  53.020  0.00  0.00    +0.000 A 
ATOM     23  C   UNL     1     -15.300  57.774  53.373  0.00  0.00    +0.000 A 
ATOM     24  H   UNL     1     -12.135  58.292  48.035  0.00  0.00    +0.000 HD
ATOM     25  H   UNL     1     -13.290  55.567  50.734  0.00  0.00    +0.000 HD
ENDBRANCH   1  17
BRANCH   3  26
ATOM     26  O   UNL     1     -12.779  56.245  46.638  0.00  0.00    +0.000 OA
ATOM     27  H   UNL     1     -13.147  57.081  46.849  0.00  0.00    +0.000 HD
ENDBRANCH   3  26
BRANCH   5  28
ATOM     28  N   UNL     1      -8.605  53.927  49.659  0.00  0.00    +0.000 N 
ATOM     29  H   UNL     1      -8.612  53.040  50.086  0.00  0.00    +0.000 HD
BRANCH  28  30
ATOM     30  C   UNL     1      -7.456  54.855  49.710  0.00  0.00    +0.000 C 
BRANCH  30  31
ATOM     31  C   UNL     1      -6.897  54.978  51.131  0.00  0.00    +0.000 C 
ATOM     32  C   UNL     1      -7.431  53.885  52.063  0.00  0.00    +0.000 C 
ATOM     33  C   UNL     1      -7.333  56.254  51.857  0.00  0.00    +0.000 C 
ATOM     34  C   UNL     1      -7.233  54.436  53.473  0.00  0.00    +0.000 C 
ATOM     35  C   UNL     1      -7.069  55.948  53.325  0.00  0.00    +0.000 C 
ENDBRANCH  30  31
ENDBRANCH  28  30
ENDBRANCH   5  28
TORSDOF 5
ENDMDL
MODEL 3
REMARK VINA RESULT:      -8.1      3.296      8.347
REMARK  Name = 
REMARK  5 active torsions:
REMARK  status: ('A' for Active; 'I' for Inactive)
REMARK    1  A    between atoms: C_6  and  C_10
REMARK    2  A    between atoms: C_14  and  O_18
REMARK    3  A    between atoms: N_17  and  N_20
REMARK    4  A    between atoms: N_20  and  C_23
REMARK    5  A    between atoms: C_23  and  C_26
REMARK                            x       y       z     vdW  Elec       q    Type
REMARK                         _______ _______ _______ _____ _____    ______ ____
ROOT
ATOM      1  C   UNL     1      -9.120  54.259  49.830  0.00  0.00    +0.000 A 
ATOM      2  C   UNL     1     -10.137  55.354  49.837  0.00  0.00    +0.000 A 
ATOM      3  C   UNL     1      -9.004  53.421  48.796  0.00  0.00    +0.000 A 
ATOM      4  O   UNL     1     -10.148  56.175  50.756  0.00  0.00    +0.000 OA
ATOM      5  N   UNL     1     -11.040  55.376  48.769  0.00  0.00    +0.000 N 
ATOM      6  C   UNL     1      -9.855  53.588  47.615  0.00  0.00    +0.000 A 
ATOM      7  C   UNL     1     -10.826  54.602  47.594  0.00  0.00    +0.000 A 
ATOM      8  C   UNL     1      -9.701  52.768  46.484  0.00  0.00    +0.000 A 
ATOM      9  C   UNL     1     -11.557  54.824  46.415  0.00  0.00    +0.000 A 
ATOM     10  C   UNL     1     -10.462  52.977  45.336  0.00  0.00    +0.000 A 
ATOM     11  C   UNL     1     -11.384  54.013  45.298  0.00  0.00    +0.000 A 
ENDROOT
BRANCH   1  17
ATOM     12  S   UNL     1      -7.826  54.143  53.497  0.00  0.00    +0.000 S 
ATOM     13  O   UNL     1      -8.043  52.846  54.109  0.00  0.00    +0.000 OA
ATOM     14  O   UNL     1      -8.055  55.364  54.254  0.00  0.00    +0.000 OA
ATOM     15  N   UNL     1      -8.722  54.207  52.157  0.00  0.00    +0.000 N 
ATOM     16  C   UNL     1      -6.133  54.174  53.028  0.00  0.00    +0.000 A 
ATOM     17  C   UNL     1      -8.172  54.144  50.984  0.00  0.00    +0.000 C 
ATOM     18  C   UNL     1      -5.832  54.081  51.676  0.00  0.00    +0.000 A 
ATOM     19  C   UNL     1      -5.138  54.278  54.007  0.00  0.00    +0.000 A 
ATOM     20  N   UNL     1      -6.834  53.969  50.715  0.00  0.00    +0.000 N 
ATOM     21  C   UNL     1      -4.485  54.036  51.305  0.00  0.00    +0.000 A 
ATOM     22  C   UNL     1      -3.802  54.263  53.619  0.00  0.00    +0.000 A 
ATOM     23  C   UNL     1      -3.476  54.135  52.270  0.00  0.00    +0.000 A 
ATOM     24  H   UNL     1      -9.700  54.295  52.231  0.00  0.00    +0.000 HD
ATOM     25  H   UNL     1      -6.571  53.752  49.791  0.00  0.00    +0.000 HD
ENDBRANCH   1  17
BRANCH   3  26
ATOM     26  O   UNL     1      -8.069  52.399  48.709  0.00  0.00    +0.000 OA
ATOM     27  H   UNL     1      -7.875  51.877  49.462  0.00  0.00    +0.000 HD
ENDBRANCH   3  26
BRANCH   5  28
ATOM     28  N   UNL     1     -12.123  56.332  48.826  0.00  0.00    +0.000 N 
ATOM     29  H   UNL     1     -12.051  57.260  48.505  0.00  0.00    +0.000 HD
BRANCH  28  30
ATOM     30  C   UNL     1     -13.350  55.761  49.420  0.00  0.00    +0.000 C 
BRANCH  30  31
ATOM     31  C   UNL     1     -13.999  56.732  50.410  0.00  0.00    +0.000 C 
ATOM     32  C   UNL     1     -13.371  56.648  51.806  0.00  0.00    +0.000 C 
ATOM     33  C   UNL     1     -15.469  56.423  50.705  0.00  0.00    +0.000 C 
ATOM     34  C   UNL     1     -14.421  57.232  52.748  0.00  0.00    +0.000 C 
ATOM     35  C   UNL     1     -15.751  57.178  51.997  0.00  0.00    +0.000 C 
ENDBRANCH  30  31
ENDBRANCH  28  30
ENDBRANCH   5  28
TORSDOF 5
ENDMDL
MODEL 4
REMARK VINA RESULT:      -8.1      4.347      5.439
REMARK  Name = 
REMARK  5 active torsions:
REMARK  status: ('A' for Active; 'I' for Inactive)
REMARK    1  A    between atoms: C_6  and  C_10
REMARK    2  A    between atoms: C_14  and  O_18
REMARK    3  A    between atoms: N_17  and  N_20
REMARK    4  A    between atoms: N_20  and  C_23
REMARK    5  A    between atoms: C_23  and  C_26
REMARK                            x       y       z     vdW  Elec       q    Type
REMARK                         _______ _______ _______ _____ _____    ______ ____
ROOT
ATOM      1  C   UNL     1     -12.396  54.316  49.756  0.00  0.00    +0.000 A 
ATOM      2  C   UNL     1     -11.927  54.192  48.342  0.00  0.00    +0.000 A 
ATOM      3  C   UNL     1     -12.062  53.415  50.684  0.00  0.00    +0.000 A 
ATOM      4  O   UNL     1     -12.164  55.094  47.536  0.00  0.00    +0.000 OA
ATOM      5  N   UNL     1     -11.230  53.024  48.014  0.00  0.00    +0.000 N 
ATOM      6  C   UNL     1     -11.181  52.296  50.338  0.00  0.00    +0.000 A 
ATOM      7  C   UNL     1     -10.729  52.147  49.017  0.00  0.00    +0.000 A 
ATOM      8  C   UNL     1     -10.753  51.378  51.313  0.00  0.00    +0.000 A 
ATOM      9  C   UNL     1      -9.796  51.139  48.723  0.00  0.00    +0.000 A 
ATOM     10  C   UNL     1      -9.857  50.359  50.995  0.00  0.00    +0.000 A 
ATOM     11  C   UNL     1      -9.371  50.246  49.701  0.00  0.00    +0.000 A 
ENDROOT
BRANCH   1  17
ATOM     12  S   UNL     1     -15.325  56.429  51.204  0.00  0.00    +0.000 S 
ATOM     13  O   UNL     1     -15.240  56.560  52.645  0.00  0.00    +0.000 OA
ATOM     14  O   UNL     1     -16.607  56.200  50.557  0.00  0.00    +0.000 OA
ATOM     15  N   UNL     1     -14.321  55.247  50.760  0.00  0.00    +0.000 N 
ATOM     16  C   UNL     1     -14.716  57.942  50.549  0.00  0.00    +0.000 A 
ATOM     17  C   UNL     1     -13.209  55.512  50.147  0.00  0.00    +0.000 C 
ATOM     18  C   UNL     1     -13.468  57.931  49.941  0.00  0.00    +0.000 A 
ATOM     19  C   UNL     1     -15.480  59.109  50.660  0.00  0.00    +0.000 A 
ATOM     20  N   UNL     1     -12.717  56.761  49.846  0.00  0.00    +0.000 N 
ATOM     21  C   UNL     1     -12.951  59.145  49.480  0.00  0.00    +0.000 A 
ATOM     22  C   UNL     1     -14.964  60.305  50.169  0.00  0.00    +0.000 A 
ATOM     23  C   UNL     1     -13.698  60.324  49.587  0.00  0.00    +0.000 A 
ATOM     24  H   UNL     1     -14.555  54.311  50.958  0.00  0.00    +0.000 HD
ATOM     25  H   UNL     1     -11.781  56.832  49.548  0.00  0.00    +0.000 HD
ENDBRANCH   1  17
BRANCH   3  26
ATOM     26  O   UNL     1     -12.439  53.478  52.018  0.00  0.00    +0.000 OA
ATOM     27  H   UNL     1     -12.244  54.242  52.524  0.00  0.00    +0.000 HD
ENDBRANCH   3  26
BRANCH   5  28
ATOM     28  N   UNL     1     -10.894  52.812  46.624  0.00  0.00    +0.000 N 
ATOM     29  H   UNL     1     -11.413  52.236  46.018  0.00  0.00    +0.000 HD
BRANCH  28  30
ATOM     30  C   UNL     1      -9.685  53.557  46.216  0.00  0.00    +0.000 C 
BRANCH  30  31
ATOM     31  C   UNL     1      -9.319  53.277  44.755  0.00  0.00    +0.000 C 
ATOM     32  C   UNL     1     -10.517  52.775  43.941  0.00  0.00    +0.000 C 
ATOM     33  C   UNL     1      -8.315  52.135  44.578  0.00  0.00    +0.000 C 
ATOM     34  C   UNL     1      -9.906  52.062  42.738  0.00  0.00    +0.000 C 
ATOM     35  C   UNL     1      -8.461  51.743  43.114  0.00  0.00    +0.000 C 
ENDBRANCH  30  31
ENDBRANCH  28  30
ENDBRANCH   5  28
TORSDOF 5
ENDMDL
MODEL 5
REMARK VINA RESULT:      -8.1      3.397      4.944
REMARK  Name = 
REMARK  5 active torsions:
REMARK  status: ('A' for Active; 'I' for Inactive)
REMARK    1  A    between atoms: C_6  and  C_10
REMARK    2  A    between atoms: C_14  and  O_18
REMARK    3  A    between atoms: N_17  and  N_20
REMARK    4  A    between atoms: N_20  and  C_23
REMARK    5  A    between atoms: C_23  and  C_26
REMARK                            x       y       z     vdW  Elec       q    Type
REMARK                         _______ _______ _______ _____ _____    ______ ____
ROOT
ATOM      1  C   UNL     1     -10.642  55.837  48.452  0.00  0.00    +0.000 A 
ATOM      2  C   UNL     1      -9.225  55.807  48.927  0.00  0.00    +0.000 A 
ATOM      3  C   UNL     1     -11.001  55.284  47.291  0.00  0.00    +0.000 A 
ATOM      4  O   UNL     1      -8.944  56.231  50.049  0.00  0.00    +0.000 OA
ATOM      5  N   UNL     1      -8.278  55.284  48.038  0.00  0.00    +0.000 N 
ATOM      6  C   UNL     1     -10.007  54.589  46.468  0.00  0.00    +0.000 A 
ATOM      7  C   UNL     1      -8.665  54.548  46.883  0.00  0.00    +0.000 A 
ATOM      8  C   UNL     1     -10.374  53.933  45.281  0.00  0.00    +0.000 A 
ATOM      9  C   UNL     1      -7.745  53.784  46.146  0.00  0.00    +0.000 A 
ATOM     10  C   UNL     1      -9.439  53.211  44.540  0.00  0.00    +0.000 A 
ATOM     11  C   UNL     1      -8.126  53.129  44.980  0.00  0.00    +0.000 A 
ENDROOT
BRANCH   1  17
ATOM     12  S   UNL     1     -13.284  56.191  51.286  0.00  0.00    +0.000 S 
ATOM     13  O   UNL     1     -12.669  56.452  52.573  0.00  0.00    +0.000 OA
ATOM     14  O   UNL     1     -14.408  55.274  51.176  0.00  0.00    +0.000 OA
ATOM     15  N   UNL     1     -12.125  55.686  50.284  0.00  0.00    +0.000 N 
ATOM     16  C   UNL     1     -13.869  57.745  50.711  0.00  0.00    +0.000 A 
ATOM     17  C   UNL     1     -11.687  56.451  49.333  0.00  0.00    +0.000 C 
ATOM     18  C   UNL     1     -13.187  58.348  49.663  0.00  0.00    +0.000 A 
ATOM     19  C   UNL     1     -14.982  58.340  51.316  0.00  0.00    +0.000 A 
ATOM     20  N   UNL     1     -12.074  57.746  49.078  0.00  0.00    +0.000 N 
ATOM     21  C   UNL     1     -13.607  59.616  49.249  0.00  0.00    +0.000 A 
ATOM     22  C   UNL     1     -15.408  59.588  50.871  0.00  0.00    +0.000 A 
ATOM     23  C   UNL     1     -14.716  60.228  49.845  0.00  0.00    +0.000 A 
ATOM     24  H   UNL     1     -11.745  54.784  50.396  0.00  0.00    +0.000 HD
ATOM     25  H   UNL     1     -11.536  58.277  48.448  0.00  0.00    +0.000 HD
ENDBRANCH   1  17
BRANCH   3  26
ATOM     26  O   UNL     1     -12.299  55.253  46.799  0.00  0.00    +0.000 OA
ATOM     27  H   UNL     1     -12.894  54.590  47.090  0.00  0.00    +0.000 HD
ENDBRANCH   3  26
BRANCH   5  28
ATOM     28  N   UNL     1      -6.885  55.376  48.412  0.00  0.00    +0.000 N 
ATOM     29  H   UNL     1      -6.299  56.124  48.155  0.00  0.00    +0.000 HD
BRANCH  28  30
ATOM     30  C   UNL     1      -6.440  54.223  49.222  0.00  0.00    +0.000 C 
BRANCH  30  31
ATOM     31  C   UNL     1      -5.676  54.676  50.470  0.00  0.00    +0.000 C 
ATOM     32  C   UNL     1      -4.393  53.868  50.691  0.00  0.00    +0.000 C 
ATOM     33  C   UNL     1      -6.432  54.434  51.779  0.00  0.00    +0.000 C 
ATOM     34  C   UNL     1      -4.061  54.050  52.170  0.00  0.00    +0.000 C 
ATOM     35  C   UNL     1      -5.350  54.512  52.847  0.00  0.00    +0.000 C 
ENDBRANCH  30  31
ENDBRANCH  28  30
ENDBRANCH   5  28
TORSDOF 5
ENDMDL
MODEL 6
REMARK VINA RESULT:      -7.8      3.439      4.995
REMARK  Name = 
REMARK  5 active torsions:
REMARK  status: ('A' for Active; 'I' for Inactive)
REMARK    1  A    between atoms: C_6  and  C_10
REMARK    2  A    between atoms: C_14  and  O_18
REMARK    3  A    between atoms: N_17  and  N_20
REMARK    4  A    between atoms: N_20  and  C_23
REMARK    5  A    between atoms: C_23  and  C_26
REMARK                            x       y       z     vdW  Elec       q    Type
REMARK                         _______ _______ _______ _____ _____    ______ ____
ROOT
ATOM      1  C   UNL     1     -11.776  55.777  48.814  0.00  0.00    +0.000 A 
ATOM      2  C   UNL     1     -10.849  54.984  49.677  0.00  0.00    +0.000 A 
ATOM      3  C   UNL     1     -11.864  55.559  47.500  0.00  0.00    +0.000 A 
ATOM      4  O   UNL     1     -10.868  55.136  50.900  0.00  0.00    +0.000 OA
ATOM      5  N   UNL     1      -9.990  54.095  49.022  0.00  0.00    +0.000 N 
ATOM      6  C   UNL     1     -11.073  54.494  46.876  0.00  0.00    +0.000 A 
ATOM      7  C   UNL     1     -10.187  53.736  47.658  0.00  0.00    +0.000 A 
ATOM      8  C   UNL     1     -11.205  54.194  45.509  0.00  0.00    +0.000 A 
ATOM      9  C   UNL     1      -9.520  52.646  47.074  0.00  0.00    +0.000 A 
ATOM     10  C   UNL     1     -10.505  53.134  44.936  0.00  0.00    +0.000 A 
ATOM     11  C   UNL     1      -9.670  52.353  45.722  0.00  0.00    +0.000 A 
ENDROOT
BRANCH   1  17
ATOM     12  S   UNL     1     -13.565  59.169  49.475  0.00  0.00    +0.000 S 
ATOM     13  O   UNL     1     -14.704  59.362  48.599  0.00  0.00    +0.000 OA
ATOM     14  O   UNL     1     -12.667  60.273  49.774  0.00  0.00    +0.000 OA
ATOM     15  N   UNL     1     -12.687  57.956  48.875  0.00  0.00    +0.000 N 
ATOM     16  C   UNL     1     -14.231  58.654  51.018  0.00  0.00    +0.000 A 
ATOM     17  C   UNL     1     -12.668  56.796  49.456  0.00  0.00    +0.000 C 
ATOM     18  C   UNL     1     -14.062  57.327  51.387  0.00  0.00    +0.000 A 
ATOM     19  C   UNL     1     -14.913  59.572  51.825  0.00  0.00    +0.000 A 
ATOM     20  N   UNL     1     -13.387  56.425  50.568  0.00  0.00    +0.000 N 
ATOM     21  C   UNL     1     -14.649  56.898  52.582  0.00  0.00    +0.000 A 
ATOM     22  C   UNL     1     -15.466  59.136  53.026  0.00  0.00    +0.000 A 
ATOM     23  C   UNL     1     -15.340  57.800  53.400  0.00  0.00    +0.000 A 
ATOM     24  H   UNL     1     -12.158  58.097  48.056  0.00  0.00    +0.000 HD
ATOM     25  H   UNL     1     -13.426  55.468  50.798  0.00  0.00    +0.000 HD
ENDBRANCH   1  17
BRANCH   3  26
ATOM     26  O   UNL     1     -12.719  56.238  46.642  0.00  0.00    +0.000 OA
ATOM     27  H   UNL     1     -13.240  55.761  46.027  0.00  0.00    +0.000 HD
ENDBRANCH   3  26
BRANCH   5  28
ATOM     28  N   UNL     1      -8.985  53.425  49.815  0.00  0.00    +0.000 N 
ATOM     29  H   UNL     1      -9.065  52.495  50.129  0.00  0.00    +0.000 HD
BRANCH  28  30
ATOM     30  C   UNL     1      -7.823  54.291  50.103  0.00  0.00    +0.000 C 
BRANCH  30  31
ATOM     31  C   UNL     1      -6.571  53.816  49.360  0.00  0.00    +0.000 C 
ATOM     32  C   UNL     1      -6.490  54.377  47.936  0.00  0.00    +0.000 C 
ATOM     33  C   UNL     1      -6.538  52.306  49.108  0.00  0.00    +0.000 C 
ATOM     34  C   UNL     1      -5.546  53.435  47.193  0.00  0.00    +0.000 C 
ATOM     35  C   UNL     1      -5.502  52.142  48.004  0.00  0.00    +0.000 C 
ENDBRANCH  30  31
ENDBRANCH  28  30
ENDBRANCH   5  28
TORSDOF 5
ENDMDL
MODEL 7
REMARK VINA RESULT:      -7.8      3.763      7.432
REMARK  Name = 
REMARK  5 active torsions:
REMARK  status: ('A' for Active; 'I' for Inactive)
REMARK    1  A    between atoms: C_6  and  C_10
REMARK    2  A    between atoms: C_14  and  O_18
REMARK    3  A    between atoms: N_17  and  N_20
REMARK    4  A    between atoms: N_20  and  C_23
REMARK    5  A    between atoms: C_23  and  C_26
REMARK                            x       y       z     vdW  Elec       q    Type
REMARK                         _______ _______ _______ _____ _____    ______ ____
ROOT
ATOM      1  C   UNL     1     -10.337  55.165  50.747  0.00  0.00    +0.000 A 
ATOM      2  C   UNL     1      -9.987  54.991  49.305  0.00  0.00    +0.000 A 
ATOM      3  C   UNL     1     -11.472  55.758  51.124  0.00  0.00    +0.000 A 
ATOM      4  O   UNL     1      -8.985  54.346  48.989  0.00  0.00    +0.000 OA
ATOM      5  N   UNL     1     -10.845  55.590  48.376  0.00  0.00    +0.000 N 
ATOM      6  C   UNL     1     -12.432  56.218  50.115  0.00  0.00    +0.000 A 
ATOM      7  C   UNL     1     -12.130  56.075  48.751  0.00  0.00    +0.000 A 
ATOM      8  C   UNL     1     -13.667  56.775  50.486  0.00  0.00    +0.000 A 
ATOM      9  C   UNL     1     -13.103  56.414  47.797  0.00  0.00    +0.000 A 
ATOM     10  C   UNL     1     -14.607  57.143  49.524  0.00  0.00    +0.000 A 
ATOM     11  C   UNL     1     -14.327  56.952  48.179  0.00  0.00    +0.000 A 
ENDROOT
BRANCH   1  17
ATOM     12  S   UNL     1      -7.130  54.640  52.887  0.00  0.00    +0.000 S 
ATOM     13  O   UNL     1      -7.011  55.629  53.941  0.00  0.00    +0.000 OA
ATOM     14  O   UNL     1      -5.961  54.228  52.126  0.00  0.00    +0.000 OA
ATOM     15  N   UNL     1      -8.247  55.164  51.848  0.00  0.00    +0.000 N 
ATOM     16  C   UNL     1      -7.740  53.186  53.663  0.00  0.00    +0.000 A 
ATOM     17  C   UNL     1      -9.416  54.605  51.788  0.00  0.00    +0.000 C 
ATOM     18  C   UNL     1      -9.058  52.824  53.418  0.00  0.00    +0.000 A 
ATOM     19  C   UNL     1      -6.907  52.441  54.505  0.00  0.00    +0.000 A 
ATOM     20  N   UNL     1      -9.877  53.582  52.584  0.00  0.00    +0.000 N 
ATOM     21  C   UNL     1      -9.567  51.706  54.087  0.00  0.00    +0.000 A 
ATOM     22  C   UNL     1      -7.420  51.313  55.139  0.00  0.00    +0.000 A 
ATOM     23  C   UNL     1      -8.750  50.951  54.936  0.00  0.00    +0.000 A 
ATOM     24  H   UNL     1      -8.038  55.919  51.251  0.00  0.00    +0.000 HD
ATOM     25  H   UNL     1     -10.839  53.374  52.562  0.00  0.00    +0.000 HD
ENDBRANCH   1  17
BRANCH   3  26
ATOM     26  O   UNL     1     -11.873  55.932  52.441  0.00  0.00    +0.000 OA
ATOM     27  H   UNL     1     -12.689  55.575  52.733  0.00  0.00    +0.000 HD
ENDBRANCH   3  26
BRANCH   5  28
ATOM     28  N   UNL     1     -10.453  55.563  46.985  0.00  0.00    +0.000 N 
ATOM     29  H   UNL     1      -9.727  56.113  46.610  0.00  0.00    +0.000 HD
BRANCH  28  30
ATOM     30  C   UNL     1     -11.262  54.617  46.189  0.00  0.00    +0.000 C 
BRANCH  30  31
ATOM     31  C   UNL     1     -10.395  53.510  45.581  0.00  0.00    +0.000 C 
ATOM     32  C   UNL     1      -8.983  53.998  45.240  0.00  0.00    +0.000 C 
ATOM     33  C   UNL     1     -10.894  53.010  44.223  0.00  0.00    +0.000 C 
ATOM     34  C   UNL     1      -8.460  53.004  44.205  0.00  0.00    +0.000 C 
ATOM     35  C   UNL     1      -9.686  52.300  43.627  0.00  0.00    +0.000 C 
ENDBRANCH  30  31
ENDBRANCH  28  30
ENDBRANCH   5  28
TORSDOF 5
ENDMDL
MODEL 8
REMARK VINA RESULT:      -7.8      3.416      8.272
REMARK  Name = 
REMARK  5 active torsions:
REMARK  status: ('A' for Active; 'I' for Inactive)
REMARK    1  A    between atoms: C_6  and  C_10
REMARK    2  A    between atoms: C_14  and  O_18
REMARK    3  A    between atoms: N_17  and  N_20
REMARK    4  A    between atoms: N_20  and  C_23
REMARK    5  A    between atoms: C_23  and  C_26
REMARK                            x       y       z     vdW  Elec       q    Type
REMARK                         _______ _______ _______ _____ _____    ______ ____
ROOT
ATOM      1  C   UNL     1      -9.797  53.806  49.851  0.00  0.00    +0.000 A 
ATOM      2  C   UNL     1     -10.566  55.087  49.882  0.00  0.00    +0.000 A 
ATOM      3  C   UNL     1      -9.794  53.019  48.773  0.00  0.00    +0.000 A 
ATOM      4  O   UNL     1     -10.463  55.842  50.850  0.00  0.00    +0.000 OA
ATOM      5  N   UNL     1     -11.380  55.355  48.775  0.00  0.00    +0.000 N 
ATOM      6  C   UNL     1     -10.521  53.423  47.565  0.00  0.00    +0.000 A 
ATOM      7  C   UNL     1     -11.260  54.617  47.564  0.00  0.00    +0.000 A 
ATOM      8  C   UNL     1     -10.471  52.650  46.392  0.00  0.00    +0.000 A 
ATOM      9  C   UNL     1     -11.857  55.050  46.369  0.00  0.00    +0.000 A 
ATOM     10  C   UNL     1     -11.103  53.075  45.225  0.00  0.00    +0.000 A 
ATOM     11  C   UNL     1     -11.788  54.281  45.212  0.00  0.00    +0.000 A 
ENDROOT
BRANCH   1  17
ATOM     12  S   UNL     1      -8.481  51.778  52.900  0.00  0.00    +0.000 S 
ATOM     13  O   UNL     1      -7.606  50.695  52.495  0.00  0.00    +0.000 OA
ATOM     14  O   UNL     1      -9.459  51.581  53.958  0.00  0.00    +0.000 OA
ATOM     15  N   UNL     1      -9.260  52.294  51.585  0.00  0.00    +0.000 N 
ATOM     16  C   UNL     1      -7.422  53.067  53.453  0.00  0.00    +0.000 A 
ATOM     17  C   UNL     1      -8.964  53.433  51.040  0.00  0.00    +0.000 C 
ATOM     18  C   UNL     1      -7.289  54.188  52.646  0.00  0.00    +0.000 A 
ATOM     19  C   UNL     1      -6.738  52.936  54.667  0.00  0.00    +0.000 A 
ATOM     20  N   UNL     1      -7.970  54.298  51.436  0.00  0.00    +0.000 N 
ATOM     21  C   UNL     1      -6.395  55.185  53.050  0.00  0.00    +0.000 A 
ATOM     22  C   UNL     1      -5.875  53.952  55.070  0.00  0.00    +0.000 A 
ATOM     23  C   UNL     1      -5.698  55.071  54.259  0.00  0.00    +0.000 A 
ATOM     24  H   UNL     1      -9.969  51.737  51.190  0.00  0.00    +0.000 HD
ATOM     25  H   UNL     1      -7.728  55.036  50.831  0.00  0.00    +0.000 HD
ENDBRANCH   1  17
BRANCH   3  26
ATOM     26  O   UNL     1      -9.085  51.830  48.664  0.00  0.00    +0.000 OA
ATOM     27  H   UNL     1      -8.536  51.547  49.368  0.00  0.00    +0.000 HD
ENDBRANCH   3  26
BRANCH   5  28
ATOM     28  N   UNL     1     -12.245  56.511  48.843  0.00  0.00    +0.000 N 
ATOM     29  H   UNL     1     -11.980  57.411  48.542  0.00  0.00    +0.000 HD
BRANCH  28  30
ATOM     30  C   UNL     1     -13.570  56.192  49.414  0.00  0.00    +0.000 C 
BRANCH  30  31
ATOM     31  C   UNL     1     -14.392  57.460  49.666  0.00  0.00    +0.000 C 
ATOM     32  C   UNL     1     -13.708  58.716  49.115  0.00  0.00    +0.000 C 
ATOM     33  C   UNL     1     -14.550  57.809  51.148  0.00  0.00    +0.000 C 
ATOM     34  C   UNL     1     -14.338  59.877  49.881  0.00  0.00    +0.000 C 
ATOM     35  C   UNL     1     -14.966  59.274  51.137  0.00  0.00    +0.000 C 
ENDBRANCH  30  31
ENDBRANCH  28  30
ENDBRANCH   5  28
TORSDOF 5
ENDMDL
MODEL 9
REMARK VINA RESULT:      -7.7      3.118      8.143
REMARK  Name = 
REMARK  5 active torsions:
REMARK  status: ('A' for Active; 'I' for Inactive)
REMARK    1  A    between atoms: C_6  and  C_10
REMARK    2  A    between atoms: C_14  and  O_18
REMARK    3  A    between atoms: N_17  and  N_20
REMARK    4  A    between atoms: N_20  and  C_23
REMARK    5  A    between atoms: C_23  and  C_26
REMARK                            x       y       z     vdW  Elec       q    Type
REMARK                         _______ _______ _______ _____ _____    ______ ____
ROOT
ATOM      1  C   UNL     1      -9.750  54.173  50.135  0.00  0.00    +0.000 A 
ATOM      2  C   UNL     1     -10.563  55.426  50.073  0.00  0.00    +0.000 A 
ATOM      3  C   UNL     1      -9.702  53.320  49.109  0.00  0.00    +0.000 A 
ATOM      4  O   UNL     1     -10.502  56.243  50.993  0.00  0.00    +0.000 OA
ATOM      5  N   UNL     1     -11.367  55.594  48.940  0.00  0.00    +0.000 N 
ATOM      6  C   UNL     1     -10.423  53.621  47.868  0.00  0.00    +0.000 A 
ATOM      7  C   UNL     1     -11.201  54.786  47.780  0.00  0.00    +0.000 A 
ATOM      8  C   UNL     1     -10.327  52.778  46.747  0.00  0.00    +0.000 A 
ATOM      9  C   UNL     1     -11.794  55.121  46.551  0.00  0.00    +0.000 A 
ATOM     10  C   UNL     1     -10.954  53.106  45.547  0.00  0.00    +0.000 A 
ATOM     11  C   UNL     1     -11.679  54.284  45.446  0.00  0.00    +0.000 A 
ENDROOT
BRANCH   1  17
ATOM     12  S   UNL     1      -6.856  54.448  52.722  0.00  0.00    +0.000 S 
ATOM     13  O   UNL     1      -7.037  55.570  53.622  0.00  0.00    +0.000 OA
ATOM     14  O   UNL     1      -5.541  54.135  52.186  0.00  0.00    +0.000 OA
ATOM     15  N   UNL     1      -7.868  54.649  51.481  0.00  0.00    +0.000 N 
ATOM     16  C   UNL     1      -7.364  53.026  53.621  0.00  0.00    +0.000 A 
ATOM     17  C   UNL     1      -8.924  53.906  51.356  0.00  0.00    +0.000 C 
ATOM     18  C   UNL     1      -8.566  52.429  53.266  0.00  0.00    +0.000 A 
ATOM     19  C   UNL     1      -6.569  52.538  54.664  0.00  0.00    +0.000 A 
ATOM     20  N   UNL     1      -9.350  52.933  52.231  0.00  0.00    +0.000 N 
ATOM     21  C   UNL     1      -9.006  51.339  54.024  0.00  0.00    +0.000 A 
ATOM     22  C   UNL     1      -7.006  51.433  55.389  0.00  0.00    +0.000 A 
ATOM     23  C   UNL     1      -8.227  50.840  55.074  0.00  0.00    +0.000 A 
ATOM     24  H   UNL     1      -7.682  55.345  50.810  0.00  0.00    +0.000 HD
ATOM     25  H   UNL     1     -10.259  52.572  52.117  0.00  0.00    +0.000 HD
ENDBRANCH   1  17
BRANCH   3  26
ATOM     26  O   UNL     1      -8.951  52.153  49.086  0.00  0.00    +0.000 OA
ATOM     27  H   UNL     1      -8.763  51.702  49.885  0.00  0.00    +0.000 HD
ENDBRANCH   3  26
BRANCH   5  28
ATOM     28  N   UNL     1     -12.272  56.721  48.922  0.00  0.00    +0.000 N 
ATOM     29  H   UNL     1     -12.067  57.581  48.487  0.00  0.00    +0.000 HD
BRANCH  28  30
ATOM     30  C   UNL     1     -13.539  56.440  49.628  0.00  0.00    +0.000 C 
BRANCH  30  31
ATOM     31  C   UNL     1     -13.706  57.334  50.860  0.00  0.00    +0.000 C 
ATOM     32  C   UNL     1     -14.435  56.620  52.003  0.00  0.00    +0.000 C 
ATOM     33  C   UNL     1     -14.603  58.551  50.623  0.00  0.00    +0.000 C 
ATOM     34  C   UNL     1     -14.977  57.740  52.887  0.00  0.00    +0.000 C 
ATOM     35  C   UNL     1     -14.988  59.001  52.026  0.00  0.00    +0.000 C 
ENDBRANCH  30  31
ENDBRANCH  28  30
ENDBRANCH   5  28
TORSDOF 5
ENDMDL
