MODEL 1
REMARK VINA RESULT:      -8.0      0.000      0.000
REMARK  Name = 
REMARK  8 active torsions:
REMARK  status: ('A' for Active; 'I' for Inactive)
REMARK    1  A    between atoms: C_6  and  C_10
REMARK    2  A    between atoms: C_14  and  O_18
REMARK    3  A    between atoms: N_17  and  N_20
REMARK    4  A    between atoms: N_20  and  C_23
REMARK    5  A    between atoms: C_23  and  C_26
REMARK    6  A    between atoms: C_26  and  C_28
REMARK    7  A    between atoms: C_28  and  C_29
REMARK    8  A    between atoms: C_28  and  C_30
REMARK                            x       y       z     vdW  Elec       q    Type
REMARK                         _______ _______ _______ _____ _____    ______ ____
ROOT
ATOM      1  C   UNL     1     -10.086  54.518  52.230  0.00  0.00    +0.000 A 
ATOM      2  C   UNL     1      -8.723  55.097  52.068  0.00  0.00    +0.000 A 
ATOM      3  C   UNL     1     -10.271  53.405  52.959  0.00  0.00    +0.000 A 
ATOM      4  O   UNL     1      -8.615  56.094  51.347  0.00  0.00    +0.000 OA
ATOM      5  N   UNL     1      -7.663  54.501  52.761  0.00  0.00    +0.000 N 
ATOM      6  C   UNL     1      -9.140  52.770  53.655  0.00  0.00    +0.000 A 
ATOM      7  C   UNL     1      -7.851  53.324  53.548  0.00  0.00    +0.000 A 
ATOM      8  C   UNL     1      -9.335  51.625  54.448  0.00  0.00    +0.000 A 
ATOM      9  C   UNL     1      -6.783  52.707  54.219  0.00  0.00    +0.000 A 
ATOM     10  C   UNL     1      -8.270  51.032  55.124  0.00  0.00    +0.000 A 
ATOM     11  C   UNL     1      -6.993  51.571  55.006  0.00  0.00    +0.000 A 
ENDROOT
BRANCH   1  17
ATOM     12  S   UNL     1     -12.491  56.038  49.518  0.00  0.00    +0.000 S 
ATOM     13  O   UNL     1     -13.384  55.054  48.944  0.00  0.00    +0.000 OA
ATOM     14  O   UNL     1     -11.861  57.038  48.680  0.00  0.00    +0.000 OA
ATOM     15  N   UNL     1     -11.321  55.237  50.305  0.00  0.00    +0.000 N 
ATOM     16  C   UNL     1     -13.447  56.925  50.694  0.00  0.00    +0.000 A 
ATOM     17  C   UNL     1     -11.261  55.247  51.602  0.00  0.00    +0.000 C 
ATOM     18  C   UNL     1     -13.156  56.744  52.035  0.00  0.00    +0.000 A 
ATOM     19  C   UNL     1     -14.455  57.793  50.264  0.00  0.00    +0.000 A 
ATOM     20  N   UNL     1     -12.157  55.864  52.449  0.00  0.00    +0.000 N 
ATOM     21  C   UNL     1     -13.955  57.400  52.978  0.00  0.00    +0.000 A 
ATOM     22  C   UNL     1     -15.219  58.467  51.212  0.00  0.00    +0.000 A 
ATOM     23  C   UNL     1     -14.975  58.263  52.570  0.00  0.00    +0.000 A 
ATOM     24  H   UNL     1     -10.647  54.736  49.792  0.00  0.00    +0.000 HD
ATOM     25  H   UNL     1     -12.086  55.671  53.412  0.00  0.00    +0.000 HD
ENDBRANCH   1  17
BRANCH   3  26
ATOM     26  O   UNL     1     -11.495  52.793  53.150  0.00  0.00    +0.000 OA
ATOM     27  H   UNL     1     -11.920  52.361  52.435  0.00  0.00    +0.000 HD
ENDBRANCH   3  26
BRANCH   5  28
ATOM     28  N   UNL     1      -6.326  55.031  52.637  0.00  0.00    +0.000 N 
ATOM     29  H   UNL     1      -5.946  55.692  53.260  0.00  0.00    +0.000 HD
BRANCH  28  30
ATOM     30  C   UNL     1      -5.590  54.483  51.489  0.00  0.00    +0.000 C 
BRANCH  30  31
ATOM     31  C   UNL     1      -4.164  54.059  51.851  0.00  0.00    +0.000 C 
BRANCH  31  32
ATOM     32  C   UNL     1      -3.926  52.557  51.564  0.00  0.00    +0.000 C 
ATOM     33  C   UNL     1      -3.469  51.788  52.806  0.00  0.00    +0.000 C 
ATOM     34  C   UNL     1      -5.190  51.917  50.991  0.00  0.00    +0.000 C 
ENDBRANCH  31  32
ENDBRANCH  30  31
ENDBRANCH  28  30
ENDBRANCH   5  28
TORSDOF 6
ENDMDL
MODEL 2
REMARK VINA RESULT:      -7.9      2.071      2.833
REMARK  Name = 
REMARK  8 active torsions:
REMARK  status: ('A' for Active; 'I' for Inactive)
REMARK    1  A    between atoms: C_6  and  C_10
REMARK    2  A    between atoms: C_14  and  O_18
REMARK    3  A    between atoms: N_17  and  N_20
REMARK    4  A    between atoms: N_20  and  C_23
REMARK    5  A    between atoms: C_23  and  C_26
REMARK    6  A    between atoms: C_26  and  C_28
REMARK    7  A    between atoms: C_28  and  C_29
REMARK    8  A    between atoms: C_28  and  C_30
REMARK                            x       y       z     vdW  Elec       q    Type
REMARK                         _______ _______ _______ _____ _____    ______ ____
ROOT
ATOM      1  C   UNL     1     -11.433  53.923  51.436  0.00  0.00    +0.000 A 
ATOM      2  C   UNL     1     -10.448  54.055  52.547  0.00  0.00    +0.000 A 
ATOM      3  C   UNL     1     -11.590  52.750  50.800  0.00  0.00    +0.000 A 
ATOM      4  O   UNL     1     -10.320  55.171  53.058  0.00  0.00    +0.000 OA
ATOM      5  N   UNL     1      -9.758  52.909  52.959  0.00  0.00    +0.000 N 
ATOM      6  C   UNL     1     -10.831  51.562  51.225  0.00  0.00    +0.000 A 
ATOM      7  C   UNL     1      -9.925  51.655  52.297  0.00  0.00    +0.000 A 
ATOM      8  C   UNL     1     -11.017  50.324  50.584  0.00  0.00    +0.000 A 
ATOM      9  C   UNL     1      -9.211  50.512  52.690  0.00  0.00    +0.000 A 
ATOM     10  C   UNL     1     -10.315  49.193  50.995  0.00  0.00    +0.000 A 
ATOM     11  C   UNL     1      -9.409  49.288  52.046  0.00  0.00    +0.000 A 
ENDROOT
BRANCH   1  17
ATOM     12  S   UNL     1     -13.048  56.856  49.379  0.00  0.00    +0.000 S 
ATOM     13  O   UNL     1     -14.122  56.413  48.516  0.00  0.00    +0.000 OA
ATOM     14  O   UNL     1     -12.086  57.836  48.913  0.00  0.00    +0.000 OA
ATOM     15  N   UNL     1     -12.229  55.541  49.857  0.00  0.00    +0.000 N 
ATOM     16  C   UNL     1     -13.823  57.571  50.783  0.00  0.00    +0.000 A 
ATOM     17  C   UNL     1     -12.291  55.125  51.085  0.00  0.00    +0.000 C 
ATOM     18  C   UNL     1     -13.723  56.901  51.990  0.00  0.00    +0.000 A 
ATOM     19  C   UNL     1     -14.502  58.788  50.663  0.00  0.00    +0.000 A 
ATOM     20  N   UNL     1     -13.054  55.682  52.090  0.00  0.00    +0.000 N 
ATOM     21  C   UNL     1     -14.391  57.433  53.098  0.00  0.00    +0.000 A 
ATOM     22  C   UNL     1     -15.133  59.324  51.782  0.00  0.00    +0.000 A 
ATOM     23  C   UNL     1     -15.086  58.642  52.998  0.00  0.00    +0.000 A 
ATOM     24  H   UNL     1     -11.677  55.050  49.206  0.00  0.00    +0.000 HD
ATOM     25  H   UNL     1     -13.132  55.185  52.936  0.00  0.00    +0.000 HD
ENDBRANCH   1  17
BRANCH   3  26
ATOM     26  O   UNL     1     -12.467  52.542  49.754  0.00  0.00    +0.000 OA
ATOM     27  H   UNL     1     -12.191  52.702  48.872  0.00  0.00    +0.000 HD
ENDBRANCH   3  26
BRANCH   5  28
ATOM     28  N   UNL     1      -8.797  52.989  54.034  0.00  0.00    +0.000 N 
ATOM     29  H   UNL     1      -9.034  52.869  54.982  0.00  0.00    +0.000 HD
BRANCH  28  30
ATOM     30  C   UNL     1      -7.430  53.266  53.570  0.00  0.00    +0.000 C 
BRANCH  30  31
ATOM     31  C   UNL     1      -6.461  53.543  54.722  0.00  0.00    +0.000 C 
BRANCH  31  32
ATOM     32  C   UNL     1      -5.908  54.987  54.665  0.00  0.00    +0.000 C 
ATOM     33  C   UNL     1      -4.438  55.036  54.240  0.00  0.00    +0.000 C 
ATOM     34  C   UNL     1      -6.752  55.845  53.722  0.00  0.00    +0.000 C 
ENDBRANCH  31  32
ENDBRANCH  30  31
ENDBRANCH  28  30
ENDBRANCH   5  28
TORSDOF 6
ENDMDL
MODEL 3
REMARK VINA RESULT:      -7.7      2.797      8.239
REMARK  Name = 
REMARK  8 active torsions:
REMARK  status: ('A' for Active; 'I' for Inactive)
REMARK    1  A    between atoms: C_6  and  C_10
REMARK    2  A    between atoms: C_14  and  O_18
REMARK    3  A    between atoms: N_17  and  N_20
REMARK    4  A    between atoms: N_20  and  C_23
REMARK    5  A    between atoms: C_23  and  C_26
REMARK    6  A    between atoms: C_26  and  C_28
REMARK    7  A    between atoms: C_28  and  C_29
REMARK    8  A    between atoms: C_28  and  C_30
REMARK                            x       y       z     vdW  Elec       q    Type
REMARK                         _______ _______ _______ _____ _____    ______ ____
ROOT
ATOM      1  C   UNL     1      -9.873  54.367  50.929  0.00  0.00    +0.000 A 
ATOM      2  C   UNL     1     -11.032  55.238  51.280  0.00  0.00    +0.000 A 
ATOM      3  C   UNL     1      -9.614  54.063  49.647  0.00  0.00    +0.000 A 
ATOM      4  O   UNL     1     -11.243  55.440  52.479  0.00  0.00    +0.000 OA
ATOM      5  N   UNL     1     -11.783  55.791  50.237  0.00  0.00    +0.000 N 
ATOM      6  C   UNL     1     -10.434  54.627  48.563  0.00  0.00    +0.000 A 
ATOM      7  C   UNL     1     -11.508  55.482  48.870  0.00  0.00    +0.000 A 
ATOM      8  C   UNL     1     -10.144  54.339  47.218  0.00  0.00    +0.000 A 
ATOM      9  C   UNL     1     -12.280  56.014  47.824  0.00  0.00    +0.000 A 
ATOM     10  C   UNL     1     -10.906  54.886  46.188  0.00  0.00    +0.000 A 
ATOM     11  C   UNL     1     -11.977  55.720  46.491  0.00  0.00    +0.000 A 
ENDROOT
BRANCH   1  17
ATOM     12  S   UNL     1      -6.695  53.915  53.197  0.00  0.00    +0.000 S 
ATOM     13  O   UNL     1      -6.516  55.000  54.137  0.00  0.00    +0.000 OA
ATOM     14  O   UNL     1      -5.558  53.354  52.495  0.00  0.00    +0.000 OA
ATOM     15  N   UNL     1      -7.775  54.399  52.088  0.00  0.00    +0.000 N 
ATOM     16  C   UNL     1      -7.395  52.593  54.116  0.00  0.00    +0.000 A 
ATOM     17  C   UNL     1      -8.967  53.886  52.048  0.00  0.00    +0.000 C 
ATOM     18  C   UNL     1      -8.711  52.249  53.858  0.00  0.00    +0.000 A 
ATOM     19  C   UNL     1      -6.623  51.915  55.065  0.00  0.00    +0.000 A 
ATOM     20  N   UNL     1      -9.472  52.943  52.920  0.00  0.00    +0.000 N 
ATOM     21  C   UNL     1      -9.293  51.238  54.631  0.00  0.00    +0.000 A 
ATOM     22  C   UNL     1      -7.204  50.887  55.802  0.00  0.00    +0.000 A 
ATOM     23  C   UNL     1      -8.542  50.555  55.592  0.00  0.00    +0.000 A 
ATOM     24  H   UNL     1      -7.524  55.093  51.437  0.00  0.00    +0.000 HD
ATOM     25  H   UNL     1     -10.436  52.748  52.876  0.00  0.00    +0.000 HD
ENDBRANCH   1  17
BRANCH   3  26
ATOM     26  O   UNL     1      -8.572  53.254  49.234  0.00  0.00    +0.000 OA
ATOM     27  H   UNL     1      -8.734  52.549  48.637  0.00  0.00    +0.000 HD
ENDBRANCH   3  26
BRANCH   5  28
ATOM     28  N   UNL     1     -12.911  56.644  50.529  0.00  0.00    +0.000 N 
ATOM     29  H   UNL     1     -12.855  57.626  50.554  0.00  0.00    +0.000 HD
BRANCH  28  30
ATOM     30  C   UNL     1     -14.151  55.896  50.783  0.00  0.00    +0.000 C 
BRANCH  30  31
ATOM     31  C   UNL     1     -15.295  56.796  51.258  0.00  0.00    +0.000 C 
BRANCH  31  32
ATOM     32  C   UNL     1     -14.768  58.138  51.820  0.00  0.00    +0.000 C 
ATOM     33  C   UNL     1     -15.207  59.339  50.979  0.00  0.00    +0.000 C 
ATOM     34  C   UNL     1     -15.220  58.324  53.269  0.00  0.00    +0.000 C 
ENDBRANCH  31  32
ENDBRANCH  30  31
ENDBRANCH  28  30
ENDBRANCH   5  28
TORSDOF 6
ENDMDL
MODEL 4
REMARK VINA RESULT:      -7.7      3.516      7.584
REMARK  Name = 
REMARK  8 active torsions:
REMARK  status: ('A' for Active; 'I' for Inactive)
REMARK    1  A    between atoms: C_6  and  C_10
REMARK    2  A    between atoms: C_14  and  O_18
REMARK    3  A    between atoms: N_17  and  N_20
REMARK    4  A    between atoms: N_20  and  C_23
REMARK    5  A    between atoms: C_23  and  C_26
REMARK    6  A    between atoms: C_26  and  C_28
REMARK    7  A    between atoms: C_28  and  C_29
REMARK    8  A    between atoms: C_28  and  C_30
REMARK                            x       y       z     vdW  Elec       q    Type
REMARK                         _______ _______ _______ _____ _____    ______ ____
ROOT
ATOM      1  C   UNL     1     -10.197  55.240  50.753  0.00  0.00    +0.000 A 
ATOM      2  C   UNL     1      -9.775  55.170  49.325  0.00  0.00    +0.000 A 
ATOM      3  C   UNL     1     -11.405  55.725  51.083  0.00  0.00    +0.000 A 
ATOM      4  O   UNL     1      -8.635  54.759  49.092  0.00  0.00    +0.000 OA
ATOM      5  N   UNL     1     -10.700  55.543  48.343  0.00  0.00    +0.000 N 
ATOM      6  C   UNL     1     -12.354  56.144  50.039  0.00  0.00    +0.000 A 
ATOM      7  C   UNL     1     -11.991  56.049  48.684  0.00  0.00    +0.000 A 
ATOM      8  C   UNL     1     -13.633  56.619  50.379  0.00  0.00    +0.000 A 
ATOM      9  C   UNL     1     -12.909  56.452  47.700  0.00  0.00    +0.000 A 
ATOM     10  C   UNL     1     -14.542  56.999  49.394  0.00  0.00    +0.000 A 
ATOM     11  C   UNL     1     -14.178  56.919  48.054  0.00  0.00    +0.000 A 
ENDROOT
BRANCH   1  17
ATOM     12  S   UNL     1      -6.994  54.774  52.983  0.00  0.00    +0.000 S 
ATOM     13  O   UNL     1      -6.913  55.740  54.058  0.00  0.00    +0.000 OA
ATOM     14  O   UNL     1      -5.811  54.410  52.230  0.00  0.00    +0.000 OA
ATOM     15  N   UNL     1      -8.111  55.303  51.933  0.00  0.00    +0.000 N 
ATOM     16  C   UNL     1      -7.577  53.288  53.715  0.00  0.00    +0.000 A 
ATOM     17  C   UNL     1      -9.253  54.698  51.812  0.00  0.00    +0.000 C 
ATOM     18  C   UNL     1      -8.857  52.868  53.397  0.00  0.00    +0.000 A 
ATOM     19  C   UNL     1      -6.750  52.562  54.578  0.00  0.00    +0.000 A 
ATOM     20  N   UNL     1      -9.675  53.610  52.547  0.00  0.00    +0.000 N 
ATOM     21  C   UNL     1      -9.350  51.719  54.026  0.00  0.00    +0.000 A 
ATOM     22  C   UNL     1      -7.240  51.401  55.168  0.00  0.00    +0.000 A 
ATOM     23  C   UNL     1      -8.543  50.984  54.900  0.00  0.00    +0.000 A 
ATOM     24  H   UNL     1      -7.921  56.095  51.381  0.00  0.00    +0.000 HD
ATOM     25  H   UNL     1     -10.618  53.339  52.466  0.00  0.00    +0.000 HD
ENDBRANCH   1  17
BRANCH   3  26
ATOM     26  O   UNL     1     -11.871  55.839  52.379  0.00  0.00    +0.000 OA
ATOM     27  H   UNL     1     -12.341  55.130  52.772  0.00  0.00    +0.000 HD
ENDBRANCH   3  26
BRANCH   5  28
ATOM     28  N   UNL     1     -10.337  55.487  46.946  0.00  0.00    +0.000 N 
ATOM     29  H   UNL     1     -10.025  56.269  46.436  0.00  0.00    +0.000 HD
BRANCH  28  30
ATOM     30  C   UNL     1     -10.481  54.144  46.365  0.00  0.00    +0.000 C 
BRANCH  30  31
ATOM     31  C   UNL     1     -11.604  54.069  45.327  0.00  0.00    +0.000 C 
BRANCH  31  32
ATOM     32  C   UNL     1     -11.957  52.604  44.976  0.00  0.00    +0.000 C 
ATOM     33  C   UNL     1     -10.818  51.884  44.250  0.00  0.00    +0.000 C 
ATOM     34  C   UNL     1     -12.341  51.830  46.238  0.00  0.00    +0.000 C 
ENDBRANCH  31  32
ENDBRANCH  30  31
ENDBRANCH  28  30
ENDBRANCH   5  28
TORSDOF 6
ENDMDL
MODEL 5
REMARK VINA RESULT:      -7.6      3.350      5.105
REMARK  Name = 
REMARK  8 active torsions:
REMARK  status: ('A' for Active; 'I' for Inactive)
REMARK    1  A    between atoms: C_6  and  C_10
REMARK    2  A    between atoms: C_14  and  O_18
REMARK    3  A    between atoms: N_17  and  N_20
REMARK    4  A    between atoms: N_20  and  C_23
REMARK    5  A    between atoms: C_23  and  C_26
REMARK    6  A    between atoms: C_26  and  C_28
REMARK    7  A    between atoms: C_28  and  C_29
REMARK    8  A    between atoms: C_28  and  C_30
REMARK                            x       y       z     vdW  Elec       q    Type
REMARK                         _______ _______ _______ _____ _____    ______ ____
ROOT
ATOM      1  C   UNL     1     -11.668  55.901  48.816  0.00  0.00    +0.000 A 
ATOM      2  C   UNL     1     -10.685  55.201  49.691  0.00  0.00    +0.000 A 
ATOM      3  C   UNL     1     -11.752  55.601  47.509  0.00  0.00    +0.000 A 
ATOM      4  O   UNL     1     -10.626  55.556  50.871  0.00  0.00    +0.000 OA
ATOM      5  N   UNL     1      -9.918  54.172  49.132  0.00  0.00    +0.000 N 
ATOM      6  C   UNL     1     -10.914  54.538  46.931  0.00  0.00    +0.000 A 
ATOM      7  C   UNL     1     -10.008  53.838  47.747  0.00  0.00    +0.000 A 
ATOM      8  C   UNL     1     -11.024  54.197  45.571  0.00  0.00    +0.000 A 
ATOM      9  C   UNL     1      -9.217  52.825  47.179  0.00  0.00    +0.000 A 
ATOM     10  C   UNL     1     -10.246  53.179  45.023  0.00  0.00    +0.000 A 
ATOM     11  C   UNL     1      -9.340  52.496  45.827  0.00  0.00    +0.000 A 
ENDROOT
BRANCH   1  17
ATOM     12  S   UNL     1     -13.602  59.256  49.488  0.00  0.00    +0.000 S 
ATOM     13  O   UNL     1     -14.739  59.435  48.611  0.00  0.00    +0.000 OA
ATOM     14  O   UNL     1     -12.733  60.373  49.804  0.00  0.00    +0.000 OA
ATOM     15  N   UNL     1     -12.685  58.072  48.867  0.00  0.00    +0.000 N 
ATOM     16  C   UNL     1     -14.259  58.707  51.021  0.00  0.00    +0.000 A 
ATOM     17  C   UNL     1     -12.606  56.914  49.449  0.00  0.00    +0.000 C 
ATOM     18  C   UNL     1     -14.009  57.400  51.402  0.00  0.00    +0.000 A 
ATOM     19  C   UNL     1     -14.996  59.586  51.821  0.00  0.00    +0.000 A 
ATOM     20  N   UNL     1     -13.284  56.532  50.588  0.00  0.00    +0.000 N 
ATOM     21  C   UNL     1     -14.582  56.939  52.592  0.00  0.00    +0.000 A 
ATOM     22  C   UNL     1     -15.530  59.124  53.020  0.00  0.00    +0.000 A 
ATOM     23  C   UNL     1     -15.332  57.798  53.402  0.00  0.00    +0.000 A 
ATOM     24  H   UNL     1     -12.183  58.232  48.036  0.00  0.00    +0.000 HD
ATOM     25  H   UNL     1     -13.255  55.582  50.842  0.00  0.00    +0.000 HD
ENDBRANCH   1  17
BRANCH   3  26
ATOM     26  O   UNL     1     -12.622  56.209  46.625  0.00  0.00    +0.000 OA
ATOM     27  H   UNL     1     -12.445  57.076  46.314  0.00  0.00    +0.000 HD
ENDBRANCH   3  26
BRANCH   5  28
ATOM     28  N   UNL     1      -8.956  53.463  49.943  0.00  0.00    +0.000 N 
ATOM     29  H   UNL     1      -9.132  52.582  50.345  0.00  0.00    +0.000 HD
BRANCH  28  30
ATOM     30  C   UNL     1      -7.688  54.189  50.105  0.00  0.00    +0.000 C 
BRANCH  30  31
ATOM     31  C   UNL     1      -7.272  54.327  51.572  0.00  0.00    +0.000 C 
BRANCH  31  32
ATOM     32  C   UNL     1      -7.682  55.702  52.153  0.00  0.00    +0.000 C 
ATOM     33  C   UNL     1      -6.918  56.048  53.434  0.00  0.00    +0.000 C 
ATOM     34  C   UNL     1      -7.479  56.803  51.112  0.00  0.00    +0.000 C 
ENDBRANCH  31  32
ENDBRANCH  30  31
ENDBRANCH  28  30
ENDBRANCH   5  28
TORSDOF 6
ENDMDL
MODEL 6
REMARK VINA RESULT:      -7.5      2.692      8.455
REMARK  Name = 
REMARK  8 active torsions:
REMARK  status: ('A' for Active; 'I' for Inactive)
REMARK    1  A    between atoms: C_6  and  C_10
REMARK    2  A    between atoms: C_14  and  O_18
REMARK    3  A    between atoms: N_17  and  N_20
REMARK    4  A    between atoms: N_20  and  C_23
REMARK    5  A    between atoms: C_23  and  C_26
REMARK    6  A    between atoms: C_26  and  C_28
REMARK    7  A    between atoms: C_28  and  C_29
REMARK    8  A    between atoms: C_28  and  C_30
REMARK                            x       y       z     vdW  Elec       q    Type
REMARK                         _______ _______ _______ _____ _____    ______ ____
ROOT
ATOM      1  C   UNL     1      -9.772  53.970  50.731  0.00  0.00    +0.000 A 
ATOM      2  C   UNL     1     -10.979  54.318  51.533  0.00  0.00    +0.000 A 
ATOM      3  C   UNL     1      -9.728  54.237  49.415  0.00  0.00    +0.000 A 
ATOM      4  O   UNL     1     -10.974  54.004  52.727  0.00  0.00    +0.000 OA
ATOM      5  N   UNL     1     -12.023  55.000  50.896  0.00  0.00    +0.000 N 
ATOM      6  C   UNL     1     -10.848  54.927  48.754  0.00  0.00    +0.000 A 
ATOM      7  C   UNL     1     -11.981  55.299  49.500  0.00  0.00    +0.000 A 
ATOM      8  C   UNL     1     -10.792  55.239  47.384  0.00  0.00    +0.000 A 
ATOM      9  C   UNL     1     -13.040  55.957  48.855  0.00  0.00    +0.000 A 
ATOM     10  C   UNL     1     -11.842  55.908  46.758  0.00  0.00    +0.000 A 
ATOM     11  C   UNL     1     -12.968  56.263  47.493  0.00  0.00    +0.000 A 
ENDROOT
BRANCH   1  17
ATOM     12  S   UNL     1      -7.631  51.619  53.041  0.00  0.00    +0.000 S 
ATOM     13  O   UNL     1      -7.322  50.350  52.419  0.00  0.00    +0.000 OA
ATOM     14  O   UNL     1      -8.007  51.682  54.439  0.00  0.00    +0.000 OA
ATOM     15  N   UNL     1      -8.813  52.315  52.175  0.00  0.00    +0.000 N 
ATOM     16  C   UNL     1      -6.179  52.595  52.887  0.00  0.00    +0.000 A 
ATOM     17  C   UNL     1      -8.578  53.365  51.448  0.00  0.00    +0.000 C 
ATOM     18  C   UNL     1      -6.215  53.679  52.027  0.00  0.00    +0.000 A 
ATOM     19  C   UNL     1      -5.040  52.276  53.633  0.00  0.00    +0.000 A 
ATOM     20  N   UNL     1      -7.354  53.977  51.280  0.00  0.00    +0.000 N 
ATOM     21  C   UNL     1      -5.043  54.423  51.853  0.00  0.00    +0.000 A 
ATOM     22  C   UNL     1      -3.891  53.047  53.477  0.00  0.00    +0.000 A 
ATOM     23  C   UNL     1      -3.889  54.114  52.580  0.00  0.00    +0.000 A 
ATOM     24  H   UNL     1      -9.720  51.935  52.200  0.00  0.00    +0.000 HD
ATOM     25  H   UNL     1      -7.279  54.670  50.586  0.00  0.00    +0.000 HD
ENDBRANCH   1  17
BRANCH   3  26
ATOM     26  O   UNL     1      -8.658  53.937  48.595  0.00  0.00    +0.000 OA
ATOM     27  H   UNL     1      -7.807  53.803  48.964  0.00  0.00    +0.000 HD
ENDBRANCH   3  26
BRANCH   5  28
ATOM     28  N   UNL     1     -13.210  55.362  51.635  0.00  0.00    +0.000 N 
ATOM     29  H   UNL     1     -13.972  54.753  51.766  0.00  0.00    +0.000 HD
BRANCH  28  30
ATOM     30  C   UNL     1     -13.163  56.730  52.171  0.00  0.00    +0.000 C 
BRANCH  30  31
ATOM     31  C   UNL     1     -14.514  57.192  52.725  0.00  0.00    +0.000 C 
BRANCH  31  32
ATOM     32  C   UNL     1     -15.399  57.818  51.621  0.00  0.00    +0.000 C 
ATOM     33  C   UNL     1     -14.608  58.734  50.685  0.00  0.00    +0.000 C 
ATOM     34  C   UNL     1     -16.097  56.724  50.813  0.00  0.00    +0.000 C 
ENDBRANCH  31  32
ENDBRANCH  30  31
ENDBRANCH  28  30
ENDBRANCH   5  28
TORSDOF 6
ENDMDL
MODEL 7
REMARK VINA RESULT:      -7.4      4.519      7.375
REMARK  Name = 
REMARK  8 active torsions:
REMARK  status: ('A' for Active; 'I' for Inactive)
REMARK    1  A    between atoms: C_6  and  C_10
REMARK    2  A    between atoms: C_14  and  O_18
REMARK    3  A    between atoms: N_17  and  N_20
REMARK    4  A    between atoms: N_20  and  C_23
REMARK    5  A    between atoms: C_23  and  C_26
REMARK    6  A    between atoms: C_26  and  C_28
REMARK    7  A    between atoms: C_28  and  C_29
REMARK    8  A    between atoms: C_28  and  C_30
REMARK                            x       y       z     vdW  Elec       q    Type
REMARK                         _______ _______ _______ _____ _____    ______ ____
ROOT
ATOM      1  C   UNL     1     -11.329  54.688  48.367  0.00  0.00    +0.000 A 
ATOM      2  C   UNL     1     -11.151  54.184  49.759  0.00  0.00    +0.000 A 
ATOM      3  C   UNL     1     -12.203  55.673  48.106  0.00  0.00    +0.000 A 
ATOM      4  O   UNL     1     -10.366  53.245  49.924  0.00  0.00    +0.000 OA
ATOM      5  N   UNL     1     -11.854  54.820  50.788  0.00  0.00    +0.000 N 
ATOM      6  C   UNL     1     -12.960  56.310  49.197  0.00  0.00    +0.000 A 
ATOM      7  C   UNL     1     -12.778  55.877  50.522  0.00  0.00    +0.000 A 
ATOM      8  C   UNL     1     -13.851  57.365  48.932  0.00  0.00    +0.000 A 
ATOM      9  C   UNL     1     -13.507  56.495  51.551  0.00  0.00    +0.000 A 
ATOM     10  C   UNL     1     -14.555  57.983  49.963  0.00  0.00    +0.000 A 
ATOM     11  C   UNL     1     -14.387  57.545  51.272  0.00  0.00    +0.000 A 
ENDROOT
BRANCH   1  17
ATOM     12  S   UNL     1      -8.204  53.971  46.093  0.00  0.00    +0.000 S 
ATOM     13  O   UNL     1      -7.268  53.048  46.699  0.00  0.00    +0.000 OA
ATOM     14  O   UNL     1      -7.729  55.137  45.377  0.00  0.00    +0.000 OA
ATOM     15  N   UNL     1      -9.215  54.477  47.256  0.00  0.00    +0.000 N 
ATOM     16  C   UNL     1      -9.121  53.029  44.929  0.00  0.00    +0.000 A 
ATOM     17  C   UNL     1     -10.458  54.101  47.270  0.00  0.00    +0.000 C 
ATOM     18  C   UNL     1     -10.455  52.780  45.203  0.00  0.00    +0.000 A 
ATOM     19  C   UNL     1      -8.505  52.570  43.761  0.00  0.00    +0.000 A 
ATOM     20  N   UNL     1     -11.052  53.232  46.379  0.00  0.00    +0.000 N 
ATOM     21  C   UNL     1     -11.174  51.977  44.310  0.00  0.00    +0.000 A 
ATOM     22  C   UNL     1      -9.242  51.803  42.863  0.00  0.00    +0.000 A 
ATOM     23  C   UNL     1     -10.574  51.498  43.142  0.00  0.00    +0.000 A 
ATOM     24  H   UNL     1      -8.882  55.077  47.961  0.00  0.00    +0.000 HD
ATOM     25  H   UNL     1     -11.958  52.910  46.586  0.00  0.00    +0.000 HD
ENDBRANCH   1  17
BRANCH   3  26
ATOM     26  O   UNL     1     -12.442  56.190  46.847  0.00  0.00    +0.000 OA
ATOM     27  H   UNL     1     -12.219  57.080  46.656  0.00  0.00    +0.000 HD
ENDBRANCH   3  26
BRANCH   5  28
ATOM     28  N   UNL     1     -11.710  54.370  52.152  0.00  0.00    +0.000 N 
ATOM     29  H   UNL     1     -12.276  53.673  52.555  0.00  0.00    +0.000 HD
BRANCH  28  30
ATOM     30  C   UNL     1     -10.630  55.056  52.876  0.00  0.00    +0.000 C 
BRANCH  30  31
ATOM     31  C   UNL     1      -9.492  54.111  53.272  0.00  0.00    +0.000 C 
BRANCH  31  32
ATOM     32  C   UNL     1      -8.109  54.700  52.907  0.00  0.00    +0.000 C 
ATOM     33  C   UNL     1      -8.167  55.620  51.685  0.00  0.00    +0.000 C 
ATOM     34  C   UNL     1      -7.519  55.455  54.099  0.00  0.00    +0.000 C 
ENDBRANCH  31  32
ENDBRANCH  30  31
ENDBRANCH  28  30
ENDBRANCH   5  28
TORSDOF 6
ENDMDL
MODEL 8
REMARK VINA RESULT:      -7.4      3.213      5.131
REMARK  Name = 
REMARK  8 active torsions:
REMARK  status: ('A' for Active; 'I' for Inactive)
REMARK    1  A    between atoms: C_6  and  C_10
REMARK    2  A    between atoms: C_14  and  O_18
REMARK    3  A    between atoms: N_17  and  N_20
REMARK    4  A    between atoms: N_20  and  C_23
REMARK    5  A    between atoms: C_23  and  C_26
REMARK    6  A    between atoms: C_26  and  C_28
REMARK    7  A    between atoms: C_28  and  C_29
REMARK    8  A    between atoms: C_28  and  C_30
REMARK                            x       y       z     vdW  Elec       q    Type
REMARK                         _______ _______ _______ _____ _____    ______ ____
ROOT
ATOM      1  C   UNL     1     -11.348  55.956  48.857  0.00  0.00    +0.000 A 
ATOM      2  C   UNL     1     -10.272  55.416  49.735  0.00  0.00    +0.000 A 
ATOM      3  C   UNL     1     -11.448  55.558  47.578  0.00  0.00    +0.000 A 
ATOM      4  O   UNL     1     -10.207  55.857  50.886  0.00  0.00    +0.000 OA
ATOM      5  N   UNL     1      -9.427  54.428  49.215  0.00  0.00    +0.000 N 
ATOM      6  C   UNL     1     -10.530  54.542  47.037  0.00  0.00    +0.000 A 
ATOM      7  C   UNL     1      -9.532  53.990  47.859  0.00  0.00    +0.000 A 
ATOM      8  C   UNL     1     -10.653  54.098  45.708  0.00  0.00    +0.000 A 
ATOM      9  C   UNL     1      -8.666  53.021  47.328  0.00  0.00    +0.000 A 
ATOM     10  C   UNL     1      -9.799  53.122  45.198  0.00  0.00    +0.000 A 
ATOM     11  C   UNL     1      -8.803  52.587  46.007  0.00  0.00    +0.000 A 
ENDROOT
BRANCH   1  17
ATOM     12  S   UNL     1     -13.509  59.187  49.439  0.00  0.00    +0.000 S 
ATOM     13  O   UNL     1     -14.646  59.271  48.548  0.00  0.00    +0.000 OA
ATOM     14  O   UNL     1     -12.720  60.365  49.739  0.00  0.00    +0.000 OA
ATOM     15  N   UNL     1     -12.509  58.054  48.852  0.00  0.00    +0.000 N 
ATOM     16  C   UNL     1     -14.144  58.627  50.978  0.00  0.00    +0.000 A 
ATOM     17  C   UNL     1     -12.358  56.916  49.460  0.00  0.00    +0.000 C 
ATOM     18  C   UNL     1     -13.811  57.348  51.389  0.00  0.00    +0.000 A 
ATOM     19  C   UNL     1     -14.946  59.471  51.752  0.00  0.00    +0.000 A 
ATOM     20  N   UNL     1     -13.022  56.513  50.600  0.00  0.00    +0.000 N 
ATOM     21  C   UNL     1     -14.365  56.874  52.583  0.00  0.00    +0.000 A 
ATOM     22  C   UNL     1     -15.461  58.999  52.956  0.00  0.00    +0.000 A 
ATOM     23  C   UNL     1     -15.179  57.697  53.367  0.00  0.00    +0.000 A 
ATOM     24  H   UNL     1     -12.009  58.230  48.022  0.00  0.00    +0.000 HD
ATOM     25  H   UNL     1     -12.932  55.573  50.875  0.00  0.00    +0.000 HD
ENDBRANCH   1  17
BRANCH   3  26
ATOM     26  O   UNL     1     -12.404  56.017  46.692  0.00  0.00    +0.000 OA
ATOM     27  H   UNL     1     -12.166  56.627  46.021  0.00  0.00    +0.000 HD
ENDBRANCH   3  26
BRANCH   5  28
ATOM     28  N   UNL     1      -8.373  53.872  50.030  0.00  0.00    +0.000 N 
ATOM     29  H   UNL     1      -7.434  54.162  49.973  0.00  0.00    +0.000 HD
BRANCH  28  30
ATOM     30  C   UNL     1      -8.846  52.831  50.955  0.00  0.00    +0.000 C 
BRANCH  30  31
ATOM     31  C   UNL     1      -8.409  53.085  52.401  0.00  0.00    +0.000 C 
BRANCH  31  32
ATOM     32  C   UNL     1      -9.596  52.954  53.385  0.00  0.00    +0.000 C 
ATOM     33  C   UNL     1     -10.952  52.968  52.675  0.00  0.00    +0.000 C 
ATOM     34  C   UNL     1      -9.459  51.679  54.219  0.00  0.00    +0.000 C 
ENDBRANCH  31  32
ENDBRANCH  30  31
ENDBRANCH  28  30
ENDBRANCH   5  28
TORSDOF 6
ENDMDL
MODEL 9
REMARK VINA RESULT:      -7.3      4.502      7.592
REMARK  Name = 
REMARK  8 active torsions:
REMARK  status: ('A' for Active; 'I' for Inactive)
REMARK    1  A    between atoms: C_6  and  C_10
REMARK    2  A    between atoms: C_14  and  O_18
REMARK    3  A    between atoms: N_17  and  N_20
REMARK    4  A    between atoms: N_20  and  C_23
REMARK    5  A    between atoms: C_23  and  C_26
REMARK    6  A    between atoms: C_26  and  C_28
REMARK    7  A    between atoms: C_28  and  C_29
REMARK    8  A    between atoms: C_28  and  C_30
REMARK                            x       y       z     vdW  Elec       q    Type
REMARK                         _______ _______ _______ _____ _____    ______ ____
ROOT
ATOM      1  C   UNL     1     -10.344  53.692  48.986  0.00  0.00    +0.000 A 
ATOM      2  C   UNL     1     -11.606  54.091  49.673  0.00  0.00    +0.000 A 
ATOM      3  C   UNL     1      -9.165  53.780  49.623  0.00  0.00    +0.000 A 
ATOM      4  O   UNL     1     -12.650  54.031  49.016  0.00  0.00    +0.000 OA
ATOM      5  N   UNL     1     -11.534  54.478  51.016  0.00  0.00    +0.000 N 
ATOM      6  C   UNL     1      -9.104  54.219  51.026  0.00  0.00    +0.000 A 
ATOM      7  C   UNL     1     -10.286  54.563  51.705  0.00  0.00    +0.000 A 
ATOM      8  C   UNL     1      -7.875  54.280  51.707  0.00  0.00    +0.000 A 
ATOM      9  C   UNL     1     -10.210  54.980  53.044  0.00  0.00    +0.000 A 
ATOM     10  C   UNL     1      -7.814  54.677  53.041  0.00  0.00    +0.000 A 
ATOM     11  C   UNL     1      -8.982  55.031  53.709  0.00  0.00    +0.000 A 
ENDROOT
BRANCH   1  17
ATOM     12  S   UNL     1     -11.383  51.409  45.960  0.00  0.00    +0.000 S 
ATOM     13  O   UNL     1     -12.679  51.753  45.415  0.00  0.00    +0.000 OA
ATOM     14  O   UNL     1     -10.996  50.022  46.121  0.00  0.00    +0.000 OA
ATOM     15  N   UNL     1     -11.250  52.135  47.404  0.00  0.00    +0.000 N 
ATOM     16  C   UNL     1     -10.201  52.116  44.870  0.00  0.00    +0.000 A 
ATOM     17  C   UNL     1     -10.435  53.131  47.578  0.00  0.00    +0.000 C 
ATOM     18  C   UNL     1      -9.453  53.186  45.330  0.00  0.00    +0.000 A 
ATOM     19  C   UNL     1     -10.029  51.587  43.587  0.00  0.00    +0.000 A 
ATOM     20  N   UNL     1      -9.646  53.711  46.607  0.00  0.00    +0.000 N 
ATOM     21  C   UNL     1      -8.555  53.793  44.446  0.00  0.00    +0.000 A 
ATOM     22  C   UNL     1      -9.105  52.178  42.729  0.00  0.00    +0.000 A 
ATOM     23  C   UNL     1      -8.375  53.287  43.155  0.00  0.00    +0.000 A 
ATOM     24  H   UNL     1     -11.795  51.817  48.159  0.00  0.00    +0.000 HD
ATOM     25  H   UNL     1      -9.188  54.553  46.830  0.00  0.00    +0.000 HD
ENDBRANCH   1  17
BRANCH   3  26
ATOM     26  O   UNL     1      -7.949  53.445  49.059  0.00  0.00    +0.000 OA
ATOM     27  H   UNL     1      -7.587  53.975  48.376  0.00  0.00    +0.000 HD
ENDBRANCH   3  26
BRANCH   5  28
ATOM     28  N   UNL     1     -12.731  54.868  51.723  0.00  0.00    +0.000 N 
ATOM     29  H   UNL     1     -13.230  54.264  52.318  0.00  0.00    +0.000 HD
BRANCH  28  30
ATOM     30  C   UNL     1     -13.127  56.260  51.465  0.00  0.00    +0.000 C 
BRANCH  30  31
ATOM     31  C   UNL     1     -13.424  57.037  52.750  0.00  0.00    +0.000 C 
BRANCH  31  32
ATOM     32  C   UNL     1     -14.829  57.683  52.714  0.00  0.00    +0.000 C 
ATOM     33  C   UNL     1     -14.802  59.118  52.184  0.00  0.00    +0.000 C 
ATOM     34  C   UNL     1     -15.784  56.835  51.873  0.00  0.00    +0.000 C 
ENDBRANCH  31  32
ENDBRANCH  30  31
ENDBRANCH  28  30
ENDBRANCH   5  28
TORSDOF 6
ENDMDL
