MODEL 1
REMARK VINA RESULT:      -8.8      0.000      0.000
REMARK  Name = 
REMARK  4 active torsions:
REMARK  status: ('A' for Active; 'I' for Inactive)
REMARK    1  A    between atoms: C_6  and  C_10
REMARK    2  A    between atoms: C_14  and  O_18
REMARK    3  A    between atoms: N_17  and  N_20
REMARK    4  A    between atoms: N_20  and  C_23
REMARK                            x       y       z     vdW  Elec       q    Type
REMARK                         _______ _______ _______ _____ _____    ______ ____
ROOT
ATOM      1  C   UNL     1      -9.949  54.193  52.529  0.00  0.00    +0.000 A 
ATOM      2  C   UNL     1      -8.538  54.687  52.547  0.00  0.00    +0.000 A 
ATOM      3  C   UNL     1     -10.288  53.083  53.207  0.00  0.00    +0.000 A 
ATOM      4  O   UNL     1      -8.321  55.817  52.099  0.00  0.00    +0.000 OA
ATOM      5  N   UNL     1      -7.542  53.833  53.060  0.00  0.00    +0.000 N 
ATOM      6  C   UNL     1      -9.275  52.347  53.977  0.00  0.00    +0.000 A 
ATOM      7  C   UNL     1      -7.919  52.717  53.888  0.00  0.00    +0.000 A 
ATOM      8  C   UNL     1      -9.661  51.315  54.856  0.00  0.00    +0.000 A 
ATOM      9  C   UNL     1      -6.986  52.023  54.675  0.00  0.00    +0.000 A 
ATOM     10  C   UNL     1      -8.722  50.663  55.652  0.00  0.00    +0.000 A 
ATOM     11  C   UNL     1      -7.383  51.014  55.557  0.00  0.00    +0.000 A 
ENDROOT
BRANCH   1  17
ATOM     12  S   UNL     1     -12.084  55.539  49.530  0.00  0.00    +0.000 S 
ATOM     13  O   UNL     1     -12.848  54.495  48.877  0.00  0.00    +0.000 OA
ATOM     14  O   UNL     1     -11.424  56.551  48.743  0.00  0.00    +0.000 OA
ATOM     15  N   UNL     1     -10.975  54.835  50.469  0.00  0.00    +0.000 N 
ATOM     16  C   UNL     1     -13.228  56.388  50.554  0.00  0.00    +0.000 A 
ATOM     17  C   UNL     1     -10.998  54.975  51.763  0.00  0.00    +0.000 C 
ATOM     18  C   UNL     1     -12.999  56.384  51.921  0.00  0.00    +0.000 A 
ATOM     19  C   UNL     1     -14.327  57.038  49.978  0.00  0.00    +0.000 A 
ATOM     20  N   UNL     1     -11.880  55.760  52.472  0.00  0.00    +0.000 N 
ATOM     21  C   UNL     1     -13.898  57.088  52.732  0.00  0.00    +0.000 A 
ATOM     22  C   UNL     1     -15.218  57.720  50.798  0.00  0.00    +0.000 A 
ATOM     23  C   UNL     1     -15.000  57.749  52.175  0.00  0.00    +0.000 A 
ATOM     24  H   UNL     1     -10.267  54.291  50.055  0.00  0.00    +0.000 HD
ATOM     25  H   UNL     1     -11.708  55.890  53.432  0.00  0.00    +0.000 HD
ENDBRANCH   1  17
BRANCH   3  26
ATOM     26  O   UNL     1     -11.570  52.565  53.277  0.00  0.00    +0.000 OA
ATOM     27  H   UNL     1     -11.729  51.772  53.752  0.00  0.00    +0.000 HD
ENDBRANCH   3  26
BRANCH   5  28
ATOM     28  N   UNL     1      -6.265  54.428  53.239  0.00  0.00    +0.000 N 
ATOM     29  H   UNL     1      -6.118  54.991  54.033  0.00  0.00    +0.000 HD
BRANCH  28  30
ATOM     30  C   UNL     1      -5.152  54.241  52.301  0.00  0.00    +0.000 C 
ATOM     31  C   UNL     1      -5.254  53.130  51.246  0.00  0.00    +0.000 C 
ATOM     32  C   UNL     1      -3.739  54.255  52.897  0.00  0.00    +0.000 C 
ATOM     33  C   UNL     1      -4.767  51.757  51.694  0.00  0.00    +0.000 C 
ATOM     34  C   UNL     1      -3.301  52.913  53.464  0.00  0.00    +0.000 C 
ATOM     35  C   UNL     1      -3.451  51.766  52.471  0.00  0.00    +0.000 C 
ENDBRANCH  28  30
ENDBRANCH   5  28
TORSDOF 4
ENDMDL
MODEL 2
REMARK VINA RESULT:      -8.7      1.898      2.622
REMARK  Name = 
REMARK  4 active torsions:
REMARK  status: ('A' for Active; 'I' for Inactive)
REMARK    1  A    between atoms: C_6  and  C_10
REMARK    2  A    between atoms: C_14  and  O_18
REMARK    3  A    between atoms: N_17  and  N_20
REMARK    4  A    between atoms: N_20  and  C_23
REMARK                            x       y       z     vdW  Elec       q    Type
REMARK                         _______ _______ _______ _____ _____    ______ ____
ROOT
ATOM      1  C   UNL     1     -11.118  53.906  51.725  0.00  0.00    +0.000 A 
ATOM      2  C   UNL     1     -10.141  53.993  52.853  0.00  0.00    +0.000 A 
ATOM      3  C   UNL     1     -11.324  52.736  51.095  0.00  0.00    +0.000 A 
ATOM      4  O   UNL     1     -10.147  55.022  53.538  0.00  0.00    +0.000 OA
ATOM      5  N   UNL     1      -9.266  52.909  53.059  0.00  0.00    +0.000 N 
ATOM      6  C   UNL     1     -10.595  51.531  51.514  0.00  0.00    +0.000 A 
ATOM      7  C   UNL     1      -9.571  51.628  52.476  0.00  0.00    +0.000 A 
ATOM      8  C   UNL     1     -10.958  50.267  51.007  0.00  0.00    +0.000 A 
ATOM      9  C   UNL     1      -8.928  50.449  52.887  0.00  0.00    +0.000 A 
ATOM     10  C   UNL     1     -10.330  49.107  51.454  0.00  0.00    +0.000 A 
ATOM     11  C   UNL     1      -9.311  49.199  52.391  0.00  0.00    +0.000 A 
ENDROOT
BRANCH   1  17
ATOM     12  S   UNL     1     -12.710  56.682  49.463  0.00  0.00    +0.000 S 
ATOM     13  O   UNL     1     -13.697  56.153  48.542  0.00  0.00    +0.000 OA
ATOM     14  O   UNL     1     -11.778  57.690  49.022  0.00  0.00    +0.000 OA
ATOM     15  N   UNL     1     -11.861  55.443  50.054  0.00  0.00    +0.000 N 
ATOM     16  C   UNL     1     -13.628  57.406  50.770  0.00  0.00    +0.000 A 
ATOM     17  C   UNL     1     -11.896  55.143  51.320  0.00  0.00    +0.000 C 
ATOM     18  C   UNL     1     -13.461  56.887  52.044  0.00  0.00    +0.000 A 
ATOM     19  C   UNL     1     -14.495  58.474  50.502  0.00  0.00    +0.000 A 
ATOM     20  N   UNL     1     -12.566  55.846  52.295  0.00  0.00    +0.000 N 
ATOM     21  C   UNL     1     -14.172  57.487  53.089  0.00  0.00    +0.000 A 
ATOM     22  C   UNL     1     -15.206  59.049  51.548  0.00  0.00    +0.000 A 
ATOM     23  C   UNL     1     -15.040  58.559  52.844  0.00  0.00    +0.000 A 
ATOM     24  H   UNL     1     -11.306  54.903  49.445  0.00  0.00    +0.000 HD
ATOM     25  H   UNL     1     -12.403  55.599  53.234  0.00  0.00    +0.000 HD
ENDBRANCH   1  17
BRANCH   3  26
ATOM     26  O   UNL     1     -12.228  52.546  50.064  0.00  0.00    +0.000 OA
ATOM     27  H   UNL     1     -13.039  53.017  50.059  0.00  0.00    +0.000 HD
ENDBRANCH   3  26
BRANCH   5  28
ATOM     28  N   UNL     1      -8.507  52.960  54.259  0.00  0.00    +0.000 N 
ATOM     29  H   UNL     1      -8.945  52.701  55.102  0.00  0.00    +0.000 HD
BRANCH  28  30
ATOM     30  C   UNL     1      -7.101  53.378  54.304  0.00  0.00    +0.000 C 
ATOM     31  C   UNL     1      -6.775  54.878  54.261  0.00  0.00    +0.000 C 
ATOM     32  C   UNL     1      -6.128  52.615  53.398  0.00  0.00    +0.000 C 
ATOM     33  C   UNL     1      -6.641  55.478  52.866  0.00  0.00    +0.000 C 
ATOM     34  C   UNL     1      -6.089  53.131  51.967  0.00  0.00    +0.000 C 
ATOM     35  C   UNL     1      -5.836  54.632  51.879  0.00  0.00    +0.000 C 
ENDBRANCH  28  30
ENDBRANCH   5  28
TORSDOF 4
ENDMDL
MODEL 3
REMARK VINA RESULT:      -8.5      3.906      5.663
REMARK  Name = 
REMARK  4 active torsions:
REMARK  status: ('A' for Active; 'I' for Inactive)
REMARK    1  A    between atoms: C_6  and  C_10
REMARK    2  A    between atoms: C_14  and  O_18
REMARK    3  A    between atoms: N_17  and  N_20
REMARK    4  A    between atoms: N_20  and  C_23
REMARK                            x       y       z     vdW  Elec       q    Type
REMARK                         _______ _______ _______ _____ _____    ______ ____
ROOT
ATOM      1  C   UNL     1     -10.802  55.551  48.074  0.00  0.00    +0.000 A 
ATOM      2  C   UNL     1      -9.349  55.630  48.417  0.00  0.00    +0.000 A 
ATOM      3  C   UNL     1     -11.198  54.962  46.931  0.00  0.00    +0.000 A 
ATOM      4  O   UNL     1      -9.050  55.977  49.564  0.00  0.00    +0.000 OA
ATOM      5  N   UNL     1      -8.411  55.318  47.413  0.00  0.00    +0.000 N 
ATOM      6  C   UNL     1     -10.206  54.385  46.013  0.00  0.00    +0.000 A 
ATOM      7  C   UNL     1      -8.832  54.578  46.252  0.00  0.00    +0.000 A 
ATOM      8  C   UNL     1     -10.621  53.585  44.930  0.00  0.00    +0.000 A 
ATOM      9  C   UNL     1      -7.912  53.971  45.381  0.00  0.00    +0.000 A 
ATOM     10  C   UNL     1      -9.691  52.966  44.098  0.00  0.00    +0.000 A 
ATOM     11  C   UNL     1      -8.336  53.163  44.322  0.00  0.00    +0.000 A 
ENDROOT
BRANCH   1  17
ATOM     12  S   UNL     1     -13.019  55.940  51.282  0.00  0.00    +0.000 S 
ATOM     13  O   UNL     1     -12.234  56.177  52.477  0.00  0.00    +0.000 OA
ATOM     14  O   UNL     1     -14.152  55.050  51.327  0.00  0.00    +0.000 OA
ATOM     15  N   UNL     1     -12.023  55.420  50.123  0.00  0.00    +0.000 N 
ATOM     16  C   UNL     1     -13.651  57.509  50.815  0.00  0.00    +0.000 A 
ATOM     17  C   UNL     1     -11.824  56.115  49.040  0.00  0.00    +0.000 C 
ATOM     18  C   UNL     1     -13.278  58.015  49.580  0.00  0.00    +0.000 A 
ATOM     19  C   UNL     1     -14.501  58.202  51.686  0.00  0.00    +0.000 A 
ATOM     20  N   UNL     1     -12.458  57.293  48.713  0.00  0.00    +0.000 N 
ATOM     21  C   UNL     1     -13.808  59.254  49.199  0.00  0.00    +0.000 A 
ATOM     22  C   UNL     1     -15.007  59.437  51.299  0.00  0.00    +0.000 A 
ATOM     23  C   UNL     1     -14.665  59.961  50.053  0.00  0.00    +0.000 A 
ATOM     24  H   UNL     1     -11.556  54.560  50.236  0.00  0.00    +0.000 HD
ATOM     25  H   UNL     1     -12.323  57.650  47.805  0.00  0.00    +0.000 HD
ENDBRANCH   1  17
BRANCH   3  26
ATOM     26  O   UNL     1     -12.517  54.812  46.540  0.00  0.00    +0.000 OA
ATOM     27  H   UNL     1     -12.731  54.250  45.821  0.00  0.00    +0.000 HD
ENDBRANCH   3  26
BRANCH   5  28
ATOM     28  N   UNL     1      -7.064  55.212  47.852  0.00  0.00    +0.000 N 
ATOM     29  H   UNL     1      -6.522  56.033  47.901  0.00  0.00    +0.000 HD
BRANCH  28  30
ATOM     30  C   UNL     1      -6.442  53.940  48.236  0.00  0.00    +0.000 C 
ATOM     31  C   UNL     1      -7.252  52.948  49.083  0.00  0.00    +0.000 C 
ATOM     32  C   UNL     1      -5.004  54.010  48.763  0.00  0.00    +0.000 C 
ATOM     33  C   UNL     1      -7.163  53.151  50.591  0.00  0.00    +0.000 C 
ATOM     34  C   UNL     1      -4.909  54.342  50.245  0.00  0.00    +0.000 C 
ATOM     35  C   UNL     1      -5.755  53.423  51.119  0.00  0.00    +0.000 C 
ENDBRANCH  28  30
ENDBRANCH   5  28
TORSDOF 4
ENDMDL
MODEL 4
REMARK VINA RESULT:      -8.5      3.689      4.709
REMARK  Name = 
REMARK  4 active torsions:
REMARK  status: ('A' for Active; 'I' for Inactive)
REMARK    1  A    between atoms: C_6  and  C_10
REMARK    2  A    between atoms: C_14  and  O_18
REMARK    3  A    between atoms: N_17  and  N_20
REMARK    4  A    between atoms: N_20  and  C_23
REMARK                            x       y       z     vdW  Elec       q    Type
REMARK                         _______ _______ _______ _____ _____    ______ ____
ROOT
ATOM      1  C   UNL     1     -11.542  54.871  50.456  0.00  0.00    +0.000 A 
ATOM      2  C   UNL     1     -10.243  55.244  49.816  0.00  0.00    +0.000 A 
ATOM      3  C   UNL     1     -11.781  53.597  50.813  0.00  0.00    +0.000 A 
ATOM      4  O   UNL     1      -9.982  56.446  49.710  0.00  0.00    +0.000 OA
ATOM      5  N   UNL     1      -9.405  54.207  49.363  0.00  0.00    +0.000 N 
ATOM      6  C   UNL     1     -10.766  52.560  50.582  0.00  0.00    +0.000 A 
ATOM      7  C   UNL     1      -9.601  52.867  49.853  0.00  0.00    +0.000 A 
ATOM      8  C   UNL     1     -10.921  51.276  51.142  0.00  0.00    +0.000 A 
ATOM      9  C   UNL     1      -8.631  51.864  49.693  0.00  0.00    +0.000 A 
ATOM     10  C   UNL     1      -9.930  50.307  50.999  0.00  0.00    +0.000 A 
ATOM     11  C   UNL     1      -8.787  50.601  50.271  0.00  0.00    +0.000 A 
ENDROOT
BRANCH   1  17
ATOM     12  S   UNL     1     -14.229  57.014  52.340  0.00  0.00    +0.000 S 
ATOM     13  O   UNL     1     -13.687  57.691  53.502  0.00  0.00    +0.000 OA
ATOM     14  O   UNL     1     -15.533  56.401  52.404  0.00  0.00    +0.000 OA
ATOM     15  N   UNL     1     -13.170  55.884  51.880  0.00  0.00    +0.000 N 
ATOM     16  C   UNL     1     -14.325  58.236  51.086  0.00  0.00    +0.000 A 
ATOM     17  C   UNL     1     -12.572  55.950  50.726  0.00  0.00    +0.000 C 
ATOM     18  C   UNL     1     -13.578  58.042  49.935  0.00  0.00    +0.000 A 
ATOM     19  C   UNL     1     -15.140  59.360  51.273  0.00  0.00    +0.000 A 
ATOM     20  N   UNL     1     -12.800  56.898  49.754  0.00  0.00    +0.000 N 
ATOM     21  C   UNL     1     -13.681  59.005  48.924  0.00  0.00    +0.000 A 
ATOM     22  C   UNL     1     -15.220  60.314  50.266  0.00  0.00    +0.000 A 
ATOM     23  C   UNL     1     -14.495  60.134  49.088  0.00  0.00    +0.000 A 
ATOM     24  H   UNL     1     -12.973  55.132  52.484  0.00  0.00    +0.000 HD
ATOM     25  H   UNL     1     -12.386  56.760  48.872  0.00  0.00    +0.000 HD
ENDBRANCH   1  17
BRANCH   3  26
ATOM     26  O   UNL     1     -12.936  53.159  51.438  0.00  0.00    +0.000 OA
ATOM     27  H   UNL     1     -13.010  52.265  51.712  0.00  0.00    +0.000 HD
ENDBRANCH   3  26
BRANCH   5  28
ATOM     28  N   UNL     1      -8.106  54.611  48.954  0.00  0.00    +0.000 N 
ATOM     29  H   UNL     1      -7.406  54.702  49.640  0.00  0.00    +0.000 HD
BRANCH  28  30
ATOM     30  C   UNL     1      -7.755  54.895  47.557  0.00  0.00    +0.000 C 
ATOM     31  C   UNL     1      -8.883  55.197  46.559  0.00  0.00    +0.000 C 
ATOM     32  C   UNL     1      -6.725  53.967  46.903  0.00  0.00    +0.000 C 
ATOM     33  C   UNL     1      -9.502  53.977  45.885  0.00  0.00    +0.000 C 
ATOM     34  C   UNL     1      -7.325  52.685  46.344  0.00  0.00    +0.000 C 
ATOM     35  C   UNL     1      -8.495  52.935  45.400  0.00  0.00    +0.000 C 
ENDBRANCH  28  30
ENDBRANCH   5  28
TORSDOF 4
ENDMDL
MODEL 5
REMARK VINA RESULT:      -8.4      4.630      6.629
REMARK  Name = 
REMARK  4 active torsions:
REMARK  status: ('A' for Active; 'I' for Inactive)
REMARK    1  A    between atoms: C_6  and  C_10
REMARK    2  A    between atoms: C_14  and  O_18
REMARK    3  A    between atoms: N_17  and  N_20
REMARK    4  A    between atoms: N_20  and  C_23
REMARK                            x       y       z     vdW  Elec       q    Type
REMARK                         _______ _______ _______ _____ _____    ______ ____
ROOT
ATOM      1  C   UNL     1     -10.849  55.580  48.531  0.00  0.00    +0.000 A 
ATOM      2  C   UNL     1     -11.104  55.085  47.144  0.00  0.00    +0.000 A 
ATOM      3  C   UNL     1      -9.628  55.457  49.082  0.00  0.00    +0.000 A 
ATOM      4  O   UNL     1     -12.165  55.414  46.604  0.00  0.00    +0.000 OA
ATOM      5  N   UNL     1     -10.129  54.265  46.542  0.00  0.00    +0.000 N 
ATOM      6  C   UNL     1      -8.532  54.840  48.322  0.00  0.00    +0.000 A 
ATOM      7  C   UNL     1      -8.792  54.242  47.074  0.00  0.00    +0.000 A 
ATOM      8  C   UNL     1      -7.209  54.901  48.805  0.00  0.00    +0.000 A 
ATOM      9  C   UNL     1      -7.712  53.705  46.355  0.00  0.00    +0.000 A 
ATOM     10  C   UNL     1      -6.149  54.391  48.059  0.00  0.00    +0.000 A 
ATOM     11  C   UNL     1      -6.402  53.789  46.835  0.00  0.00    +0.000 A 
ENDROOT
BRANCH   1  17
ATOM     12  S   UNL     1     -13.488  56.276  51.344  0.00  0.00    +0.000 S 
ATOM     13  O   UNL     1     -12.874  56.564  52.625  0.00  0.00    +0.000 OA
ATOM     14  O   UNL     1     -14.658  55.436  51.276  0.00  0.00    +0.000 OA
ATOM     15  N   UNL     1     -12.360  55.638  50.380  0.00  0.00    +0.000 N 
ATOM     16  C   UNL     1     -13.967  57.833  50.692  0.00  0.00    +0.000 A 
ATOM     17  C   UNL     1     -11.972  56.249  49.298  0.00  0.00    +0.000 C 
ATOM     18  C   UNL     1     -13.394  58.237  49.497  0.00  0.00    +0.000 A 
ATOM     19  C   UNL     1     -14.900  58.617  51.382  0.00  0.00    +0.000 A 
ATOM     20  N   UNL     1     -12.493  57.425  48.807  0.00  0.00    +0.000 N 
ATOM     21  C   UNL     1     -13.802  59.467  48.964  0.00  0.00    +0.000 A 
ATOM     22  C   UNL     1     -15.283  59.842  50.848  0.00  0.00    +0.000 A 
ATOM     23  C   UNL     1     -14.738  60.264  49.636  0.00  0.00    +0.000 A 
ATOM     24  H   UNL     1     -11.958  54.771  50.616  0.00  0.00    +0.000 HD
ATOM     25  H   UNL     1     -12.211  57.713  47.909  0.00  0.00    +0.000 HD
ENDBRANCH   1  17
BRANCH   3  26
ATOM     26  O   UNL     1      -9.285  55.911  50.344  0.00  0.00    +0.000 OA
ATOM     27  H   UNL     1      -8.437  55.721  50.695  0.00  0.00    +0.000 HD
ENDBRANCH   3  26
BRANCH   5  28
ATOM     28  N   UNL     1     -10.330  53.996  45.161  0.00  0.00    +0.000 N 
ATOM     29  H   UNL     1     -10.120  54.704  44.511  0.00  0.00    +0.000 HD
BRANCH  28  30
ATOM     30  C   UNL     1     -10.833  52.713  44.658  0.00  0.00    +0.000 C 
ATOM     31  C   UNL     1     -11.078  51.572  45.656  0.00  0.00    +0.000 C 
ATOM     32  C   UNL     1     -10.157  52.156  43.398  0.00  0.00    +0.000 C 
ATOM     33  C   UNL     1      -9.870  50.690  45.950  0.00  0.00    +0.000 C 
ATOM     34  C   UNL     1      -8.877  51.384  43.680  0.00  0.00    +0.000 C 
ATOM     35  C   UNL     1      -9.059  50.284  44.720  0.00  0.00    +0.000 C 
ENDBRANCH  28  30
ENDBRANCH   5  28
TORSDOF 4
ENDMDL
MODEL 6
REMARK VINA RESULT:      -8.4      1.550      2.208
REMARK  Name = 
REMARK  4 active torsions:
REMARK  status: ('A' for Active; 'I' for Inactive)
REMARK    1  A    between atoms: C_6  and  C_10
REMARK    2  A    between atoms: C_14  and  O_18
REMARK    3  A    between atoms: N_17  and  N_20
REMARK    4  A    between atoms: N_20  and  C_23
REMARK                            x       y       z     vdW  Elec       q    Type
REMARK                         _______ _______ _______ _____ _____    ______ ____
ROOT
ATOM      1  C   UNL     1     -10.232  54.277  52.124  0.00  0.00    +0.000 A 
ATOM      2  C   UNL     1      -8.838  54.810  52.046  0.00  0.00    +0.000 A 
ATOM      3  C   UNL     1     -10.502  53.191  52.870  0.00  0.00    +0.000 A 
ATOM      4  O   UNL     1      -8.679  55.924  51.534  0.00  0.00    +0.000 OA
ATOM      5  N   UNL     1      -7.791  54.010  52.544  0.00  0.00    +0.000 N 
ATOM      6  C   UNL     1      -9.428  52.522  53.620  0.00  0.00    +0.000 A 
ATOM      7  C   UNL     1      -8.091  52.925  53.442  0.00  0.00    +0.000 A 
ATOM      8  C   UNL     1      -9.737  51.523  54.564  0.00  0.00    +0.000 A 
ATOM      9  C   UNL     1      -7.098  52.296  54.210  0.00  0.00    +0.000 A 
ATOM     10  C   UNL     1      -8.739  50.937  55.340  0.00  0.00    +0.000 A 
ATOM     11  C   UNL     1      -7.418  51.321  55.159  0.00  0.00    +0.000 A 
ENDROOT
BRANCH   1  17
ATOM     12  S   UNL     1     -13.465  56.393  51.472  0.00  0.00    +0.000 S 
ATOM     13  O   UNL     1     -13.343  57.758  51.945  0.00  0.00    +0.000 OA
ATOM     14  O   UNL     1     -14.695  55.667  51.670  0.00  0.00    +0.000 OA
ATOM     15  N   UNL     1     -12.266  55.529  52.122  0.00  0.00    +0.000 N 
ATOM     16  C   UNL     1     -13.222  56.474  49.736  0.00  0.00    +0.000 A 
ATOM     17  C   UNL     1     -11.343  54.991  51.379  0.00  0.00    +0.000 C 
ATOM     18  C   UNL     1     -12.146  55.784  49.202  0.00  0.00    +0.000 A 
ATOM     19  C   UNL     1     -14.104  57.221  48.945  0.00  0.00    +0.000 A 
ATOM     20  N   UNL     1     -11.299  55.017  50.003  0.00  0.00    +0.000 N 
ATOM     21  C   UNL     1     -11.972  55.825  47.813  0.00  0.00    +0.000 A 
ATOM     22  C   UNL     1     -13.909  57.264  47.570  0.00  0.00    +0.000 A 
ATOM     23  C   UNL     1     -12.846  56.562  47.003  0.00  0.00    +0.000 A 
ATOM     24  H   UNL     1     -12.233  55.406  53.098  0.00  0.00    +0.000 HD
ATOM     25  H   UNL     1     -10.625  54.457  49.554  0.00  0.00    +0.000 HD
ENDBRANCH   1  17
BRANCH   3  26
ATOM     26  O   UNL     1     -11.762  52.641  53.032  0.00  0.00    +0.000 OA
ATOM     27  H   UNL     1     -12.356  53.009  53.656  0.00  0.00    +0.000 HD
ENDBRANCH   3  26
BRANCH   5  28
ATOM     28  N   UNL     1      -6.525  54.649  52.629  0.00  0.00    +0.000 N 
ATOM     29  H   UNL     1      -6.380  55.309  53.345  0.00  0.00    +0.000 HD
BRANCH  28  30
ATOM     30  C   UNL     1      -5.422  54.371  51.702  0.00  0.00    +0.000 C 
ATOM     31  C   UNL     1      -5.632  53.329  50.594  0.00  0.00    +0.000 C 
ATOM     32  C   UNL     1      -4.032  54.188  52.323  0.00  0.00    +0.000 C 
ATOM     33  C   UNL     1      -5.323  51.888  50.985  0.00  0.00    +0.000 C 
ATOM     34  C   UNL     1      -3.770  52.779  52.834  0.00  0.00    +0.000 C 
ATOM     35  C   UNL     1      -4.033  51.704  51.785  0.00  0.00    +0.000 C 
ENDBRANCH  28  30
ENDBRANCH   5  28
TORSDOF 4
ENDMDL
MODEL 7
REMARK VINA RESULT:      -8.4      2.576      3.540
REMARK  Name = 
REMARK  4 active torsions:
REMARK  status: ('A' for Active; 'I' for Inactive)
REMARK    1  A    between atoms: C_6  and  C_10
REMARK    2  A    between atoms: C_14  and  O_18
REMARK    3  A    between atoms: N_17  and  N_20
REMARK    4  A    between atoms: N_20  and  C_23
REMARK                            x       y       z     vdW  Elec       q    Type
REMARK                         _______ _______ _______ _____ _____    ______ ____
ROOT
ATOM      1  C   UNL     1     -11.905  54.466  51.121  0.00  0.00    +0.000 A 
ATOM      2  C   UNL     1     -10.960  54.536  52.276  0.00  0.00    +0.000 A 
ATOM      3  C   UNL     1     -11.867  53.421  50.276  0.00  0.00    +0.000 A 
ATOM      4  O   UNL     1     -11.175  55.391  53.142  0.00  0.00    +0.000 OA
ATOM      5  N   UNL     1      -9.876  53.636  52.304  0.00  0.00    +0.000 N 
ATOM      6  C   UNL     1     -10.899  52.334  50.484  0.00  0.00    +0.000 A 
ATOM      7  C   UNL     1      -9.911  52.456  51.480  0.00  0.00    +0.000 A 
ATOM      8  C   UNL     1     -10.995  51.144  49.736  0.00  0.00    +0.000 A 
ATOM      9  C   UNL     1      -9.034  51.378  51.683  0.00  0.00    +0.000 A 
ATOM     10  C   UNL     1     -10.135  50.075  49.978  0.00  0.00    +0.000 A 
ATOM     11  C   UNL     1      -9.151  50.194  50.949  0.00  0.00    +0.000 A 
ENDROOT
BRANCH   1  17
ATOM     12  S   UNL     1     -15.288  56.434  51.327  0.00  0.00    +0.000 S 
ATOM     13  O   UNL     1     -15.655  56.771  52.688  0.00  0.00    +0.000 OA
ATOM     14  O   UNL     1     -16.293  55.979  50.399  0.00  0.00    +0.000 OA
ATOM     15  N   UNL     1     -14.120  55.320  51.384  0.00  0.00    +0.000 N 
ATOM     16  C   UNL     1     -14.625  57.907  50.642  0.00  0.00    +0.000 A 
ATOM     17  C   UNL     1     -12.926  55.570  50.930  0.00  0.00    +0.000 C 
ATOM     18  C   UNL     1     -13.304  57.888  50.222  0.00  0.00    +0.000 A 
ATOM     19  C   UNL     1     -15.430  59.049  50.537  0.00  0.00    +0.000 A 
ATOM     20  N   UNL     1     -12.530  56.730  50.302  0.00  0.00    +0.000 N 
ATOM     21  C   UNL     1     -12.788  59.056  49.648  0.00  0.00    +0.000 A 
ATOM     22  C   UNL     1     -14.898  60.205  49.979  0.00  0.00    +0.000 A 
ATOM     23  C   UNL     1     -13.578  60.207  49.529  0.00  0.00    +0.000 A 
ATOM     24  H   UNL     1     -14.315  54.436  51.769  0.00  0.00    +0.000 HD
ATOM     25  H   UNL     1     -11.640  56.744  49.882  0.00  0.00    +0.000 HD
ENDBRANCH   1  17
BRANCH   3  26
ATOM     26  O   UNL     1     -12.719  53.249  49.197  0.00  0.00    +0.000 OA
ATOM     27  H   UNL     1     -13.336  53.920  48.977  0.00  0.00    +0.000 HD
ENDBRANCH   3  26
BRANCH   5  28
ATOM     28  N   UNL     1      -9.137  53.612  53.516  0.00  0.00    +0.000 N 
ATOM     29  H   UNL     1      -9.494  53.095  54.274  0.00  0.00    +0.000 HD
BRANCH  28  30
ATOM     30  C   UNL     1      -7.863  54.319  53.695  0.00  0.00    +0.000 C 
ATOM     31  C   UNL     1      -7.316  55.159  52.531  0.00  0.00    +0.000 C 
ATOM     32  C   UNL     1      -6.720  53.526  54.337  0.00  0.00    +0.000 C 
ATOM     33  C   UNL     1      -6.457  54.401  51.525  0.00  0.00    +0.000 C 
ATOM     34  C   UNL     1      -5.942  52.665  53.353  0.00  0.00    +0.000 C 
ATOM     35  C   UNL     1      -5.438  53.446  52.145  0.00  0.00    +0.000 C 
ENDBRANCH  28  30
ENDBRANCH   5  28
TORSDOF 4
ENDMDL
MODEL 8
REMARK VINA RESULT:      -8.3      3.467      5.568
REMARK  Name = 
REMARK  4 active torsions:
REMARK  status: ('A' for Active; 'I' for Inactive)
REMARK    1  A    between atoms: C_6  and  C_10
REMARK    2  A    between atoms: C_14  and  O_18
REMARK    3  A    between atoms: N_17  and  N_20
REMARK    4  A    between atoms: N_20  and  C_23
REMARK                            x       y       z     vdW  Elec       q    Type
REMARK                         _______ _______ _______ _____ _____    ______ ____
ROOT
ATOM      1  C   UNL     1     -11.714  55.912  48.778  0.00  0.00    +0.000 A 
ATOM      2  C   UNL     1     -10.704  55.101  49.525  0.00  0.00    +0.000 A 
ATOM      3  C   UNL     1     -11.934  55.684  47.471  0.00  0.00    +0.000 A 
ATOM      4  O   UNL     1     -10.694  55.193  50.757  0.00  0.00    +0.000 OA
ATOM      5  N   UNL     1      -9.819  54.294  48.783  0.00  0.00    +0.000 N 
ATOM      6  C   UNL     1     -11.187  54.632  46.766  0.00  0.00    +0.000 A 
ATOM      7  C   UNL     1     -10.136  53.961  47.418  0.00  0.00    +0.000 A 
ATOM      8  C   UNL     1     -11.560  54.247  45.463  0.00  0.00    +0.000 A 
ATOM      9  C   UNL     1      -9.476  52.928  46.731  0.00  0.00    +0.000 A 
ATOM     10  C   UNL     1     -10.914  53.198  44.813  0.00  0.00    +0.000 A 
ATOM     11  C   UNL     1      -9.869  52.541  45.446  0.00  0.00    +0.000 A 
ENDROOT
BRANCH   1  17
ATOM     12  S   UNL     1     -13.566  59.287  49.511  0.00  0.00    +0.000 S 
ATOM     13  O   UNL     1     -14.706  59.497  48.641  0.00  0.00    +0.000 OA
ATOM     14  O   UNL     1     -12.687  60.385  49.829  0.00  0.00    +0.000 OA
ATOM     15  N   UNL     1     -12.671  58.098  48.885  0.00  0.00    +0.000 N 
ATOM     16  C   UNL     1     -14.235  58.740  51.038  0.00  0.00    +0.000 A 
ATOM     17  C   UNL     1     -12.508  56.971  49.516  0.00  0.00    +0.000 C 
ATOM     18  C   UNL     1     -13.877  57.479  51.486  0.00  0.00    +0.000 A 
ATOM     19  C   UNL     1     -15.100  59.576  51.756  0.00  0.00    +0.000 A 
ATOM     20  N   UNL     1     -12.987  56.676  50.773  0.00  0.00    +0.000 N 
ATOM     21  C   UNL     1     -14.389  57.059  52.720  0.00  0.00    +0.000 A 
ATOM     22  C   UNL     1     -15.611  59.138  52.972  0.00  0.00    +0.000 A 
ATOM     23  C   UNL     1     -15.251  57.881  53.457  0.00  0.00    +0.000 A 
ATOM     24  H   UNL     1     -12.240  58.227  48.009  0.00  0.00    +0.000 HD
ATOM     25  H   UNL     1     -12.680  55.843  51.197  0.00  0.00    +0.000 HD
ENDBRANCH   1  17
BRANCH   3  26
ATOM     26  O   UNL     1     -12.866  56.358  46.701  0.00  0.00    +0.000 OA
ATOM     27  H   UNL     1     -13.570  55.887  46.300  0.00  0.00    +0.000 HD
ENDBRANCH   3  26
BRANCH   5  28
ATOM     28  N   UNL     1      -9.026  53.399  49.549  0.00  0.00    +0.000 N 
ATOM     29  H   UNL     1      -9.401  52.518  49.777  0.00  0.00    +0.000 HD
BRANCH  28  30
ATOM     30  C   UNL     1      -7.672  53.723  50.015  0.00  0.00    +0.000 C 
ATOM     31  C   UNL     1      -7.343  53.550  51.505  0.00  0.00    +0.000 C 
ATOM     32  C   UNL     1      -7.063  55.033  49.504  0.00  0.00    +0.000 C 
ATOM     33  C   UNL     1      -7.656  54.753  52.387  0.00  0.00    +0.000 C 
ATOM     34  C   UNL     1      -7.480  56.257  50.306  0.00  0.00    +0.000 C 
ATOM     35  C   UNL     1      -7.235  56.102  51.803  0.00  0.00    +0.000 C 
ENDBRANCH  28  30
ENDBRANCH   5  28
TORSDOF 4
ENDMDL
MODEL 9
REMARK VINA RESULT:      -8.3      3.156      8.503
REMARK  Name = 
REMARK  4 active torsions:
REMARK  status: ('A' for Active; 'I' for Inactive)
REMARK    1  A    between atoms: C_6  and  C_10
REMARK    2  A    between atoms: C_14  and  O_18
REMARK    3  A    between atoms: N_17  and  N_20
REMARK    4  A    between atoms: N_20  and  C_23
REMARK                            x       y       z     vdW  Elec       q    Type
REMARK                         _______ _______ _______ _____ _____    ______ ____
ROOT
ATOM      1  C   UNL     1      -9.010  54.411  49.884  0.00  0.00    +0.000 A 
ATOM      2  C   UNL     1     -10.172  55.341  50.025  0.00  0.00    +0.000 A 
ATOM      3  C   UNL     1      -8.836  53.710  48.750  0.00  0.00    +0.000 A 
ATOM      4  O   UNL     1     -10.169  56.119  50.984  0.00  0.00    +0.000 OA
ATOM      5  N   UNL     1     -11.204  55.265  49.068  0.00  0.00    +0.000 N 
ATOM      6  C   UNL     1      -9.785  53.856  47.636  0.00  0.00    +0.000 A 
ATOM      7  C   UNL     1     -10.957  54.615  47.807  0.00  0.00    +0.000 A 
ATOM      8  C   UNL     1      -9.494  53.294  46.377  0.00  0.00    +0.000 A 
ATOM      9  C   UNL     1     -11.816  54.773  46.707  0.00  0.00    +0.000 A 
ATOM     10  C   UNL     1     -10.343  53.491  45.290  0.00  0.00    +0.000 A 
ATOM     11  C   UNL     1     -11.507  54.227  45.458  0.00  0.00    +0.000 A 
ENDROOT
BRANCH   1  17
ATOM     12  S   UNL     1      -7.592  53.997  53.514  0.00  0.00    +0.000 S 
ATOM     13  O   UNL     1      -7.930  52.716  54.102  0.00  0.00    +0.000 OA
ATOM     14  O   UNL     1      -7.654  55.197  54.312  0.00  0.00    +0.000 OA
ATOM     15  N   UNL     1      -8.526  54.214  52.215  0.00  0.00    +0.000 N 
ATOM     16  C   UNL     1      -5.925  53.848  52.987  0.00  0.00    +0.000 A 
ATOM     17  C   UNL     1      -8.014  54.291  51.020  0.00  0.00    +0.000 C 
ATOM     18  C   UNL     1      -5.659  53.987  51.634  0.00  0.00    +0.000 A 
ATOM     19  C   UNL     1      -4.919  53.595  53.929  0.00  0.00    +0.000 A 
ATOM     20  N   UNL     1      -6.671  54.273  50.717  0.00  0.00    +0.000 N 
ATOM     21  C   UNL     1      -4.324  53.897  51.222  0.00  0.00    +0.000 A 
ATOM     22  C   UNL     1      -3.601  53.494  53.502  0.00  0.00    +0.000 A 
ATOM     23  C   UNL     1      -3.302  53.650  52.148  0.00  0.00    +0.000 A 
ATOM     24  H   UNL     1      -9.501  54.291  52.328  0.00  0.00    +0.000 HD
ATOM     25  H   UNL     1      -6.407  54.476  49.791  0.00  0.00    +0.000 HD
ENDBRANCH   1  17
BRANCH   3  26
ATOM     26  O   UNL     1      -7.778  52.850  48.511  0.00  0.00    +0.000 OA
ATOM     27  H   UNL     1      -7.873  52.152  47.893  0.00  0.00    +0.000 HD
ENDBRANCH   3  26
BRANCH   5  28
ATOM     28  N   UNL     1     -12.173  56.301  49.136  0.00  0.00    +0.000 N 
ATOM     29  H   UNL     1     -11.927  57.195  48.805  0.00  0.00    +0.000 HD
BRANCH  28  30
ATOM     30  C   UNL     1     -13.524  56.105  49.674  0.00  0.00    +0.000 C 
ATOM     31  C   UNL     1     -14.582  57.191  49.429  0.00  0.00    +0.000 C 
ATOM     32  C   UNL     1     -13.623  55.608  51.121  0.00  0.00    +0.000 C 
ATOM     33  C   UNL     1     -14.615  58.314  50.460  0.00  0.00    +0.000 C 
ATOM     34  C   UNL     1     -13.525  56.718  52.158  0.00  0.00    +0.000 C 
ATOM     35  C   UNL     1     -14.512  57.853  51.913  0.00  0.00    +0.000 C 
ENDBRANCH  28  30
ENDBRANCH   5  28
TORSDOF 4
ENDMDL
