MODEL 1
REMARK VINA RESULT:      -8.4      0.000      0.000
REMARK  Name = 
REMARK  5 active torsions:
REMARK  status: ('A' for Active; 'I' for Inactive)
REMARK    1  A    between atoms: C_6  and  C_10
REMARK    2  A    between atoms: C_14  and  O_18
REMARK    3  A    between atoms: N_17  and  N_20
REMARK    4  A    between atoms: N_20  and  C_23
REMARK    5  A    between atoms: C_23  and  C_26
REMARK                            x       y       z     vdW  Elec       q    Type
REMARK                         _______ _______ _______ _____ _____    ______ ____
ROOT
ATOM      1  C   UNL     1     -10.104  54.574  52.188  0.00  0.00    +0.000 A 
ATOM      2  C   UNL     1      -8.743  55.152  51.985  0.00  0.00    +0.000 A 
ATOM      3  C   UNL     1     -10.272  53.473  52.940  0.00  0.00    +0.000 A 
ATOM      4  O   UNL     1      -8.657  56.166  51.285  0.00  0.00    +0.000 OA
ATOM      5  N   UNL     1      -7.661  54.533  52.618  0.00  0.00    +0.000 N 
ATOM      6  C   UNL     1      -9.123  52.836  53.599  0.00  0.00    +0.000 A 
ATOM      7  C   UNL     1      -7.832  53.368  53.425  0.00  0.00    +0.000 A 
ATOM      8  C   UNL     1      -9.302  51.707  54.415  0.00  0.00    +0.000 A 
ATOM      9  C   UNL     1      -6.748  52.746  54.064  0.00  0.00    +0.000 A 
ATOM     10  C   UNL     1      -8.221  51.113  55.061  0.00  0.00    +0.000 A 
ATOM     11  C   UNL     1      -6.942  51.632  54.883  0.00  0.00    +0.000 A 
ENDROOT
BRANCH   1  17
ATOM     12  S   UNL     1     -12.565  56.065  49.519  0.00  0.00    +0.000 S 
ATOM     13  O   UNL     1     -13.456  55.061  48.978  0.00  0.00    +0.000 OA
ATOM     14  O   UNL     1     -11.970  57.062  48.647  0.00  0.00    +0.000 OA
ATOM     15  N   UNL     1     -11.366  55.296  50.285  0.00  0.00    +0.000 N 
ATOM     16  C   UNL     1     -13.500  56.954  50.708  0.00  0.00    +0.000 A 
ATOM     17  C   UNL     1     -11.293  55.291  51.585  0.00  0.00    +0.000 C 
ATOM     18  C   UNL     1     -13.192  56.768  52.046  0.00  0.00    +0.000 A 
ATOM     19  C   UNL     1     -14.509  57.827  50.292  0.00  0.00    +0.000 A 
ATOM     20  N   UNL     1     -12.195  55.882  52.445  0.00  0.00    +0.000 N 
ATOM     21  C   UNL     1     -13.970  57.431  53.003  0.00  0.00    +0.000 A 
ATOM     22  C   UNL     1     -15.251  58.507  51.255  0.00  0.00    +0.000 A 
ATOM     23  C   UNL     1     -14.989  58.303  52.608  0.00  0.00    +0.000 A 
ATOM     24  H   UNL     1     -10.680  54.823  49.762  0.00  0.00    +0.000 HD
ATOM     25  H   UNL     1     -12.130  55.663  53.402  0.00  0.00    +0.000 HD
ENDBRANCH   1  17
BRANCH   3  26
ATOM     26  O   UNL     1     -11.496  52.876  53.187  0.00  0.00    +0.000 OA
ATOM     27  H   UNL     1     -11.633  51.978  52.957  0.00  0.00    +0.000 HD
ENDBRANCH   3  26
BRANCH   5  28
ATOM     28  N   UNL     1      -6.319  55.001  52.397  0.00  0.00    +0.000 N 
ATOM     29  H   UNL     1      -5.809  55.485  53.085  0.00  0.00    +0.000 HD
BRANCH  28  30
ATOM     30  C   UNL     1      -5.764  54.705  51.068  0.00  0.00    +0.000 C 
BRANCH  30  31
ATOM     31  C   UNL     1      -4.983  53.425  51.096  0.00  0.00    +0.000 A 
ATOM     32  S   UNL     1      -5.605  52.022  50.325  0.00  0.00    +0.000 S 
ATOM     33  C   UNL     1      -3.740  53.189  51.650  0.00  0.00    +0.000 A 
ATOM     34  C   UNL     1      -4.218  51.109  50.725  0.00  0.00    +0.000 A 
ATOM     35  C   UNL     1      -3.301  51.850  51.436  0.00  0.00    +0.000 A 
ENDBRANCH  30  31
ENDBRANCH  28  30
ENDBRANCH   5  28
TORSDOF 5
ENDMDL
MODEL 2
REMARK VINA RESULT:      -8.4      3.287      4.897
REMARK  Name = 
REMARK  5 active torsions:
REMARK  status: ('A' for Active; 'I' for Inactive)
REMARK    1  A    between atoms: C_6  and  C_10
REMARK    2  A    between atoms: C_14  and  O_18
REMARK    3  A    between atoms: N_17  and  N_20
REMARK    4  A    between atoms: N_20  and  C_23
REMARK    5  A    between atoms: C_23  and  C_26
REMARK                            x       y       z     vdW  Elec       q    Type
REMARK                         _______ _______ _______ _____ _____    ______ ____
ROOT
ATOM      1  C   UNL     1     -11.453  56.050  48.811  0.00  0.00    +0.000 A 
ATOM      2  C   UNL     1     -10.379  55.478  49.674  0.00  0.00    +0.000 A 
ATOM      3  C   UNL     1     -11.565  55.679  47.525  0.00  0.00    +0.000 A 
ATOM      4  O   UNL     1     -10.332  55.860  50.849  0.00  0.00    +0.000 OA
ATOM      5  N   UNL     1      -9.515  54.532  49.116  0.00  0.00    +0.000 N 
ATOM      6  C   UNL     1     -10.648  54.681  46.954  0.00  0.00    +0.000 A 
ATOM      7  C   UNL     1      -9.632  54.126  47.752  0.00  0.00    +0.000 A 
ATOM      8  C   UNL     1     -10.787  54.264  45.620  0.00  0.00    +0.000 A 
ATOM      9  C   UNL     1      -8.768  53.173  47.189  0.00  0.00    +0.000 A 
ATOM     10  C   UNL     1      -9.937  53.301  45.080  0.00  0.00    +0.000 A 
ATOM     11  C   UNL     1      -8.925  52.758  45.865  0.00  0.00    +0.000 A 
ENDROOT
BRANCH   1  17
ATOM     12  S   UNL     1     -13.572  59.290  49.457  0.00  0.00    +0.000 S 
ATOM     13  O   UNL     1     -14.704  59.389  48.560  0.00  0.00    +0.000 OA
ATOM     14  O   UNL     1     -12.783  60.468  49.773  0.00  0.00    +0.000 OA
ATOM     15  N   UNL     1     -12.571  58.167  48.862  0.00  0.00    +0.000 N 
ATOM     16  C   UNL     1     -14.211  58.707  50.983  0.00  0.00    +0.000 A 
ATOM     17  C   UNL     1     -12.451  57.004  49.433  0.00  0.00    +0.000 C 
ATOM     18  C   UNL     1     -13.907  57.410  51.361  0.00  0.00    +0.000 A 
ATOM     19  C   UNL     1     -14.988  59.552  51.782  0.00  0.00    +0.000 A 
ATOM     20  N   UNL     1     -13.144  56.577  50.546  0.00  0.00    +0.000 N 
ATOM     21  C   UNL     1     -14.458  56.920  52.550  0.00  0.00    +0.000 A 
ATOM     22  C   UNL     1     -15.501  59.060  52.980  0.00  0.00    +0.000 A 
ATOM     23  C   UNL     1     -15.245  57.745  53.360  0.00  0.00    +0.000 A 
ATOM     24  H   UNL     1     -12.044  58.365  48.055  0.00  0.00    +0.000 HD
ATOM     25  H   UNL     1     -13.098  55.623  50.779  0.00  0.00    +0.000 HD
ENDBRANCH   1  17
BRANCH   3  26
ATOM     26  O   UNL     1     -12.533  56.151  46.657  0.00  0.00    +0.000 OA
ATOM     27  H   UNL     1     -12.829  57.038  46.724  0.00  0.00    +0.000 HD
ENDBRANCH   3  26
BRANCH   5  28
ATOM     28  N   UNL     1      -8.416  54.003  49.878  0.00  0.00    +0.000 N 
ATOM     29  H   UNL     1      -8.441  53.111  50.291  0.00  0.00    +0.000 HD
BRANCH  28  30
ATOM     30  C   UNL     1      -7.252  54.894  49.997  0.00  0.00    +0.000 C 
BRANCH  30  31
ATOM     31  C   UNL     1      -6.857  55.057  51.434  0.00  0.00    +0.000 A 
ATOM     32  S   UNL     1      -5.600  54.091  52.094  0.00  0.00    +0.000 S 
ATOM     33  C   UNL     1      -7.353  55.947  52.366  0.00  0.00    +0.000 A 
ATOM     34  C   UNL     1      -5.715  54.864  53.613  0.00  0.00    +0.000 A 
ATOM     35  C   UNL     1      -6.693  55.834  53.624  0.00  0.00    +0.000 A 
ENDBRANCH  30  31
ENDBRANCH  28  30
ENDBRANCH   5  28
TORSDOF 5
ENDMDL
MODEL 3
REMARK VINA RESULT:      -8.2      3.128      8.374
REMARK  Name = 
REMARK  5 active torsions:
REMARK  status: ('A' for Active; 'I' for Inactive)
REMARK    1  A    between atoms: C_6  and  C_10
REMARK    2  A    between atoms: C_14  and  O_18
REMARK    3  A    between atoms: N_17  and  N_20
REMARK    4  A    between atoms: N_20  and  C_23
REMARK    5  A    between atoms: C_23  and  C_26
REMARK                            x       y       z     vdW  Elec       q    Type
REMARK                         _______ _______ _______ _____ _____    ______ ____
ROOT
ATOM      1  C   UNL     1      -9.143  54.373  49.878  0.00  0.00    +0.000 A 
ATOM      2  C   UNL     1     -10.184  55.437  49.983  0.00  0.00    +0.000 A 
ATOM      3  C   UNL     1      -9.038  53.630  48.763  0.00  0.00    +0.000 A 
ATOM      4  O   UNL     1     -10.226  56.086  51.033  0.00  0.00    +0.000 OA
ATOM      5  N   UNL     1     -11.022  55.653  48.886  0.00  0.00    +0.000 N 
ATOM      6  C   UNL     1      -9.927  53.871  47.619  0.00  0.00    +0.000 A 
ATOM      7  C   UNL     1     -10.912  54.872  47.695  0.00  0.00    +0.000 A 
ATOM      8  C   UNL     1      -9.795  53.119  46.439  0.00  0.00    +0.000 A 
ATOM      9  C   UNL     1     -11.751  55.089  46.590  0.00  0.00    +0.000 A 
ATOM     10  C   UNL     1     -10.618  53.359  45.342  0.00  0.00    +0.000 A 
ATOM     11  C   UNL     1     -11.599  54.343  45.419  0.00  0.00    +0.000 A 
ENDROOT
BRANCH   1  17
ATOM     12  S   UNL     1      -7.735  54.100  53.531  0.00  0.00    +0.000 S 
ATOM     13  O   UNL     1      -7.970  52.794  54.110  0.00  0.00    +0.000 OA
ATOM     14  O   UNL     1      -7.911  55.298  54.332  0.00  0.00    +0.000 OA
ATOM     15  N   UNL     1      -8.676  54.234  52.222  0.00  0.00    +0.000 N 
ATOM     16  C   UNL     1      -6.060  54.105  53.009  0.00  0.00    +0.000 A 
ATOM     17  C   UNL     1      -8.170  54.196  51.024  0.00  0.00    +0.000 C 
ATOM     18  C   UNL     1      -5.804  54.076  51.649  0.00  0.00    +0.000 A 
ATOM     19  C   UNL     1      -5.034  54.150  53.958  0.00  0.00    +0.000 A 
ATOM     20  N   UNL     1      -6.838  54.014  50.717  0.00  0.00    +0.000 N 
ATOM     21  C   UNL     1      -4.471  54.024  51.226  0.00  0.00    +0.000 A 
ATOM     22  C   UNL     1      -3.711  54.133  53.520  0.00  0.00    +0.000 A 
ATOM     23  C   UNL     1      -3.429  54.061  52.158  0.00  0.00    +0.000 A 
ATOM     24  H   UNL     1      -9.648  54.346  52.332  0.00  0.00    +0.000 HD
ATOM     25  H   UNL     1      -6.602  53.829  49.780  0.00  0.00    +0.000 HD
ENDBRANCH   1  17
BRANCH   3  26
ATOM     26  O   UNL     1      -8.100  52.630  48.578  0.00  0.00    +0.000 OA
ATOM     27  H   UNL     1      -7.632  52.572  47.768  0.00  0.00    +0.000 HD
ENDBRANCH   3  26
BRANCH   5  28
ATOM     28  N   UNL     1     -12.091  56.612  48.958  0.00  0.00    +0.000 N 
ATOM     29  H   UNL     1     -12.006  57.525  48.601  0.00  0.00    +0.000 HD
BRANCH  28  30
ATOM     30  C   UNL     1     -13.320  56.131  49.606  0.00  0.00    +0.000 C 
BRANCH  30  31
ATOM     31  C   UNL     1     -13.669  56.993  50.783  0.00  0.00    +0.000 A 
ATOM     32  S   UNL     1     -14.277  58.580  50.535  0.00  0.00    +0.000 S 
ATOM     33  C   UNL     1     -13.608  56.679  52.126  0.00  0.00    +0.000 A 
ATOM     34  C   UNL     1     -14.464  58.839  52.213  0.00  0.00    +0.000 A 
ATOM     35  C   UNL     1     -14.067  57.747  52.951  0.00  0.00    +0.000 A 
ENDBRANCH  30  31
ENDBRANCH  28  30
ENDBRANCH   5  28
TORSDOF 5
ENDMDL
MODEL 4
REMARK VINA RESULT:      -8.1      4.119      5.537
REMARK  Name = 
REMARK  5 active torsions:
REMARK  status: ('A' for Active; 'I' for Inactive)
REMARK    1  A    between atoms: C_6  and  C_10
REMARK    2  A    between atoms: C_14  and  O_18
REMARK    3  A    between atoms: N_17  and  N_20
REMARK    4  A    between atoms: N_20  and  C_23
REMARK    5  A    between atoms: C_23  and  C_26
REMARK                            x       y       z     vdW  Elec       q    Type
REMARK                         _______ _______ _______ _____ _____    ______ ____
ROOT
ATOM      1  C   UNL     1     -10.350  54.899  47.778  0.00  0.00    +0.000 A 
ATOM      2  C   UNL     1      -8.859  54.973  47.783  0.00  0.00    +0.000 A 
ATOM      3  C   UNL     1     -11.003  54.379  46.725  0.00  0.00    +0.000 A 
ATOM      4  O   UNL     1      -8.320  55.460  48.782  0.00  0.00    +0.000 OA
ATOM      5  N   UNL     1      -8.168  54.466  46.679  0.00  0.00    +0.000 N 
ATOM      6  C   UNL     1     -10.259  53.849  45.573  0.00  0.00    +0.000 A 
ATOM      7  C   UNL     1      -8.854  53.905  45.560  0.00  0.00    +0.000 A 
ATOM      8  C   UNL     1     -10.940  53.272  44.487  0.00  0.00    +0.000 A 
ATOM      9  C   UNL     1      -8.162  53.392  44.451  0.00  0.00    +0.000 A 
ATOM     10  C   UNL     1     -10.241  52.746  43.404  0.00  0.00    +0.000 A 
ATOM     11  C   UNL     1      -8.851  52.809  43.385  0.00  0.00    +0.000 A 
ENDROOT
BRANCH   1  17
ATOM     12  S   UNL     1     -11.788  54.968  51.429  0.00  0.00    +0.000 S 
ATOM     13  O   UNL     1     -10.813  55.437  52.390  0.00  0.00    +0.000 OA
ATOM     14  O   UNL     1     -12.654  53.848  51.753  0.00  0.00    +0.000 OA
ATOM     15  N   UNL     1     -10.998  54.606  50.064  0.00  0.00    +0.000 N 
ATOM     16  C   UNL     1     -12.848  56.328  51.109  0.00  0.00    +0.000 A 
ATOM     17  C   UNL     1     -11.102  55.359  49.008  0.00  0.00    +0.000 C 
ATOM     18  C   UNL     1     -12.758  56.945  49.872  0.00  0.00    +0.000 A 
ATOM     19  C   UNL     1     -13.758  56.748  52.084  0.00  0.00    +0.000 A 
ATOM     20  N   UNL     1     -11.835  56.524  48.918  0.00  0.00    +0.000 N 
ATOM     21  C   UNL     1     -13.561  58.065  49.630  0.00  0.00    +0.000 A 
ATOM     22  C   UNL     1     -14.576  57.843  51.815  0.00  0.00    +0.000 A 
ATOM     23  C   UNL     1     -14.472  58.507  50.594  0.00  0.00    +0.000 A 
ATOM     24  H   UNL     1     -10.428  53.804  50.031  0.00  0.00    +0.000 HD
ATOM     25  H   UNL     1     -11.697  57.095  48.129  0.00  0.00    +0.000 HD
ENDBRANCH   1  17
BRANCH   3  26
ATOM     26  O   UNL     1     -12.379  54.264  46.639  0.00  0.00    +0.000 OA
ATOM     27  H   UNL     1     -12.856  54.801  46.037  0.00  0.00    +0.000 HD
ENDBRANCH   3  26
BRANCH   5  28
ATOM     28  N   UNL     1      -6.737  54.579  46.596  0.00  0.00    +0.000 N 
ATOM     29  H   UNL     1      -6.290  55.383  46.246  0.00  0.00    +0.000 HD
BRANCH  28  30
ATOM     30  C   UNL     1      -5.988  53.407  47.073  0.00  0.00    +0.000 C 
BRANCH  30  31
ATOM     31  C   UNL     1      -5.670  53.541  48.532  0.00  0.00    +0.000 A 
ATOM     32  S   UNL     1      -6.307  52.411  49.657  0.00  0.00    +0.000 S 
ATOM     33  C   UNL     1      -4.862  54.472  49.154  0.00  0.00    +0.000 A 
ATOM     34  C   UNL     1      -5.499  53.159  50.963  0.00  0.00    +0.000 A 
ATOM     35  C   UNL     1      -4.765  54.251  50.558  0.00  0.00    +0.000 A 
ENDBRANCH  30  31
ENDBRANCH  28  30
ENDBRANCH   5  28
TORSDOF 5
ENDMDL
MODEL 5
REMARK VINA RESULT:      -8.1      3.747      7.426
REMARK  Name = 
REMARK  5 active torsions:
REMARK  status: ('A' for Active; 'I' for Inactive)
REMARK    1  A    between atoms: C_6  and  C_10
REMARK    2  A    between atoms: C_14  and  O_18
REMARK    3  A    between atoms: N_17  and  N_20
REMARK    4  A    between atoms: N_20  and  C_23
REMARK    5  A    between atoms: C_23  and  C_26
REMARK                            x       y       z     vdW  Elec       q    Type
REMARK                         _______ _______ _______ _____ _____    ______ ____
ROOT
ATOM      1  C   UNL     1     -10.316  55.154  50.754  0.00  0.00    +0.000 A 
ATOM      2  C   UNL     1      -9.990  54.938  49.314  0.00  0.00    +0.000 A 
ATOM      3  C   UNL     1     -11.461  55.761  51.111  0.00  0.00    +0.000 A 
ATOM      4  O   UNL     1      -8.923  54.373  49.053  0.00  0.00    +0.000 OA
ATOM      5  N   UNL     1     -10.917  55.358  48.356  0.00  0.00    +0.000 N 
ATOM      6  C   UNL     1     -12.424  56.195  50.089  0.00  0.00    +0.000 A 
ATOM      7  C   UNL     1     -12.139  55.996  48.727  0.00  0.00    +0.000 A 
ATOM      8  C   UNL     1     -13.639  56.796  50.462  0.00  0.00    +0.000 A 
ATOM      9  C   UNL     1     -13.074  56.417  47.767  0.00  0.00    +0.000 A 
ATOM     10  C   UNL     1     -14.567  57.188  49.500  0.00  0.00    +0.000 A 
ATOM     11  C   UNL     1     -14.282  57.000  48.151  0.00  0.00    +0.000 A 
ENDROOT
BRANCH   1  17
ATOM     12  S   UNL     1      -7.067  54.668  52.901  0.00  0.00    +0.000 S 
ATOM     13  O   UNL     1      -6.943  55.671  53.938  0.00  0.00    +0.000 OA
ATOM     14  O   UNL     1      -5.901  54.256  52.139  0.00  0.00    +0.000 OA
ATOM     15  N   UNL     1      -8.189  55.179  51.854  0.00  0.00    +0.000 N 
ATOM     16  C   UNL     1      -7.668  53.222  53.693  0.00  0.00    +0.000 A 
ATOM     17  C   UNL     1      -9.362  54.619  51.801  0.00  0.00    +0.000 C 
ATOM     18  C   UNL     1      -8.973  52.838  53.438  0.00  0.00    +0.000 A 
ATOM     19  C   UNL     1      -6.829  52.491  54.539  0.00  0.00    +0.000 A 
ATOM     20  N   UNL     1      -9.801  53.587  52.605  0.00  0.00    +0.000 N 
ATOM     21  C   UNL     1      -9.477  51.718  54.108  0.00  0.00    +0.000 A 
ATOM     22  C   UNL     1      -7.334  51.357  55.172  0.00  0.00    +0.000 A 
ATOM     23  C   UNL     1      -8.658  50.976  54.966  0.00  0.00    +0.000 A 
ATOM     24  H   UNL     1      -7.984  55.927  51.249  0.00  0.00    +0.000 HD
ATOM     25  H   UNL     1     -10.759  53.366  52.589  0.00  0.00    +0.000 HD
ENDBRANCH   1  17
BRANCH   3  26
ATOM     26  O   UNL     1     -11.846  55.995  52.419  0.00  0.00    +0.000 OA
ATOM     27  H   UNL     1     -11.580  56.783  52.851  0.00  0.00    +0.000 HD
ENDBRANCH   3  26
BRANCH   5  28
ATOM     28  N   UNL     1     -10.622  55.244  46.953  0.00  0.00    +0.000 N 
ATOM     29  H   UNL     1     -10.046  55.886  46.480  0.00  0.00    +0.000 HD
BRANCH  28  30
ATOM     30  C   UNL     1     -11.246  54.098  46.275  0.00  0.00    +0.000 C 
BRANCH  30  31
ATOM     31  C   UNL     1     -10.382  53.619  45.146  0.00  0.00    +0.000 A 
ATOM     32  S   UNL     1      -8.689  53.902  45.181  0.00  0.00    +0.000 S 
ATOM     33  C   UNL     1     -10.753  52.906  44.023  0.00  0.00    +0.000 A 
ATOM     34  C   UNL     1      -8.455  53.070  43.707  0.00  0.00    +0.000 A 
ATOM     35  C   UNL     1      -9.638  52.590  43.193  0.00  0.00    +0.000 A 
ENDBRANCH  30  31
ENDBRANCH  28  30
ENDBRANCH   5  28
TORSDOF 5
ENDMDL
MODEL 6
REMARK VINA RESULT:      -8.0      2.903      8.267
REMARK  Name = 
REMARK  5 active torsions:
REMARK  status: ('A' for Active; 'I' for Inactive)
REMARK    1  A    between atoms: C_6  and  C_10
REMARK    2  A    between atoms: C_14  and  O_18
REMARK    3  A    between atoms: N_17  and  N_20
REMARK    4  A    between atoms: N_20  and  C_23
REMARK    5  A    between atoms: C_23  and  C_26
REMARK                            x       y       z     vdW  Elec       q    Type
REMARK                         _______ _______ _______ _____ _____    ______ ____
ROOT
ATOM      1  C   UNL     1      -9.665  54.044  50.378  0.00  0.00    +0.000 A 
ATOM      2  C   UNL     1     -10.637  55.160  50.568  0.00  0.00    +0.000 A 
ATOM      3  C   UNL     1      -9.502  53.480  49.169  0.00  0.00    +0.000 A 
ATOM      4  O   UNL     1     -10.738  55.636  51.704  0.00  0.00    +0.000 OA
ATOM      5  N   UNL     1     -11.347  55.616  49.454  0.00  0.00    +0.000 N 
ATOM      6  C   UNL     1     -10.256  53.973  48.008  0.00  0.00    +0.000 A 
ATOM      7  C   UNL     1     -11.173  55.028  48.164  0.00  0.00    +0.000 A 
ATOM      8  C   UNL     1     -10.060  53.410  46.736  0.00  0.00    +0.000 A 
ATOM      9  C   UNL     1     -11.883  55.486  47.043  0.00  0.00    +0.000 A 
ATOM     10  C   UNL     1     -10.754  53.888  45.627  0.00  0.00    +0.000 A 
ATOM     11  C   UNL     1     -11.668  54.925  45.782  0.00  0.00    +0.000 A 
ENDROOT
BRANCH   1  17
ATOM     12  S   UNL     1      -6.553  53.492  52.705  0.00  0.00    +0.000 S 
ATOM     13  O   UNL     1      -6.235  54.673  53.479  0.00  0.00    +0.000 OA
ATOM     14  O   UNL     1      -5.492  52.700  52.108  0.00  0.00    +0.000 OA
ATOM     15  N   UNL     1      -7.565  53.936  51.524  0.00  0.00    +0.000 N 
ATOM     16  C   UNL     1      -7.412  52.415  53.792  0.00  0.00    +0.000 A 
ATOM     17  C   UNL     1      -8.824  53.607  51.558  0.00  0.00    +0.000 C 
ATOM     18  C   UNL     1      -8.769  52.230  53.584  0.00  0.00    +0.000 A 
ATOM     19  C   UNL     1      -6.722  51.766  54.819  0.00  0.00    +0.000 A 
ATOM     20  N   UNL     1      -9.444  52.898  52.565  0.00  0.00    +0.000 N 
ATOM     21  C   UNL     1      -9.471  51.417  54.480  0.00  0.00    +0.000 A 
ATOM     22  C   UNL     1      -7.429  50.931  55.682  0.00  0.00    +0.000 A 
ATOM     23  C   UNL     1      -8.802  50.764  55.520  0.00  0.00    +0.000 A 
ATOM     24  H   UNL     1      -7.225  54.466  50.767  0.00  0.00    +0.000 HD
ATOM     25  H   UNL     1     -10.427  52.862  52.565  0.00  0.00    +0.000 HD
ENDBRANCH   1  17
BRANCH   3  26
ATOM     26  O   UNL     1      -8.620  52.448  48.901  0.00  0.00    +0.000 OA
ATOM     27  H   UNL     1      -8.916  51.560  48.932  0.00  0.00    +0.000 HD
ENDBRANCH   3  26
BRANCH   5  28
ATOM     28  N   UNL     1     -12.350  56.637  49.593  0.00  0.00    +0.000 N 
ATOM     29  H   UNL     1     -12.181  57.578  49.359  0.00  0.00    +0.000 HD
BRANCH  28  30
ATOM     30  C   UNL     1     -13.646  56.174  50.109  0.00  0.00    +0.000 C 
BRANCH  30  31
ATOM     31  C   UNL     1     -14.175  57.128  51.139  0.00  0.00    +0.000 A 
ATOM     32  S   UNL     1     -14.274  58.805  50.784  0.00  0.00    +0.000 S 
ATOM     33  C   UNL     1     -14.663  56.847  52.400  0.00  0.00    +0.000 A 
ATOM     34  C   UNL     1     -14.971  59.150  52.306  0.00  0.00    +0.000 A 
ATOM     35  C   UNL     1     -15.121  58.017  53.073  0.00  0.00    +0.000 A 
ENDBRANCH  30  31
ENDBRANCH  28  30
ENDBRANCH   5  28
TORSDOF 5
ENDMDL
MODEL 7
REMARK VINA RESULT:      -8.0      4.508      7.338
REMARK  Name = 
REMARK  5 active torsions:
REMARK  status: ('A' for Active; 'I' for Inactive)
REMARK    1  A    between atoms: C_6  and  C_10
REMARK    2  A    between atoms: C_14  and  O_18
REMARK    3  A    between atoms: N_17  and  N_20
REMARK    4  A    between atoms: N_20  and  C_23
REMARK    5  A    between atoms: C_23  and  C_26
REMARK                            x       y       z     vdW  Elec       q    Type
REMARK                         _______ _______ _______ _____ _____    ______ ____
ROOT
ATOM      1  C   UNL     1     -11.256  54.692  48.379  0.00  0.00    +0.000 A 
ATOM      2  C   UNL     1     -11.066  54.198  49.775  0.00  0.00    +0.000 A 
ATOM      3  C   UNL     1     -12.105  55.701  48.123  0.00  0.00    +0.000 A 
ATOM      4  O   UNL     1     -10.270  53.268  49.943  0.00  0.00    +0.000 OA
ATOM      5  N   UNL     1     -11.773  54.829  50.801  0.00  0.00    +0.000 N 
ATOM      6  C   UNL     1     -12.839  56.354  49.215  0.00  0.00    +0.000 A 
ATOM      7  C   UNL     1     -12.671  55.907  50.538  0.00  0.00    +0.000 A 
ATOM      8  C   UNL     1     -13.700  57.434  48.953  0.00  0.00    +0.000 A 
ATOM      9  C   UNL     1     -13.381  56.546  51.568  0.00  0.00    +0.000 A 
ATOM     10  C   UNL     1     -14.380  58.073  49.987  0.00  0.00    +0.000 A 
ATOM     11  C   UNL     1     -14.222  57.626  51.295  0.00  0.00    +0.000 A 
ENDROOT
BRANCH   1  17
ATOM     12  S   UNL     1      -8.208  53.920  46.031  0.00  0.00    +0.000 S 
ATOM     13  O   UNL     1      -7.262  53.012  46.645  0.00  0.00    +0.000 OA
ATOM     14  O   UNL     1      -7.736  55.061  45.267  0.00  0.00    +0.000 OA
ATOM     15  N   UNL     1      -9.187  54.471  47.194  0.00  0.00    +0.000 N 
ATOM     16  C   UNL     1      -9.160  52.950  44.921  0.00  0.00    +0.000 A 
ATOM     17  C   UNL     1     -10.424  54.076  47.274  0.00  0.00    +0.000 C 
ATOM     18  C   UNL     1     -10.480  52.693  45.253  0.00  0.00    +0.000 A 
ATOM     19  C   UNL     1      -8.585  52.476  43.739  0.00  0.00    +0.000 A 
ATOM     20  N   UNL     1     -11.033  53.160  46.443  0.00  0.00    +0.000 N 
ATOM     21  C   UNL     1     -11.230  51.875  44.401  0.00  0.00    +0.000 A 
ATOM     22  C   UNL     1      -9.355  51.692  42.883  0.00  0.00    +0.000 A 
ATOM     23  C   UNL     1     -10.672  51.383  43.217  0.00  0.00    +0.000 A 
ATOM     24  H   UNL     1      -8.842  55.115  47.854  0.00  0.00    +0.000 HD
ATOM     25  H   UNL     1     -11.914  52.812  46.708  0.00  0.00    +0.000 HD
ENDBRANCH   1  17
BRANCH   3  26
ATOM     26  O   UNL     1     -12.336  56.226  46.864  0.00  0.00    +0.000 OA
ATOM     27  H   UNL     1     -12.486  57.145  46.760  0.00  0.00    +0.000 HD
ENDBRANCH   3  26
BRANCH   5  28
ATOM     28  N   UNL     1     -11.687  54.347  52.154  0.00  0.00    +0.000 N 
ATOM     29  H   UNL     1     -12.386  53.786  52.560  0.00  0.00    +0.000 HD
BRANCH  28  30
ATOM     30  C   UNL     1     -10.479  54.753  52.887  0.00  0.00    +0.000 C 
BRANCH  30  31
ATOM     31  C   UNL     1      -9.751  53.550  53.411  0.00  0.00    +0.000 A 
ATOM     32  S   UNL     1      -8.037  53.486  53.340  0.00  0.00    +0.000 S 
ATOM     33  C   UNL     1     -10.275  52.426  54.017  0.00  0.00    +0.000 A 
ATOM     34  C   UNL     1      -7.998  51.967  54.121  0.00  0.00    +0.000 A 
ATOM     35  C   UNL     1      -9.261  51.511  54.425  0.00  0.00    +0.000 A 
ENDBRANCH  30  31
ENDBRANCH  28  30
ENDBRANCH   5  28
TORSDOF 5
ENDMDL
MODEL 8
REMARK VINA RESULT:      -7.9      3.880      7.489
REMARK  Name = 
REMARK  5 active torsions:
REMARK  status: ('A' for Active; 'I' for Inactive)
REMARK    1  A    between atoms: C_6  and  C_10
REMARK    2  A    between atoms: C_14  and  O_18
REMARK    3  A    between atoms: N_17  and  N_20
REMARK    4  A    between atoms: N_20  and  C_23
REMARK    5  A    between atoms: C_23  and  C_26
REMARK                            x       y       z     vdW  Elec       q    Type
REMARK                         _______ _______ _______ _____ _____    ______ ____
ROOT
ATOM      1  C   UNL     1     -10.457  54.886  50.506  0.00  0.00    +0.000 A 
ATOM      2  C   UNL     1     -10.195  54.713  49.047  0.00  0.00    +0.000 A 
ATOM      3  C   UNL     1     -11.517  55.596  50.928  0.00  0.00    +0.000 A 
ATOM      4  O   UNL     1      -9.205  54.047  48.724  0.00  0.00    +0.000 OA
ATOM      5  N   UNL     1     -11.093  55.284  48.141  0.00  0.00    +0.000 N 
ATOM      6  C   UNL     1     -12.451  56.189  49.961  0.00  0.00    +0.000 A 
ATOM      7  C   UNL     1     -12.226  56.033  48.582  0.00  0.00    +0.000 A 
ATOM      8  C   UNL     1     -13.580  56.901  50.402  0.00  0.00    +0.000 A 
ATOM      9  C   UNL     1     -13.131  56.606  47.674  0.00  0.00    +0.000 A 
ATOM     10  C   UNL     1     -14.483  57.445  49.491  0.00  0.00    +0.000 A 
ATOM     11  C   UNL     1     -14.256  57.299  48.126  0.00  0.00    +0.000 A 
ENDROOT
BRANCH   1  17
ATOM     12  S   UNL     1      -9.088  52.227  53.046  0.00  0.00    +0.000 S 
ATOM     13  O   UNL     1      -8.505  51.083  52.377  0.00  0.00    +0.000 OA
ATOM     14  O   UNL     1      -9.917  52.041  54.224  0.00  0.00    +0.000 OA
ATOM     15  N   UNL     1      -9.954  53.047  51.953  0.00  0.00    +0.000 N 
ATOM     16  C   UNL     1      -7.742  53.232  53.551  0.00  0.00    +0.000 A 
ATOM     17  C   UNL     1      -9.544  54.192  51.493  0.00  0.00    +0.000 C 
ATOM     18  C   UNL     1      -7.543  54.431  52.887  0.00  0.00    +0.000 A 
ATOM     19  C   UNL     1      -6.919  52.819  54.603  0.00  0.00    +0.000 A 
ATOM     20  N   UNL     1      -8.363  54.820  51.830  0.00  0.00    +0.000 N 
ATOM     21  C   UNL     1      -6.439  55.212  53.247  0.00  0.00    +0.000 A 
ATOM     22  C   UNL     1      -5.844  53.625  54.973  0.00  0.00    +0.000 A 
ATOM     23  C   UNL     1      -5.598  54.814  54.291  0.00  0.00    +0.000 A 
ATOM     24  H   UNL     1     -10.806  52.673  51.629  0.00  0.00    +0.000 HD
ATOM     25  H   UNL     1      -8.080  55.591  51.289  0.00  0.00    +0.000 HD
ENDBRANCH   1  17
BRANCH   3  26
ATOM     26  O   UNL     1     -11.839  55.801  52.258  0.00  0.00    +0.000 OA
ATOM     27  H   UNL     1     -11.475  56.530  52.721  0.00  0.00    +0.000 HD
ENDBRANCH   3  26
BRANCH   5  28
ATOM     28  N   UNL     1     -10.849  55.213  46.725  0.00  0.00    +0.000 N 
ATOM     29  H   UNL     1     -10.329  55.896  46.244  0.00  0.00    +0.000 HD
BRANCH  28  30
ATOM     30  C   UNL     1     -11.435  54.047  46.048  0.00  0.00    +0.000 C 
BRANCH  30  31
ATOM     31  C   UNL     1     -10.501  53.524  44.997  0.00  0.00    +0.000 A 
ATOM     32  S   UNL     1      -8.811  53.797  45.137  0.00  0.00    +0.000 S 
ATOM     33  C   UNL     1     -10.801  52.775  43.877  0.00  0.00    +0.000 A 
ATOM     34  C   UNL     1      -8.486  52.912  43.712  0.00  0.00    +0.000 A 
ATOM     35  C   UNL     1      -9.636  52.424  43.135  0.00  0.00    +0.000 A 
ENDBRANCH  30  31
ENDBRANCH  28  30
ENDBRANCH   5  28
TORSDOF 5
ENDMDL
MODEL 9
REMARK VINA RESULT:      -7.8      3.856      6.850
REMARK  Name = 
REMARK  5 active torsions:
REMARK  status: ('A' for Active; 'I' for Inactive)
REMARK    1  A    between atoms: C_6  and  C_10
REMARK    2  A    between atoms: C_14  and  O_18
REMARK    3  A    between atoms: N_17  and  N_20
REMARK    4  A    between atoms: N_20  and  C_23
REMARK    5  A    between atoms: C_23  and  C_26
REMARK                            x       y       z     vdW  Elec       q    Type
REMARK                         _______ _______ _______ _____ _____    ______ ____
ROOT
ATOM      1  C   UNL     1     -12.056  55.052  48.981  0.00  0.00    +0.000 A 
ATOM      2  C   UNL     1     -11.485  54.622  50.291  0.00  0.00    +0.000 A 
ATOM      3  C   UNL     1     -13.009  55.997  48.930  0.00  0.00    +0.000 A 
ATOM      4  O   UNL     1     -10.610  53.750  50.269  0.00  0.00    +0.000 OA
ATOM      5  N   UNL     1     -11.950  55.246  51.452  0.00  0.00    +0.000 N 
ATOM      6  C   UNL     1     -13.485  56.644  50.161  0.00  0.00    +0.000 A 
ATOM      7  C   UNL     1     -12.957  56.257  51.406  0.00  0.00    +0.000 A 
ATOM      8  C   UNL     1     -14.456  57.658  50.106  0.00  0.00    +0.000 A 
ATOM      9  C   UNL     1     -13.424  56.888  52.570  0.00  0.00    +0.000 A 
ATOM     10  C   UNL     1     -14.894  58.292  51.267  0.00  0.00    +0.000 A 
ATOM     11  C   UNL     1     -14.379  57.904  52.500  0.00  0.00    +0.000 A 
ENDROOT
BRANCH   1  17
ATOM     12  S   UNL     1     -11.547  52.615  45.947  0.00  0.00    +0.000 S 
ATOM     13  O   UNL     1     -12.495  52.865  44.882  0.00  0.00    +0.000 OA
ATOM     14  O   UNL     1     -11.212  51.253  46.323  0.00  0.00    +0.000 OA
ATOM     15  N   UNL     1     -12.082  53.378  47.270  0.00  0.00    +0.000 N 
ATOM     16  C   UNL     1     -10.044  53.367  45.446  0.00  0.00    +0.000 A 
ATOM     17  C   UNL     1     -11.491  54.449  47.712  0.00  0.00    +0.000 C 
ATOM     18  C   UNL     1      -9.636  54.510  46.113  0.00  0.00    +0.000 A 
ATOM     19  C   UNL     1      -9.292  52.802  44.412  0.00  0.00    +0.000 A 
ATOM     20  N   UNL     1     -10.405  55.069  47.131  0.00  0.00    +0.000 N 
ATOM     21  C   UNL     1      -8.467  55.147  45.683  0.00  0.00    +0.000 A 
ATOM     22  C   UNL     1      -8.111  53.428  44.018  0.00  0.00    +0.000 A 
ATOM     23  C   UNL     1      -7.704  54.603  44.645  0.00  0.00    +0.000 A 
ATOM     24  H   UNL     1     -12.868  53.027  47.748  0.00  0.00    +0.000 HD
ATOM     25  H   UNL     1     -10.158  55.964  47.455  0.00  0.00    +0.000 HD
ENDBRANCH   1  17
BRANCH   3  26
ATOM     26  O   UNL     1     -13.587  56.461  47.762  0.00  0.00    +0.000 OA
ATOM     27  H   UNL     1     -13.646  57.382  47.602  0.00  0.00    +0.000 HD
ENDBRANCH   3  26
BRANCH   5  28
ATOM     28  N   UNL     1     -11.491  54.820  52.746  0.00  0.00    +0.000 N 
ATOM     29  H   UNL     1     -12.083  54.383  53.399  0.00  0.00    +0.000 HD
BRANCH  28  30
ATOM     30  C   UNL     1     -10.072  55.084  53.025  0.00  0.00    +0.000 C 
BRANCH  30  31
ATOM     31  C   UNL     1      -9.381  53.833  53.481  0.00  0.00    +0.000 A 
ATOM     32  S   UNL     1     -10.302  52.434  53.858  0.00  0.00    +0.000 S 
ATOM     33  C   UNL     1      -8.027  53.601  53.621  0.00  0.00    +0.000 A 
ATOM     34  C   UNL     1      -8.897  51.523  54.199  0.00  0.00    +0.000 A 
ATOM     35  C   UNL     1      -7.749  52.267  54.037  0.00  0.00    +0.000 A 
ENDBRANCH  30  31
ENDBRANCH  28  30
ENDBRANCH   5  28
TORSDOF 5
ENDMDL
