MODEL 1
REMARK VINA RESULT:      -9.2      0.000      0.000
REMARK  Name = 
REMARK  5 active torsions:
REMARK  status: ('A' for Active; 'I' for Inactive)
REMARK    1  A    between atoms: C_6  and  C_10
REMARK    2  A    between atoms: C_14  and  O_18
REMARK    3  A    between atoms: N_17  and  N_20
REMARK    4  A    between atoms: N_20  and  C_23
REMARK    5  A    between atoms: C_23  and  C_26
REMARK                            x       y       z     vdW  Elec       q    Type
REMARK                         _______ _______ _______ _____ _____    ______ ____
ROOT
ATOM      1  C   UNL     1      -9.160  54.342  49.903  0.00  0.00    +0.000 A 
ATOM      2  C   UNL     1     -10.216  55.395  49.989  0.00  0.00    +0.000 A 
ATOM      3  C   UNL     1      -9.032  53.588  48.801  0.00  0.00    +0.000 A 
ATOM      4  O   UNL     1     -10.265  56.064  51.027  0.00  0.00    +0.000 OA
ATOM      5  N   UNL     1     -11.054  55.576  48.886  0.00  0.00    +0.000 N 
ATOM      6  C   UNL     1      -9.916  53.801  47.646  0.00  0.00    +0.000 A 
ATOM      7  C   UNL     1     -10.915  54.786  47.704  0.00  0.00    +0.000 A 
ATOM      8  C   UNL     1      -9.750  53.043  46.475  0.00  0.00    +0.000 A 
ATOM      9  C   UNL     1     -11.737  54.986  46.583  0.00  0.00    +0.000 A 
ATOM     10  C   UNL     1     -10.552  53.272  45.360  0.00  0.00    +0.000 A 
ATOM     11  C   UNL     1     -11.546  54.242  45.415  0.00  0.00    +0.000 A 
ENDROOT
BRANCH   1  17
ATOM     12  S   UNL     1      -7.778  54.125  53.564  0.00  0.00    +0.000 S 
ATOM     13  O   UNL     1      -8.009  52.813  54.143  0.00  0.00    +0.000 OA
ATOM     14  O   UNL     1      -7.973  55.321  54.363  0.00  0.00    +0.000 OA
ATOM     15  N   UNL     1      -8.707  54.248  52.248  0.00  0.00    +0.000 N 
ATOM     16  C   UNL     1      -6.100  54.147  53.056  0.00  0.00    +0.000 A 
ATOM     17  C   UNL     1      -8.192  54.189  51.057  0.00  0.00    +0.000 C 
ATOM     18  C   UNL     1      -5.834  54.098  51.695  0.00  0.00    +0.000 A 
ATOM     19  C   UNL     1      -5.084  54.230  54.008  0.00  0.00    +0.000 A 
ATOM     20  N   UNL     1      -6.860  54.005  50.760  0.00  0.00    +0.000 N 
ATOM     21  C   UNL     1      -4.497  54.060  51.287  0.00  0.00    +0.000 A 
ATOM     22  C   UNL     1      -3.758  54.224  53.585  0.00  0.00    +0.000 A 
ATOM     23  C   UNL     1      -3.466  54.131  52.224  0.00  0.00    +0.000 A 
ATOM     24  H   UNL     1      -9.679  54.369  52.350  0.00  0.00    +0.000 HD
ATOM     25  H   UNL     1      -6.618  53.793  49.829  0.00  0.00    +0.000 HD
ENDBRANCH   1  17
BRANCH   3  26
ATOM     26  O   UNL     1      -8.069  52.608  48.629  0.00  0.00    +0.000 OA
ATOM     27  H   UNL     1      -8.167  51.969  47.950  0.00  0.00    +0.000 HD
ENDBRANCH   3  26
BRANCH   5  28
ATOM     28  N   UNL     1     -12.134  56.522  48.927  0.00  0.00    +0.000 N 
ATOM     29  H   UNL     1     -12.056  57.420  48.534  0.00  0.00    +0.000 HD
BRANCH  28  30
ATOM     30  C   UNL     1     -13.360  56.065  49.593  0.00  0.00    +0.000 C 
BRANCH  30  31
ATOM     31  C   UNL     1     -13.804  57.067  50.634  0.00  0.00    +0.000 A 
ATOM     32  C   UNL     1     -13.659  56.784  52.001  0.00  0.00    +0.000 A 
ATOM     33  C   UNL     1     -14.390  58.277  50.245  0.00  0.00    +0.000 A 
ATOM     34  C   UNL     1     -14.107  57.693  52.961  0.00  0.00    +0.000 A 
ATOM     35  C   UNL     1     -14.837  59.184  51.207  0.00  0.00    +0.000 A 
ATOM     36  C   UNL     1     -14.700  58.889  52.563  0.00  0.00    +0.000 A 
ENDBRANCH  30  31
ENDBRANCH  28  30
ENDBRANCH   5  28
TORSDOF 5
ENDMDL
MODEL 2
REMARK VINA RESULT:      -8.9      1.734      2.303
REMARK  Name = 
REMARK  5 active torsions:
REMARK  status: ('A' for Active; 'I' for Inactive)
REMARK    1  A    between atoms: C_6  and  C_10
REMARK    2  A    between atoms: C_14  and  O_18
REMARK    3  A    between atoms: N_17  and  N_20
REMARK    4  A    between atoms: N_20  and  C_23
REMARK    5  A    between atoms: C_23  and  C_26
REMARK                            x       y       z     vdW  Elec       q    Type
REMARK                         _______ _______ _______ _____ _____    ______ ____
ROOT
ATOM      1  C   UNL     1      -9.602  54.085  50.130  0.00  0.00    +0.000 A 
ATOM      2  C   UNL     1     -10.597  55.193  50.242  0.00  0.00    +0.000 A 
ATOM      3  C   UNL     1      -9.435  53.428  48.971  0.00  0.00    +0.000 A 
ATOM      4  O   UNL     1     -10.684  55.766  51.334  0.00  0.00    +0.000 OA
ATOM      5  N   UNL     1     -11.336  55.530  49.106  0.00  0.00    +0.000 N 
ATOM      6  C   UNL     1     -10.214  53.805  47.783  0.00  0.00    +0.000 A 
ATOM      7  C   UNL     1     -11.154  54.845  47.866  0.00  0.00    +0.000 A 
ATOM      8  C   UNL     1     -10.004  53.148  46.559  0.00  0.00    +0.000 A 
ATOM      9  C   UNL     1     -11.876  55.201  46.714  0.00  0.00    +0.000 A 
ATOM     10  C   UNL     1     -10.705  53.532  45.418  0.00  0.00    +0.000 A 
ATOM     11  C   UNL     1     -11.640  54.556  45.496  0.00  0.00    +0.000 A 
ENDROOT
BRANCH   1  17
ATOM     12  S   UNL     1      -6.501  53.975  52.524  0.00  0.00    +0.000 S 
ATOM     13  O   UNL     1      -6.392  55.192  53.309  0.00  0.00    +0.000 OA
ATOM     14  O   UNL     1      -5.315  53.359  51.959  0.00  0.00    +0.000 OA
ATOM     15  N   UNL     1      -7.535  54.263  51.316  0.00  0.00    +0.000 N 
ATOM     16  C   UNL     1      -7.215  52.773  53.583  0.00  0.00    +0.000 A 
ATOM     17  C   UNL     1      -8.734  53.764  51.328  0.00  0.00    +0.000 C 
ATOM     18  C   UNL     1      -8.531  52.401  53.346  0.00  0.00    +0.000 A 
ATOM     19  C   UNL     1      -6.459  52.213  54.613  0.00  0.00    +0.000 A 
ATOM     20  N   UNL     1      -9.274  52.978  52.322  0.00  0.00    +0.000 N 
ATOM     21  C   UNL     1      -9.123  51.484  54.222  0.00  0.00    +0.000 A 
ATOM     22  C   UNL     1      -7.053  51.277  55.456  0.00  0.00    +0.000 A 
ATOM     23  C   UNL     1      -8.387  50.920  55.264  0.00  0.00    +0.000 A 
ATOM     24  H   UNL     1      -7.252  54.827  50.560  0.00  0.00    +0.000 HD
ATOM     25  H   UNL     1     -10.245  52.816  52.307  0.00  0.00    +0.000 HD
ENDBRANCH   1  17
BRANCH   3  26
ATOM     26  O   UNL     1      -8.522  52.407  48.774  0.00  0.00    +0.000 OA
ATOM     27  H   UNL     1      -8.183  52.241  47.916  0.00  0.00    +0.000 HD
ENDBRANCH   3  26
BRANCH   5  28
ATOM     28  N   UNL     1     -12.358  56.538  49.162  0.00  0.00    +0.000 N 
ATOM     29  H   UNL     1     -12.214  57.447  48.814  0.00  0.00    +0.000 HD
BRANCH  28  30
ATOM     30  C   UNL     1     -13.629  56.128  49.771  0.00  0.00    +0.000 C 
BRANCH  30  31
ATOM     31  C   UNL     1     -14.089  57.153  50.781  0.00  0.00    +0.000 A 
ATOM     32  C   UNL     1     -14.091  56.852  52.152  0.00  0.00    +0.000 A 
ATOM     33  C   UNL     1     -14.545  58.406  50.356  0.00  0.00    +0.000 A 
ATOM     34  C   UNL     1     -14.555  57.786  53.079  0.00  0.00    +0.000 A 
ATOM     35  C   UNL     1     -15.009  59.339  51.286  0.00  0.00    +0.000 A 
ATOM     36  C   UNL     1     -15.019  59.026  52.645  0.00  0.00    +0.000 A 
ENDBRANCH  30  31
ENDBRANCH  28  30
ENDBRANCH   5  28
TORSDOF 5
ENDMDL
MODEL 3
REMARK VINA RESULT:      -8.9      2.916      7.645
REMARK  Name = 
REMARK  5 active torsions:
REMARK  status: ('A' for Active; 'I' for Inactive)
REMARK    1  A    between atoms: C_6  and  C_10
REMARK    2  A    between atoms: C_14  and  O_18
REMARK    3  A    between atoms: N_17  and  N_20
REMARK    4  A    between atoms: N_20  and  C_23
REMARK    5  A    between atoms: C_23  and  C_26
REMARK                            x       y       z     vdW  Elec       q    Type
REMARK                         _______ _______ _______ _____ _____    ______ ____
ROOT
ATOM      1  C   UNL     1     -11.212  54.596  50.699  0.00  0.00    +0.000 A 
ATOM      2  C   UNL     1      -9.838  54.969  50.247  0.00  0.00    +0.000 A 
ATOM      3  C   UNL     1     -11.461  53.376  51.202  0.00  0.00    +0.000 A 
ATOM      4  O   UNL     1      -9.678  56.114  49.811  0.00  0.00    +0.000 OA
ATOM      5  N   UNL     1      -8.824  54.017  50.374  0.00  0.00    +0.000 N 
ATOM      6  C   UNL     1     -10.378  52.392  51.339  0.00  0.00    +0.000 A 
ATOM      7  C   UNL     1      -9.078  52.722  50.921  0.00  0.00    +0.000 A 
ATOM      8  C   UNL     1     -10.630  51.133  51.909  0.00  0.00    +0.000 A 
ATOM      9  C   UNL     1      -8.054  51.773  51.077  0.00  0.00    +0.000 A 
ATOM     10  C   UNL     1      -9.599  50.214  52.086  0.00  0.00    +0.000 A 
ATOM     11  C   UNL     1      -8.313  50.533  51.668  0.00  0.00    +0.000 A 
ENDROOT
BRANCH   1  17
ATOM     12  S   UNL     1     -13.691  57.280  49.281  0.00  0.00    +0.000 S 
ATOM     13  O   UNL     1     -14.845  56.660  48.654  0.00  0.00    +0.000 OA
ATOM     14  O   UNL     1     -13.057  58.434  48.669  0.00  0.00    +0.000 OA
ATOM     15  N   UNL     1     -12.565  56.136  49.472  0.00  0.00    +0.000 N 
ATOM     16  C   UNL     1     -14.219  57.801  50.870  0.00  0.00    +0.000 A 
ATOM     17  C   UNL     1     -12.304  55.643  50.645  0.00  0.00    +0.000 C 
ATOM     18  C   UNL     1     -13.757  57.093  51.971  0.00  0.00    +0.000 A 
ATOM     19  C   UNL     1     -15.062  58.904  50.998  0.00  0.00    +0.000 A 
ATOM     20  N   UNL     1     -12.926  55.988  51.824  0.00  0.00    +0.000 N 
ATOM     21  C   UNL     1     -14.219  57.469  53.237  0.00  0.00    +0.000 A 
ATOM     22  C   UNL     1     -15.487  59.288  52.268  0.00  0.00    +0.000 A 
ATOM     23  C   UNL     1     -15.071  58.564  53.385  0.00  0.00    +0.000 A 
ATOM     24  H   UNL     1     -12.070  55.808  48.686  0.00  0.00    +0.000 HD
ATOM     25  H   UNL     1     -12.773  55.416  52.612  0.00  0.00    +0.000 HD
ENDBRANCH   1  17
BRANCH   3  26
ATOM     26  O   UNL     1     -12.697  52.957  51.664  0.00  0.00    +0.000 OA
ATOM     27  H   UNL     1     -12.802  52.085  51.994  0.00  0.00    +0.000 HD
ENDBRANCH   3  26
BRANCH   5  28
ATOM     28  N   UNL     1      -7.497  54.284  49.895  0.00  0.00    +0.000 N 
ATOM     29  H   UNL     1      -7.101  53.783  49.146  0.00  0.00    +0.000 HD
BRANCH  28  30
ATOM     30  C   UNL     1      -6.767  55.351  50.591  0.00  0.00    +0.000 C 
BRANCH  30  31
ATOM     31  C   UNL     1      -6.567  54.995  52.046  0.00  0.00    +0.000 A 
ATOM     32  C   UNL     1      -7.377  55.570  53.037  0.00  0.00    +0.000 A 
ATOM     33  C   UNL     1      -5.552  54.109  52.423  0.00  0.00    +0.000 A 
ATOM     34  C   UNL     1      -7.164  55.272  54.384  0.00  0.00    +0.000 A 
ATOM     35  C   UNL     1      -5.341  53.812  53.771  0.00  0.00    +0.000 A 
ATOM     36  C   UNL     1      -6.143  54.398  54.749  0.00  0.00    +0.000 A 
ENDBRANCH  30  31
ENDBRANCH  28  30
ENDBRANCH   5  28
TORSDOF 5
ENDMDL
MODEL 4
REMARK VINA RESULT:      -8.9      2.103      5.658
REMARK  Name = 
REMARK  5 active torsions:
REMARK  status: ('A' for Active; 'I' for Inactive)
REMARK    1  A    between atoms: C_6  and  C_10
REMARK    2  A    between atoms: C_14  and  O_18
REMARK    3  A    between atoms: N_17  and  N_20
REMARK    4  A    between atoms: N_20  and  C_23
REMARK    5  A    between atoms: C_23  and  C_26
REMARK                            x       y       z     vdW  Elec       q    Type
REMARK                         _______ _______ _______ _____ _____    ______ ____
ROOT
ATOM      1  C   UNL     1     -10.426  55.226  50.914  0.00  0.00    +0.000 A 
ATOM      2  C   UNL     1     -10.116  55.117  49.457  0.00  0.00    +0.000 A 
ATOM      3  C   UNL     1     -11.594  55.741  51.329  0.00  0.00    +0.000 A 
ATOM      4  O   UNL     1      -9.029  54.616  49.146  0.00  0.00    +0.000 OA
ATOM      5  N   UNL     1     -11.079  55.556  48.545  0.00  0.00    +0.000 N 
ATOM      6  C   UNL     1     -12.600  56.186  50.354  0.00  0.00    +0.000 A 
ATOM      7  C   UNL     1     -12.329  56.093  48.980  0.00  0.00    +0.000 A 
ATOM      8  C   UNL     1     -13.841  56.682  50.790  0.00  0.00    +0.000 A 
ATOM      9  C   UNL     1     -13.311  56.508  48.065  0.00  0.00    +0.000 A 
ATOM     10  C   UNL     1     -14.816  57.061  49.871  0.00  0.00    +0.000 A 
ATOM     11  C   UNL     1     -14.551  56.975  48.511  0.00  0.00    +0.000 A 
ENDROOT
BRANCH   1  17
ATOM     12  S   UNL     1      -7.097  54.741  52.923  0.00  0.00    +0.000 S 
ATOM     13  O   UNL     1      -6.963  55.731  53.978  0.00  0.00    +0.000 OA
ATOM     14  O   UNL     1      -5.947  54.368  52.120  0.00  0.00    +0.000 OA
ATOM     15  N   UNL     1      -8.261  55.247  51.922  0.00  0.00    +0.000 N 
ATOM     16  C   UNL     1      -7.645  53.268  53.702  0.00  0.00    +0.000 A 
ATOM     17  C   UNL     1      -9.428  54.678  51.912  0.00  0.00    +0.000 C 
ATOM     18  C   UNL     1      -8.959  52.876  53.494  0.00  0.00    +0.000 A 
ATOM     19  C   UNL     1      -6.764  52.524  54.486  0.00  0.00    +0.000 A 
ATOM     20  N   UNL     1      -9.828  53.636  52.717  0.00  0.00    +0.000 N 
ATOM     21  C   UNL     1      -9.417  51.732  54.157  0.00  0.00    +0.000 A 
ATOM     22  C   UNL     1      -7.225  51.370  55.113  0.00  0.00    +0.000 A 
ATOM     23  C   UNL     1      -8.554  50.980  54.954  0.00  0.00    +0.000 A 
ATOM     24  H   UNL     1      -8.082  55.999  51.312  0.00  0.00    +0.000 HD
ATOM     25  H   UNL     1     -10.788  53.415  52.746  0.00  0.00    +0.000 HD
ENDBRANCH   1  17
BRANCH   3  26
ATOM     26  O   UNL     1     -11.971  55.857  52.656  0.00  0.00    +0.000 OA
ATOM     27  H   UNL     1     -12.719  55.388  52.973  0.00  0.00    +0.000 HD
ENDBRANCH   3  26
BRANCH   5  28
ATOM     28  N   UNL     1     -10.818  55.545  47.133  0.00  0.00    +0.000 N 
ATOM     29  H   UNL     1     -10.249  56.223  46.702  0.00  0.00    +0.000 HD
BRANCH  28  30
ATOM     30  C   UNL     1     -11.451  54.461  46.372  0.00  0.00    +0.000 C 
BRANCH  30  31
ATOM     31  C   UNL     1     -10.481  53.876  45.372  0.00  0.00    +0.000 A 
ATOM     32  C   UNL     1     -10.942  53.073  44.318  0.00  0.00    +0.000 A 
ATOM     33  C   UNL     1      -9.107  54.107  45.504  0.00  0.00    +0.000 A 
ATOM     34  C   UNL     1     -10.040  52.500  43.420  0.00  0.00    +0.000 A 
ATOM     35  C   UNL     1      -8.207  53.533  44.604  0.00  0.00    +0.000 A 
ATOM     36  C   UNL     1      -8.674  52.726  43.567  0.00  0.00    +0.000 A 
ENDBRANCH  30  31
ENDBRANCH  28  30
ENDBRANCH   5  28
TORSDOF 5
ENDMDL
MODEL 5
REMARK VINA RESULT:      -8.8      3.708      7.622
REMARK  Name = 
REMARK  5 active torsions:
REMARK  status: ('A' for Active; 'I' for Inactive)
REMARK    1  A    between atoms: C_6  and  C_10
REMARK    2  A    between atoms: C_14  and  O_18
REMARK    3  A    between atoms: N_17  and  N_20
REMARK    4  A    between atoms: N_20  and  C_23
REMARK    5  A    between atoms: C_23  and  C_26
REMARK                            x       y       z     vdW  Elec       q    Type
REMARK                         _______ _______ _______ _____ _____    ______ ____
ROOT
ATOM      1  C   UNL     1     -12.528  54.318  49.548  0.00  0.00    +0.000 A 
ATOM      2  C   UNL     1     -12.035  54.288  48.138  0.00  0.00    +0.000 A 
ATOM      3  C   UNL     1     -12.228  53.325  50.400  0.00  0.00    +0.000 A 
ATOM      4  O   UNL     1     -12.334  55.244  47.415  0.00  0.00    +0.000 OA
ATOM      5  N   UNL     1     -11.246  53.206  47.741  0.00  0.00    +0.000 N 
ATOM      6  C   UNL     1     -11.387  52.201  49.967  0.00  0.00    +0.000 A 
ATOM      7  C   UNL     1     -10.911  52.153  48.646  0.00  0.00    +0.000 A 
ATOM      8  C   UNL     1     -11.034  51.186  50.873  0.00  0.00    +0.000 A 
ATOM      9  C   UNL     1     -10.094  51.078  48.257  0.00  0.00    +0.000 A 
ATOM     10  C   UNL     1     -10.199  50.143  50.482  0.00  0.00    +0.000 A 
ATOM     11  C   UNL     1      -9.731  50.088  49.176  0.00  0.00    +0.000 A 
ENDROOT
BRANCH   1  17
ATOM     12  S   UNL     1     -15.358  56.472  51.192  0.00  0.00    +0.000 S 
ATOM     13  O   UNL     1     -15.199  56.550  52.634  0.00  0.00    +0.000 OA
ATOM     14  O   UNL     1     -16.676  56.296  50.610  0.00  0.00    +0.000 OA
ATOM     15  N   UNL     1     -14.415  55.273  50.659  0.00  0.00    +0.000 N 
ATOM     16  C   UNL     1     -14.741  57.984  50.550  0.00  0.00    +0.000 A 
ATOM     17  C   UNL     1     -13.313  55.524  50.017  0.00  0.00    +0.000 C 
ATOM     18  C   UNL     1     -13.530  57.954  49.874  0.00  0.00    +0.000 A 
ATOM     19  C   UNL     1     -15.472  59.161  50.713  0.00  0.00    +0.000 A 
ATOM     20  N   UNL     1     -12.809  56.773  49.731  0.00  0.00    +0.000 N 
ATOM     21  C   UNL     1     -13.006  59.164  49.409  0.00  0.00    +0.000 A 
ATOM     22  C   UNL     1     -14.953  60.353  50.215  0.00  0.00    +0.000 A 
ATOM     23  C   UNL     1     -13.716  60.354  49.571  0.00  0.00    +0.000 A 
ATOM     24  H   UNL     1     -14.678  54.339  50.825  0.00  0.00    +0.000 HD
ATOM     25  H   UNL     1     -11.881  56.834  49.406  0.00  0.00    +0.000 HD
ENDBRANCH   1  17
BRANCH   3  26
ATOM     26  O   UNL     1     -12.624  53.284  51.726  0.00  0.00    +0.000 OA
ATOM     27  H   UNL     1     -12.795  52.460  52.138  0.00  0.00    +0.000 HD
ENDBRANCH   3  26
BRANCH   5  28
ATOM     28  N   UNL     1     -10.797  53.079  46.383  0.00  0.00    +0.000 N 
ATOM     29  H   UNL     1     -11.067  52.325  45.812  0.00  0.00    +0.000 HD
BRANCH  28  30
ATOM     30  C   UNL     1      -9.910  54.144  45.899  0.00  0.00    +0.000 C 
BRANCH  30  31
ATOM     31  C   UNL     1      -8.585  54.103  46.625  0.00  0.00    +0.000 A 
ATOM     32  C   UNL     1      -7.641  53.108  46.327  0.00  0.00    +0.000 A 
ATOM     33  C   UNL     1      -8.297  55.041  47.622  0.00  0.00    +0.000 A 
ATOM     34  C   UNL     1      -6.435  53.048  47.027  0.00  0.00    +0.000 A 
ATOM     35  C   UNL     1      -7.091  54.978  48.320  0.00  0.00    +0.000 A 
ATOM     36  C   UNL     1      -6.163  53.979  48.026  0.00  0.00    +0.000 A 
ENDBRANCH  30  31
ENDBRANCH  28  30
ENDBRANCH   5  28
TORSDOF 5
ENDMDL
MODEL 6
REMARK VINA RESULT:      -8.7      1.894      5.469
REMARK  Name = 
REMARK  5 active torsions:
REMARK  status: ('A' for Active; 'I' for Inactive)
REMARK    1  A    between atoms: C_6  and  C_10
REMARK    2  A    between atoms: C_14  and  O_18
REMARK    3  A    between atoms: N_17  and  N_20
REMARK    4  A    between atoms: N_20  and  C_23
REMARK    5  A    between atoms: C_23  and  C_26
REMARK                            x       y       z     vdW  Elec       q    Type
REMARK                         _______ _______ _______ _____ _____    ______ ____
ROOT
ATOM      1  C   UNL     1     -10.552  54.939  50.682  0.00  0.00    +0.000 A 
ATOM      2  C   UNL     1     -10.325  54.825  49.210  0.00  0.00    +0.000 A 
ATOM      3  C   UNL     1     -11.608  55.613  51.162  0.00  0.00    +0.000 A 
ATOM      4  O   UNL     1      -9.342  54.175  48.838  0.00  0.00    +0.000 OA
ATOM      5  N   UNL     1     -11.249  55.429  48.354  0.00  0.00    +0.000 N 
ATOM      6  C   UNL     1     -12.577  56.231  50.246  0.00  0.00    +0.000 A 
ATOM      7  C   UNL     1     -12.383  56.136  48.858  0.00  0.00    +0.000 A 
ATOM      8  C   UNL     1     -13.708  56.895  50.750  0.00  0.00    +0.000 A 
ATOM      9  C   UNL     1     -13.330  56.719  47.999  0.00  0.00    +0.000 A 
ATOM     10  C   UNL     1     -14.654  57.442  49.886  0.00  0.00    +0.000 A 
ATOM     11  C   UNL     1     -14.464  57.356  48.513  0.00  0.00    +0.000 A 
ENDROOT
BRANCH   1  17
ATOM     12  S   UNL     1      -9.082  52.188  53.055  0.00  0.00    +0.000 S 
ATOM     13  O   UNL     1      -8.478  51.103  52.301  0.00  0.00    +0.000 OA
ATOM     14  O   UNL     1      -9.883  51.905  54.232  0.00  0.00    +0.000 OA
ATOM     15  N   UNL     1      -9.989  53.049  52.031  0.00  0.00    +0.000 N 
ATOM     16  C   UNL     1      -7.758  53.201  53.600  0.00  0.00    +0.000 A 
ATOM     17  C   UNL     1      -9.606  54.220  51.620  0.00  0.00    +0.000 C 
ATOM     18  C   UNL     1      -7.594  54.437  52.991  0.00  0.00    +0.000 A 
ATOM     19  C   UNL     1      -6.921  52.762  54.626  0.00  0.00    +0.000 A 
ATOM     20  N   UNL     1      -8.432  54.854  51.962  0.00  0.00    +0.000 N 
ATOM     21  C   UNL     1      -6.507  55.225  53.384  0.00  0.00    +0.000 A 
ATOM     22  C   UNL     1      -5.862  53.572  55.028  0.00  0.00    +0.000 A 
ATOM     23  C   UNL     1      -5.652  54.799  54.401  0.00  0.00    +0.000 A 
ATOM     24  H   UNL     1     -10.844  52.679  51.713  0.00  0.00    +0.000 HD
ATOM     25  H   UNL     1      -8.169  55.650  51.445  0.00  0.00    +0.000 HD
ENDBRANCH   1  17
BRANCH   3  26
ATOM     26  O   UNL     1     -11.906  55.748  52.508  0.00  0.00    +0.000 OA
ATOM     27  H   UNL     1     -12.764  56.015  52.773  0.00  0.00    +0.000 HD
ENDBRANCH   3  26
BRANCH   5  28
ATOM     28  N   UNL     1     -11.054  55.418  46.932  0.00  0.00    +0.000 N 
ATOM     29  H   UNL     1     -10.599  56.153  46.462  0.00  0.00    +0.000 HD
BRANCH  28  30
ATOM     30  C   UNL     1     -11.576  54.244  46.222  0.00  0.00    +0.000 C 
BRANCH  30  31
ATOM     31  C   UNL     1     -10.570  53.743  45.212  0.00  0.00    +0.000 A 
ATOM     32  C   UNL     1     -10.979  52.938  44.137  0.00  0.00    +0.000 A 
ATOM     33  C   UNL     1      -9.213  54.053  45.354  0.00  0.00    +0.000 A 
ATOM     34  C   UNL     1     -10.042  52.443  43.229  0.00  0.00    +0.000 A 
ATOM     35  C   UNL     1      -8.278  53.556  44.445  0.00  0.00    +0.000 A 
ATOM     36  C   UNL     1      -8.692  52.747  43.387  0.00  0.00    +0.000 A 
ENDBRANCH  30  31
ENDBRANCH  28  30
ENDBRANCH   5  28
TORSDOF 5
ENDMDL
MODEL 7
REMARK VINA RESULT:      -8.5      2.895      7.185
REMARK  Name = 
REMARK  5 active torsions:
REMARK  status: ('A' for Active; 'I' for Inactive)
REMARK    1  A    between atoms: C_6  and  C_10
REMARK    2  A    between atoms: C_14  and  O_18
REMARK    3  A    between atoms: N_17  and  N_20
REMARK    4  A    between atoms: N_20  and  C_23
REMARK    5  A    between atoms: C_23  and  C_26
REMARK                            x       y       z     vdW  Elec       q    Type
REMARK                         _______ _______ _______ _____ _____    ______ ____
ROOT
ATOM      1  C   UNL     1     -11.235  54.687  48.383  0.00  0.00    +0.000 A 
ATOM      2  C   UNL     1     -10.993  54.238  49.787  0.00  0.00    +0.000 A 
ATOM      3  C   UNL     1     -12.131  55.650  48.117  0.00  0.00    +0.000 A 
ATOM      4  O   UNL     1     -10.141  53.359  49.960  0.00  0.00    +0.000 OA
ATOM      5  N   UNL     1     -11.716  54.858  50.809  0.00  0.00    +0.000 N 
ATOM      6  C   UNL     1     -12.873  56.299  49.207  0.00  0.00    +0.000 A 
ATOM      7  C   UNL     1     -12.660  55.893  50.534  0.00  0.00    +0.000 A 
ATOM      8  C   UNL     1     -13.775  57.341  48.931  0.00  0.00    +0.000 A 
ATOM      9  C   UNL     1     -13.367  56.538  51.563  0.00  0.00    +0.000 A 
ATOM     10  C   UNL     1     -14.446  57.992  49.963  0.00  0.00    +0.000 A 
ATOM     11  C   UNL     1     -14.243  57.590  51.277  0.00  0.00    +0.000 A 
ENDROOT
BRANCH   1  17
ATOM     12  S   UNL     1      -8.194  53.975  46.017  0.00  0.00    +0.000 S 
ATOM     13  O   UNL     1      -7.228  53.090  46.644  0.00  0.00    +0.000 OA
ATOM     14  O   UNL     1      -7.745  55.115  45.239  0.00  0.00    +0.000 OA
ATOM     15  N   UNL     1      -9.181  54.520  47.174  0.00  0.00    +0.000 N 
ATOM     16  C   UNL     1      -9.131  52.977  44.920  0.00  0.00    +0.000 A 
ATOM     17  C   UNL     1     -10.401  54.084  47.273  0.00  0.00    +0.000 C 
ATOM     18  C   UNL     1     -10.440  52.682  45.272  0.00  0.00    +0.000 A 
ATOM     19  C   UNL     1      -8.561  52.521  43.732  0.00  0.00    +0.000 A 
ATOM     20  N   UNL     1     -10.990  53.136  46.467  0.00  0.00    +0.000 N 
ATOM     21  C   UNL     1     -11.174  51.841  44.428  0.00  0.00    +0.000 A 
ATOM     22  C   UNL     1      -9.315  51.712  42.886  0.00  0.00    +0.000 A 
ATOM     23  C   UNL     1     -10.619  51.366  43.240  0.00  0.00    +0.000 A 
ATOM     24  H   UNL     1      -8.853  55.192  47.815  0.00  0.00    +0.000 HD
ATOM     25  H   UNL     1     -11.851  52.755  46.753  0.00  0.00    +0.000 HD
ENDBRANCH   1  17
BRANCH   3  26
ATOM     26  O   UNL     1     -12.400  56.141  46.850  0.00  0.00    +0.000 OA
ATOM     27  H   UNL     1     -11.711  56.515  46.337  0.00  0.00    +0.000 HD
ENDBRANCH   3  26
BRANCH   5  28
ATOM     28  N   UNL     1     -11.583  54.427  52.172  0.00  0.00    +0.000 N 
ATOM     29  H   UNL     1     -12.228  53.813  52.591  0.00  0.00    +0.000 HD
BRANCH  28  30
ATOM     30  C   UNL     1     -10.427  54.959  52.903  0.00  0.00    +0.000 C 
BRANCH  30  31
ATOM     31  C   UNL     1      -9.569  53.833  53.433  0.00  0.00    +0.000 A 
ATOM     32  C   UNL     1      -8.181  53.996  53.564  0.00  0.00    +0.000 A 
ATOM     33  C   UNL     1     -10.148  52.605  53.773  0.00  0.00    +0.000 A 
ATOM     34  C   UNL     1      -7.386  52.941  54.014  0.00  0.00    +0.000 A 
ATOM     35  C   UNL     1      -9.350  51.551  54.223  0.00  0.00    +0.000 A 
ATOM     36  C   UNL     1      -7.970  51.719  54.338  0.00  0.00    +0.000 A 
ENDBRANCH  30  31
ENDBRANCH  28  30
ENDBRANCH   5  28
TORSDOF 5
ENDMDL
MODEL 8
REMARK VINA RESULT:      -8.4      1.589      5.162
REMARK  Name = 
REMARK  5 active torsions:
REMARK  status: ('A' for Active; 'I' for Inactive)
REMARK    1  A    between atoms: C_6  and  C_10
REMARK    2  A    between atoms: C_14  and  O_18
REMARK    3  A    between atoms: N_17  and  N_20
REMARK    4  A    between atoms: N_20  and  C_23
REMARK    5  A    between atoms: C_23  and  C_26
REMARK                            x       y       z     vdW  Elec       q    Type
REMARK                         _______ _______ _______ _____ _____    ______ ____
ROOT
ATOM      1  C   UNL     1     -10.067  54.164  51.088  0.00  0.00    +0.000 A 
ATOM      2  C   UNL     1     -10.513  53.879  49.691  0.00  0.00    +0.000 A 
ATOM      3  C   UNL     1     -10.797  54.951  51.893  0.00  0.00    +0.000 A 
ATOM      4  O   UNL     1      -9.801  53.131  49.011  0.00  0.00    +0.000 OA
ATOM      5  N   UNL     1     -11.714  54.444  49.256  0.00  0.00    +0.000 N 
ATOM      6  C   UNL     1     -12.064  55.528  51.421  0.00  0.00    +0.000 A 
ATOM      7  C   UNL     1     -12.503  55.272  50.112  0.00  0.00    +0.000 A 
ATOM      8  C   UNL     1     -12.851  56.313  52.281  0.00  0.00    +0.000 A 
ATOM      9  C   UNL     1     -13.725  55.819  49.687  0.00  0.00    +0.000 A 
ATOM     10  C   UNL     1     -14.075  56.823  51.856  0.00  0.00    +0.000 A 
ATOM     11  C   UNL     1     -14.510  56.578  50.560  0.00  0.00    +0.000 A 
ENDROOT
BRANCH   1  17
ATOM     12  S   UNL     1      -7.725  51.776  53.131  0.00  0.00    +0.000 S 
ATOM     13  O   UNL     1      -7.691  50.444  52.554  0.00  0.00    +0.000 OA
ATOM     14  O   UNL     1      -7.783  51.949  54.571  0.00  0.00    +0.000 OA
ATOM     15  N   UNL     1      -8.985  52.556  52.485  0.00  0.00    +0.000 N 
ATOM     16  C   UNL     1      -6.256  52.575  52.603  0.00  0.00    +0.000 A 
ATOM     17  C   UNL     1      -8.812  53.491  51.600  0.00  0.00    +0.000 C 
ATOM     18  C   UNL     1      -6.370  53.574  51.647  0.00  0.00    +0.000 A 
ATOM     19  C   UNL     1      -5.028  52.212  53.155  0.00  0.00    +0.000 A 
ATOM     20  N   UNL     1      -7.602  53.916  51.099  0.00  0.00    +0.000 N 
ATOM     21  C   UNL     1      -5.195  54.177  51.182  0.00  0.00    +0.000 A 
ATOM     22  C   UNL     1      -3.871  52.844  52.706  0.00  0.00    +0.000 A 
ATOM     23  C   UNL     1      -3.956  53.820  51.713  0.00  0.00    +0.000 A 
ATOM     24  H   UNL     1      -9.898  52.317  52.766  0.00  0.00    +0.000 HD
ATOM     25  H   UNL     1      -7.609  54.497  50.304  0.00  0.00    +0.000 HD
ENDBRANCH   1  17
BRANCH   3  26
ATOM     26  O   UNL     1     -10.470  55.248  53.205  0.00  0.00    +0.000 OA
ATOM     27  H   UNL     1     -10.493  54.575  53.857  0.00  0.00    +0.000 HD
ENDBRANCH   3  26
BRANCH   5  28
ATOM     28  N   UNL     1     -12.166  54.269  47.904  0.00  0.00    +0.000 N 
ATOM     29  H   UNL     1     -12.817  53.573  47.658  0.00  0.00    +0.000 HD
BRANCH  28  30
ATOM     30  C   UNL     1     -11.596  55.189  46.913  0.00  0.00    +0.000 C 
BRANCH  30  31
ATOM     31  C   UNL     1     -10.757  54.435  45.908  0.00  0.00    +0.000 A 
ATOM     32  C   UNL     1     -11.362  53.576  44.977  0.00  0.00    +0.000 A 
ATOM     33  C   UNL     1      -9.364  54.564  45.913  0.00  0.00    +0.000 A 
ATOM     34  C   UNL     1     -10.582  52.850  44.076  0.00  0.00    +0.000 A 
ATOM     35  C   UNL     1      -8.586  53.836  45.011  0.00  0.00    +0.000 A 
ATOM     36  C   UNL     1      -9.195  52.976  44.098  0.00  0.00    +0.000 A 
ENDBRANCH  30  31
ENDBRANCH  28  30
ENDBRANCH   5  28
TORSDOF 5
ENDMDL
MODEL 9
REMARK VINA RESULT:      -8.4      3.585      7.835
REMARK  Name = 
REMARK  5 active torsions:
REMARK  status: ('A' for Active; 'I' for Inactive)
REMARK    1  A    between atoms: C_6  and  C_10
REMARK    2  A    between atoms: C_14  and  O_18
REMARK    3  A    between atoms: N_17  and  N_20
REMARK    4  A    between atoms: N_20  and  C_23
REMARK    5  A    between atoms: C_23  and  C_26
REMARK                            x       y       z     vdW  Elec       q    Type
REMARK                         _______ _______ _______ _____ _____    ______ ____
ROOT
ATOM      1  C   UNL     1     -11.937  53.569  50.862  0.00  0.00    +0.000 A 
ATOM      2  C   UNL     1     -11.993  52.559  49.763  0.00  0.00    +0.000 A 
ATOM      3  C   UNL     1     -11.250  53.319  51.988  0.00  0.00    +0.000 A 
ATOM      4  O   UNL     1     -12.628  52.864  48.747  0.00  0.00    +0.000 OA
ATOM      5  N   UNL     1     -11.302  51.358  49.938  0.00  0.00    +0.000 N 
ATOM      6  C   UNL     1     -10.520  52.054  52.149  0.00  0.00    +0.000 A 
ATOM      7  C   UNL     1     -10.558  51.091  51.128  0.00  0.00    +0.000 A 
ATOM      8  C   UNL     1      -9.763  51.814  53.309  0.00  0.00    +0.000 A 
ATOM      9  C   UNL     1      -9.839  49.896  51.295  0.00  0.00    +0.000 A 
ATOM     10  C   UNL     1      -9.030  50.638  53.447  0.00  0.00    +0.000 A 
ATOM     11  C   UNL     1      -9.070  49.680  52.443  0.00  0.00    +0.000 A 
ENDROOT
BRANCH   1  17
ATOM     12  S   UNL     1     -12.956  56.976  49.214  0.00  0.00    +0.000 S 
ATOM     13  O   UNL     1     -13.964  56.789  48.185  0.00  0.00    +0.000 OA
ATOM     14  O   UNL     1     -11.860  57.905  49.005  0.00  0.00    +0.000 OA
ATOM     15  N   UNL     1     -12.322  55.527  49.547  0.00  0.00    +0.000 N 
ATOM     16  C   UNL     1     -13.809  57.543  50.638  0.00  0.00    +0.000 A 
ATOM     17  C   UNL     1     -12.611  54.909  50.653  0.00  0.00    +0.000 C 
ATOM     18  C   UNL     1     -13.952  56.662  51.700  0.00  0.00    +0.000 A 
ATOM     19  C   UNL     1     -14.303  58.846  50.682  0.00  0.00    +0.000 A 
ATOM     20  N   UNL     1     -13.463  55.362  51.635  0.00  0.00    +0.000 N 
ATOM     21  C   UNL     1     -14.680  57.090  52.816  0.00  0.00    +0.000 A 
ATOM     22  C   UNL     1     -14.997  59.269  51.812  0.00  0.00    +0.000 A 
ATOM     23  C   UNL     1     -15.191  58.387  52.875  0.00  0.00    +0.000 A 
ATOM     24  H   UNL     1     -11.709  55.106  48.902  0.00  0.00    +0.000 HD
ATOM     25  H   UNL     1     -13.744  54.726  52.333  0.00  0.00    +0.000 HD
ENDBRANCH   1  17
BRANCH   3  26
ATOM     26  O   UNL     1     -11.128  54.206  53.044  0.00  0.00    +0.000 OA
ATOM     27  H   UNL     1     -10.342  54.707  53.146  0.00  0.00    +0.000 HD
ENDBRANCH   3  26
BRANCH   5  28
ATOM     28  N   UNL     1     -11.371  50.316  48.953  0.00  0.00    +0.000 N 
ATOM     29  H   UNL     1     -12.107  49.664  48.933  0.00  0.00    +0.000 HD
BRANCH  28  30
ATOM     30  C   UNL     1     -10.275  50.284  47.976  0.00  0.00    +0.000 C 
BRANCH  30  31
ATOM     31  C   UNL     1     -10.552  51.234  46.835  0.00  0.00    +0.000 A 
ATOM     32  C   UNL     1      -9.772  52.388  46.663  0.00  0.00    +0.000 A 
ATOM     33  C   UNL     1     -11.610  50.988  45.952  0.00  0.00    +0.000 A 
ATOM     34  C   UNL     1     -10.055  53.285  45.632  0.00  0.00    +0.000 A 
ATOM     35  C   UNL     1     -11.891  51.887  44.922  0.00  0.00    +0.000 A 
ATOM     36  C   UNL     1     -11.118  53.037  44.767  0.00  0.00    +0.000 A 
ENDBRANCH  30  31
ENDBRANCH  28  30
ENDBRANCH   5  28
TORSDOF 5
ENDMDL
