MODEL 1
REMARK VINA RESULT:      -9.1      0.000      0.000
REMARK  Name = 
REMARK  5 active torsions:
REMARK  status: ('A' for Active; 'I' for Inactive)
REMARK    1  A    between atoms: C_6  and  C_10
REMARK    2  A    between atoms: C_14  and  O_18
REMARK    3  A    between atoms: N_17  and  N_20
REMARK    4  A    between atoms: N_20  and  C_23
REMARK    5  A    between atoms: C_23  and  C_26
REMARK                            x       y       z     vdW  Elec       q    Type
REMARK                         _______ _______ _______ _____ _____    ______ ____
ROOT
ATOM      1  C   UNL     1      -9.194  54.305  49.907  0.00  0.00    +0.000 A 
ATOM      2  C   UNL     1     -10.231  55.377  49.982  0.00  0.00    +0.000 A 
ATOM      3  C   UNL     1      -9.065  53.540  48.811  0.00  0.00    +0.000 A 
ATOM      4  O   UNL     1     -10.246  56.075  50.999  0.00  0.00    +0.000 OA
ATOM      5  N   UNL     1     -11.081  55.541  48.884  0.00  0.00    +0.000 N 
ATOM      6  C   UNL     1      -9.949  53.746  47.659  0.00  0.00    +0.000 A 
ATOM      7  C   UNL     1     -10.944  54.738  47.710  0.00  0.00    +0.000 A 
ATOM      8  C   UNL     1      -9.777  52.990  46.487  0.00  0.00    +0.000 A 
ATOM      9  C   UNL     1     -11.752  54.943  46.582  0.00  0.00    +0.000 A 
ATOM     10  C   UNL     1     -10.557  53.234  45.363  0.00  0.00    +0.000 A 
ATOM     11  C   UNL     1     -11.546  54.212  45.409  0.00  0.00    +0.000 A 
ENDROOT
BRANCH   1  17
ATOM     12  S   UNL     1      -7.805  54.097  53.554  0.00  0.00    +0.000 S 
ATOM     13  O   UNL     1      -8.021  52.776  54.120  0.00  0.00    +0.000 OA
ATOM     14  O   UNL     1      -8.015  55.281  54.366  0.00  0.00    +0.000 OA
ATOM     15  N   UNL     1      -8.734  54.220  52.245  0.00  0.00    +0.000 N 
ATOM     16  C   UNL     1      -6.133  54.143  53.038  0.00  0.00    +0.000 A 
ATOM     17  C   UNL     1      -8.223  54.156  51.051  0.00  0.00    +0.000 C 
ATOM     18  C   UNL     1      -5.868  54.093  51.681  0.00  0.00    +0.000 A 
ATOM     19  C   UNL     1      -5.117  54.234  53.992  0.00  0.00    +0.000 A 
ATOM     20  N   UNL     1      -6.892  53.973  50.747  0.00  0.00    +0.000 N 
ATOM     21  C   UNL     1      -4.532  54.078  51.265  0.00  0.00    +0.000 A 
ATOM     22  C   UNL     1      -3.795  54.248  53.563  0.00  0.00    +0.000 A 
ATOM     23  C   UNL     1      -3.500  54.161  52.201  0.00  0.00    +0.000 A 
ATOM     24  H   UNL     1      -9.705  54.344  52.351  0.00  0.00    +0.000 HD
ATOM     25  H   UNL     1      -6.653  53.746  49.819  0.00  0.00    +0.000 HD
ENDBRANCH   1  17
BRANCH   3  26
ATOM     26  O   UNL     1      -8.093  52.569  48.642  0.00  0.00    +0.000 OA
ATOM     27  H   UNL     1      -7.457  52.656  47.959  0.00  0.00    +0.000 HD
ENDBRANCH   3  26
BRANCH   5  28
ATOM     28  N   UNL     1     -12.130  56.526  48.896  0.00  0.00    +0.000 N 
ATOM     29  H   UNL     1     -12.005  57.424  48.513  0.00  0.00    +0.000 HD
BRANCH  28  30
ATOM     30  C   UNL     1     -13.397  56.115  49.511  0.00  0.00    +0.000 C 
BRANCH  30  31
ATOM     31  C   UNL     1     -13.807  57.088  50.591  0.00  0.00    +0.000 A 
ATOM     32  C   UNL     1     -13.628  56.776  51.949  0.00  0.00    +0.000 A 
ATOM     33  C   UNL     1     -14.414  58.301  50.244  0.00  0.00    +0.000 A 
ATOM     34  C   UNL     1     -14.068  57.657  52.937  0.00  0.00    +0.000 A 
ATOM     35  C   UNL     1     -14.854  59.177  51.234  0.00  0.00    +0.000 A 
ATOM     36  C   UNL     1     -14.688  58.852  52.579  0.00  0.00    +0.000 A 
ENDBRANCH  30  31
ENDBRANCH  28  30
ENDBRANCH   5  28
TORSDOF 5
ENDMDL
MODEL 2
REMARK VINA RESULT:      -9.0      2.575      7.317
REMARK  Name = 
REMARK  5 active torsions:
REMARK  status: ('A' for Active; 'I' for Inactive)
REMARK    1  A    between atoms: C_6  and  C_10
REMARK    2  A    between atoms: C_14  and  O_18
REMARK    3  A    between atoms: N_17  and  N_20
REMARK    4  A    between atoms: N_20  and  C_23
REMARK    5  A    between atoms: C_23  and  C_26
REMARK                            x       y       z     vdW  Elec       q    Type
REMARK                         _______ _______ _______ _____ _____    ______ ____
ROOT
ATOM      1  C   UNL     1     -11.482  56.126  48.823  0.00  0.00    +0.000 A 
ATOM      2  C   UNL     1     -10.378  55.583  49.668  0.00  0.00    +0.000 A 
ATOM      3  C   UNL     1     -11.639  55.733  47.549  0.00  0.00    +0.000 A 
ATOM      4  O   UNL     1     -10.336  55.950  50.844  0.00  0.00    +0.000 OA
ATOM      5  N   UNL     1      -9.496  54.670  49.081  0.00  0.00    +0.000 N 
ATOM      6  C   UNL     1     -10.721  54.753  46.961  0.00  0.00    +0.000 A 
ATOM      7  C   UNL     1      -9.662  54.237  47.730  0.00  0.00    +0.000 A 
ATOM      8  C   UNL     1     -10.919  54.291  45.648  0.00  0.00    +0.000 A 
ATOM      9  C   UNL     1      -8.819  53.273  47.158  0.00  0.00    +0.000 A 
ATOM     10  C   UNL     1     -10.100  53.304  45.111  0.00  0.00    +0.000 A 
ATOM     11  C   UNL     1      -9.050  52.793  45.866  0.00  0.00    +0.000 A 
ENDROOT
BRANCH   1  17
ATOM     12  S   UNL     1     -13.590  59.344  49.516  0.00  0.00    +0.000 S 
ATOM     13  O   UNL     1     -14.714  59.439  48.599  0.00  0.00    +0.000 OA
ATOM     14  O   UNL     1     -12.821  60.528  49.851  0.00  0.00    +0.000 OA
ATOM     15  N   UNL     1     -12.575  58.243  48.923  0.00  0.00    +0.000 N 
ATOM     16  C   UNL     1     -14.235  58.730  51.023  0.00  0.00    +0.000 A 
ATOM     17  C   UNL     1     -12.484  57.060  49.454  0.00  0.00    +0.000 C 
ATOM     18  C   UNL     1     -13.952  57.421  51.368  0.00  0.00    +0.000 A 
ATOM     19  C   UNL     1     -15.005  59.565  51.835  0.00  0.00    +0.000 A 
ATOM     20  N   UNL     1     -13.207  56.596  50.531  0.00  0.00    +0.000 N 
ATOM     21  C   UNL     1     -14.507  56.910  52.546  0.00  0.00    +0.000 A 
ATOM     22  C   UNL     1     -15.526  59.052  53.018  0.00  0.00    +0.000 A 
ATOM     23  C   UNL     1     -15.286  57.723  53.371  0.00  0.00    +0.000 A 
ATOM     24  H   UNL     1     -12.015  58.470  48.145  0.00  0.00    +0.000 HD
ATOM     25  H   UNL     1     -13.195  55.629  50.719  0.00  0.00    +0.000 HD
ENDBRANCH   1  17
BRANCH   3  26
ATOM     26  O   UNL     1     -12.671  56.144  46.722  0.00  0.00    +0.000 OA
ATOM     27  H   UNL     1     -13.338  55.537  46.468  0.00  0.00    +0.000 HD
ENDBRANCH   3  26
BRANCH   5  28
ATOM     28  N   UNL     1      -8.384  54.131  49.818  0.00  0.00    +0.000 N 
ATOM     29  H   UNL     1      -8.430  53.253  50.263  0.00  0.00    +0.000 HD
BRANCH  28  30
ATOM     30  C   UNL     1      -7.176  54.963  49.870  0.00  0.00    +0.000 C 
BRANCH  30  31
ATOM     31  C   UNL     1      -6.652  55.058  51.283  0.00  0.00    +0.000 A 
ATOM     32  C   UNL     1      -5.529  54.319  51.687  0.00  0.00    +0.000 A 
ATOM     33  C   UNL     1      -7.316  55.857  52.221  0.00  0.00    +0.000 A 
ATOM     34  C   UNL     1      -5.093  54.368  53.012  0.00  0.00    +0.000 A 
ATOM     35  C   UNL     1      -6.880  55.902  53.543  0.00  0.00    +0.000 A 
ATOM     36  C   UNL     1      -5.774  55.152  53.940  0.00  0.00    +0.000 A 
ENDBRANCH  30  31
ENDBRANCH  28  30
ENDBRANCH   5  28
TORSDOF 5
ENDMDL
MODEL 3
REMARK VINA RESULT:      -9.0      1.631      2.337
REMARK  Name = 
REMARK  5 active torsions:
REMARK  status: ('A' for Active; 'I' for Inactive)
REMARK    1  A    between atoms: C_6  and  C_10
REMARK    2  A    between atoms: C_14  and  O_18
REMARK    3  A    between atoms: N_17  and  N_20
REMARK    4  A    between atoms: N_20  and  C_23
REMARK    5  A    between atoms: C_23  and  C_26
REMARK                            x       y       z     vdW  Elec       q    Type
REMARK                         _______ _______ _______ _____ _____    ______ ____
ROOT
ATOM      1  C   UNL     1      -9.615  54.227  50.154  0.00  0.00    +0.000 A 
ATOM      2  C   UNL     1     -10.690  55.257  50.262  0.00  0.00    +0.000 A 
ATOM      3  C   UNL     1      -9.379  53.589  48.997  0.00  0.00    +0.000 A 
ATOM      4  O   UNL     1     -10.806  55.839  51.343  0.00  0.00    +0.000 OA
ATOM      5  N   UNL     1     -11.461  55.518  49.125  0.00  0.00    +0.000 N 
ATOM      6  C   UNL     1     -10.180  53.897  47.808  0.00  0.00    +0.000 A 
ATOM      7  C   UNL     1     -11.210  54.851  47.887  0.00  0.00    +0.000 A 
ATOM      8  C   UNL     1      -9.895  53.277  46.579  0.00  0.00    +0.000 A 
ATOM      9  C   UNL     1     -11.938  55.157  46.727  0.00  0.00    +0.000 A 
ATOM     10  C   UNL     1     -10.598  53.621  45.430  0.00  0.00    +0.000 A 
ATOM     11  C   UNL     1     -11.619  54.563  45.503  0.00  0.00    +0.000 A 
ENDROOT
BRANCH   1  17
ATOM     12  S   UNL     1      -6.554  54.437  52.576  0.00  0.00    +0.000 S 
ATOM     13  O   UNL     1      -6.630  55.624  53.411  0.00  0.00    +0.000 OA
ATOM     14  O   UNL     1      -5.285  54.026  52.006  0.00  0.00    +0.000 OA
ATOM     15  N   UNL     1      -7.602  54.628  51.369  0.00  0.00    +0.000 N 
ATOM     16  C   UNL     1      -7.106  53.103  53.565  0.00  0.00    +0.000 A 
ATOM     17  C   UNL     1      -8.728  53.979  51.349  0.00  0.00    +0.000 C 
ATOM     18  C   UNL     1      -8.355  52.569  53.303  0.00  0.00    +0.000 A 
ATOM     19  C   UNL     1      -6.284  52.609  54.581  0.00  0.00    +0.000 A 
ATOM     20  N   UNL     1      -9.172  53.093  52.306  0.00  0.00    +0.000 N 
ATOM     21  C   UNL     1      -8.822  51.536  54.123  0.00  0.00    +0.000 A 
ATOM     22  C   UNL     1      -6.749  51.563  55.370  0.00  0.00    +0.000 A 
ATOM     23  C   UNL     1      -8.020  51.031  55.149  0.00  0.00    +0.000 A 
ATOM     24  H   UNL     1      -7.387  55.247  50.634  0.00  0.00    +0.000 HD
ATOM     25  H   UNL     1     -10.116  52.815  52.283  0.00  0.00    +0.000 HD
ENDBRANCH   1  17
BRANCH   3  26
ATOM     26  O   UNL     1      -8.364  52.667  48.801  0.00  0.00    +0.000 OA
ATOM     27  H   UNL     1      -7.471  52.920  48.928  0.00  0.00    +0.000 HD
ENDBRANCH   3  26
BRANCH   5  28
ATOM     28  N   UNL     1     -12.540  56.468  49.159  0.00  0.00    +0.000 N 
ATOM     29  H   UNL     1     -12.460  57.362  48.754  0.00  0.00    +0.000 HD
BRANCH  28  30
ATOM     30  C   UNL     1     -13.769  56.030  49.833  0.00  0.00    +0.000 C 
BRANCH  30  31
ATOM     31  C   UNL     1     -14.251  57.084  50.802  0.00  0.00    +0.000 A 
ATOM     32  C   UNL     1     -14.636  58.357  50.350  0.00  0.00    +0.000 A 
ATOM     33  C   UNL     1     -14.277  56.810  52.174  0.00  0.00    +0.000 A 
ATOM     34  C   UNL     1     -15.020  59.341  51.262  0.00  0.00    +0.000 A 
ATOM     35  C   UNL     1     -14.660  57.795  53.082  0.00  0.00    +0.000 A 
ATOM     36  C   UNL     1     -15.024  59.062  52.627  0.00  0.00    +0.000 A 
ENDBRANCH  30  31
ENDBRANCH  28  30
ENDBRANCH   5  28
TORSDOF 5
ENDMDL
MODEL 4
REMARK VINA RESULT:      -8.9      2.109      5.655
REMARK  Name = 
REMARK  5 active torsions:
REMARK  status: ('A' for Active; 'I' for Inactive)
REMARK    1  A    between atoms: C_6  and  C_10
REMARK    2  A    between atoms: C_14  and  O_18
REMARK    3  A    between atoms: N_17  and  N_20
REMARK    4  A    between atoms: N_20  and  C_23
REMARK    5  A    between atoms: C_23  and  C_26
REMARK                            x       y       z     vdW  Elec       q    Type
REMARK                         _______ _______ _______ _____ _____    ______ ____
ROOT
ATOM      1  C   UNL     1     -10.425  55.213  50.931  0.00  0.00    +0.000 A 
ATOM      2  C   UNL     1     -10.116  55.061  49.479  0.00  0.00    +0.000 A 
ATOM      3  C   UNL     1     -11.586  55.748  51.342  0.00  0.00    +0.000 A 
ATOM      4  O   UNL     1      -9.054  54.507  49.184  0.00  0.00    +0.000 OA
ATOM      5  N   UNL     1     -11.065  55.517  48.559  0.00  0.00    +0.000 N 
ATOM      6  C   UNL     1     -12.580  56.196  50.361  0.00  0.00    +0.000 A 
ATOM      7  C   UNL     1     -12.307  56.078  48.987  0.00  0.00    +0.000 A 
ATOM      8  C   UNL     1     -13.821  56.699  50.786  0.00  0.00    +0.000 A 
ATOM      9  C   UNL     1     -13.288  56.478  48.067  0.00  0.00    +0.000 A 
ATOM     10  C   UNL     1     -14.799  57.050  49.863  0.00  0.00    +0.000 A 
ATOM     11  C   UNL     1     -14.534  56.940  48.502  0.00  0.00    +0.000 A 
ENDROOT
BRANCH   1  17
ATOM     12  S   UNL     1      -7.129  54.725  52.975  0.00  0.00    +0.000 S 
ATOM     13  O   UNL     1      -7.023  55.712  54.037  0.00  0.00    +0.000 OA
ATOM     14  O   UNL     1      -5.962  54.368  52.192  0.00  0.00    +0.000 OA
ATOM     15  N   UNL     1      -8.274  55.229  51.961  0.00  0.00    +0.000 N 
ATOM     16  C   UNL     1      -7.687  53.248  53.731  0.00  0.00    +0.000 A 
ATOM     17  C   UNL     1      -9.446  54.667  51.940  0.00  0.00    +0.000 C 
ATOM     18  C   UNL     1      -8.995  52.857  53.512  0.00  0.00    +0.000 A 
ATOM     19  C   UNL     1      -6.810  52.504  54.524  0.00  0.00    +0.000 A 
ATOM     20  N   UNL     1      -9.863  53.627  52.743  0.00  0.00    +0.000 N 
ATOM     21  C   UNL     1      -9.461  51.705  54.155  0.00  0.00    +0.000 A 
ATOM     22  C   UNL     1      -7.278  51.345  55.133  0.00  0.00    +0.000 A 
ATOM     23  C   UNL     1      -8.605  50.948  54.957  0.00  0.00    +0.000 A 
ATOM     24  H   UNL     1      -8.083  55.974  51.348  0.00  0.00    +0.000 HD
ATOM     25  H   UNL     1     -10.824  53.417  52.774  0.00  0.00    +0.000 HD
ENDBRANCH   1  17
BRANCH   3  26
ATOM     26  O   UNL     1     -11.970  55.869  52.667  0.00  0.00    +0.000 OA
ATOM     27  H   UNL     1     -11.466  56.397  53.255  0.00  0.00    +0.000 HD
ENDBRANCH   3  26
BRANCH   5  28
ATOM     28  N   UNL     1     -10.825  55.441  47.142  0.00  0.00    +0.000 N 
ATOM     29  H   UNL     1     -10.312  56.132  46.663  0.00  0.00    +0.000 HD
BRANCH  28  30
ATOM     30  C   UNL     1     -11.387  54.275  46.451  0.00  0.00    +0.000 C 
BRANCH  30  31
ATOM     31  C   UNL     1     -10.436  53.772  45.391  0.00  0.00    +0.000 A 
ATOM     32  C   UNL     1      -9.068  54.089  45.440  0.00  0.00    +0.000 A 
ATOM     33  C   UNL     1     -10.923  53.016  44.318  0.00  0.00    +0.000 A 
ATOM     34  C   UNL     1      -8.212  53.670  44.420  0.00  0.00    +0.000 A 
ATOM     35  C   UNL     1     -10.066  52.601  43.302  0.00  0.00    +0.000 A 
ATOM     36  C   UNL     1      -8.713  52.935  43.348  0.00  0.00    +0.000 A 
ENDBRANCH  30  31
ENDBRANCH  28  30
ENDBRANCH   5  28
TORSDOF 5
ENDMDL
MODEL 5
REMARK VINA RESULT:      -8.9      2.923      7.596
REMARK  Name = 
REMARK  5 active torsions:
REMARK  status: ('A' for Active; 'I' for Inactive)
REMARK    1  A    between atoms: C_6  and  C_10
REMARK    2  A    between atoms: C_14  and  O_18
REMARK    3  A    between atoms: N_17  and  N_20
REMARK    4  A    between atoms: N_20  and  C_23
REMARK    5  A    between atoms: C_23  and  C_26
REMARK                            x       y       z     vdW  Elec       q    Type
REMARK                         _______ _______ _______ _____ _____    ______ ____
ROOT
ATOM      1  C   UNL     1     -11.226  54.617  50.680  0.00  0.00    +0.000 A 
ATOM      2  C   UNL     1      -9.861  55.017  50.225  0.00  0.00    +0.000 A 
ATOM      3  C   UNL     1     -11.454  53.401  51.202  0.00  0.00    +0.000 A 
ATOM      4  O   UNL     1      -9.722  56.171  49.812  0.00  0.00    +0.000 OA
ATOM      5  N   UNL     1      -8.833  54.076  50.338  0.00  0.00    +0.000 N 
ATOM      6  C   UNL     1     -10.357  52.438  51.337  0.00  0.00    +0.000 A 
ATOM      7  C   UNL     1      -9.065  52.784  50.902  0.00  0.00    +0.000 A 
ATOM      8  C   UNL     1     -10.578  51.188  51.940  0.00  0.00    +0.000 A 
ATOM      9  C   UNL     1      -8.023  51.861  51.075  0.00  0.00    +0.000 A 
ATOM     10  C   UNL     1      -9.527  50.301  52.143  0.00  0.00    +0.000 A 
ATOM     11  C   UNL     1      -8.248  50.637  51.712  0.00  0.00    +0.000 A 
ENDROOT
BRANCH   1  17
ATOM     12  S   UNL     1     -13.742  57.256  49.272  0.00  0.00    +0.000 S 
ATOM     13  O   UNL     1     -14.886  56.607  48.653  0.00  0.00    +0.000 OA
ATOM     14  O   UNL     1     -13.137  58.418  48.650  0.00  0.00    +0.000 OA
ATOM     15  N   UNL     1     -12.597  56.139  49.460  0.00  0.00    +0.000 N 
ATOM     16  C   UNL     1     -14.267  57.765  50.863  0.00  0.00    +0.000 A 
ATOM     17  C   UNL     1     -12.334  55.638  50.631  0.00  0.00    +0.000 C 
ATOM     18  C   UNL     1     -13.801  57.063  51.959  0.00  0.00    +0.000 A 
ATOM     19  C   UNL     1     -15.129  58.857  50.989  0.00  0.00    +0.000 A 
ATOM     20  N   UNL     1     -12.965  55.960  51.812  0.00  0.00    +0.000 N 
ATOM     21  C   UNL     1     -14.257  57.434  53.229  0.00  0.00    +0.000 A 
ATOM     22  C   UNL     1     -15.552  59.232  52.259  0.00  0.00    +0.000 A 
ATOM     23  C   UNL     1     -15.125  58.518  53.379  0.00  0.00    +0.000 A 
ATOM     24  H   UNL     1     -12.089  55.831  48.676  0.00  0.00    +0.000 HD
ATOM     25  H   UNL     1     -12.817  55.379  52.593  0.00  0.00    +0.000 HD
ENDBRANCH   1  17
BRANCH   3  26
ATOM     26  O   UNL     1     -12.675  52.977  51.699  0.00  0.00    +0.000 OA
ATOM     27  H   UNL     1     -12.742  52.149  52.133  0.00  0.00    +0.000 HD
ENDBRANCH   3  26
BRANCH   5  28
ATOM     28  N   UNL     1      -7.500  54.373  49.886  0.00  0.00    +0.000 N 
ATOM     29  H   UNL     1      -7.076  53.873  49.151  0.00  0.00    +0.000 HD
BRANCH  28  30
ATOM     30  C   UNL     1      -6.806  55.463  50.583  0.00  0.00    +0.000 C 
BRANCH  30  31
ATOM     31  C   UNL     1      -6.593  55.117  52.038  0.00  0.00    +0.000 A 
ATOM     32  C   UNL     1      -5.597  54.205  52.424  0.00  0.00    +0.000 A 
ATOM     33  C   UNL     1      -7.424  55.674  53.016  0.00  0.00    +0.000 A 
ATOM     34  C   UNL     1      -5.453  53.847  53.765  0.00  0.00    +0.000 A 
ATOM     35  C   UNL     1      -7.278  55.313  54.354  0.00  0.00    +0.000 A 
ATOM     36  C   UNL     1      -6.299  54.394  54.727  0.00  0.00    +0.000 A 
ENDBRANCH  30  31
ENDBRANCH  28  30
ENDBRANCH   5  28
TORSDOF 5
ENDMDL
MODEL 6
REMARK VINA RESULT:      -8.8      3.704      7.589
REMARK  Name = 
REMARK  5 active torsions:
REMARK  status: ('A' for Active; 'I' for Inactive)
REMARK    1  A    between atoms: C_6  and  C_10
REMARK    2  A    between atoms: C_14  and  O_18
REMARK    3  A    between atoms: N_17  and  N_20
REMARK    4  A    between atoms: N_20  and  C_23
REMARK    5  A    between atoms: C_23  and  C_26
REMARK                            x       y       z     vdW  Elec       q    Type
REMARK                         _______ _______ _______ _____ _____    ______ ____
ROOT
ATOM      1  C   UNL     1     -12.547  54.319  49.527  0.00  0.00    +0.000 A 
ATOM      2  C   UNL     1     -12.064  54.293  48.115  0.00  0.00    +0.000 A 
ATOM      3  C   UNL     1     -12.233  53.336  50.386  0.00  0.00    +0.000 A 
ATOM      4  O   UNL     1     -12.347  55.262  47.405  0.00  0.00    +0.000 OA
ATOM      5  N   UNL     1     -11.294  53.200  47.708  0.00  0.00    +0.000 N 
ATOM      6  C   UNL     1     -11.401  52.211  49.947  0.00  0.00    +0.000 A 
ATOM      7  C   UNL     1     -10.946  52.155  48.618  0.00  0.00    +0.000 A 
ATOM      8  C   UNL     1     -11.018  51.212  50.859  0.00  0.00    +0.000 A 
ATOM      9  C   UNL     1     -10.120  51.088  48.231  0.00  0.00    +0.000 A 
ATOM     10  C   UNL     1     -10.165  50.185  50.471  0.00  0.00    +0.000 A 
ATOM     11  C   UNL     1      -9.714  50.123  49.157  0.00  0.00    +0.000 A 
ENDROOT
BRANCH   1  17
ATOM     12  S   UNL     1     -15.368  56.467  51.172  0.00  0.00    +0.000 S 
ATOM     13  O   UNL     1     -15.202  56.528  52.615  0.00  0.00    +0.000 OA
ATOM     14  O   UNL     1     -16.689  56.300  50.596  0.00  0.00    +0.000 OA
ATOM     15  N   UNL     1     -14.434  55.272  50.630  0.00  0.00    +0.000 N 
ATOM     16  C   UNL     1     -14.741  57.974  50.541  0.00  0.00    +0.000 A 
ATOM     17  C   UNL     1     -13.322  55.521  50.005  0.00  0.00    +0.000 C 
ATOM     18  C   UNL     1     -13.527  57.948  49.877  0.00  0.00    +0.000 A 
ATOM     19  C   UNL     1     -15.470  59.152  50.713  0.00  0.00    +0.000 A 
ATOM     20  N   UNL     1     -12.801  56.769  49.740  0.00  0.00    +0.000 N 
ATOM     21  C   UNL     1     -12.997  59.157  49.414  0.00  0.00    +0.000 A 
ATOM     22  C   UNL     1     -14.945  60.342  50.222  0.00  0.00    +0.000 A 
ATOM     23  C   UNL     1     -13.705  60.349  49.581  0.00  0.00    +0.000 A 
ATOM     24  H   UNL     1     -14.710  54.338  50.774  0.00  0.00    +0.000 HD
ATOM     25  H   UNL     1     -11.865  56.829  49.439  0.00  0.00    +0.000 HD
ENDBRANCH   1  17
BRANCH   3  26
ATOM     26  O   UNL     1     -12.592  53.317  51.723  0.00  0.00    +0.000 OA
ATOM     27  H   UNL     1     -12.877  52.517  52.121  0.00  0.00    +0.000 HD
ENDBRANCH   3  26
BRANCH   5  28
ATOM     28  N   UNL     1     -10.823  53.083  46.354  0.00  0.00    +0.000 N 
ATOM     29  H   UNL     1     -11.077  52.326  45.777  0.00  0.00    +0.000 HD
BRANCH  28  30
ATOM     30  C   UNL     1      -9.941  54.156  45.879  0.00  0.00    +0.000 C 
BRANCH  30  31
ATOM     31  C   UNL     1      -8.613  54.114  46.596  0.00  0.00    +0.000 A 
ATOM     32  C   UNL     1      -7.667  53.118  46.303  0.00  0.00    +0.000 A 
ATOM     33  C   UNL     1      -8.332  55.049  47.599  0.00  0.00    +0.000 A 
ATOM     34  C   UNL     1      -6.469  53.053  47.018  0.00  0.00    +0.000 A 
ATOM     35  C   UNL     1      -7.136  54.980  48.311  0.00  0.00    +0.000 A 
ATOM     36  C   UNL     1      -6.209  53.979  48.026  0.00  0.00    +0.000 A 
ENDBRANCH  30  31
ENDBRANCH  28  30
ENDBRANCH   5  28
TORSDOF 5
ENDMDL
MODEL 7
REMARK VINA RESULT:      -8.7      2.784      8.037
REMARK  Name = 
REMARK  5 active torsions:
REMARK  status: ('A' for Active; 'I' for Inactive)
REMARK    1  A    between atoms: C_6  and  C_10
REMARK    2  A    between atoms: C_14  and  O_18
REMARK    3  A    between atoms: N_17  and  N_20
REMARK    4  A    between atoms: N_20  and  C_23
REMARK    5  A    between atoms: C_23  and  C_26
REMARK                            x       y       z     vdW  Elec       q    Type
REMARK                         _______ _______ _______ _____ _____    ______ ____
ROOT
ATOM      1  C   UNL     1      -9.981  54.481  52.225  0.00  0.00    +0.000 A 
ATOM      2  C   UNL     1      -8.634  55.113  52.104  0.00  0.00    +0.000 A 
ATOM      3  C   UNL     1     -10.163  53.365  52.948  0.00  0.00    +0.000 A 
ATOM      4  O   UNL     1      -8.561  56.168  51.469  0.00  0.00    +0.000 OA
ATOM      5  N   UNL     1      -7.561  54.489  52.749  0.00  0.00    +0.000 N 
ATOM      6  C   UNL     1      -9.029  52.742  53.640  0.00  0.00    +0.000 A 
ATOM      7  C   UNL     1      -7.747  53.307  53.529  0.00  0.00    +0.000 A 
ATOM      8  C   UNL     1      -9.226  51.610  54.449  0.00  0.00    +0.000 A 
ATOM      9  C   UNL     1      -6.685  52.716  54.230  0.00  0.00    +0.000 A 
ATOM     10  C   UNL     1      -8.172  51.061  55.171  0.00  0.00    +0.000 A 
ATOM     11  C   UNL     1      -6.900  51.614  55.062  0.00  0.00    +0.000 A 
ENDROOT
BRANCH   1  17
ATOM     12  S   UNL     1     -12.395  55.897  49.496  0.00  0.00    +0.000 S 
ATOM     13  O   UNL     1     -13.267  54.855  48.979  0.00  0.00    +0.000 OA
ATOM     14  O   UNL     1     -11.808  56.870  48.593  0.00  0.00    +0.000 OA
ATOM     15  N   UNL     1     -11.199  55.173  50.294  0.00  0.00    +0.000 N 
ATOM     16  C   UNL     1     -13.345  56.806  50.651  0.00  0.00    +0.000 A 
ATOM     17  C   UNL     1     -11.163  55.173  51.594  0.00  0.00    +0.000 C 
ATOM     18  C   UNL     1     -13.072  56.638  51.996  0.00  0.00    +0.000 A 
ATOM     19  C   UNL     1     -14.341  57.672  50.196  0.00  0.00    +0.000 A 
ATOM     20  N   UNL     1     -12.095  55.747  52.431  0.00  0.00    +0.000 N 
ATOM     21  C   UNL     1     -13.862  57.323  52.926  0.00  0.00    +0.000 A 
ATOM     22  C   UNL     1     -15.100  58.369  51.130  0.00  0.00    +0.000 A 
ATOM     23  C   UNL     1     -14.868  58.190  52.495  0.00  0.00    +0.000 A 
ATOM     24  H   UNL     1     -10.483  54.723  49.790  0.00  0.00    +0.000 HD
ATOM     25  H   UNL     1     -12.067  55.516  53.388  0.00  0.00    +0.000 HD
ENDBRANCH   1  17
BRANCH   3  26
ATOM     26  O   UNL     1     -11.388  52.755  53.157  0.00  0.00    +0.000 OA
ATOM     27  H   UNL     1     -11.558  51.909  52.791  0.00  0.00    +0.000 HD
ENDBRANCH   3  26
BRANCH   5  28
ATOM     28  N   UNL     1      -6.225  55.015  52.648  0.00  0.00    +0.000 N 
ATOM     29  H   UNL     1      -5.961  55.854  53.090  0.00  0.00    +0.000 HD
BRANCH  28  30
ATOM     30  C   UNL     1      -5.278  54.229  51.848  0.00  0.00    +0.000 C 
BRANCH  30  31
ATOM     31  C   UNL     1      -5.842  53.949  50.475  0.00  0.00    +0.000 A 
ATOM     32  C   UNL     1      -6.250  52.654  50.113  0.00  0.00    +0.000 A 
ATOM     33  C   UNL     1      -5.921  54.978  49.530  0.00  0.00    +0.000 A 
ATOM     34  C   UNL     1      -6.710  52.397  48.821  0.00  0.00    +0.000 A 
ATOM     35  C   UNL     1      -6.379  54.717  48.240  0.00  0.00    +0.000 A 
ATOM     36  C   UNL     1      -6.766  53.426  47.883  0.00  0.00    +0.000 A 
ENDBRANCH  30  31
ENDBRANCH  28  30
ENDBRANCH   5  28
TORSDOF 5
ENDMDL
MODEL 8
REMARK VINA RESULT:      -8.5      2.889      7.162
REMARK  Name = 
REMARK  5 active torsions:
REMARK  status: ('A' for Active; 'I' for Inactive)
REMARK    1  A    between atoms: C_6  and  C_10
REMARK    2  A    between atoms: C_14  and  O_18
REMARK    3  A    between atoms: N_17  and  N_20
REMARK    4  A    between atoms: N_20  and  C_23
REMARK    5  A    between atoms: C_23  and  C_26
REMARK                            x       y       z     vdW  Elec       q    Type
REMARK                         _______ _______ _______ _____ _____    ______ ____
ROOT
ATOM      1  C   UNL     1     -11.256  54.668  48.352  0.00  0.00    +0.000 A 
ATOM      2  C   UNL     1     -11.031  54.215  49.757  0.00  0.00    +0.000 A 
ATOM      3  C   UNL     1     -12.126  55.651  48.070  0.00  0.00    +0.000 A 
ATOM      4  O   UNL     1     -10.173  53.348  49.938  0.00  0.00    +0.000 OA
ATOM      5  N   UNL     1     -11.774  54.832  50.768  0.00  0.00    +0.000 N 
ATOM      6  C   UNL     1     -12.876  56.303  49.148  0.00  0.00    +0.000 A 
ATOM      7  C   UNL     1     -12.694  55.886  50.478  0.00  0.00    +0.000 A 
ATOM      8  C   UNL     1     -13.741  57.375  48.865  0.00  0.00    +0.000 A 
ATOM      9  C   UNL     1     -13.394  56.550  51.497  0.00  0.00    +0.000 A 
ATOM     10  C   UNL     1     -14.394  58.050  49.889  0.00  0.00    +0.000 A 
ATOM     11  C   UNL     1     -14.221  57.639  51.207  0.00  0.00    +0.000 A 
ENDROOT
BRANCH   1  17
ATOM     12  S   UNL     1      -8.204  53.961  46.016  0.00  0.00    +0.000 S 
ATOM     13  O   UNL     1      -7.254  53.065  46.655  0.00  0.00    +0.000 OA
ATOM     14  O   UNL     1      -7.731  55.100  45.252  0.00  0.00    +0.000 OA
ATOM     15  N   UNL     1      -9.198  54.506  47.159  0.00  0.00    +0.000 N 
ATOM     16  C   UNL     1      -9.138  52.977  44.909  0.00  0.00    +0.000 A 
ATOM     17  C   UNL     1     -10.417  54.064  47.254  0.00  0.00    +0.000 C 
ATOM     18  C   UNL     1     -10.445  52.678  45.247  0.00  0.00    +0.000 A 
ATOM     19  C   UNL     1      -8.554  52.527  43.724  0.00  0.00    +0.000 A 
ATOM     20  N   UNL     1     -11.001  53.112  46.447  0.00  0.00    +0.000 N 
ATOM     21  C   UNL     1     -11.181  51.851  44.391  0.00  0.00    +0.000 A 
ATOM     22  C   UNL     1      -9.305  51.729  42.868  0.00  0.00    +0.000 A 
ATOM     23  C   UNL     1     -10.615  51.383  43.204  0.00  0.00    +0.000 A 
ATOM     24  H   UNL     1      -8.877  55.184  47.796  0.00  0.00    +0.000 HD
ATOM     25  H   UNL     1     -11.857  52.718  46.734  0.00  0.00    +0.000 HD
ENDBRANCH   1  17
BRANCH   3  26
ATOM     26  O   UNL     1     -12.347  56.165  46.804  0.00  0.00    +0.000 OA
ATOM     27  H   UNL     1     -12.965  55.754  46.232  0.00  0.00    +0.000 HD
ENDBRANCH   3  26
BRANCH   5  28
ATOM     28  N   UNL     1     -11.642  54.425  52.142  0.00  0.00    +0.000 N 
ATOM     29  H   UNL     1     -12.283  53.810  52.566  0.00  0.00    +0.000 HD
BRANCH  28  30
ATOM     30  C   UNL     1     -10.499  54.981  52.876  0.00  0.00    +0.000 C 
BRANCH  30  31
ATOM     31  C   UNL     1      -9.619  53.876  53.409  0.00  0.00    +0.000 A 
ATOM     32  C   UNL     1      -8.231  54.057  53.537  0.00  0.00    +0.000 A 
ATOM     33  C   UNL     1     -10.178  52.637  53.742  0.00  0.00    +0.000 A 
ATOM     34  C   UNL     1      -7.422  53.007  53.973  0.00  0.00    +0.000 A 
ATOM     35  C   UNL     1      -9.367  51.590  54.174  0.00  0.00    +0.000 A 
ATOM     36  C   UNL     1      -7.989  51.773  54.282  0.00  0.00    +0.000 A 
ENDBRANCH  30  31
ENDBRANCH  28  30
ENDBRANCH   5  28
TORSDOF 5
ENDMDL
MODEL 9
REMARK VINA RESULT:      -8.5      3.166      6.045
REMARK  Name = 
REMARK  5 active torsions:
REMARK  status: ('A' for Active; 'I' for Inactive)
REMARK    1  A    between atoms: C_6  and  C_10
REMARK    2  A    between atoms: C_14  and  O_18
REMARK    3  A    between atoms: N_17  and  N_20
REMARK    4  A    between atoms: N_20  and  C_23
REMARK    5  A    between atoms: C_23  and  C_26
REMARK                            x       y       z     vdW  Elec       q    Type
REMARK                         _______ _______ _______ _____ _____    ______ ____
ROOT
ATOM      1  C   UNL     1      -9.767  53.684  48.388  0.00  0.00    +0.000 A 
ATOM      2  C   UNL     1     -11.226  53.948  48.556  0.00  0.00    +0.000 A 
ATOM      3  C   UNL     1      -8.906  53.867  49.401  0.00  0.00    +0.000 A 
ATOM      4  O   UNL     1     -11.958  53.699  47.595  0.00  0.00    +0.000 OA
ATOM      5  N   UNL     1     -11.665  54.417  49.798  0.00  0.00    +0.000 N 
ATOM      6  C   UNL     1      -9.390  54.334  50.705  0.00  0.00    +0.000 A 
ATOM      7  C   UNL     1     -10.758  54.606  50.886  0.00  0.00    +0.000 A 
ATOM      8  C   UNL     1      -8.503  54.468  51.786  0.00  0.00    +0.000 A 
ATOM      9  C   UNL     1     -11.204  55.015  52.151  0.00  0.00    +0.000 A 
ATOM     10  C   UNL     1      -8.967  54.834  53.045  0.00  0.00    +0.000 A 
ATOM     11  C   UNL     1     -10.318  55.107  53.229  0.00  0.00    +0.000 A 
ENDROOT
BRANCH   1  17
ATOM     12  S   UNL     1      -9.219  53.232  44.544  0.00  0.00    +0.000 S 
ATOM     13  O   UNL     1      -8.175  54.120  44.058  0.00  0.00    +0.000 OA
ATOM     14  O   UNL     1     -10.426  53.031  43.765  0.00  0.00    +0.000 OA
ATOM     15  N   UNL     1      -9.650  53.749  46.007  0.00  0.00    +0.000 N 
ATOM     16  C   UNL     1      -8.479  51.656  44.723  0.00  0.00    +0.000 A 
ATOM     17  C   UNL     1      -9.281  53.113  47.079  0.00  0.00    +0.000 C 
ATOM     18  C   UNL     1      -8.220  51.198  46.003  0.00  0.00    +0.000 A 
ATOM     19  C   UNL     1      -8.175  50.902  43.588  0.00  0.00    +0.000 A 
ATOM     20  N   UNL     1      -8.504  51.976  47.122  0.00  0.00    +0.000 N 
ATOM     21  C   UNL     1      -7.584  49.961  46.151  0.00  0.00    +0.000 A 
ATOM     22  C   UNL     1      -7.568  49.661  43.750  0.00  0.00    +0.000 A 
ATOM     23  C   UNL     1      -7.264  49.193  45.029  0.00  0.00    +0.000 A 
ATOM     24  H   UNL     1     -10.200  54.561  46.090  0.00  0.00    +0.000 HD
ATOM     25  H   UNL     1      -8.130  51.699  47.989  0.00  0.00    +0.000 HD
ENDBRANCH   1  17
BRANCH   3  26
ATOM     26  O   UNL     1      -7.551  53.589  49.342  0.00  0.00    +0.000 OA
ATOM     27  H   UNL     1      -7.123  53.520  48.511  0.00  0.00    +0.000 HD
ENDBRANCH   3  26
BRANCH   5  28
ATOM     28  N   UNL     1     -13.050  54.732  50.028  0.00  0.00    +0.000 N 
ATOM     29  H   UNL     1     -13.637  54.144  50.556  0.00  0.00    +0.000 HD
BRANCH  28  30
ATOM     30  C   UNL     1     -13.539  55.980  49.429  0.00  0.00    +0.000 C 
BRANCH  30  31
ATOM     31  C   UNL     1     -13.986  56.947  50.500  0.00  0.00    +0.000 A 
ATOM     32  C   UNL     1     -14.484  56.483  51.729  0.00  0.00    +0.000 A 
ATOM     33  C   UNL     1     -13.948  58.325  50.256  0.00  0.00    +0.000 A 
ATOM     34  C   UNL     1     -14.951  57.386  52.685  0.00  0.00    +0.000 A 
ATOM     35  C   UNL     1     -14.416  59.223  51.211  0.00  0.00    +0.000 A 
ATOM     36  C   UNL     1     -14.925  58.754  52.422  0.00  0.00    +0.000 A 
ENDBRANCH  30  31
ENDBRANCH  28  30
ENDBRANCH   5  28
TORSDOF 5
ENDMDL
