MODEL 1
REMARK VINA RESULT:      -8.3      0.000      0.000
REMARK  Name = 
REMARK  5 active torsions:
REMARK  status: ('A' for Active; 'I' for Inactive)
REMARK    1  A    between atoms: C_6  and  C_10
REMARK    2  A    between atoms: C_14  and  O_18
REMARK    3  A    between atoms: N_17  and  N_20
REMARK    4  A    between atoms: N_20  and  C_23
REMARK    5  A    between atoms: C_23  and  C_26
REMARK                            x       y       z     vdW  Elec       q    Type
REMARK                         _______ _______ _______ _____ _____    ______ ____
ROOT
ATOM      1  C   UNL     1     -11.350  53.927  51.561  0.00  0.00    +0.000 A 
ATOM      2  C   UNL     1     -10.390  54.093  52.691  0.00  0.00    +0.000 A 
ATOM      3  C   UNL     1     -11.493  52.734  50.959  0.00  0.00    +0.000 A 
ATOM      4  O   UNL     1     -10.275  55.223  53.176  0.00  0.00    +0.000 OA
ATOM      5  N   UNL     1      -9.705  52.963  53.147  0.00  0.00    +0.000 N 
ATOM      6  C   UNL     1     -10.737  51.564  51.427  0.00  0.00    +0.000 A 
ATOM      7  C   UNL     1      -9.852  51.691  52.515  0.00  0.00    +0.000 A 
ATOM      8  C   UNL     1     -10.902  50.312  50.811  0.00  0.00    +0.000 A 
ATOM      9  C   UNL     1      -9.142  50.560  52.951  0.00  0.00    +0.000 A 
ATOM     10  C   UNL     1     -10.201  49.194  51.264  0.00  0.00    +0.000 A 
ATOM     11  C   UNL     1      -9.321  49.320  52.331  0.00  0.00    +0.000 A 
ENDROOT
BRANCH   1  17
ATOM     12  S   UNL     1     -12.918  56.787  49.373  0.00  0.00    +0.000 S 
ATOM     13  O   UNL     1     -13.954  56.305  48.482  0.00  0.00    +0.000 OA
ATOM     14  O   UNL     1     -11.947  57.762  48.909  0.00  0.00    +0.000 OA
ATOM     15  N   UNL     1     -12.102  55.495  49.914  0.00  0.00    +0.000 N 
ATOM     16  C   UNL     1     -13.744  57.533  50.728  0.00  0.00    +0.000 A 
ATOM     17  C   UNL     1     -12.202  55.115  51.154  0.00  0.00    +0.000 C 
ATOM     18  C   UNL     1     -13.675  56.899  51.958  0.00  0.00    +0.000 A 
ATOM     19  C   UNL     1     -14.428  58.738  50.551  0.00  0.00    +0.000 A 
ATOM     20  N   UNL     1     -13.001  55.692  52.116  0.00  0.00    +0.000 N 
ATOM     21  C   UNL     1     -14.377  57.462  53.030  0.00  0.00    +0.000 A 
ATOM     22  C   UNL     1     -15.093  59.305  51.636  0.00  0.00    +0.000 A 
ATOM     23  C   UNL     1     -15.075  58.663  52.873  0.00  0.00    +0.000 A 
ATOM     24  H   UNL     1     -11.525  54.991  49.296  0.00  0.00    +0.000 HD
ATOM     25  H   UNL     1     -13.103  55.219  52.974  0.00  0.00    +0.000 HD
ENDBRANCH   1  17
BRANCH   3  26
ATOM     26  O   UNL     1     -12.355  52.491  49.903  0.00  0.00    +0.000 OA
ATOM     27  H   UNL     1     -13.239  52.803  49.939  0.00  0.00    +0.000 HD
ENDBRANCH   3  26
BRANCH   5  28
ATOM     28  N   UNL     1      -8.755  53.079  54.227  0.00  0.00    +0.000 N 
ATOM     29  H   UNL     1      -8.994  52.937  55.172  0.00  0.00    +0.000 HD
BRANCH  28  30
ATOM     30  C   UNL     1      -7.398  53.427  53.789  0.00  0.00    +0.000 C 
BRANCH  30  31
ATOM     31  C   UNL     1      -6.953  54.703  54.435  0.00  0.00    +0.000 C 
ATOM     32  C   UNL     1      -6.793  55.986  53.666  0.00  0.00    +0.000 C 
ATOM     33  C   UNL     1      -5.575  55.233  54.124  0.00  0.00    +0.000 C 
ENDBRANCH  30  31
ENDBRANCH  28  30
ENDBRANCH   5  28
TORSDOF 5
ENDMDL
MODEL 2
REMARK VINA RESULT:      -8.2      2.202      2.808
REMARK  Name = 
REMARK  5 active torsions:
REMARK  status: ('A' for Active; 'I' for Inactive)
REMARK    1  A    between atoms: C_6  and  C_10
REMARK    2  A    between atoms: C_14  and  O_18
REMARK    3  A    between atoms: N_17  and  N_20
REMARK    4  A    between atoms: N_20  and  C_23
REMARK    5  A    between atoms: C_23  and  C_26
REMARK                            x       y       z     vdW  Elec       q    Type
REMARK                         _______ _______ _______ _____ _____    ______ ____
ROOT
ATOM      1  C   UNL     1     -10.104  54.547  52.196  0.00  0.00    +0.000 A 
ATOM      2  C   UNL     1      -8.741  55.113  51.978  0.00  0.00    +0.000 A 
ATOM      3  C   UNL     1     -10.273  53.452  52.957  0.00  0.00    +0.000 A 
ATOM      4  O   UNL     1      -8.647  56.097  51.237  0.00  0.00    +0.000 OA
ATOM      5  N   UNL     1      -7.665  54.520  52.644  0.00  0.00    +0.000 N 
ATOM      6  C   UNL     1      -9.124  52.818  53.619  0.00  0.00    +0.000 A 
ATOM      7  C   UNL     1      -7.834  53.357  53.457  0.00  0.00    +0.000 A 
ATOM      8  C   UNL     1      -9.303  51.685  54.432  0.00  0.00    +0.000 A 
ATOM      9  C   UNL     1      -6.750  52.740  54.102  0.00  0.00    +0.000 A 
ATOM     10  C   UNL     1      -8.220  51.091  55.079  0.00  0.00    +0.000 A 
ATOM     11  C   UNL     1      -6.945  51.617  54.911  0.00  0.00    +0.000 A 
ENDROOT
BRANCH   1  17
ATOM     12  S   UNL     1     -12.578  56.030  49.530  0.00  0.00    +0.000 S 
ATOM     13  O   UNL     1     -13.472  55.031  48.980  0.00  0.00    +0.000 OA
ATOM     14  O   UNL     1     -11.971  57.028  48.666  0.00  0.00    +0.000 OA
ATOM     15  N   UNL     1     -11.384  55.246  50.295  0.00  0.00    +0.000 N 
ATOM     16  C   UNL     1     -13.509  56.922  50.718  0.00  0.00    +0.000 A 
ATOM     17  C   UNL     1     -11.293  55.270  51.593  0.00  0.00    +0.000 C 
ATOM     18  C   UNL     1     -13.184  56.758  52.055  0.00  0.00    +0.000 A 
ATOM     19  C   UNL     1     -14.532  57.779  50.303  0.00  0.00    +0.000 A 
ATOM     20  N   UNL     1     -12.173  55.890  52.454  0.00  0.00    +0.000 N 
ATOM     21  C   UNL     1     -13.960  57.426  53.009  0.00  0.00    +0.000 A 
ATOM     22  C   UNL     1     -15.272  58.465  51.263  0.00  0.00    +0.000 A 
ATOM     23  C   UNL     1     -14.993  58.281  52.616  0.00  0.00    +0.000 A 
ATOM     24  H   UNL     1     -10.718  54.744  49.772  0.00  0.00    +0.000 HD
ATOM     25  H   UNL     1     -12.079  55.707  53.417  0.00  0.00    +0.000 HD
ENDBRANCH   1  17
BRANCH   3  26
ATOM     26  O   UNL     1     -11.497  52.858  53.209  0.00  0.00    +0.000 OA
ATOM     27  H   UNL     1     -11.802  52.770  54.090  0.00  0.00    +0.000 HD
ENDBRANCH   3  26
BRANCH   5  28
ATOM     28  N   UNL     1      -6.326  55.024  52.452  0.00  0.00    +0.000 N 
ATOM     29  H   UNL     1      -5.962  55.790  52.953  0.00  0.00    +0.000 HD
BRANCH  28  30
ATOM     30  C   UNL     1      -5.555  54.291  51.441  0.00  0.00    +0.000 C 
BRANCH  30  31
ATOM     31  C   UNL     1      -5.560  55.035  50.141  0.00  0.00    +0.000 C 
ATOM     32  C   UNL     1      -6.324  54.556  48.936  0.00  0.00    +0.000 C 
ATOM     33  C   UNL     1      -4.825  54.445  48.962  0.00  0.00    +0.000 C 
ENDBRANCH  30  31
ENDBRANCH  28  30
ENDBRANCH   5  28
TORSDOF 5
ENDMDL
MODEL 3
REMARK VINA RESULT:      -8.1      4.002      4.879
REMARK  Name = 
REMARK  5 active torsions:
REMARK  status: ('A' for Active; 'I' for Inactive)
REMARK    1  A    between atoms: C_6  and  C_10
REMARK    2  A    between atoms: C_14  and  O_18
REMARK    3  A    between atoms: N_17  and  N_20
REMARK    4  A    between atoms: N_20  and  C_23
REMARK    5  A    between atoms: C_23  and  C_26
REMARK                            x       y       z     vdW  Elec       q    Type
REMARK                         _______ _______ _______ _____ _____    ______ ____
ROOT
ATOM      1  C   UNL     1     -10.655  55.628  48.132  0.00  0.00    +0.000 A 
ATOM      2  C   UNL     1      -9.191  55.728  48.402  0.00  0.00    +0.000 A 
ATOM      3  C   UNL     1     -11.104  54.982  47.043  0.00  0.00    +0.000 A 
ATOM      4  O   UNL     1      -8.841  56.369  49.398  0.00  0.00    +0.000 OA
ATOM      5  N   UNL     1      -8.313  55.070  47.536  0.00  0.00    +0.000 N 
ATOM      6  C   UNL     1     -10.164  54.328  46.121  0.00  0.00    +0.000 A 
ATOM      7  C   UNL     1      -8.780  54.379  46.377  0.00  0.00    +0.000 A 
ATOM      8  C   UNL     1     -10.633  53.634  44.993  0.00  0.00    +0.000 A 
ATOM      9  C   UNL     1      -7.898  53.744  45.487  0.00  0.00    +0.000 A 
ATOM     10  C   UNL     1      -9.748  52.995  44.125  0.00  0.00    +0.000 A 
ATOM     11  C   UNL     1      -8.382  53.053  44.372  0.00  0.00    +0.000 A 
ENDROOT
BRANCH   1  17
ATOM     12  S   UNL     1     -13.007  55.941  51.262  0.00  0.00    +0.000 S 
ATOM     13  O   UNL     1     -12.274  56.171  52.491  0.00  0.00    +0.000 OA
ATOM     14  O   UNL     1     -14.130  55.022  51.238  0.00  0.00    +0.000 OA
ATOM     15  N   UNL     1     -11.941  55.449  50.145  0.00  0.00    +0.000 N 
ATOM     16  C   UNL     1     -13.646  57.499  50.774  0.00  0.00    +0.000 A 
ATOM     17  C   UNL     1     -11.620  56.216  49.144  0.00  0.00    +0.000 C 
ATOM     18  C   UNL     1     -13.111  58.094  49.642  0.00  0.00    +0.000 A 
ATOM     19  C   UNL     1     -14.675  58.093  51.509  0.00  0.00    +0.000 A 
ATOM     20  N   UNL     1     -12.077  57.497  48.928  0.00  0.00    +0.000 N 
ATOM     21  C   UNL     1     -13.581  59.362  49.279  0.00  0.00    +0.000 A 
ATOM     22  C   UNL     1     -15.157  59.339  51.115  0.00  0.00    +0.000 A 
ATOM     23  C   UNL     1     -14.604  59.978  50.006  0.00  0.00    +0.000 A 
ATOM     24  H   UNL     1     -11.530  54.558  50.225  0.00  0.00    +0.000 HD
ATOM     25  H   UNL     1     -11.643  58.027  48.220  0.00  0.00    +0.000 HD
ENDBRANCH   1  17
BRANCH   3  26
ATOM     26  O   UNL     1     -12.441  54.844  46.712  0.00  0.00    +0.000 OA
ATOM     27  H   UNL     1     -12.747  54.048  46.324  0.00  0.00    +0.000 HD
ENDBRANCH   3  26
BRANCH   5  28
ATOM     28  N   UNL     1      -6.888  55.152  47.749  0.00  0.00    +0.000 N 
ATOM     29  H   UNL     1      -6.311  55.804  47.289  0.00  0.00    +0.000 HD
BRANCH  28  30
ATOM     30  C   UNL     1      -6.375  54.175  48.717  0.00  0.00    +0.000 C 
BRANCH  30  31
ATOM     31  C   UNL     1      -5.643  54.871  49.823  0.00  0.00    +0.000 C 
ATOM     32  C   UNL     1      -4.789  54.133  50.818  0.00  0.00    +0.000 C 
ATOM     33  C   UNL     1      -6.121  54.687  51.242  0.00  0.00    +0.000 C 
ENDBRANCH  30  31
ENDBRANCH  28  30
ENDBRANCH   5  28
TORSDOF 5
ENDMDL
MODEL 4
REMARK VINA RESULT:      -8.1      2.912      7.348
REMARK  Name = 
REMARK  5 active torsions:
REMARK  status: ('A' for Active; 'I' for Inactive)
REMARK    1  A    between atoms: C_6  and  C_10
REMARK    2  A    between atoms: C_14  and  O_18
REMARK    3  A    between atoms: N_17  and  N_20
REMARK    4  A    between atoms: N_20  and  C_23
REMARK    5  A    between atoms: C_23  and  C_26
REMARK                            x       y       z     vdW  Elec       q    Type
REMARK                         _______ _______ _______ _____ _____    ______ ____
ROOT
ATOM      1  C   UNL     1     -10.475  54.898  50.511  0.00  0.00    +0.000 A 
ATOM      2  C   UNL     1     -11.618  55.072  51.454  0.00  0.00    +0.000 A 
ATOM      3  C   UNL     1     -10.599  55.244  49.219  0.00  0.00    +0.000 A 
ATOM      4  O   UNL     1     -11.453  54.698  52.619  0.00  0.00    +0.000 OA
ATOM      5  N   UNL     1     -12.786  55.670  50.972  0.00  0.00    +0.000 N 
ATOM      6  C   UNL     1     -11.849  55.836  48.720  0.00  0.00    +0.000 A 
ATOM      7  C   UNL     1     -12.927  56.043  49.601  0.00  0.00    +0.000 A 
ATOM      8  C   UNL     1     -11.972  56.218  47.373  0.00  0.00    +0.000 A 
ATOM      9  C   UNL     1     -14.111  56.615  49.107  0.00  0.00    +0.000 A 
ATOM     10  C   UNL     1     -13.148  56.798  46.899  0.00  0.00    +0.000 A 
ATOM     11  C   UNL     1     -14.216  56.994  47.765  0.00  0.00    +0.000 A 
ENDROOT
BRANCH   1  17
ATOM     12  S   UNL     1      -7.267  52.680  50.974  0.00  0.00    +0.000 S 
ATOM     13  O   UNL     1      -6.236  52.977  50.000  0.00  0.00    +0.000 OA
ATOM     14  O   UNL     1      -7.559  51.304  51.336  0.00  0.00    +0.000 OA
ATOM     15  N   UNL     1      -8.642  53.356  50.448  0.00  0.00    +0.000 N 
ATOM     16  C   UNL     1      -6.784  53.478  52.458  0.00  0.00    +0.000 A 
ATOM     17  C   UNL     1      -9.156  54.384  51.059  0.00  0.00    +0.000 C 
ATOM     18  C   UNL     1      -7.532  54.565  52.883  0.00  0.00    +0.000 A 
ATOM     19  C   UNL     1      -5.687  53.005  53.181  0.00  0.00    +0.000 A 
ATOM     20  N   UNL     1      -8.614  55.034  52.146  0.00  0.00    +0.000 N 
ATOM     21  C   UNL     1      -7.119  55.238  54.039  0.00  0.00    +0.000 A 
ATOM     22  C   UNL     1      -5.309  53.664  54.349  0.00  0.00    +0.000 A 
ATOM     23  C   UNL     1      -6.019  54.786  54.772  0.00  0.00    +0.000 A 
ATOM     24  H   UNL     1      -9.095  52.986  49.657  0.00  0.00    +0.000 HD
ATOM     25  H   UNL     1      -9.020  55.889  52.419  0.00  0.00    +0.000 HD
ENDBRANCH   1  17
BRANCH   3  26
ATOM     26  O   UNL     1      -9.594  55.114  48.276  0.00  0.00    +0.000 OA
ATOM     27  H   UNL     1      -9.725  55.434  47.405  0.00  0.00    +0.000 HD
ENDBRANCH   3  26
BRANCH   5  28
ATOM     28  N   UNL     1     -13.923  55.844  51.844  0.00  0.00    +0.000 N 
ATOM     29  H   UNL     1     -14.655  55.190  51.911  0.00  0.00    +0.000 HD
BRANCH  28  30
ATOM     30  C   UNL     1     -13.888  57.087  52.624  0.00  0.00    +0.000 C 
BRANCH  30  31
ATOM     31  C   UNL     1     -15.093  57.925  52.325  0.00  0.00    +0.000 C 
ATOM     32  C   UNL     1     -15.007  59.233  51.587  0.00  0.00    +0.000 C 
ATOM     33  C   UNL     1     -15.277  59.226  53.066  0.00  0.00    +0.000 C 
ENDBRANCH  30  31
ENDBRANCH  28  30
ENDBRANCH   5  28
TORSDOF 5
ENDMDL
MODEL 5
REMARK VINA RESULT:      -8.0      3.428      7.630
REMARK  Name = 
REMARK  5 active torsions:
REMARK  status: ('A' for Active; 'I' for Inactive)
REMARK    1  A    between atoms: C_6  and  C_10
REMARK    2  A    between atoms: C_14  and  O_18
REMARK    3  A    between atoms: N_17  and  N_20
REMARK    4  A    between atoms: N_20  and  C_23
REMARK    5  A    between atoms: C_23  and  C_26
REMARK                            x       y       z     vdW  Elec       q    Type
REMARK                         _______ _______ _______ _____ _____    ______ ____
ROOT
ATOM      1  C   UNL     1     -10.191  55.259  50.702  0.00  0.00    +0.000 A 
ATOM      2  C   UNL     1      -9.748  55.204  49.279  0.00  0.00    +0.000 A 
ATOM      3  C   UNL     1     -11.414  55.720  51.017  0.00  0.00    +0.000 A 
ATOM      4  O   UNL     1      -8.599  54.808  49.058  0.00  0.00    +0.000 OA
ATOM      5  N   UNL     1     -10.662  55.573  48.288  0.00  0.00    +0.000 N 
ATOM      6  C   UNL     1     -12.349  56.140  49.964  0.00  0.00    +0.000 A 
ATOM      7  C   UNL     1     -11.964  56.062  48.612  0.00  0.00    +0.000 A 
ATOM      8  C   UNL     1     -13.635  56.602  50.291  0.00  0.00    +0.000 A 
ATOM      9  C   UNL     1     -12.873  56.463  47.620  0.00  0.00    +0.000 A 
ATOM     10  C   UNL     1     -14.533  56.983  49.296  0.00  0.00    +0.000 A 
ATOM     11  C   UNL     1     -14.151  56.916  47.962  0.00  0.00    +0.000 A 
ENDROOT
BRANCH   1  17
ATOM     12  S   UNL     1      -7.022  54.845  52.986  0.00  0.00    +0.000 S 
ATOM     13  O   UNL     1      -6.974  55.819  54.058  0.00  0.00    +0.000 OA
ATOM     14  O   UNL     1      -5.817  54.504  52.250  0.00  0.00    +0.000 OA
ATOM     15  N   UNL     1      -8.127  55.354  51.915  0.00  0.00    +0.000 N 
ATOM     16  C   UNL     1      -7.590  53.351  53.705  0.00  0.00    +0.000 A 
ATOM     17  C   UNL     1      -9.258  54.726  51.773  0.00  0.00    +0.000 C 
ATOM     18  C   UNL     1      -8.857  52.905  53.362  0.00  0.00    +0.000 A 
ATOM     19  C   UNL     1      -6.766  52.640  54.581  0.00  0.00    +0.000 A 
ATOM     20  N   UNL     1      -9.672  53.631  52.500  0.00  0.00    +0.000 N 
ATOM     21  C   UNL     1      -9.335  51.741  53.975  0.00  0.00    +0.000 A 
ATOM     22  C   UNL     1      -7.241  51.464  55.156  0.00  0.00    +0.000 A 
ATOM     23  C   UNL     1      -8.530  51.020  54.861  0.00  0.00    +0.000 A 
ATOM     24  H   UNL     1      -7.942  56.150  51.366  0.00  0.00    +0.000 HD
ATOM     25  H   UNL     1     -10.609  53.342  52.402  0.00  0.00    +0.000 HD
ENDBRANCH   1  17
BRANCH   3  26
ATOM     26  O   UNL     1     -11.905  55.809  52.308  0.00  0.00    +0.000 OA
ATOM     27  H   UNL     1     -12.808  55.626  52.479  0.00  0.00    +0.000 HD
ENDBRANCH   3  26
BRANCH   5  28
ATOM     28  N   UNL     1     -10.271  55.551  46.898  0.00  0.00    +0.000 N 
ATOM     29  H   UNL     1     -10.101  56.367  46.374  0.00  0.00    +0.000 HD
BRANCH  28  30
ATOM     30  C   UNL     1     -10.150  54.200  46.337  0.00  0.00    +0.000 C 
BRANCH  30  31
ATOM     31  C   UNL     1     -11.229  53.956  45.327  0.00  0.00    +0.000 C 
ATOM     32  C   UNL     1     -11.996  52.664  45.258  0.00  0.00    +0.000 C 
ATOM     33  C   UNL     1     -10.969  52.980  44.206  0.00  0.00    +0.000 C 
ENDBRANCH  30  31
ENDBRANCH  28  30
ENDBRANCH   5  28
TORSDOF 5
ENDMDL
MODEL 6
REMARK VINA RESULT:      -8.0      3.272      7.654
REMARK  Name = 
REMARK  5 active torsions:
REMARK  status: ('A' for Active; 'I' for Inactive)
REMARK    1  A    between atoms: C_6  and  C_10
REMARK    2  A    between atoms: C_14  and  O_18
REMARK    3  A    between atoms: N_17  and  N_20
REMARK    4  A    between atoms: N_20  and  C_23
REMARK    5  A    between atoms: C_23  and  C_26
REMARK                            x       y       z     vdW  Elec       q    Type
REMARK                         _______ _______ _______ _____ _____    ______ ____
ROOT
ATOM      1  C   UNL     1     -10.157  55.331  50.760  0.00  0.00    +0.000 A 
ATOM      2  C   UNL     1     -11.328  55.433  51.678  0.00  0.00    +0.000 A 
ATOM      3  C   UNL     1     -10.297  55.579  49.447  0.00  0.00    +0.000 A 
ATOM      4  O   UNL     1     -11.143  55.154  52.867  0.00  0.00    +0.000 OA
ATOM      5  N   UNL     1     -12.548  55.863  51.148  0.00  0.00    +0.000 N 
ATOM      6  C   UNL     1     -11.597  55.994  48.899  0.00  0.00    +0.000 A 
ATOM      7  C   UNL     1     -12.707  56.131  49.754  0.00  0.00    +0.000 A 
ATOM      8  C   UNL     1     -11.740  56.274  47.530  0.00  0.00    +0.000 A 
ATOM      9  C   UNL     1     -13.939  56.534  49.213  0.00  0.00    +0.000 A 
ATOM     10  C   UNL     1     -12.965  56.686  47.008  0.00  0.00    +0.000 A 
ATOM     11  C   UNL     1     -14.063  56.813  47.849  0.00  0.00    +0.000 A 
ENDROOT
BRANCH   1  17
ATOM     12  S   UNL     1      -7.122  55.253  53.253  0.00  0.00    +0.000 S 
ATOM     13  O   UNL     1      -7.329  54.336  54.357  0.00  0.00    +0.000 OA
ATOM     14  O   UNL     1      -6.527  56.557  53.484  0.00  0.00    +0.000 OA
ATOM     15  N   UNL     1      -8.558  55.485  52.538  0.00  0.00    +0.000 N 
ATOM     16  C   UNL     1      -6.063  54.431  52.124  0.00  0.00    +0.000 A 
ATOM     17  C   UNL     1      -8.798  55.005  51.353  0.00  0.00    +0.000 C 
ATOM     18  C   UNL     1      -6.596  54.030  50.909  0.00  0.00    +0.000 A 
ATOM     19  C   UNL     1      -4.723  54.215  52.454  0.00  0.00    +0.000 A 
ATOM     20  N   UNL     1      -7.936  54.239  50.599  0.00  0.00    +0.000 N 
ATOM     21  C   UNL     1      -5.768  53.326  50.026  0.00  0.00    +0.000 A 
ATOM     22  C   UNL     1      -3.902  53.544  51.551  0.00  0.00    +0.000 A 
ATOM     23  C   UNL     1      -4.427  53.091  50.341  0.00  0.00    +0.000 A 
ATOM     24  H   UNL     1      -9.258  55.994  53.007  0.00  0.00    +0.000 HD
ATOM     25  H   UNL     1      -8.291  53.811  49.787  0.00  0.00    +0.000 HD
ENDBRANCH   1  17
BRANCH   3  26
ATOM     26  O   UNL     1      -9.268  55.505  48.524  0.00  0.00    +0.000 OA
ATOM     27  H   UNL     1      -8.382  55.631  48.801  0.00  0.00    +0.000 HD
ENDBRANCH   3  26
BRANCH   5  28
ATOM     28  N   UNL     1     -13.712  55.962  51.996  0.00  0.00    +0.000 N 
ATOM     29  H   UNL     1     -14.383  55.246  52.073  0.00  0.00    +0.000 HD
BRANCH  28  30
ATOM     30  C   UNL     1     -13.804  57.227  52.733  0.00  0.00    +0.000 C 
BRANCH  30  31
ATOM     31  C   UNL     1     -15.058  57.957  52.363  0.00  0.00    +0.000 C 
ATOM     32  C   UNL     1     -15.056  59.177  51.484  0.00  0.00    +0.000 C 
ATOM     33  C   UNL     1     -15.310  59.320  52.958  0.00  0.00    +0.000 C 
ENDBRANCH  30  31
ENDBRANCH  28  30
ENDBRANCH   5  28
TORSDOF 5
ENDMDL
MODEL 7
REMARK VINA RESULT:      -7.8      3.002      7.326
REMARK  Name = 
REMARK  5 active torsions:
REMARK  status: ('A' for Active; 'I' for Inactive)
REMARK    1  A    between atoms: C_6  and  C_10
REMARK    2  A    between atoms: C_14  and  O_18
REMARK    3  A    between atoms: N_17  and  N_20
REMARK    4  A    between atoms: N_20  and  C_23
REMARK    5  A    between atoms: C_23  and  C_26
REMARK                            x       y       z     vdW  Elec       q    Type
REMARK                         _______ _______ _______ _____ _____    ______ ____
ROOT
ATOM      1  C   UNL     1      -9.977  54.627  50.842  0.00  0.00    +0.000 A 
ATOM      2  C   UNL     1     -11.338  55.084  51.248  0.00  0.00    +0.000 A 
ATOM      3  C   UNL     1      -9.625  54.608  49.545  0.00  0.00    +0.000 A 
ATOM      4  O   UNL     1     -11.615  55.041  52.451  0.00  0.00    +0.000 OA
ATOM      5  N   UNL     1     -12.200  55.557  50.255  0.00  0.00    +0.000 N 
ATOM      6  C   UNL     1     -10.558  55.073  48.509  0.00  0.00    +0.000 A 
ATOM      7  C   UNL     1     -11.834  55.543  48.874  0.00  0.00    +0.000 A 
ATOM      8  C   UNL     1     -10.182  55.073  47.155  0.00  0.00    +0.000 A 
ATOM      9  C   UNL     1     -12.709  55.988  47.871  0.00  0.00    +0.000 A 
ATOM     10  C   UNL     1     -11.055  55.532  46.170  0.00  0.00    +0.000 A 
ATOM     11  C   UNL     1     -12.318  55.986  46.528  0.00  0.00    +0.000 A 
ENDROOT
BRANCH   1  17
ATOM     12  S   UNL     1      -6.731  54.604  53.053  0.00  0.00    +0.000 S 
ATOM     13  O   UNL     1      -6.712  55.675  54.029  0.00  0.00    +0.000 OA
ATOM     14  O   UNL     1      -5.528  54.263  52.314  0.00  0.00    +0.000 OA
ATOM     15  N   UNL     1      -7.891  54.949  51.975  0.00  0.00    +0.000 N 
ATOM     16  C   UNL     1      -7.192  53.155  53.924  0.00  0.00    +0.000 A 
ATOM     17  C   UNL     1      -8.987  54.248  51.927  0.00  0.00    +0.000 C 
ATOM     18  C   UNL     1      -8.439  52.609  53.663  0.00  0.00    +0.000 A 
ATOM     19  C   UNL     1      -6.305  52.575  54.834  0.00  0.00    +0.000 A 
ATOM     20  N   UNL     1      -9.318  53.205  52.763  0.00  0.00    +0.000 N 
ATOM     21  C   UNL     1      -8.833  51.483  54.395  0.00  0.00    +0.000 A 
ATOM     22  C   UNL     1      -6.697  51.434  55.530  0.00  0.00    +0.000 A 
ATOM     23  C   UNL     1      -7.964  50.893  55.317  0.00  0.00    +0.000 A 
ATOM     24  H   UNL     1      -7.767  55.699  51.350  0.00  0.00    +0.000 HD
ATOM     25  H   UNL     1     -10.238  52.857  52.722  0.00  0.00    +0.000 HD
ENDBRANCH   1  17
BRANCH   3  26
ATOM     26  O   UNL     1      -8.388  54.197  49.079  0.00  0.00    +0.000 OA
ATOM     27  H   UNL     1      -8.237  54.121  48.157  0.00  0.00    +0.000 HD
ENDBRANCH   3  26
BRANCH   5  28
ATOM     28  N   UNL     1     -13.532  55.995  50.599  0.00  0.00    +0.000 N 
ATOM     29  H   UNL     1     -14.319  55.406  50.558  0.00  0.00    +0.000 HD
BRANCH  28  30
ATOM     30  C   UNL     1     -13.605  57.400  51.019  0.00  0.00    +0.000 C 
BRANCH  30  31
ATOM     31  C   UNL     1     -14.100  57.498  52.429  0.00  0.00    +0.000 C 
ATOM     32  C   UNL     1     -15.520  57.182  52.813  0.00  0.00    +0.000 C 
ATOM     33  C   UNL     1     -15.053  58.610  52.791  0.00  0.00    +0.000 C 
ENDBRANCH  30  31
ENDBRANCH  28  30
ENDBRANCH   5  28
TORSDOF 5
ENDMDL
MODEL 8
REMARK VINA RESULT:      -7.8      3.406      5.103
REMARK  Name = 
REMARK  5 active torsions:
REMARK  status: ('A' for Active; 'I' for Inactive)
REMARK    1  A    between atoms: C_6  and  C_10
REMARK    2  A    between atoms: C_14  and  O_18
REMARK    3  A    between atoms: N_17  and  N_20
REMARK    4  A    between atoms: N_20  and  C_23
REMARK    5  A    between atoms: C_23  and  C_26
REMARK                            x       y       z     vdW  Elec       q    Type
REMARK                         _______ _______ _______ _____ _____    ______ ____
ROOT
ATOM      1  C   UNL     1     -12.343  54.318  49.657  0.00  0.00    +0.000 A 
ATOM      2  C   UNL     1     -11.666  54.358  48.329  0.00  0.00    +0.000 A 
ATOM      3  C   UNL     1     -12.156  53.277  50.486  0.00  0.00    +0.000 A 
ATOM      4  O   UNL     1     -11.910  55.323  47.597  0.00  0.00    +0.000 OA
ATOM      5  N   UNL     1     -10.781  53.326  48.007  0.00  0.00    +0.000 N 
ATOM      6  C   UNL     1     -11.251  52.180  50.115  0.00  0.00    +0.000 A 
ATOM      7  C   UNL     1     -10.573  52.216  48.882  0.00  0.00    +0.000 A 
ATOM      8  C   UNL     1     -11.038  51.101  50.991  0.00  0.00    +0.000 A 
ATOM      9  C   UNL     1      -9.708  51.161  48.548  0.00  0.00    +0.000 A 
ATOM     10  C   UNL     1     -10.165  50.068  50.653  0.00  0.00    +0.000 A 
ATOM     11  C   UNL     1      -9.503  50.097  49.432  0.00  0.00    +0.000 A 
ENDROOT
BRANCH   1  17
ATOM     12  S   UNL     1     -15.331  56.406  51.122  0.00  0.00    +0.000 S 
ATOM     13  O   UNL     1     -15.299  56.488  52.569  0.00  0.00    +0.000 OA
ATOM     14  O   UNL     1     -16.587  56.188  50.427  0.00  0.00    +0.000 OA
ATOM     15  N   UNL     1     -14.310  55.227  50.680  0.00  0.00    +0.000 N 
ATOM     16  C   UNL     1     -14.709  57.934  50.530  0.00  0.00    +0.000 A 
ATOM     17  C   UNL     1     -13.193  55.505  50.073  0.00  0.00    +0.000 C 
ATOM     18  C   UNL     1     -13.471  57.932  49.906  0.00  0.00    +0.000 A 
ATOM     19  C   UNL     1     -15.464  59.100  50.677  0.00  0.00    +0.000 A 
ATOM     20  N   UNL     1     -12.724  56.766  49.779  0.00  0.00    +0.000 N 
ATOM     21  C   UNL     1     -12.946  59.158  49.480  0.00  0.00    +0.000 A 
ATOM     22  C   UNL     1     -14.944  60.307  50.216  0.00  0.00    +0.000 A 
ATOM     23  C   UNL     1     -13.681  60.338  49.626  0.00  0.00    +0.000 A 
ATOM     24  H   UNL     1     -14.538  54.289  50.873  0.00  0.00    +0.000 HD
ATOM     25  H   UNL     1     -11.797  56.848  49.456  0.00  0.00    +0.000 HD
ENDBRANCH   1  17
BRANCH   3  26
ATOM     26  O   UNL     1     -12.746  53.156  51.732  0.00  0.00    +0.000 OA
ATOM     27  H   UNL     1     -13.421  52.521  51.870  0.00  0.00    +0.000 HD
ENDBRANCH   3  26
BRANCH   5  28
ATOM     28  N   UNL     1     -10.115  53.315  46.727  0.00  0.00    +0.000 N 
ATOM     29  H   UNL     1      -9.200  53.655  46.593  0.00  0.00    +0.000 HD
BRANCH  28  30
ATOM     30  C   UNL     1     -10.924  52.749  45.641  0.00  0.00    +0.000 C 
BRANCH  30  31
ATOM     31  C   UNL     1     -10.045  52.090  44.624  0.00  0.00    +0.000 C 
ATOM     32  C   UNL     1      -8.838  52.768  44.036  0.00  0.00    +0.000 C 
ATOM     33  C   UNL     1     -10.075  52.591  43.201  0.00  0.00    +0.000 C 
ENDBRANCH  30  31
ENDBRANCH  28  30
ENDBRANCH   5  28
TORSDOF 5
ENDMDL
MODEL 9
REMARK VINA RESULT:      -7.8      3.468      4.217
REMARK  Name = 
REMARK  5 active torsions:
REMARK  status: ('A' for Active; 'I' for Inactive)
REMARK    1  A    between atoms: C_6  and  C_10
REMARK    2  A    between atoms: C_14  and  O_18
REMARK    3  A    between atoms: N_17  and  N_20
REMARK    4  A    between atoms: N_20  and  C_23
REMARK    5  A    between atoms: C_23  and  C_26
REMARK                            x       y       z     vdW  Elec       q    Type
REMARK                         _______ _______ _______ _____ _____    ______ ____
ROOT
ATOM      1  C   UNL     1     -11.547  56.008  48.772  0.00  0.00    +0.000 A 
ATOM      2  C   UNL     1     -10.467  55.407  49.608  0.00  0.00    +0.000 A 
ATOM      3  C   UNL     1     -11.696  55.643  47.487  0.00  0.00    +0.000 A 
ATOM      4  O   UNL     1     -10.357  55.813  50.769  0.00  0.00    +0.000 OA
ATOM      5  N   UNL     1      -9.671  54.408  49.040  0.00  0.00    +0.000 N 
ATOM      6  C   UNL     1     -10.825  54.618  46.895  0.00  0.00    +0.000 A 
ATOM      7  C   UNL     1      -9.823  54.012  47.677  0.00  0.00    +0.000 A 
ATOM      8  C   UNL     1     -10.994  54.220  45.558  0.00  0.00    +0.000 A 
ATOM      9  C   UNL     1      -9.004  53.031  47.095  0.00  0.00    +0.000 A 
ATOM     10  C   UNL     1     -10.183  53.235  44.996  0.00  0.00    +0.000 A 
ATOM     11  C   UNL     1      -9.188  52.643  45.764  0.00  0.00    +0.000 A 
ENDROOT
BRANCH   1  17
ATOM     12  S   UNL     1     -13.569  59.301  49.479  0.00  0.00    +0.000 S 
ATOM     13  O   UNL     1     -14.707  59.459  48.596  0.00  0.00    +0.000 OA
ATOM     14  O   UNL     1     -12.728  60.440  49.804  0.00  0.00    +0.000 OA
ATOM     15  N   UNL     1     -12.619  58.149  48.847  0.00  0.00    +0.000 N 
ATOM     16  C   UNL     1     -14.208  58.721  51.005  0.00  0.00    +0.000 A 
ATOM     17  C   UNL     1     -12.507  56.987  49.422  0.00  0.00    +0.000 C 
ATOM     18  C   UNL     1     -13.919  57.417  51.376  0.00  0.00    +0.000 A 
ATOM     19  C   UNL     1     -14.967  59.571  51.812  0.00  0.00    +0.000 A 
ATOM     20  N   UNL     1     -13.173  56.577  50.556  0.00  0.00    +0.000 N 
ATOM     21  C   UNL     1     -14.472  56.933  52.568  0.00  0.00    +0.000 A 
ATOM     22  C   UNL     1     -15.481  59.086  53.012  0.00  0.00    +0.000 A 
ATOM     23  C   UNL     1     -15.242  57.765  53.386  0.00  0.00    +0.000 A 
ATOM     24  H   UNL     1     -12.121  58.330  48.018  0.00  0.00    +0.000 HD
ATOM     25  H   UNL     1     -13.118  55.625  50.802  0.00  0.00    +0.000 HD
ENDBRANCH   1  17
BRANCH   3  26
ATOM     26  O   UNL     1     -12.666  56.150  46.639  0.00  0.00    +0.000 OA
ATOM     27  H   UNL     1     -12.446  56.825  46.027  0.00  0.00    +0.000 HD
ENDBRANCH   3  26
BRANCH   5  28
ATOM     28  N   UNL     1      -8.604  53.810  49.807  0.00  0.00    +0.000 N 
ATOM     29  H   UNL     1      -8.578  52.853  50.036  0.00  0.00    +0.000 HD
BRANCH  28  30
ATOM     30  C   UNL     1      -7.560  54.759  50.212  0.00  0.00    +0.000 C 
BRANCH  30  31
ATOM     31  C   UNL     1      -6.618  55.015  49.077  0.00  0.00    +0.000 C 
ATOM     32  C   UNL     1      -5.686  53.961  48.545  0.00  0.00    +0.000 C 
ATOM     33  C   UNL     1      -5.139  55.097  49.362  0.00  0.00    +0.000 C 
ENDBRANCH  30  31
ENDBRANCH  28  30
ENDBRANCH   5  28
TORSDOF 5
ENDMDL
