MODEL 1
REMARK VINA RESULT:      -8.1      0.000      0.000
REMARK  Name = 
REMARK  7 active torsions:
REMARK  status: ('A' for Active; 'I' for Inactive)
REMARK    1  A    between atoms: C_6  and  C_10
REMARK    2  A    between atoms: C_14  and  O_18
REMARK    3  A    between atoms: N_17  and  N_20
REMARK    4  A    between atoms: N_20  and  C_23
REMARK    5  A    between atoms: C_23  and  C_26
REMARK    6  A    between atoms: C_26  and  C_28
REMARK    7  A    between atoms: C_28  and  C_29
REMARK                            x       y       z     vdW  Elec       q    Type
REMARK                         _______ _______ _______ _____ _____    ______ ____
ROOT
ATOM      1  C   UNL     1     -10.181  54.504  52.219  0.00  0.00    +0.000 A 
ATOM      2  C   UNL     1      -8.801  55.041  52.028  0.00  0.00    +0.000 A 
ATOM      3  C   UNL     1     -10.385  53.405  52.964  0.00  0.00    +0.000 A 
ATOM      4  O   UNL     1      -8.677  56.028  51.296  0.00  0.00    +0.000 OA
ATOM      5  N   UNL     1      -7.749  54.416  52.706  0.00  0.00    +0.000 N 
ATOM      6  C   UNL     1      -9.262  52.739  53.640  0.00  0.00    +0.000 A 
ATOM      7  C   UNL     1      -7.959  53.250  53.502  0.00  0.00    +0.000 A 
ATOM      8  C   UNL     1      -9.480  51.602  54.439  0.00  0.00    +0.000 A 
ATOM      9  C   UNL     1      -6.900  52.601  54.158  0.00  0.00    +0.000 A 
ATOM     10  C   UNL     1      -8.423  50.977  55.096  0.00  0.00    +0.000 A 
ATOM     11  C   UNL     1      -7.133  51.473  54.953  0.00  0.00    +0.000 A 
ENDROOT
BRANCH   1  17
ATOM     12  S   UNL     1     -12.560  56.077  49.521  0.00  0.00    +0.000 S 
ATOM     13  O   UNL     1     -13.470  55.104  48.949  0.00  0.00    +0.000 OA
ATOM     14  O   UNL     1     -11.920  57.067  48.674  0.00  0.00    +0.000 OA
ATOM     15  N   UNL     1     -11.399  55.264  50.302  0.00  0.00    +0.000 N 
ATOM     16  C   UNL     1     -13.492  56.982  50.701  0.00  0.00    +0.000 A 
ATOM     17  C   UNL     1     -11.341  55.260  51.601  0.00  0.00    +0.000 C 
ATOM     18  C   UNL     1     -13.205  56.785  52.040  0.00  0.00    +0.000 A 
ATOM     19  C   UNL     1     -14.480  57.879  50.272  0.00  0.00    +0.000 A 
ATOM     20  N   UNL     1     -12.231  55.881  52.451  0.00  0.00    +0.000 N 
ATOM     21  C   UNL     1     -13.987  57.460  52.987  0.00  0.00    +0.000 A 
ATOM     22  C   UNL     1     -15.221  58.571  51.226  0.00  0.00    +0.000 A 
ATOM     23  C   UNL     1     -14.982  58.352  52.582  0.00  0.00    +0.000 A 
ATOM     24  H   UNL     1     -10.726  54.764  49.785  0.00  0.00    +0.000 HD
ATOM     25  H   UNL     1     -12.173  55.672  53.410  0.00  0.00    +0.000 HD
ENDBRANCH   1  17
BRANCH   3  26
ATOM     26  O   UNL     1     -11.626  52.833  53.182  0.00  0.00    +0.000 OA
ATOM     27  H   UNL     1     -11.782  52.331  53.958  0.00  0.00    +0.000 HD
ENDBRANCH   3  26
BRANCH   5  28
ATOM     28  N   UNL     1      -6.392  54.876  52.529  0.00  0.00    +0.000 N 
ATOM     29  H   UNL     1      -5.914  55.408  53.205  0.00  0.00    +0.000 HD
BRANCH  28  30
ATOM     30  C   UNL     1      -5.786  54.478  51.250  0.00  0.00    +0.000 C 
BRANCH  30  31
ATOM     31  C   UNL     1      -4.357  53.966  51.434  0.00  0.00    +0.000 C 
BRANCH  31  32
ATOM     32  C   UNL     1      -3.841  54.349  52.827  0.00  0.00    +0.000 C 
ATOM     33  C   UNL     1      -3.301  53.150  53.586  0.00  0.00    +0.000 C 
ENDBRANCH  31  32
ENDBRANCH  30  31
ENDBRANCH  28  30
ENDBRANCH   5  28
TORSDOF 6
ENDMDL
MODEL 2
REMARK VINA RESULT:      -7.9      2.631      8.121
REMARK  Name = 
REMARK  7 active torsions:
REMARK  status: ('A' for Active; 'I' for Inactive)
REMARK    1  A    between atoms: C_6  and  C_10
REMARK    2  A    between atoms: C_14  and  O_18
REMARK    3  A    between atoms: N_17  and  N_20
REMARK    4  A    between atoms: N_20  and  C_23
REMARK    5  A    between atoms: C_23  and  C_26
REMARK    6  A    between atoms: C_26  and  C_28
REMARK    7  A    between atoms: C_28  and  C_29
REMARK                            x       y       z     vdW  Elec       q    Type
REMARK                         _______ _______ _______ _____ _____    ______ ____
ROOT
ATOM      1  C   UNL     1     -10.169  55.258  50.381  0.00  0.00    +0.000 A 
ATOM      2  C   UNL     1     -11.226  55.342  51.432  0.00  0.00    +0.000 A 
ATOM      3  C   UNL     1     -10.453  55.573  49.106  0.00  0.00    +0.000 A 
ATOM      4  O   UNL     1     -10.911  54.996  52.575  0.00  0.00    +0.000 OA
ATOM      5  N   UNL     1     -12.485  55.829  51.067  0.00  0.00    +0.000 N 
ATOM      6  C   UNL     1     -11.793  56.048  48.732  0.00  0.00    +0.000 A 
ATOM      7  C   UNL     1     -12.792  56.169  49.715  0.00  0.00    +0.000 A 
ATOM      8  C   UNL     1     -12.082  56.400  47.402  0.00  0.00    +0.000 A 
ATOM      9  C   UNL     1     -14.066  56.627  49.338  0.00  0.00    +0.000 A 
ATOM     10  C   UNL     1     -13.345  56.868  47.045  0.00  0.00    +0.000 A 
ATOM     11  C   UNL     1     -14.338  56.978  48.011  0.00  0.00    +0.000 A 
ENDROOT
BRANCH   1  17
ATOM     12  S   UNL     1      -6.697  53.426  50.434  0.00  0.00    +0.000 S 
ATOM     13  O   UNL     1      -5.776  53.955  49.447  0.00  0.00    +0.000 OA
ATOM     14  O   UNL     1      -6.787  51.995  50.659  0.00  0.00    +0.000 OA
ATOM     15  N   UNL     1      -8.177  53.968  50.064  0.00  0.00    +0.000 N 
ATOM     16  C   UNL     1      -6.220  54.126  51.971  0.00  0.00    +0.000 A 
ATOM     17  C   UNL     1      -8.765  54.865  50.798  0.00  0.00    +0.000 C 
ATOM     18  C   UNL     1      -7.058  55.069  52.541  0.00  0.00    +0.000 A 
ATOM     19  C   UNL     1      -5.030  53.715  52.587  0.00  0.00    +0.000 A 
ATOM     20  N   UNL     1      -8.229  55.477  51.911  0.00  0.00    +0.000 N 
ATOM     21  C   UNL     1      -6.651  55.673  53.737  0.00  0.00    +0.000 A 
ATOM     22  C   UNL     1      -4.661  54.298  53.796  0.00  0.00    +0.000 A 
ATOM     23  C   UNL     1      -5.466  55.286  54.364  0.00  0.00    +0.000 A 
ATOM     24  H   UNL     1      -8.638  53.611  49.270  0.00  0.00    +0.000 HD
ATOM     25  H   UNL     1      -8.706  56.252  52.285  0.00  0.00    +0.000 HD
ENDBRANCH   1  17
BRANCH   3  26
ATOM     26  O   UNL     1      -9.540  55.510  48.068  0.00  0.00    +0.000 OA
ATOM     27  H   UNL     1      -8.916  56.200  47.950  0.00  0.00    +0.000 HD
ENDBRANCH   3  26
BRANCH   5  28
ATOM     28  N   UNL     1     -13.551  55.898  52.038  0.00  0.00    +0.000 N 
ATOM     29  H   UNL     1     -14.181  55.158  52.196  0.00  0.00    +0.000 HD
BRANCH  28  30
ATOM     30  C   UNL     1     -13.612  57.171  52.771  0.00  0.00    +0.000 C 
BRANCH  30  31
ATOM     31  C   UNL     1     -15.044  57.695  52.879  0.00  0.00    +0.000 C 
BRANCH  31  32
ATOM     32  C   UNL     1     -15.073  59.200  52.581  0.00  0.00    +0.000 C 
ATOM     33  C   UNL     1     -15.162  59.486  51.092  0.00  0.00    +0.000 C 
ENDBRANCH  31  32
ENDBRANCH  30  31
ENDBRANCH  28  30
ENDBRANCH   5  28
TORSDOF 6
ENDMDL
MODEL 3
REMARK VINA RESULT:      -7.8      2.044      2.805
REMARK  Name = 
REMARK  7 active torsions:
REMARK  status: ('A' for Active; 'I' for Inactive)
REMARK    1  A    between atoms: C_6  and  C_10
REMARK    2  A    between atoms: C_14  and  O_18
REMARK    3  A    between atoms: N_17  and  N_20
REMARK    4  A    between atoms: N_20  and  C_23
REMARK    5  A    between atoms: C_23  and  C_26
REMARK    6  A    between atoms: C_26  and  C_28
REMARK    7  A    between atoms: C_28  and  C_29
REMARK                            x       y       z     vdW  Elec       q    Type
REMARK                         _______ _______ _______ _____ _____    ______ ____
ROOT
ATOM      1  C   UNL     1     -11.582  54.111  51.358  0.00  0.00    +0.000 A 
ATOM      2  C   UNL     1     -10.647  54.219  52.517  0.00  0.00    +0.000 A 
ATOM      3  C   UNL     1     -11.666  52.968  50.657  0.00  0.00    +0.000 A 
ATOM      4  O   UNL     1     -10.586  55.312  53.091  0.00  0.00    +0.000 OA
ATOM      5  N   UNL     1      -9.925  53.082  52.893  0.00  0.00    +0.000 N 
ATOM      6  C   UNL     1     -10.872  51.792  51.045  0.00  0.00    +0.000 A 
ATOM      7  C   UNL     1     -10.012  51.863  52.155  0.00  0.00    +0.000 A 
ATOM      8  C   UNL     1     -10.978  50.589  50.324  0.00  0.00    +0.000 A 
ATOM      9  C   UNL     1      -9.264  50.728  52.510  0.00  0.00    +0.000 A 
ATOM     10  C   UNL     1     -10.242  49.466  50.698  0.00  0.00    +0.000 A 
ATOM     11  C   UNL     1      -9.382  49.536  51.787  0.00  0.00    +0.000 A 
ENDROOT
BRANCH   1  17
ATOM     12  S   UNL     1     -13.319  56.994  49.336  0.00  0.00    +0.000 S 
ATOM     13  O   UNL     1     -14.419  56.516  48.522  0.00  0.00    +0.000 OA
ATOM     14  O   UNL     1     -12.397  57.986  48.812  0.00  0.00    +0.000 OA
ATOM     15  N   UNL     1     -12.454  55.706  49.799  0.00  0.00    +0.000 N 
ATOM     16  C   UNL     1     -14.043  57.716  50.762  0.00  0.00    +0.000 A 
ATOM     17  C   UNL     1     -12.469  55.297  51.033  0.00  0.00    +0.000 C 
ATOM     18  C   UNL     1     -13.891  57.058  51.969  0.00  0.00    +0.000 A 
ATOM     19  C   UNL     1     -14.737  58.929  50.655  0.00  0.00    +0.000 A 
ATOM     20  N   UNL     1     -13.210  55.847  52.057  0.00  0.00    +0.000 N 
ATOM     21  C   UNL     1     -14.518  57.599  53.098  0.00  0.00    +0.000 A 
ATOM     22  C   UNL     1     -15.322  59.473  51.795  0.00  0.00    +0.000 A 
ATOM     23  C   UNL     1     -15.222  58.802  53.013  0.00  0.00    +0.000 A 
ATOM     24  H   UNL     1     -11.909  55.225  49.135  0.00  0.00    +0.000 HD
ATOM     25  H   UNL     1     -13.261  55.353  52.906  0.00  0.00    +0.000 HD
ENDBRANCH   1  17
BRANCH   3  26
ATOM     26  O   UNL     1     -12.494  52.785  49.564  0.00  0.00    +0.000 OA
ATOM     27  H   UNL     1     -13.393  52.552  49.690  0.00  0.00    +0.000 HD
ENDBRANCH   3  26
BRANCH   5  28
ATOM     28  N   UNL     1      -8.983  53.144  53.985  0.00  0.00    +0.000 N 
ATOM     29  H   UNL     1      -9.206  52.862  54.901  0.00  0.00    +0.000 HD
BRANCH  28  30
ATOM     30  C   UNL     1      -7.661  53.663  53.607  0.00  0.00    +0.000 C 
BRANCH  30  31
ATOM     31  C   UNL     1      -7.298  54.920  54.399  0.00  0.00    +0.000 C 
BRANCH  31  32
ATOM     32  C   UNL     1      -7.000  56.076  53.435  0.00  0.00    +0.000 C 
ATOM     33  C   UNL     1      -7.220  55.682  51.986  0.00  0.00    +0.000 C 
ENDBRANCH  31  32
ENDBRANCH  30  31
ENDBRANCH  28  30
ENDBRANCH   5  28
TORSDOF 6
ENDMDL
MODEL 4
REMARK VINA RESULT:      -7.7      2.739      7.941
REMARK  Name = 
REMARK  7 active torsions:
REMARK  status: ('A' for Active; 'I' for Inactive)
REMARK    1  A    between atoms: C_6  and  C_10
REMARK    2  A    between atoms: C_14  and  O_18
REMARK    3  A    between atoms: N_17  and  N_20
REMARK    4  A    between atoms: N_20  and  C_23
REMARK    5  A    between atoms: C_23  and  C_26
REMARK    6  A    between atoms: C_26  and  C_28
REMARK    7  A    between atoms: C_28  and  C_29
REMARK                            x       y       z     vdW  Elec       q    Type
REMARK                         _______ _______ _______ _____ _____    ______ ____
ROOT
ATOM      1  C   UNL     1     -10.035  54.569  50.983  0.00  0.00    +0.000 A 
ATOM      2  C   UNL     1     -11.200  55.407  51.392  0.00  0.00    +0.000 A 
ATOM      3  C   UNL     1      -9.808  54.309  49.684  0.00  0.00    +0.000 A 
ATOM      4  O   UNL     1     -11.378  55.570  52.604  0.00  0.00    +0.000 OA
ATOM      5  N   UNL     1     -11.994  55.972  50.389  0.00  0.00    +0.000 N 
ATOM      6  C   UNL     1     -10.674  54.882  48.643  0.00  0.00    +0.000 A 
ATOM      7  C   UNL     1     -11.756  55.704  49.007  0.00  0.00    +0.000 A 
ATOM      8  C   UNL     1     -10.422  54.629  47.283  0.00  0.00    +0.000 A 
ATOM      9  C   UNL     1     -12.570  56.244  47.997  0.00  0.00    +0.000 A 
ATOM     10  C   UNL     1     -11.228  55.184  46.291  0.00  0.00    +0.000 A 
ATOM     11  C   UNL     1     -12.304  55.987  46.648  0.00  0.00    +0.000 A 
ENDROOT
BRANCH   1  17
ATOM     12  S   UNL     1      -6.785  54.110  53.137  0.00  0.00    +0.000 S 
ATOM     13  O   UNL     1      -6.600  55.180  54.098  0.00  0.00    +0.000 OA
ATOM     14  O   UNL     1      -5.652  53.590  52.393  0.00  0.00    +0.000 OA
ATOM     15  N   UNL     1      -7.902  54.595  52.070  0.00  0.00    +0.000 N 
ATOM     16  C   UNL     1      -7.434  52.751  54.039  0.00  0.00    +0.000 A 
ATOM     17  C   UNL     1      -9.091  54.069  52.059  0.00  0.00    +0.000 C 
ATOM     18  C   UNL     1      -8.753  52.398  53.816  0.00  0.00    +0.000 A 
ATOM     19  C   UNL     1      -6.616  52.056  54.939  0.00  0.00    +0.000 A 
ATOM     20  N   UNL     1      -9.557  53.107  52.929  0.00  0.00    +0.000 N 
ATOM     21  C   UNL     1      -9.292  51.353  54.577  0.00  0.00    +0.000 A 
ATOM     22  C   UNL     1      -7.157  50.994  55.658  0.00  0.00    +0.000 A 
ATOM     23  C   UNL     1      -8.498  50.651  55.486  0.00  0.00    +0.000 A 
ATOM     24  H   UNL     1      -7.676  55.299  51.419  0.00  0.00    +0.000 HD
ATOM     25  H   UNL     1     -10.520  52.907  52.922  0.00  0.00    +0.000 HD
ENDBRANCH   1  17
BRANCH   3  26
ATOM     26  O   UNL     1      -8.762  53.532  49.217  0.00  0.00    +0.000 OA
ATOM     27  H   UNL     1      -7.960  53.487  49.700  0.00  0.00    +0.000 HD
ENDBRANCH   3  26
BRANCH   5  28
ATOM     28  N   UNL     1     -13.151  56.764  50.732  0.00  0.00    +0.000 N 
ATOM     29  H   UNL     1     -13.151  57.748  50.715  0.00  0.00    +0.000 HD
BRANCH  28  30
ATOM     30  C   UNL     1     -14.329  55.970  51.110  0.00  0.00    +0.000 C 
BRANCH  30  31
ATOM     31  C   UNL     1     -15.153  56.660  52.198  0.00  0.00    +0.000 C 
BRANCH  31  32
ATOM     32  C   UNL     1     -14.329  57.782  52.844  0.00  0.00    +0.000 C 
ATOM     33  C   UNL     1     -15.002  59.136  52.708  0.00  0.00    +0.000 C 
ENDBRANCH  31  32
ENDBRANCH  30  31
ENDBRANCH  28  30
ENDBRANCH   5  28
TORSDOF 6
ENDMDL
MODEL 5
REMARK VINA RESULT:      -7.7      2.696      8.344
REMARK  Name = 
REMARK  7 active torsions:
REMARK  status: ('A' for Active; 'I' for Inactive)
REMARK    1  A    between atoms: C_6  and  C_10
REMARK    2  A    between atoms: C_14  and  O_18
REMARK    3  A    between atoms: N_17  and  N_20
REMARK    4  A    between atoms: N_20  and  C_23
REMARK    5  A    between atoms: C_23  and  C_26
REMARK    6  A    between atoms: C_26  and  C_28
REMARK    7  A    between atoms: C_28  and  C_29
REMARK                            x       y       z     vdW  Elec       q    Type
REMARK                         _______ _______ _______ _____ _____    ______ ____
ROOT
ATOM      1  C   UNL     1     -10.105  55.275  50.792  0.00  0.00    +0.000 A 
ATOM      2  C   UNL     1     -11.271  55.382  51.718  0.00  0.00    +0.000 A 
ATOM      3  C   UNL     1     -10.255  55.521  49.479  0.00  0.00    +0.000 A 
ATOM      4  O   UNL     1     -11.075  55.099  52.904  0.00  0.00    +0.000 OA
ATOM      5  N   UNL     1     -12.493  55.817  51.195  0.00  0.00    +0.000 N 
ATOM      6  C   UNL     1     -11.556  55.942  48.940  0.00  0.00    +0.000 A 
ATOM      7  C   UNL     1     -12.658  56.083  49.802  0.00  0.00    +0.000 A 
ATOM      8  C   UNL     1     -11.706  56.222  47.571  0.00  0.00    +0.000 A 
ATOM      9  C   UNL     1     -13.893  56.490  49.268  0.00  0.00    +0.000 A 
ATOM     10  C   UNL     1     -12.933  56.639  47.057  0.00  0.00    +0.000 A 
ATOM     11  C   UNL     1     -14.027  56.769  47.904  0.00  0.00    +0.000 A 
ENDROOT
BRANCH   1  17
ATOM     12  S   UNL     1      -7.065  55.169  53.275  0.00  0.00    +0.000 S 
ATOM     13  O   UNL     1      -7.268  54.230  54.361  0.00  0.00    +0.000 OA
ATOM     14  O   UNL     1      -6.466  56.467  53.530  0.00  0.00    +0.000 OA
ATOM     15  N   UNL     1      -8.498  55.414  52.562  0.00  0.00    +0.000 N 
ATOM     16  C   UNL     1      -6.006  54.368  52.127  0.00  0.00    +0.000 A 
ATOM     17  C   UNL     1      -8.747  54.940  51.377  0.00  0.00    +0.000 C 
ATOM     18  C   UNL     1      -6.545  53.973  50.916  0.00  0.00    +0.000 A 
ATOM     19  C   UNL     1      -4.658  54.159  52.449  0.00  0.00    +0.000 A 
ATOM     20  N   UNL     1      -7.889  54.175  50.616  0.00  0.00    +0.000 N 
ATOM     21  C   UNL     1      -5.719  53.280  50.022  0.00  0.00    +0.000 A 
ATOM     22  C   UNL     1      -3.841  53.504  51.532  0.00  0.00    +0.000 A 
ATOM     23  C   UNL     1      -4.374  53.054  50.325  0.00  0.00    +0.000 A 
ATOM     24  H   UNL     1      -9.192  55.929  53.034  0.00  0.00    +0.000 HD
ATOM     25  H   UNL     1      -8.249  53.744  49.809  0.00  0.00    +0.000 HD
ENDBRANCH   1  17
BRANCH   3  26
ATOM     26  O   UNL     1      -9.233  55.433  48.550  0.00  0.00    +0.000 OA
ATOM     27  H   UNL     1      -8.470  54.923  48.738  0.00  0.00    +0.000 HD
ENDBRANCH   3  26
BRANCH   5  28
ATOM     28  N   UNL     1     -13.659  55.905  52.041  0.00  0.00    +0.000 N 
ATOM     29  H   UNL     1     -14.329  55.186  52.107  0.00  0.00    +0.000 HD
BRANCH  28  30
ATOM     30  C   UNL     1     -13.758  57.162  52.797  0.00  0.00    +0.000 C 
BRANCH  30  31
ATOM     31  C   UNL     1     -15.167  57.754  52.730  0.00  0.00    +0.000 C 
BRANCH  31  32
ATOM     32  C   UNL     1     -15.089  59.246  52.384  0.00  0.00    +0.000 C 
ATOM     33  C   UNL     1     -15.060  59.484  50.885  0.00  0.00    +0.000 C 
ENDBRANCH  31  32
ENDBRANCH  30  31
ENDBRANCH  28  30
ENDBRANCH   5  28
TORSDOF 6
ENDMDL
MODEL 6
REMARK VINA RESULT:      -7.7      3.820      5.326
REMARK  Name = 
REMARK  7 active torsions:
REMARK  status: ('A' for Active; 'I' for Inactive)
REMARK    1  A    between atoms: C_6  and  C_10
REMARK    2  A    between atoms: C_14  and  O_18
REMARK    3  A    between atoms: N_17  and  N_20
REMARK    4  A    between atoms: N_20  and  C_23
REMARK    5  A    between atoms: C_23  and  C_26
REMARK    6  A    between atoms: C_26  and  C_28
REMARK    7  A    between atoms: C_28  and  C_29
REMARK                            x       y       z     vdW  Elec       q    Type
REMARK                         _______ _______ _______ _____ _____    ______ ____
ROOT
ATOM      1  C   UNL     1     -10.689  55.640  48.144  0.00  0.00    +0.000 A 
ATOM      2  C   UNL     1      -9.224  55.767  48.399  0.00  0.00    +0.000 A 
ATOM      3  C   UNL     1     -11.136  54.969  47.069  0.00  0.00    +0.000 A 
ATOM      4  O   UNL     1      -8.879  56.435  49.380  0.00  0.00    +0.000 OA
ATOM      5  N   UNL     1      -8.343  55.106  47.538  0.00  0.00    +0.000 N 
ATOM      6  C   UNL     1     -10.194  54.310  46.153  0.00  0.00    +0.000 A 
ATOM      7  C   UNL     1      -8.811  54.387  46.396  0.00  0.00    +0.000 A 
ATOM      8  C   UNL     1     -10.663  53.588  45.041  0.00  0.00    +0.000 A 
ATOM      9  C   UNL     1      -7.926  53.749  45.510  0.00  0.00    +0.000 A 
ATOM     10  C   UNL     1      -9.776  52.946  44.179  0.00  0.00    +0.000 A 
ATOM     11  C   UNL     1      -8.408  53.030  44.410  0.00  0.00    +0.000 A 
ENDROOT
BRANCH   1  17
ATOM     12  S   UNL     1     -13.082  55.960  51.240  0.00  0.00    +0.000 S 
ATOM     13  O   UNL     1     -12.360  56.157  52.481  0.00  0.00    +0.000 OA
ATOM     14  O   UNL     1     -14.230  55.072  51.193  0.00  0.00    +0.000 OA
ATOM     15  N   UNL     1     -12.019  55.459  50.127  0.00  0.00    +0.000 N 
ATOM     16  C   UNL     1     -13.677  57.541  50.764  0.00  0.00    +0.000 A 
ATOM     17  C   UNL     1     -11.652  56.237  49.152  0.00  0.00    +0.000 C 
ATOM     18  C   UNL     1     -13.101  58.144  49.660  0.00  0.00    +0.000 A 
ATOM     19  C   UNL     1     -14.713  58.145  51.489  0.00  0.00    +0.000 A 
ATOM     20  N   UNL     1     -12.064  57.538  48.958  0.00  0.00    +0.000 N 
ATOM     21  C   UNL     1     -13.531  59.431  49.313  0.00  0.00    +0.000 A 
ATOM     22  C   UNL     1     -15.156  59.408  51.107  0.00  0.00    +0.000 A 
ATOM     23  C   UNL     1     -14.556  60.055  50.027  0.00  0.00    +0.000 A 
ATOM     24  H   UNL     1     -11.644  54.550  50.190  0.00  0.00    +0.000 HD
ATOM     25  H   UNL     1     -11.594  58.073  48.279  0.00  0.00    +0.000 HD
ENDBRANCH   1  17
BRANCH   3  26
ATOM     26  O   UNL     1     -12.473  54.814  46.749  0.00  0.00    +0.000 OA
ATOM     27  H   UNL     1     -13.130  54.933  47.407  0.00  0.00    +0.000 HD
ENDBRANCH   3  26
BRANCH   5  28
ATOM     28  N   UNL     1      -6.916  55.224  47.722  0.00  0.00    +0.000 N 
ATOM     29  H   UNL     1      -6.365  55.877  47.232  0.00  0.00    +0.000 HD
BRANCH  28  30
ATOM     30  C   UNL     1      -6.358  54.284  48.705  0.00  0.00    +0.000 C 
BRANCH  30  31
ATOM     31  C   UNL     1      -5.333  54.959  49.617  0.00  0.00    +0.000 C 
BRANCH  31  32
ATOM     32  C   UNL     1      -5.445  54.392  51.037  0.00  0.00    +0.000 C 
ATOM     33  C   UNL     1      -6.653  54.938  51.777  0.00  0.00    +0.000 C 
ENDBRANCH  31  32
ENDBRANCH  30  31
ENDBRANCH  28  30
ENDBRANCH   5  28
TORSDOF 6
ENDMDL
MODEL 7
REMARK VINA RESULT:      -7.6      3.358      7.520
REMARK  Name = 
REMARK  7 active torsions:
REMARK  status: ('A' for Active; 'I' for Inactive)
REMARK    1  A    between atoms: C_6  and  C_10
REMARK    2  A    between atoms: C_14  and  O_18
REMARK    3  A    between atoms: N_17  and  N_20
REMARK    4  A    between atoms: N_20  and  C_23
REMARK    5  A    between atoms: C_23  and  C_26
REMARK    6  A    between atoms: C_26  and  C_28
REMARK    7  A    between atoms: C_28  and  C_29
REMARK                            x       y       z     vdW  Elec       q    Type
REMARK                         _______ _______ _______ _____ _____    ______ ____
ROOT
ATOM      1  C   UNL     1     -10.256  55.207  50.834  0.00  0.00    +0.000 A 
ATOM      2  C   UNL     1      -9.813  55.191  49.409  0.00  0.00    +0.000 A 
ATOM      3  C   UNL     1     -11.480  55.657  51.160  0.00  0.00    +0.000 A 
ATOM      4  O   UNL     1      -8.661  54.807  49.182  0.00  0.00    +0.000 OA
ATOM      5  N   UNL     1     -10.729  55.580  48.427  0.00  0.00    +0.000 N 
ATOM      6  C   UNL     1     -12.418  56.097  50.118  0.00  0.00    +0.000 A 
ATOM      7  C   UNL     1     -12.032  56.056  48.766  0.00  0.00    +0.000 A 
ATOM      8  C   UNL     1     -13.706  56.546  50.458  0.00  0.00    +0.000 A 
ATOM      9  C   UNL     1     -12.944  56.479  47.784  0.00  0.00    +0.000 A 
ATOM     10  C   UNL     1     -14.607  56.947  49.473  0.00  0.00    +0.000 A 
ATOM     11  C   UNL     1     -14.225  56.918  48.137  0.00  0.00    +0.000 A 
ENDROOT
BRANCH   1  17
ATOM     12  S   UNL     1      -7.059  54.726  53.061  0.00  0.00    +0.000 S 
ATOM     13  O   UNL     1      -6.983  55.692  54.140  0.00  0.00    +0.000 OA
ATOM     14  O   UNL     1      -5.867  54.367  52.314  0.00  0.00    +0.000 OA
ATOM     15  N   UNL     1      -8.169  55.252  52.007  0.00  0.00    +0.000 N 
ATOM     16  C   UNL     1      -7.642  53.235  53.781  0.00  0.00    +0.000 A 
ATOM     17  C   UNL     1      -9.317  54.654  51.889  0.00  0.00    +0.000 C 
ATOM     18  C   UNL     1      -8.924  52.823  53.466  0.00  0.00    +0.000 A 
ATOM     19  C   UNL     1      -6.809  52.499  54.634  0.00  0.00    +0.000 A 
ATOM     20  N   UNL     1      -9.745  53.572  52.628  0.00  0.00    +0.000 N 
ATOM     21  C   UNL     1      -9.415  51.666  54.085  0.00  0.00    +0.000 A 
ATOM     22  C   UNL     1      -7.299  51.330  55.210  0.00  0.00    +0.000 A 
ATOM     23  C   UNL     1      -8.606  50.921  54.945  0.00  0.00    +0.000 A 
ATOM     24  H   UNL     1      -7.970  56.037  51.447  0.00  0.00    +0.000 HD
ATOM     25  H   UNL     1     -10.691  53.312  52.559  0.00  0.00    +0.000 HD
ENDBRANCH   1  17
BRANCH   3  26
ATOM     26  O   UNL     1     -11.966  55.720  52.454  0.00  0.00    +0.000 OA
ATOM     27  H   UNL     1     -11.649  55.123  53.104  0.00  0.00    +0.000 HD
ENDBRANCH   3  26
BRANCH   5  28
ATOM     28  N   UNL     1     -10.340  55.614  47.037  0.00  0.00    +0.000 N 
ATOM     29  H   UNL     1     -10.157  56.451  46.552  0.00  0.00    +0.000 HD
BRANCH  28  30
ATOM     30  C   UNL     1     -10.238  54.288  46.411  0.00  0.00    +0.000 C 
BRANCH  30  31
ATOM     31  C   UNL     1     -11.458  53.977  45.543  0.00  0.00    +0.000 C 
BRANCH  31  32
ATOM     32  C   UNL     1     -11.043  53.097  44.356  0.00  0.00    +0.000 C 
ATOM     33  C   UNL     1      -9.548  52.834  44.336  0.00  0.00    +0.000 C 
ENDBRANCH  31  32
ENDBRANCH  30  31
ENDBRANCH  28  30
ENDBRANCH   5  28
TORSDOF 6
ENDMDL
MODEL 8
REMARK VINA RESULT:      -7.4      2.696      8.273
REMARK  Name = 
REMARK  7 active torsions:
REMARK  status: ('A' for Active; 'I' for Inactive)
REMARK    1  A    between atoms: C_6  and  C_10
REMARK    2  A    between atoms: C_14  and  O_18
REMARK    3  A    between atoms: N_17  and  N_20
REMARK    4  A    between atoms: N_20  and  C_23
REMARK    5  A    between atoms: C_23  and  C_26
REMARK    6  A    between atoms: C_26  and  C_28
REMARK    7  A    between atoms: C_28  and  C_29
REMARK                            x       y       z     vdW  Elec       q    Type
REMARK                         _______ _______ _______ _____ _____    ______ ____
ROOT
ATOM      1  C   UNL     1      -9.886  54.012  50.674  0.00  0.00    +0.000 A 
ATOM      2  C   UNL     1     -11.081  54.366  51.496  0.00  0.00    +0.000 A 
ATOM      3  C   UNL     1      -9.853  54.303  49.363  0.00  0.00    +0.000 A 
ATOM      4  O   UNL     1     -11.065  54.031  52.685  0.00  0.00    +0.000 OA
ATOM      5  N   UNL     1     -12.121  55.071  50.882  0.00  0.00    +0.000 N 
ATOM      6  C   UNL     1     -10.972  55.013  48.725  0.00  0.00    +0.000 A 
ATOM      7  C   UNL     1     -12.091  55.386  49.490  0.00  0.00    +0.000 A 
ATOM      8  C   UNL     1     -10.927  55.337  47.358  0.00  0.00    +0.000 A 
ATOM      9  C   UNL     1     -13.149  56.066  48.862  0.00  0.00    +0.000 A 
ATOM     10  C   UNL     1     -11.976  56.025  46.752  0.00  0.00    +0.000 A 
ATOM     11  C   UNL     1     -13.089  56.386  47.502  0.00  0.00    +0.000 A 
ENDROOT
BRANCH   1  17
ATOM     12  S   UNL     1      -7.770  51.563  52.896  0.00  0.00    +0.000 S 
ATOM     13  O   UNL     1      -7.486  50.310  52.225  0.00  0.00    +0.000 OA
ATOM     14  O   UNL     1      -8.135  51.575  54.301  0.00  0.00    +0.000 OA
ATOM     15  N   UNL     1      -8.945  52.308  52.069  0.00  0.00    +0.000 N 
ATOM     16  C   UNL     1      -6.308  52.527  52.771  0.00  0.00    +0.000 A 
ATOM     17  C   UNL     1      -8.697  53.373  51.366  0.00  0.00    +0.000 C 
ATOM     18  C   UNL     1      -6.331  53.633  51.941  0.00  0.00    +0.000 A 
ATOM     19  C   UNL     1      -5.172  52.171  53.511  0.00  0.00    +0.000 A 
ATOM     20  N   UNL     1      -7.463  53.965  51.203  0.00  0.00    +0.000 N 
ATOM     21  C   UNL     1      -5.149  54.369  51.792  0.00  0.00    +0.000 A 
ATOM     22  C   UNL     1      -4.017  52.938  53.381  0.00  0.00    +0.000 A 
ATOM     23  C   UNL     1      -4.003  54.029  52.513  0.00  0.00    +0.000 A 
ATOM     24  H   UNL     1      -9.861  51.949  52.099  0.00  0.00    +0.000 HD
ATOM     25  H   UNL     1      -7.376  54.668  50.520  0.00  0.00    +0.000 HD
ENDBRANCH   1  17
BRANCH   3  26
ATOM     26  O   UNL     1      -8.794  54.000  48.525  0.00  0.00    +0.000 OA
ATOM     27  H   UNL     1      -8.423  54.665  47.979  0.00  0.00    +0.000 HD
ENDBRANCH   3  26
BRANCH   5  28
ATOM     28  N   UNL     1     -13.312  55.407  51.625  0.00  0.00    +0.000 N 
ATOM     29  H   UNL     1     -14.083  54.800  51.704  0.00  0.00    +0.000 HD
BRANCH  28  30
ATOM     30  C   UNL     1     -13.273  56.736  52.252  0.00  0.00    +0.000 C 
BRANCH  30  31
ATOM     31  C   UNL     1     -14.675  57.252  52.576  0.00  0.00    +0.000 C 
BRANCH  31  32
ATOM     32  C   UNL     1     -14.694  58.785  52.514  0.00  0.00    +0.000 C 
ATOM     33  C   UNL     1     -15.022  59.296  51.122  0.00  0.00    +0.000 C 
ENDBRANCH  31  32
ENDBRANCH  30  31
ENDBRANCH  28  30
ENDBRANCH   5  28
TORSDOF 6
ENDMDL
MODEL 9
REMARK VINA RESULT:      -7.3      3.132      8.074
REMARK  Name = 
REMARK  7 active torsions:
REMARK  status: ('A' for Active; 'I' for Inactive)
REMARK    1  A    between atoms: C_6  and  C_10
REMARK    2  A    between atoms: C_14  and  O_18
REMARK    3  A    between atoms: N_17  and  N_20
REMARK    4  A    between atoms: N_20  and  C_23
REMARK    5  A    between atoms: C_23  and  C_26
REMARK    6  A    between atoms: C_26  and  C_28
REMARK    7  A    between atoms: C_28  and  C_29
REMARK                            x       y       z     vdW  Elec       q    Type
REMARK                         _______ _______ _______ _____ _____    ______ ____
ROOT
ATOM      1  C   UNL     1      -8.914  54.353  50.231  0.00  0.00    +0.000 A 
ATOM      2  C   UNL     1     -10.358  54.333  50.609  0.00  0.00    +0.000 A 
ATOM      3  C   UNL     1      -8.548  54.261  48.941  0.00  0.00    +0.000 A 
ATOM      4  O   UNL     1     -10.625  54.376  51.815  0.00  0.00    +0.000 OA
ATOM      5  N   UNL     1     -11.310  54.295  49.585  0.00  0.00    +0.000 N 
ATOM      6  C   UNL     1      -9.562  54.185  47.879  0.00  0.00    +0.000 A 
ATOM      7  C   UNL     1     -10.928  54.201  48.212  0.00  0.00    +0.000 A 
ATOM      8  C   UNL     1      -9.178  54.112  46.528  0.00  0.00    +0.000 A 
ATOM      9  C   UNL     1     -11.881  54.129  47.182  0.00  0.00    +0.000 A 
ATOM     10  C   UNL     1     -10.134  54.057  45.516  0.00  0.00    +0.000 A 
ATOM     11  C   UNL     1     -11.485  54.062  45.842  0.00  0.00    +0.000 A 
ENDROOT
BRANCH   1  17
ATOM     12  S   UNL     1      -7.118  55.749  53.431  0.00  0.00    +0.000 S 
ATOM     13  O   UNL     1      -7.674  55.213  54.658  0.00  0.00    +0.000 OA
ATOM     14  O   UNL     1      -6.758  57.152  53.341  0.00  0.00    +0.000 OA
ATOM     15  N   UNL     1      -8.160  55.424  52.236  0.00  0.00    +0.000 N 
ATOM     16  C   UNL     1      -5.638  54.852  53.133  0.00  0.00    +0.000 A 
ATOM     17  C   UNL     1      -7.883  54.535  51.328  0.00  0.00    +0.000 C 
ATOM     18  C   UNL     1      -5.621  53.965  52.072  0.00  0.00    +0.000 A 
ATOM     19  C   UNL     1      -4.520  55.059  53.952  0.00  0.00    +0.000 A 
ATOM     20  N   UNL     1      -6.744  53.760  51.277  0.00  0.00    +0.000 N 
ATOM     21  C   UNL     1      -4.463  53.204  51.868  0.00  0.00    +0.000 A 
ATOM     22  C   UNL     1      -3.363  54.323  53.711  0.00  0.00    +0.000 A 
ATOM     23  C   UNL     1      -3.340  53.387  52.677  0.00  0.00    +0.000 A 
ATOM     24  H   UNL     1      -9.017  55.907  52.196  0.00  0.00    +0.000 HD
ATOM     25  H   UNL     1      -6.724  53.014  50.636  0.00  0.00    +0.000 HD
ENDBRANCH   1  17
BRANCH   3  26
ATOM     26  O   UNL     1      -7.235  54.258  48.504  0.00  0.00    +0.000 OA
ATOM     27  H   UNL     1      -6.754  55.061  48.458  0.00  0.00    +0.000 HD
ENDBRANCH   3  26
BRANCH   5  28
ATOM     28  N   UNL     1     -12.718  54.241  49.898  0.00  0.00    +0.000 N 
ATOM     29  H   UNL     1     -13.191  53.399  50.092  0.00  0.00    +0.000 HD
BRANCH  28  30
ATOM     30  C   UNL     1     -13.382  55.552  49.904  0.00  0.00    +0.000 C 
BRANCH  30  31
ATOM     31  C   UNL     1     -14.135  55.801  51.211  0.00  0.00    +0.000 C 
BRANCH  31  32
ATOM     32  C   UNL     1     -13.294  56.688  52.137  0.00  0.00    +0.000 C 
ATOM     33  C   UNL     1     -14.151  57.648  52.942  0.00  0.00    +0.000 C 
ENDBRANCH  31  32
ENDBRANCH  30  31
ENDBRANCH  28  30
ENDBRANCH   5  28
TORSDOF 6
ENDMDL
