MODEL 1
REMARK VINA RESULT:      -8.0      0.000      0.000
REMARK  Name = 
REMARK  7 active torsions:
REMARK  status: ('A' for Active; 'I' for Inactive)
REMARK    1  A    between atoms: C_6  and  C_10
REMARK    2  A    between atoms: C_14  and  O_18
REMARK    3  A    between atoms: N_17  and  N_20
REMARK    4  A    between atoms: N_20  and  C_23
REMARK    5  A    between atoms: C_23  and  C_26
REMARK    6  A    between atoms: C_26  and  C_28
REMARK    7  A    between atoms: C_28  and  C_29
REMARK                            x       y       z     vdW  Elec       q    Type
REMARK                         _______ _______ _______ _____ _____    ______ ____
ROOT
ATOM      1  C   UNL     1     -10.191  54.522  52.195  0.00  0.00    +0.000 A 
ATOM      2  C   UNL     1      -8.811  55.058  52.006  0.00  0.00    +0.000 A 
ATOM      3  C   UNL     1     -10.400  53.421  52.938  0.00  0.00    +0.000 A 
ATOM      4  O   UNL     1      -8.689  56.048  51.280  0.00  0.00    +0.000 OA
ATOM      5  N   UNL     1      -7.759  54.426  52.679  0.00  0.00    +0.000 N 
ATOM      6  C   UNL     1      -9.277  52.751  53.610  0.00  0.00    +0.000 A 
ATOM      7  C   UNL     1      -7.972  53.258  53.471  0.00  0.00    +0.000 A 
ATOM      8  C   UNL     1      -9.496  51.615  54.408  0.00  0.00    +0.000 A 
ATOM      9  C   UNL     1      -6.914  52.604  54.124  0.00  0.00    +0.000 A 
ATOM     10  C   UNL     1      -8.441  50.986  55.066  0.00  0.00    +0.000 A 
ATOM     11  C   UNL     1      -7.150  51.480  54.920  0.00  0.00    +0.000 A 
ENDROOT
BRANCH   1  17
ATOM     12  S   UNL     1     -12.579  56.115  49.513  0.00  0.00    +0.000 S 
ATOM     13  O   UNL     1     -13.495  55.144  48.944  0.00  0.00    +0.000 OA
ATOM     14  O   UNL     1     -11.947  57.106  48.667  0.00  0.00    +0.000 OA
ATOM     15  N   UNL     1     -11.415  55.299  50.285  0.00  0.00    +0.000 N 
ATOM     16  C   UNL     1     -13.504  57.015  50.703  0.00  0.00    +0.000 A 
ATOM     17  C   UNL     1     -11.354  55.282  51.583  0.00  0.00    +0.000 C 
ATOM     18  C   UNL     1     -13.217  56.805  52.042  0.00  0.00    +0.000 A 
ATOM     19  C   UNL     1     -14.487  57.920  50.288  0.00  0.00    +0.000 A 
ATOM     20  N   UNL     1     -12.244  55.893  52.440  0.00  0.00    +0.000 N 
ATOM     21  C   UNL     1     -13.994  57.474  52.996  0.00  0.00    +0.000 A 
ATOM     22  C   UNL     1     -15.227  58.604  51.246  0.00  0.00    +0.000 A 
ATOM     23  C   UNL     1     -14.987  58.375  52.602  0.00  0.00    +0.000 A 
ATOM     24  H   UNL     1     -10.739  54.807  49.763  0.00  0.00    +0.000 HD
ATOM     25  H   UNL     1     -12.189  55.669  53.397  0.00  0.00    +0.000 HD
ENDBRANCH   1  17
BRANCH   3  26
ATOM     26  O   UNL     1     -11.642  52.856  53.163  0.00  0.00    +0.000 OA
ATOM     27  H   UNL     1     -12.346  53.386  53.483  0.00  0.00    +0.000 HD
ENDBRANCH   3  26
BRANCH   5  28
ATOM     28  N   UNL     1      -6.403  54.891  52.514  0.00  0.00    +0.000 N 
ATOM     29  H   UNL     1      -5.937  55.432  53.192  0.00  0.00    +0.000 HD
BRANCH  28  30
ATOM     30  C   UNL     1      -5.780  54.488  51.246  0.00  0.00    +0.000 C 
BRANCH  30  31
ATOM     31  C   UNL     1      -4.343  54.004  51.449  0.00  0.00    +0.000 C 
BRANCH  31  32
ATOM     32  C   UNL     1      -3.867  54.362  52.862  0.00  0.00    +0.000 C 
ATOM     33  C   UNL     1      -3.300  53.157  53.593  0.00  0.00    +0.000 C 
ENDBRANCH  31  32
ENDBRANCH  30  31
ENDBRANCH  28  30
ENDBRANCH   5  28
TORSDOF 6
ENDMDL
MODEL 2
REMARK VINA RESULT:      -7.9      1.931      2.585
REMARK  Name = 
REMARK  7 active torsions:
REMARK  status: ('A' for Active; 'I' for Inactive)
REMARK    1  A    between atoms: C_6  and  C_10
REMARK    2  A    between atoms: C_14  and  O_18
REMARK    3  A    between atoms: N_17  and  N_20
REMARK    4  A    between atoms: N_20  and  C_23
REMARK    5  A    between atoms: C_23  and  C_26
REMARK    6  A    between atoms: C_26  and  C_28
REMARK    7  A    between atoms: C_28  and  C_29
REMARK                            x       y       z     vdW  Elec       q    Type
REMARK                         _______ _______ _______ _____ _____    ______ ____
ROOT
ATOM      1  C   UNL     1     -11.381  53.955  51.581  0.00  0.00    +0.000 A 
ATOM      2  C   UNL     1     -10.418  54.134  52.708  0.00  0.00    +0.000 A 
ATOM      3  C   UNL     1     -11.515  52.760  50.983  0.00  0.00    +0.000 A 
ATOM      4  O   UNL     1     -10.318  55.268  53.185  0.00  0.00    +0.000 OA
ATOM      5  N   UNL     1      -9.719  53.011  53.165  0.00  0.00    +0.000 N 
ATOM      6  C   UNL     1     -10.747  51.599  51.454  0.00  0.00    +0.000 A 
ATOM      7  C   UNL     1      -9.857  51.737  52.535  0.00  0.00    +0.000 A 
ATOM      8  C   UNL     1     -10.905  50.341  50.846  0.00  0.00    +0.000 A 
ATOM      9  C   UNL     1      -9.135  50.615  52.973  0.00  0.00    +0.000 A 
ATOM     10  C   UNL     1     -10.197  49.231  51.301  0.00  0.00    +0.000 A 
ATOM     11  C   UNL     1      -9.309  49.370  52.361  0.00  0.00    +0.000 A 
ENDROOT
BRANCH   1  17
ATOM     12  S   UNL     1     -12.982  56.796  49.390  0.00  0.00    +0.000 S 
ATOM     13  O   UNL     1     -14.034  56.297  48.524  0.00  0.00    +0.000 OA
ATOM     14  O   UNL     1     -12.034  57.774  48.899  0.00  0.00    +0.000 OA
ATOM     15  N   UNL     1     -12.148  55.521  49.935  0.00  0.00    +0.000 N 
ATOM     16  C   UNL     1     -13.793  57.549  50.753  0.00  0.00    +0.000 A 
ATOM     17  C   UNL     1     -12.245  55.135  51.172  0.00  0.00    +0.000 C 
ATOM     18  C   UNL     1     -13.723  56.913  51.982  0.00  0.00    +0.000 A 
ATOM     19  C   UNL     1     -14.471  58.760  50.582  0.00  0.00    +0.000 A 
ATOM     20  N   UNL     1     -13.053  55.702  52.134  0.00  0.00    +0.000 N 
ATOM     21  C   UNL     1     -14.419  57.478  53.057  0.00  0.00    +0.000 A 
ATOM     22  C   UNL     1     -15.129  59.328  51.667  0.00  0.00    +0.000 A 
ATOM     23  C   UNL     1     -15.111  58.682  52.905  0.00  0.00    +0.000 A 
ATOM     24  H   UNL     1     -11.557  55.028  49.320  0.00  0.00    +0.000 HD
ATOM     25  H   UNL     1     -13.166  55.219  52.984  0.00  0.00    +0.000 HD
ENDBRANCH   1  17
BRANCH   3  26
ATOM     26  O   UNL     1     -12.379  52.506  49.933  0.00  0.00    +0.000 OA
ATOM     27  H   UNL     1     -12.287  52.976  49.127  0.00  0.00    +0.000 HD
ENDBRANCH   3  26
BRANCH   5  28
ATOM     28  N   UNL     1      -8.761  53.134  54.237  0.00  0.00    +0.000 N 
ATOM     29  H   UNL     1      -8.984  52.946  55.177  0.00  0.00    +0.000 HD
BRANCH  28  30
ATOM     30  C   UNL     1      -7.425  53.563  53.803  0.00  0.00    +0.000 C 
BRANCH  30  31
ATOM     31  C   UNL     1      -6.996  54.862  54.487  0.00  0.00    +0.000 C 
BRANCH  31  32
ATOM     32  C   UNL     1      -6.964  56.004  53.464  0.00  0.00    +0.000 C 
ATOM     33  C   UNL     1      -6.986  55.489  52.035  0.00  0.00    +0.000 C 
ENDBRANCH  31  32
ENDBRANCH  30  31
ENDBRANCH  28  30
ENDBRANCH   5  28
TORSDOF 6
ENDMDL
MODEL 3
REMARK VINA RESULT:      -7.8      2.548      8.097
REMARK  Name = 
REMARK  7 active torsions:
REMARK  status: ('A' for Active; 'I' for Inactive)
REMARK    1  A    between atoms: C_6  and  C_10
REMARK    2  A    between atoms: C_14  and  O_18
REMARK    3  A    between atoms: N_17  and  N_20
REMARK    4  A    between atoms: N_20  and  C_23
REMARK    5  A    between atoms: C_23  and  C_26
REMARK    6  A    between atoms: C_26  and  C_28
REMARK    7  A    between atoms: C_28  and  C_29
REMARK                            x       y       z     vdW  Elec       q    Type
REMARK                         _______ _______ _______ _____ _____    ______ ____
ROOT
ATOM      1  C   UNL     1     -10.251  55.100  50.475  0.00  0.00    +0.000 A 
ATOM      2  C   UNL     1     -11.328  55.242  51.499  0.00  0.00    +0.000 A 
ATOM      3  C   UNL     1     -10.486  55.413  49.189  0.00  0.00    +0.000 A 
ATOM      4  O   UNL     1     -11.053  54.899  52.652  0.00  0.00    +0.000 OA
ATOM      5  N   UNL     1     -12.557  55.775  51.095  0.00  0.00    +0.000 N 
ATOM      6  C   UNL     1     -11.795  55.940  48.778  0.00  0.00    +0.000 A 
ATOM      7  C   UNL     1     -12.815  56.112  49.732  0.00  0.00    +0.000 A 
ATOM      8  C   UNL     1     -12.036  56.292  47.438  0.00  0.00    +0.000 A 
ATOM      9  C   UNL     1     -14.058  56.620  49.318  0.00  0.00    +0.000 A 
ATOM     10  C   UNL     1     -13.267  56.812  47.043  0.00  0.00    +0.000 A 
ATOM     11  C   UNL     1     -14.278  56.972  47.983  0.00  0.00    +0.000 A 
ENDROOT
BRANCH   1  17
ATOM     12  S   UNL     1      -6.855  53.131  50.637  0.00  0.00    +0.000 S 
ATOM     13  O   UNL     1      -5.889  53.617  49.670  0.00  0.00    +0.000 OA
ATOM     14  O   UNL     1      -7.002  51.709  50.871  0.00  0.00    +0.000 OA
ATOM     15  N   UNL     1      -8.304  53.723  50.226  0.00  0.00    +0.000 N 
ATOM     16  C   UNL     1      -6.390  53.830  52.179  0.00  0.00    +0.000 A 
ATOM     17  C   UNL     1      -8.872  54.655  50.930  0.00  0.00    +0.000 C 
ATOM     18  C   UNL     1      -7.201  54.817  52.714  0.00  0.00    +0.000 A 
ATOM     19  C   UNL     1      -5.240  53.379  52.834  0.00  0.00    +0.000 A 
ATOM     20  N   UNL     1      -8.337  55.264  52.045  0.00  0.00    +0.000 N 
ATOM     21  C   UNL     1      -6.802  55.420  53.913  0.00  0.00    +0.000 A 
ATOM     22  C   UNL     1      -4.875  53.962  54.042  0.00  0.00    +0.000 A 
ATOM     23  C   UNL     1      -5.651  54.991  54.578  0.00  0.00    +0.000 A 
ATOM     24  H   UNL     1      -8.763  53.371  49.428  0.00  0.00    +0.000 HD
ATOM     25  H   UNL     1      -8.787  56.069  52.390  0.00  0.00    +0.000 HD
ENDBRANCH   1  17
BRANCH   3  26
ATOM     26  O   UNL     1      -9.550  55.310  48.177  0.00  0.00    +0.000 OA
ATOM     27  H   UNL     1      -9.526  55.951  47.494  0.00  0.00    +0.000 HD
ENDBRANCH   3  26
BRANCH   5  28
ATOM     28  N   UNL     1     -13.638  55.914  52.040  0.00  0.00    +0.000 N 
ATOM     29  H   UNL     1     -14.306  55.208  52.197  0.00  0.00    +0.000 HD
BRANCH  28  30
ATOM     30  C   UNL     1     -13.655  57.201  52.748  0.00  0.00    +0.000 C 
BRANCH  30  31
ATOM     31  C   UNL     1     -15.081  57.715  52.956  0.00  0.00    +0.000 C 
BRANCH  31  32
ATOM     32  C   UNL     1     -15.155  59.206  52.601  0.00  0.00    +0.000 C 
ATOM     33  C   UNL     1     -14.974  59.446  51.112  0.00  0.00    +0.000 C 
ENDBRANCH  31  32
ENDBRANCH  30  31
ENDBRANCH  28  30
ENDBRANCH   5  28
TORSDOF 6
ENDMDL
MODEL 4
REMARK VINA RESULT:      -7.8      2.668      7.959
REMARK  Name = 
REMARK  7 active torsions:
REMARK  status: ('A' for Active; 'I' for Inactive)
REMARK    1  A    between atoms: C_6  and  C_10
REMARK    2  A    between atoms: C_14  and  O_18
REMARK    3  A    between atoms: N_17  and  N_20
REMARK    4  A    between atoms: N_20  and  C_23
REMARK    5  A    between atoms: C_23  and  C_26
REMARK    6  A    between atoms: C_26  and  C_28
REMARK    7  A    between atoms: C_28  and  C_29
REMARK                            x       y       z     vdW  Elec       q    Type
REMARK                         _______ _______ _______ _____ _____    ______ ____
ROOT
ATOM      1  C   UNL     1     -10.235  54.795  50.962  0.00  0.00    +0.000 A 
ATOM      2  C   UNL     1     -11.420  55.597  51.388  0.00  0.00    +0.000 A 
ATOM      3  C   UNL     1     -10.003  54.560  49.659  0.00  0.00    +0.000 A 
ATOM      4  O   UNL     1     -11.593  55.740  52.602  0.00  0.00    +0.000 OA
ATOM      5  N   UNL     1     -12.234  56.152  50.394  0.00  0.00    +0.000 N 
ATOM      6  C   UNL     1     -10.889  55.124  48.630  0.00  0.00    +0.000 A 
ATOM      7  C   UNL     1     -11.994  55.909  49.008  0.00  0.00    +0.000 A 
ATOM      8  C   UNL     1     -10.634  54.901  47.266  0.00  0.00    +0.000 A 
ATOM      9  C   UNL     1     -12.826  56.442  48.009  0.00  0.00    +0.000 A 
ATOM     10  C   UNL     1     -11.456  55.450  46.284  0.00  0.00    +0.000 A 
ATOM     11  C   UNL     1     -12.554  56.216  46.657  0.00  0.00    +0.000 A 
ENDROOT
BRANCH   1  17
ATOM     12  S   UNL     1      -6.990  54.453  53.149  0.00  0.00    +0.000 S 
ATOM     13  O   UNL     1      -6.906  55.475  54.175  0.00  0.00    +0.000 OA
ATOM     14  O   UNL     1      -5.809  54.066  52.405  0.00  0.00    +0.000 OA
ATOM     15  N   UNL     1      -8.122  54.912  52.088  0.00  0.00    +0.000 N 
ATOM     16  C   UNL     1      -7.549  52.998  53.958  0.00  0.00    +0.000 A 
ATOM     17  C   UNL     1      -9.270  54.306  52.027  0.00  0.00    +0.000 C 
ATOM     18  C   UNL     1      -8.838  52.565  53.695  0.00  0.00    +0.000 A 
ATOM     19  C   UNL     1      -6.698  52.309  54.827  0.00  0.00    +0.000 A 
ATOM     20  N   UNL     1      -9.678  53.268  52.836  0.00  0.00    +0.000 N 
ATOM     21  C   UNL     1      -9.309  51.441  54.385  0.00  0.00    +0.000 A 
ATOM     22  C   UNL     1      -7.167  51.174  55.478  0.00  0.00    +0.000 A 
ATOM     23  C   UNL     1      -8.478  50.744  55.264  0.00  0.00    +0.000 A 
ATOM     24  H   UNL     1      -7.938  55.663  51.477  0.00  0.00    +0.000 HD
ATOM     25  H   UNL     1     -10.627  53.007  52.806  0.00  0.00    +0.000 HD
ENDBRANCH   1  17
BRANCH   3  26
ATOM     26  O   UNL     1      -8.934  53.827  49.176  0.00  0.00    +0.000 OA
ATOM     27  H   UNL     1      -8.950  52.891  49.222  0.00  0.00    +0.000 HD
ENDBRANCH   3  26
BRANCH   5  28
ATOM     28  N   UNL     1     -13.403  56.918  50.752  0.00  0.00    +0.000 N 
ATOM     29  H   UNL     1     -13.423  57.902  50.736  0.00  0.00    +0.000 HD
BRANCH  28  30
ATOM     30  C   UNL     1     -14.560  56.101  51.144  0.00  0.00    +0.000 C 
BRANCH  30  31
ATOM     31  C   UNL     1     -15.312  56.713  52.327  0.00  0.00    +0.000 C 
BRANCH  31  32
ATOM     32  C   UNL     1     -14.479  57.841  52.948  0.00  0.00    +0.000 C 
ATOM     33  C   UNL     1     -15.197  59.178  52.889  0.00  0.00    +0.000 C 
ENDBRANCH  31  32
ENDBRANCH  30  31
ENDBRANCH  28  30
ENDBRANCH   5  28
TORSDOF 6
ENDMDL
MODEL 5
REMARK VINA RESULT:      -7.6      3.816      5.304
REMARK  Name = 
REMARK  7 active torsions:
REMARK  status: ('A' for Active; 'I' for Inactive)
REMARK    1  A    between atoms: C_6  and  C_10
REMARK    2  A    between atoms: C_14  and  O_18
REMARK    3  A    between atoms: N_17  and  N_20
REMARK    4  A    between atoms: N_20  and  C_23
REMARK    5  A    between atoms: C_23  and  C_26
REMARK    6  A    between atoms: C_26  and  C_28
REMARK    7  A    between atoms: C_28  and  C_29
REMARK                            x       y       z     vdW  Elec       q    Type
REMARK                         _______ _______ _______ _____ _____    ______ ____
ROOT
ATOM      1  C   UNL     1     -10.658  55.641  48.150  0.00  0.00    +0.000 A 
ATOM      2  C   UNL     1      -9.194  55.734  48.428  0.00  0.00    +0.000 A 
ATOM      3  C   UNL     1     -11.105  54.999  47.058  0.00  0.00    +0.000 A 
ATOM      4  O   UNL     1      -8.852  56.372  49.429  0.00  0.00    +0.000 OA
ATOM      5  N   UNL     1      -8.314  55.076  47.562  0.00  0.00    +0.000 N 
ATOM      6  C   UNL     1     -10.163  54.342  46.141  0.00  0.00    +0.000 A 
ATOM      7  C   UNL     1      -8.781  54.390  46.400  0.00  0.00    +0.000 A 
ATOM      8  C   UNL     1     -10.630  53.648  45.011  0.00  0.00    +0.000 A 
ATOM      9  C   UNL     1      -7.898  53.753  45.513  0.00  0.00    +0.000 A 
ATOM     10  C   UNL     1      -9.746  53.004  44.148  0.00  0.00    +0.000 A 
ATOM     11  C   UNL     1      -8.379  53.061  44.398  0.00  0.00    +0.000 A 
ENDROOT
BRANCH   1  17
ATOM     12  S   UNL     1     -13.054  55.954  51.248  0.00  0.00    +0.000 S 
ATOM     13  O   UNL     1     -12.329  56.168  52.486  0.00  0.00    +0.000 OA
ATOM     14  O   UNL     1     -14.192  55.060  51.213  0.00  0.00    +0.000 OA
ATOM     15  N   UNL     1     -11.990  55.456  50.135  0.00  0.00    +0.000 N 
ATOM     16  C   UNL     1     -13.662  57.529  50.764  0.00  0.00    +0.000 A 
ATOM     17  C   UNL     1     -11.626  56.233  49.160  0.00  0.00    +0.000 C 
ATOM     18  C   UNL     1     -13.086  58.135  49.660  0.00  0.00    +0.000 A 
ATOM     19  C   UNL     1     -14.704  58.127  51.480  0.00  0.00    +0.000 A 
ATOM     20  N   UNL     1     -12.041  57.533  48.965  0.00  0.00    +0.000 N 
ATOM     21  C   UNL     1     -13.525  59.417  49.309  0.00  0.00    +0.000 A 
ATOM     22  C   UNL     1     -15.154  59.386  51.097  0.00  0.00    +0.000 A 
ATOM     23  C   UNL     1     -14.558  60.037  50.016  0.00  0.00    +0.000 A 
ATOM     24  H   UNL     1     -11.613  54.548  50.197  0.00  0.00    +0.000 HD
ATOM     25  H   UNL     1     -11.568  58.071  48.290  0.00  0.00    +0.000 HD
ENDBRANCH   1  17
BRANCH   3  26
ATOM     26  O   UNL     1     -12.440  54.868  46.722  0.00  0.00    +0.000 OA
ATOM     27  H   UNL     1     -12.739  54.093  46.286  0.00  0.00    +0.000 HD
ENDBRANCH   3  26
BRANCH   5  28
ATOM     28  N   UNL     1      -6.888  55.151  47.774  0.00  0.00    +0.000 N 
ATOM     29  H   UNL     1      -6.314  55.810  47.319  0.00  0.00    +0.000 HD
BRANCH  28  30
ATOM     30  C   UNL     1      -6.369  54.159  48.725  0.00  0.00    +0.000 C 
BRANCH  30  31
ATOM     31  C   UNL     1      -4.981  54.540  49.241  0.00  0.00    +0.000 C 
BRANCH  31  32
ATOM     32  C   UNL     1      -4.934  54.395  50.767  0.00  0.00    +0.000 C 
ATOM     33  C   UNL     1      -6.314  54.508  51.392  0.00  0.00    +0.000 C 
ENDBRANCH  31  32
ENDBRANCH  30  31
ENDBRANCH  28  30
ENDBRANCH   5  28
TORSDOF 6
ENDMDL
MODEL 6
REMARK VINA RESULT:      -7.6      3.441      7.576
REMARK  Name = 
REMARK  7 active torsions:
REMARK  status: ('A' for Active; 'I' for Inactive)
REMARK    1  A    between atoms: C_6  and  C_10
REMARK    2  A    between atoms: C_14  and  O_18
REMARK    3  A    between atoms: N_17  and  N_20
REMARK    4  A    between atoms: N_20  and  C_23
REMARK    5  A    between atoms: C_23  and  C_26
REMARK    6  A    between atoms: C_26  and  C_28
REMARK    7  A    between atoms: C_28  and  C_29
REMARK                            x       y       z     vdW  Elec       q    Type
REMARK                         _______ _______ _______ _____ _____    ______ ____
ROOT
ATOM      1  C   UNL     1     -10.187  55.249  50.720  0.00  0.00    +0.000 A 
ATOM      2  C   UNL     1      -9.752  55.174  49.294  0.00  0.00    +0.000 A 
ATOM      3  C   UNL     1     -11.400  55.731  51.039  0.00  0.00    +0.000 A 
ATOM      4  O   UNL     1      -8.611  54.757  49.077  0.00  0.00    +0.000 OA
ATOM      5  N   UNL     1     -10.667  55.551  48.304  0.00  0.00    +0.000 N 
ATOM      6  C   UNL     1     -12.335  56.154  49.987  0.00  0.00    +0.000 A 
ATOM      7  C   UNL     1     -11.958  56.062  48.634  0.00  0.00    +0.000 A 
ATOM      8  C   UNL     1     -13.614  56.634  50.317  0.00  0.00    +0.000 A 
ATOM      9  C   UNL     1     -12.867  56.468  47.644  0.00  0.00    +0.000 A 
ATOM     10  C   UNL     1     -14.514  57.017  49.325  0.00  0.00    +0.000 A 
ATOM     11  C   UNL     1     -14.138  56.937  47.989  0.00  0.00    +0.000 A 
ENDROOT
BRANCH   1  17
ATOM     12  S   UNL     1      -7.013  54.812  52.994  0.00  0.00    +0.000 S 
ATOM     13  O   UNL     1      -6.969  55.781  54.073  0.00  0.00    +0.000 OA
ATOM     14  O   UNL     1      -5.806  54.469  52.271  0.00  0.00    +0.000 OA
ATOM     15  N   UNL     1      -8.112  55.319  51.921  0.00  0.00    +0.000 N 
ATOM     16  C   UNL     1      -7.589  53.315  53.709  0.00  0.00    +0.000 A 
ATOM     17  C   UNL     1      -9.254  54.712  51.791  0.00  0.00    +0.000 C 
ATOM     18  C   UNL     1      -8.866  52.890  53.382  0.00  0.00    +0.000 A 
ATOM     19  C   UNL     1      -6.762  52.587  54.570  0.00  0.00    +0.000 A 
ATOM     20  N   UNL     1      -9.682  53.632  52.533  0.00  0.00    +0.000 N 
ATOM     21  C   UNL     1      -9.352  51.730  53.998  0.00  0.00    +0.000 A 
ATOM     22  C   UNL     1      -7.245  51.418  55.147  0.00  0.00    +0.000 A 
ATOM     23  C   UNL     1      -8.546  50.993  54.868  0.00  0.00    +0.000 A 
ATOM     24  H   UNL     1      -7.913  56.101  51.355  0.00  0.00    +0.000 HD
ATOM     25  H   UNL     1     -10.627  53.368  52.458  0.00  0.00    +0.000 HD
ENDBRANCH   1  17
BRANCH   3  26
ATOM     26  O   UNL     1     -11.882  55.838  52.331  0.00  0.00    +0.000 OA
ATOM     27  H   UNL     1     -12.219  56.658  52.638  0.00  0.00    +0.000 HD
ENDBRANCH   3  26
BRANCH   5  28
ATOM     28  N   UNL     1     -10.290  55.517  46.912  0.00  0.00    +0.000 N 
ATOM     29  H   UNL     1     -10.044  56.324  46.404  0.00  0.00    +0.000 HD
BRANCH  28  30
ATOM     30  C   UNL     1     -10.308  54.174  46.317  0.00  0.00    +0.000 C 
BRANCH  30  31
ATOM     31  C   UNL     1     -11.464  54.005  45.330  0.00  0.00    +0.000 C 
BRANCH  31  32
ATOM     32  C   UNL     1     -11.199  52.802  44.417  0.00  0.00    +0.000 C 
ATOM     33  C   UNL     1      -9.777  52.794  43.884  0.00  0.00    +0.000 C 
ENDBRANCH  31  32
ENDBRANCH  30  31
ENDBRANCH  28  30
ENDBRANCH   5  28
TORSDOF 6
ENDMDL
MODEL 7
REMARK VINA RESULT:      -7.5      4.417      5.589
REMARK  Name = 
REMARK  7 active torsions:
REMARK  status: ('A' for Active; 'I' for Inactive)
REMARK    1  A    between atoms: C_6  and  C_10
REMARK    2  A    between atoms: C_14  and  O_18
REMARK    3  A    between atoms: N_17  and  N_20
REMARK    4  A    between atoms: N_20  and  C_23
REMARK    5  A    between atoms: C_23  and  C_26
REMARK    6  A    between atoms: C_26  and  C_28
REMARK    7  A    between atoms: C_28  and  C_29
REMARK                            x       y       z     vdW  Elec       q    Type
REMARK                         _______ _______ _______ _____ _____    ______ ____
ROOT
ATOM      1  C   UNL     1     -12.504  54.322  49.506  0.00  0.00    +0.000 A 
ATOM      2  C   UNL     1     -11.993  54.327  48.103  0.00  0.00    +0.000 A 
ATOM      3  C   UNL     1     -12.213  53.303  50.333  0.00  0.00    +0.000 A 
ATOM      4  O   UNL     1     -12.330  55.274  47.387  0.00  0.00    +0.000 OA
ATOM      5  N   UNL     1     -11.151  53.283  47.703  0.00  0.00    +0.000 N 
ATOM      6  C   UNL     1     -11.355  52.198  49.884  0.00  0.00    +0.000 A 
ATOM      7  C   UNL     1     -10.836  52.199  48.576  0.00  0.00    +0.000 A 
ATOM      8  C   UNL     1     -11.029  51.145  50.756  0.00  0.00    +0.000 A 
ATOM      9  C   UNL     1     -10.015  51.135  48.167  0.00  0.00    +0.000 A 
ATOM     10  C   UNL     1     -10.199  50.105  50.346  0.00  0.00    +0.000 A 
ATOM     11  C   UNL     1      -9.695  50.098  49.050  0.00  0.00    +0.000 A 
ENDROOT
BRANCH   1  17
ATOM     12  S   UNL     1     -15.355  56.449  51.171  0.00  0.00    +0.000 S 
ATOM     13  O   UNL     1     -15.220  56.519  52.614  0.00  0.00    +0.000 OA
ATOM     14  O   UNL     1     -16.660  56.272  50.568  0.00  0.00    +0.000 OA
ATOM     15  N   UNL     1     -14.394  55.259  50.644  0.00  0.00    +0.000 N 
ATOM     16  C   UNL     1     -14.739  57.972  50.552  0.00  0.00    +0.000 A 
ATOM     17  C   UNL     1     -13.302  55.519  49.990  0.00  0.00    +0.000 C 
ATOM     18  C   UNL     1     -13.533  57.955  49.871  0.00  0.00    +0.000 A 
ATOM     19  C   UNL     1     -15.467  59.151  50.742  0.00  0.00    +0.000 A 
ATOM     20  N   UNL     1     -12.814  56.775  49.700  0.00  0.00    +0.000 N 
ATOM     21  C   UNL     1     -13.008  59.176  49.430  0.00  0.00    +0.000 A 
ATOM     22  C   UNL     1     -14.950  60.351  50.267  0.00  0.00    +0.000 A 
ATOM     23  C   UNL     1     -13.714  60.366  49.618  0.00  0.00    +0.000 A 
ATOM     24  H   UNL     1     -14.640  54.322  50.821  0.00  0.00    +0.000 HD
ATOM     25  H   UNL     1     -11.897  56.843  49.349  0.00  0.00    +0.000 HD
ENDBRANCH   1  17
BRANCH   3  26
ATOM     26  O   UNL     1     -12.646  53.216  51.644  0.00  0.00    +0.000 OA
ATOM     27  H   UNL     1     -12.021  53.207  52.343  0.00  0.00    +0.000 HD
ENDBRANCH   3  26
BRANCH   5  28
ATOM     28  N   UNL     1     -10.646  53.229  46.352  0.00  0.00    +0.000 N 
ATOM     29  H   UNL     1      -9.746  53.543  46.104  0.00  0.00    +0.000 HD
BRANCH  28  30
ATOM     30  C   UNL     1     -11.593  52.668  45.379  0.00  0.00    +0.000 C 
BRANCH  30  31
ATOM     31  C   UNL     1     -10.882  52.154  44.126  0.00  0.00    +0.000 C 
BRANCH  31  32
ATOM     32  C   UNL     1      -9.363  52.275  44.302  0.00  0.00    +0.000 C 
ATOM     33  C   UNL     1      -8.696  52.885  43.082  0.00  0.00    +0.000 C 
ENDBRANCH  31  32
ENDBRANCH  30  31
ENDBRANCH  28  30
ENDBRANCH   5  28
TORSDOF 6
ENDMDL
MODEL 8
REMARK VINA RESULT:      -7.5      3.851      4.646
REMARK  Name = 
REMARK  7 active torsions:
REMARK  status: ('A' for Active; 'I' for Inactive)
REMARK    1  A    between atoms: C_6  and  C_10
REMARK    2  A    between atoms: C_14  and  O_18
REMARK    3  A    between atoms: N_17  and  N_20
REMARK    4  A    between atoms: N_20  and  C_23
REMARK    5  A    between atoms: C_23  and  C_26
REMARK    6  A    between atoms: C_26  and  C_28
REMARK    7  A    between atoms: C_28  and  C_29
REMARK                            x       y       z     vdW  Elec       q    Type
REMARK                         _______ _______ _______ _____ _____    ______ ____
ROOT
ATOM      1  C   UNL     1     -12.394  54.317  49.798  0.00  0.00    +0.000 A 
ATOM      2  C   UNL     1     -11.974  54.173  48.373  0.00  0.00    +0.000 A 
ATOM      3  C   UNL     1     -11.992  53.426  50.721  0.00  0.00    +0.000 A 
ATOM      4  O   UNL     1     -12.412  55.004  47.572  0.00  0.00    +0.000 OA
ATOM      5  N   UNL     1     -11.097  53.133  48.044  0.00  0.00    +0.000 N 
ATOM      6  C   UNL     1     -11.099  52.320  50.350  0.00  0.00    +0.000 A 
ATOM      7  C   UNL     1     -10.664  52.183  49.019  0.00  0.00    +0.000 A 
ATOM      8  C   UNL     1     -10.656  51.402  51.319  0.00  0.00    +0.000 A 
ATOM      9  C   UNL     1      -9.808  51.121  48.686  0.00  0.00    +0.000 A 
ATOM     10  C   UNL     1      -9.792  50.363  50.980  0.00  0.00    +0.000 A 
ATOM     11  C   UNL     1      -9.372  50.221  49.663  0.00  0.00    +0.000 A 
ENDROOT
BRANCH   1  17
ATOM     12  S   UNL     1     -15.355  56.473  51.219  0.00  0.00    +0.000 S 
ATOM     13  O   UNL     1     -15.297  56.605  52.663  0.00  0.00    +0.000 OA
ATOM     14  O   UNL     1     -16.623  56.252  50.557  0.00  0.00    +0.000 OA
ATOM     15  N   UNL     1     -14.353  55.275  50.795  0.00  0.00    +0.000 N 
ATOM     16  C   UNL     1     -14.724  57.977  50.569  0.00  0.00    +0.000 A 
ATOM     17  C   UNL     1     -13.231  55.522  50.188  0.00  0.00    +0.000 C 
ATOM     18  C   UNL     1     -13.484  57.948  49.953  0.00  0.00    +0.000 A 
ATOM     19  C   UNL     1     -15.475  59.152  50.670  0.00  0.00    +0.000 A 
ATOM     20  N   UNL     1     -12.743  56.772  49.870  0.00  0.00    +0.000 N 
ATOM     21  C   UNL     1     -12.950  59.156  49.488  0.00  0.00    +0.000 A 
ATOM     22  C   UNL     1     -14.948  60.339  50.171  0.00  0.00    +0.000 A 
ATOM     23  C   UNL     1     -13.680  60.343  49.588  0.00  0.00    +0.000 A 
ATOM     24  H   UNL     1     -14.597  54.343  50.998  0.00  0.00    +0.000 HD
ATOM     25  H   UNL     1     -11.810  56.838  49.565  0.00  0.00    +0.000 HD
ENDBRANCH   1  17
BRANCH   3  26
ATOM     26  O   UNL     1     -12.335  53.481  52.059  0.00  0.00    +0.000 OA
ATOM     27  H   UNL     1     -12.645  52.711  52.495  0.00  0.00    +0.000 HD
ENDBRANCH   3  26
BRANCH   5  28
ATOM     28  N   UNL     1     -10.677  52.936  46.678  0.00  0.00    +0.000 N 
ATOM     29  H   UNL     1     -11.263  52.549  45.988  0.00  0.00    +0.000 HD
BRANCH  28  30
ATOM     30  C   UNL     1      -9.297  53.364  46.407  0.00  0.00    +0.000 C 
BRANCH  30  31
ATOM     31  C   UNL     1      -9.129  54.875  46.570  0.00  0.00    +0.000 C 
BRANCH  31  32
ATOM     32  C   UNL     1      -8.203  55.172  47.756  0.00  0.00    +0.000 C 
ATOM     33  C   UNL     1      -8.905  55.974  48.838  0.00  0.00    +0.000 C 
ENDBRANCH  31  32
ENDBRANCH  30  31
ENDBRANCH  28  30
ENDBRANCH   5  28
TORSDOF 6
ENDMDL
MODEL 9
REMARK VINA RESULT:      -7.4      3.419      5.181
REMARK  Name = 
REMARK  7 active torsions:
REMARK  status: ('A' for Active; 'I' for Inactive)
REMARK    1  A    between atoms: C_6  and  C_10
REMARK    2  A    between atoms: C_14  and  O_18
REMARK    3  A    between atoms: N_17  and  N_20
REMARK    4  A    between atoms: N_20  and  C_23
REMARK    5  A    between atoms: C_23  and  C_26
REMARK    6  A    between atoms: C_26  and  C_28
REMARK    7  A    between atoms: C_28  and  C_29
REMARK                            x       y       z     vdW  Elec       q    Type
REMARK                         _______ _______ _______ _____ _____    ______ ____
ROOT
ATOM      1  C   UNL     1     -11.607  56.094  48.687  0.00  0.00    +0.000 A 
ATOM      2  C   UNL     1     -10.456  55.557  49.472  0.00  0.00    +0.000 A 
ATOM      3  C   UNL     1     -11.818  55.691  47.423  0.00  0.00    +0.000 A 
ATOM      4  O   UNL     1     -10.300  56.000  50.613  0.00  0.00    +0.000 OA
ATOM      5  N   UNL     1      -9.654  54.575  48.880  0.00  0.00    +0.000 N 
ATOM      6  C   UNL     1     -10.944  54.683  46.806  0.00  0.00    +0.000 A 
ATOM      7  C   UNL     1      -9.873  54.139  47.538  0.00  0.00    +0.000 A 
ATOM      8  C   UNL     1     -11.179  54.241  45.492  0.00  0.00    +0.000 A 
ATOM      9  C   UNL     1      -9.051  53.175  46.930  0.00  0.00    +0.000 A 
ATOM     10  C   UNL     1     -10.369  53.270  44.907  0.00  0.00    +0.000 A 
ATOM     11  C   UNL     1      -9.303  52.741  45.626  0.00  0.00    +0.000 A 
ENDROOT
BRANCH   1  17
ATOM     12  S   UNL     1     -13.622  59.366  49.505  0.00  0.00    +0.000 S 
ATOM     13  O   UNL     1     -14.777  59.533  48.642  0.00  0.00    +0.000 OA
ATOM     14  O   UNL     1     -12.796  60.505  49.846  0.00  0.00    +0.000 OA
ATOM     15  N   UNL     1     -12.671  58.237  48.842  0.00  0.00    +0.000 N 
ATOM     16  C   UNL     1     -14.240  58.743  51.026  0.00  0.00    +0.000 A 
ATOM     17  C   UNL     1     -12.563  57.055  49.370  0.00  0.00    +0.000 C 
ATOM     18  C   UNL     1     -13.960  57.426  51.349  0.00  0.00    +0.000 A 
ATOM     19  C   UNL     1     -14.978  59.574  51.875  0.00  0.00    +0.000 A 
ATOM     20  N   UNL     1     -13.234  56.607  50.488  0.00  0.00    +0.000 N 
ATOM     21  C   UNL     1     -14.503  56.907  52.531  0.00  0.00    +0.000 A 
ATOM     22  C   UNL     1     -15.481  59.056  53.063  0.00  0.00    +0.000 A 
ATOM     23  C   UNL     1     -15.251  57.718  53.388  0.00  0.00    +0.000 A 
ATOM     24  H   UNL     1     -12.165  58.449  48.024  0.00  0.00    +0.000 HD
ATOM     25  H   UNL     1     -13.198  55.645  50.691  0.00  0.00    +0.000 HD
ENDBRANCH   1  17
BRANCH   3  26
ATOM     26  O   UNL     1     -12.855  56.138  46.624  0.00  0.00    +0.000 OA
ATOM     27  H   UNL     1     -13.227  55.569  45.978  0.00  0.00    +0.000 HD
ENDBRANCH   3  26
BRANCH   5  28
ATOM     28  N   UNL     1      -8.517  54.037  49.586  0.00  0.00    +0.000 N 
ATOM     29  H   UNL     1      -7.602  54.380  49.467  0.00  0.00    +0.000 HD
BRANCH  28  30
ATOM     30  C   UNL     1      -8.844  52.932  50.498  0.00  0.00    +0.000 C 
BRANCH  30  31
ATOM     31  C   UNL     1      -8.196  53.118  51.870  0.00  0.00    +0.000 C 
BRANCH  31  32
ATOM     32  C   UNL     1      -9.260  53.518  52.900  0.00  0.00    +0.000 C 
ATOM     33  C   UNL     1      -8.928  54.837  53.577  0.00  0.00    +0.000 C 
ENDBRANCH  31  32
ENDBRANCH  30  31
ENDBRANCH  28  30
ENDBRANCH   5  28
TORSDOF 6
ENDMDL
