MODEL 1
REMARK VINA RESULT:      -8.4      0.000      0.000
REMARK  Name = 
REMARK  5 active torsions:
REMARK  status: ('A' for Active; 'I' for Inactive)
REMARK    1  A    between atoms: C_6  and  C_10
REMARK    2  A    between atoms: C_14  and  O_18
REMARK    3  A    between atoms: N_17  and  N_20
REMARK    4  A    between atoms: N_20  and  C_23
REMARK    5  A    between atoms: C_23  and  C_26
REMARK                            x       y       z     vdW  Elec       q    Type
REMARK                         _______ _______ _______ _____ _____    ______ ____
ROOT
ATOM      1  C   UNL     1     -10.114  54.548  52.218  0.00  0.00    +0.000 A 
ATOM      2  C   UNL     1      -8.750  55.121  52.021  0.00  0.00    +0.000 A 
ATOM      3  C   UNL     1     -10.286  53.444  52.964  0.00  0.00    +0.000 A 
ATOM      4  O   UNL     1      -8.651  56.128  51.312  0.00  0.00    +0.000 OA
ATOM      5  N   UNL     1      -7.675  54.508  52.671  0.00  0.00    +0.000 N 
ATOM      6  C   UNL     1      -9.142  52.803  53.629  0.00  0.00    +0.000 A 
ATOM      7  C   UNL     1      -7.851  53.340  53.471  0.00  0.00    +0.000 A 
ATOM      8  C   UNL     1      -9.323  51.666  54.434  0.00  0.00    +0.000 A 
ATOM      9  C   UNL     1      -6.769  52.716  54.114  0.00  0.00    +0.000 A 
ATOM     10  C   UNL     1      -8.244  51.066  55.080  0.00  0.00    +0.000 A 
ATOM     11  C   UNL     1      -6.967  51.590  54.918  0.00  0.00    +0.000 A 
ENDROOT
BRANCH   1  17
ATOM     12  S   UNL     1     -12.572  56.032  49.535  0.00  0.00    +0.000 S 
ATOM     13  O   UNL     1     -13.469  55.031  48.992  0.00  0.00    +0.000 OA
ATOM     14  O   UNL     1     -11.965  57.021  48.666  0.00  0.00    +0.000 OA
ATOM     15  N   UNL     1     -11.379  55.253  50.309  0.00  0.00    +0.000 N 
ATOM     16  C   UNL     1     -13.504  56.931  50.718  0.00  0.00    +0.000 A 
ATOM     17  C   UNL     1     -11.300  55.271  51.606  0.00  0.00    +0.000 C 
ATOM     18  C   UNL     1     -13.192  56.763  52.054  0.00  0.00    +0.000 A 
ATOM     19  C   UNL     1     -14.520  57.793  50.294  0.00  0.00    +0.000 A 
ATOM     20  N   UNL     1     -12.189  55.888  52.461  0.00  0.00    +0.000 N 
ATOM     21  C   UNL     1     -13.971  57.432  53.004  0.00  0.00    +0.000 A 
ATOM     22  C   UNL     1     -15.265  58.481  51.249  0.00  0.00    +0.000 A 
ATOM     23  C   UNL     1     -14.996  58.295  52.604  0.00  0.00    +0.000 A 
ATOM     24  H   UNL     1     -10.706  54.758  49.788  0.00  0.00    +0.000 HD
ATOM     25  H   UNL     1     -12.107  55.697  53.424  0.00  0.00    +0.000 HD
ENDBRANCH   1  17
BRANCH   3  26
ATOM     26  O   UNL     1     -11.511  52.843  53.197  0.00  0.00    +0.000 OA
ATOM     27  H   UNL     1     -11.778  52.650  54.074  0.00  0.00    +0.000 HD
ENDBRANCH   3  26
BRANCH   5  28
ATOM     28  N   UNL     1      -6.334  54.981  52.461  0.00  0.00    +0.000 N 
ATOM     29  H   UNL     1      -5.822  55.448  53.160  0.00  0.00    +0.000 HD
BRANCH  28  30
ATOM     30  C   UNL     1      -5.784  54.712  51.126  0.00  0.00    +0.000 C 
BRANCH  30  31
ATOM     31  C   UNL     1      -5.001  53.431  51.123  0.00  0.00    +0.000 A 
ATOM     32  S   UNL     1      -5.657  52.025  50.386  0.00  0.00    +0.000 S 
ATOM     33  C   UNL     1      -3.734  53.199  51.618  0.00  0.00    +0.000 A 
ATOM     34  C   UNL     1      -4.249  51.117  50.721  0.00  0.00    +0.000 A 
ATOM     35  C   UNL     1      -3.301  51.861  51.389  0.00  0.00    +0.000 A 
ENDBRANCH  30  31
ENDBRANCH  28  30
ENDBRANCH   5  28
TORSDOF 5
ENDMDL
MODEL 2
REMARK VINA RESULT:      -8.3      3.270      4.912
REMARK  Name = 
REMARK  5 active torsions:
REMARK  status: ('A' for Active; 'I' for Inactive)
REMARK    1  A    between atoms: C_6  and  C_10
REMARK    2  A    between atoms: C_14  and  O_18
REMARK    3  A    between atoms: N_17  and  N_20
REMARK    4  A    between atoms: N_20  and  C_23
REMARK    5  A    between atoms: C_23  and  C_26
REMARK                            x       y       z     vdW  Elec       q    Type
REMARK                         _______ _______ _______ _____ _____    ______ ____
ROOT
ATOM      1  C   UNL     1     -11.494  55.917  48.898  0.00  0.00    +0.000 A 
ATOM      2  C   UNL     1     -10.490  55.268  49.793  0.00  0.00    +0.000 A 
ATOM      3  C   UNL     1     -11.556  55.590  47.597  0.00  0.00    +0.000 A 
ATOM      4  O   UNL     1     -10.469  55.621  50.976  0.00  0.00    +0.000 OA
ATOM      5  N   UNL     1      -9.660  54.284  49.250  0.00  0.00    +0.000 N 
ATOM      6  C   UNL     1     -10.664  54.562  47.040  0.00  0.00    +0.000 A 
ATOM      7  C   UNL     1      -9.725  53.925  47.871  0.00  0.00    +0.000 A 
ATOM      8  C   UNL     1     -10.748  54.196  45.685  0.00  0.00    +0.000 A 
ATOM      9  C   UNL     1      -8.881  52.945  47.322  0.00  0.00    +0.000 A 
ATOM     10  C   UNL     1      -9.917  53.210  45.156  0.00  0.00    +0.000 A 
ATOM     11  C   UNL     1      -8.982  52.586  45.975  0.00  0.00    +0.000 A 
ENDROOT
BRANCH   1  17
ATOM     12  S   UNL     1     -13.566  59.206  49.472  0.00  0.00    +0.000 S 
ATOM     13  O   UNL     1     -14.702  59.307  48.578  0.00  0.00    +0.000 OA
ATOM     14  O   UNL     1     -12.751  60.371  49.757  0.00  0.00    +0.000 OA
ATOM     15  N   UNL     1     -12.590  58.047  48.894  0.00  0.00    +0.000 N 
ATOM     16  C   UNL     1     -14.205  58.671  51.015  0.00  0.00    +0.000 A 
ATOM     17  C   UNL     1     -12.472  56.906  49.504  0.00  0.00    +0.000 C 
ATOM     18  C   UNL     1     -13.910  57.386  51.430  0.00  0.00    +0.000 A 
ATOM     19  C   UNL     1     -14.980  59.542  51.787  0.00  0.00    +0.000 A 
ATOM     20  N   UNL     1     -13.151  56.525  50.642  0.00  0.00    +0.000 N 
ATOM     21  C   UNL     1     -14.467  56.935  52.631  0.00  0.00    +0.000 A 
ATOM     22  C   UNL     1     -15.499  59.093  52.999  0.00  0.00    +0.000 A 
ATOM     23  C   UNL     1     -15.249  57.787  53.417  0.00  0.00    +0.000 A 
ATOM     24  H   UNL     1     -12.080  58.211  48.068  0.00  0.00    +0.000 HD
ATOM     25  H   UNL     1     -13.095  55.581  50.916  0.00  0.00    +0.000 HD
ENDBRANCH   1  17
BRANCH   3  26
ATOM     26  O   UNL     1     -12.450  56.141  46.696  0.00  0.00    +0.000 OA
ATOM     27  H   UNL     1     -13.120  55.608  46.315  0.00  0.00    +0.000 HD
ENDBRANCH   3  26
BRANCH   5  28
ATOM     28  N   UNL     1      -8.633  53.676  50.052  0.00  0.00    +0.000 N 
ATOM     29  H   UNL     1      -8.718  52.768  50.422  0.00  0.00    +0.000 HD
BRANCH  28  30
ATOM     30  C   UNL     1      -7.446  54.513  50.276  0.00  0.00    +0.000 C 
BRANCH  30  31
ATOM     31  C   UNL     1      -7.276  54.811  51.738  0.00  0.00    +0.000 A 
ATOM     32  S   UNL     1      -6.909  53.541  52.835  0.00  0.00    +0.000 S 
ATOM     33  C   UNL     1      -7.333  56.032  52.378  0.00  0.00    +0.000 A 
ATOM     34  C   UNL     1      -6.819  54.623  54.154  0.00  0.00    +0.000 A 
ATOM     35  C   UNL     1      -7.072  55.923  53.774  0.00  0.00    +0.000 A 
ENDBRANCH  30  31
ENDBRANCH  28  30
ENDBRANCH   5  28
TORSDOF 5
ENDMDL
MODEL 3
REMARK VINA RESULT:      -8.3      2.167      2.470
REMARK  Name = 
REMARK  5 active torsions:
REMARK  status: ('A' for Active; 'I' for Inactive)
REMARK    1  A    between atoms: C_6  and  C_10
REMARK    2  A    between atoms: C_14  and  O_18
REMARK    3  A    between atoms: N_17  and  N_20
REMARK    4  A    between atoms: N_20  and  C_23
REMARK    5  A    between atoms: C_23  and  C_26
REMARK                            x       y       z     vdW  Elec       q    Type
REMARK                         _______ _______ _______ _____ _____    ______ ____
ROOT
ATOM      1  C   UNL     1     -11.156  54.617  50.864  0.00  0.00    +0.000 A 
ATOM      2  C   UNL     1      -9.760  55.007  50.508  0.00  0.00    +0.000 A 
ATOM      3  C   UNL     1     -11.425  53.376  51.303  0.00  0.00    +0.000 A 
ATOM      4  O   UNL     1      -9.577  56.156  50.095  0.00  0.00    +0.000 OA
ATOM      5  N   UNL     1      -8.744  54.065  50.691  0.00  0.00    +0.000 N 
ATOM      6  C   UNL     1     -10.344  52.393  51.476  0.00  0.00    +0.000 A 
ATOM      7  C   UNL     1      -9.019  52.748  51.164  0.00  0.00    +0.000 A 
ATOM      8  C   UNL     1     -10.618  51.103  51.963  0.00  0.00    +0.000 A 
ATOM      9  C   UNL     1      -7.999  51.796  51.336  0.00  0.00    +0.000 A 
ATOM     10  C   UNL     1      -9.596  50.174  52.145  0.00  0.00    +0.000 A 
ATOM     11  C   UNL     1      -8.287  50.520  51.829  0.00  0.00    +0.000 A 
ENDROOT
BRANCH   1  17
ATOM     12  S   UNL     1     -13.606  57.300  49.367  0.00  0.00    +0.000 S 
ATOM     13  O   UNL     1     -14.743  56.699  48.699  0.00  0.00    +0.000 OA
ATOM     14  O   UNL     1     -12.937  58.448  48.786  0.00  0.00    +0.000 OA
ATOM     15  N   UNL     1     -12.497  56.137  49.588  0.00  0.00    +0.000 N 
ATOM     16  C   UNL     1     -14.183  57.818  50.940  0.00  0.00    +0.000 A 
ATOM     17  C   UNL     1     -12.248  55.667  50.773  0.00  0.00    +0.000 C 
ATOM     18  C   UNL     1     -13.739  57.131  52.054  0.00  0.00    +0.000 A 
ATOM     19  C   UNL     1     -15.058  58.905  51.037  0.00  0.00    +0.000 A 
ATOM     20  N   UNL     1     -12.881  56.041  51.939  0.00  0.00    +0.000 N 
ATOM     21  C   UNL     1     -14.243  57.503  53.305  0.00  0.00    +0.000 A 
ATOM     22  C   UNL     1     -15.525  59.288  52.292  0.00  0.00    +0.000 A 
ATOM     23  C   UNL     1     -15.123  58.582  53.425  0.00  0.00    +0.000 A 
ATOM     24  H   UNL     1     -12.007  55.782  48.811  0.00  0.00    +0.000 HD
ATOM     25  H   UNL     1     -12.714  55.500  52.746  0.00  0.00    +0.000 HD
ENDBRANCH   1  17
BRANCH   3  26
ATOM     26  O   UNL     1     -12.686  52.928  51.652  0.00  0.00    +0.000 OA
ATOM     27  H   UNL     1     -12.988  53.018  52.534  0.00  0.00    +0.000 HD
ENDBRANCH   3  26
BRANCH   5  28
ATOM     28  N   UNL     1      -7.393  54.368  50.302  0.00  0.00    +0.000 N 
ATOM     29  H   UNL     1      -6.939  53.903  49.563  0.00  0.00    +0.000 HD
BRANCH  28  30
ATOM     30  C   UNL     1      -6.745  55.425  51.090  0.00  0.00    +0.000 C 
BRANCH  30  31
ATOM     31  C   UNL     1      -6.346  54.908  52.442  0.00  0.00    +0.000 A 
ATOM     32  S   UNL     1      -7.244  55.366  53.834  0.00  0.00    +0.000 S 
ATOM     33  C   UNL     1      -5.327  54.035  52.762  0.00  0.00    +0.000 A 
ATOM     34  C   UNL     1      -6.279  54.392  54.853  0.00  0.00    +0.000 A 
ATOM     35  C   UNL     1      -5.287  53.738  54.155  0.00  0.00    +0.000 A 
ENDBRANCH  30  31
ENDBRANCH  28  30
ENDBRANCH   5  28
TORSDOF 5
ENDMDL
MODEL 4
REMARK VINA RESULT:      -8.3      3.131      8.382
REMARK  Name = 
REMARK  5 active torsions:
REMARK  status: ('A' for Active; 'I' for Inactive)
REMARK    1  A    between atoms: C_6  and  C_10
REMARK    2  A    between atoms: C_14  and  O_18
REMARK    3  A    between atoms: N_17  and  N_20
REMARK    4  A    between atoms: N_20  and  C_23
REMARK    5  A    between atoms: C_23  and  C_26
REMARK                            x       y       z     vdW  Elec       q    Type
REMARK                         _______ _______ _______ _____ _____    ______ ____
ROOT
ATOM      1  C   UNL     1      -9.110  54.371  49.891  0.00  0.00    +0.000 A 
ATOM      2  C   UNL     1     -10.159  55.428  50.000  0.00  0.00    +0.000 A 
ATOM      3  C   UNL     1      -9.006  53.629  48.776  0.00  0.00    +0.000 A 
ATOM      4  O   UNL     1     -10.217  56.066  51.056  0.00  0.00    +0.000 OA
ATOM      5  N   UNL     1     -10.988  55.652  48.898  0.00  0.00    +0.000 N 
ATOM      6  C   UNL     1      -9.897  53.870  47.631  0.00  0.00    +0.000 A 
ATOM      7  C   UNL     1     -10.879  54.874  47.707  0.00  0.00    +0.000 A 
ATOM      8  C   UNL     1      -9.771  53.116  46.451  0.00  0.00    +0.000 A 
ATOM      9  C   UNL     1     -11.722  55.091  46.604  0.00  0.00    +0.000 A 
ATOM     10  C   UNL     1     -10.601  53.352  45.358  0.00  0.00    +0.000 A 
ATOM     11  C   UNL     1     -11.578  54.338  45.435  0.00  0.00    +0.000 A 
ENDROOT
BRANCH   1  17
ATOM     12  S   UNL     1      -7.700  54.083  53.548  0.00  0.00    +0.000 S 
ATOM     13  O   UNL     1      -7.932  52.775  54.128  0.00  0.00    +0.000 OA
ATOM     14  O   UNL     1      -7.882  55.282  54.343  0.00  0.00    +0.000 OA
ATOM     15  N   UNL     1      -8.645  54.210  52.236  0.00  0.00    +0.000 N 
ATOM     16  C   UNL     1      -6.026  54.095  53.026  0.00  0.00    +0.000 A 
ATOM     17  C   UNL     1      -8.135  54.196  51.041  0.00  0.00    +0.000 C 
ATOM     18  C   UNL     1      -5.768  54.086  51.668  0.00  0.00    +0.000 A 
ATOM     19  C   UNL     1      -5.001  54.123  53.977  0.00  0.00    +0.000 A 
ATOM     20  N   UNL     1      -6.800  54.040  50.734  0.00  0.00    +0.000 N 
ATOM     21  C   UNL     1      -4.435  54.035  51.248  0.00  0.00    +0.000 A 
ATOM     22  C   UNL     1      -3.677  54.109  53.546  0.00  0.00    +0.000 A 
ATOM     23  C   UNL     1      -3.394  54.056  52.181  0.00  0.00    +0.000 A 
ATOM     24  H   UNL     1      -9.619  54.298  52.347  0.00  0.00    +0.000 HD
ATOM     25  H   UNL     1      -6.560  53.888  49.791  0.00  0.00    +0.000 HD
ENDBRANCH   1  17
BRANCH   3  26
ATOM     26  O   UNL     1      -8.069  52.629  48.588  0.00  0.00    +0.000 OA
ATOM     27  H   UNL     1      -7.567  52.598  47.798  0.00  0.00    +0.000 HD
ENDBRANCH   3  26
BRANCH   5  28
ATOM     28  N   UNL     1     -12.056  56.612  48.976  0.00  0.00    +0.000 N 
ATOM     29  H   UNL     1     -11.973  57.525  48.619  0.00  0.00    +0.000 HD
BRANCH  28  30
ATOM     30  C   UNL     1     -13.280  56.124  49.625  0.00  0.00    +0.000 C 
BRANCH  30  31
ATOM     31  C   UNL     1     -13.643  56.994  50.794  0.00  0.00    +0.000 A 
ATOM     32  S   UNL     1     -14.251  58.579  50.527  0.00  0.00    +0.000 S 
ATOM     33  C   UNL     1     -13.599  56.689  52.138  0.00  0.00    +0.000 A 
ATOM     34  C   UNL     1     -14.462  58.846  52.201  0.00  0.00    +0.000 A 
ATOM     35  C   UNL     1     -14.069  57.760  52.951  0.00  0.00    +0.000 A 
ENDBRANCH  30  31
ENDBRANCH  28  30
ENDBRANCH   5  28
TORSDOF 5
ENDMDL
MODEL 5
REMARK VINA RESULT:      -8.2      3.787      5.244
REMARK  Name = 
REMARK  5 active torsions:
REMARK  status: ('A' for Active; 'I' for Inactive)
REMARK    1  A    between atoms: C_6  and  C_10
REMARK    2  A    between atoms: C_14  and  O_18
REMARK    3  A    between atoms: N_17  and  N_20
REMARK    4  A    between atoms: N_20  and  C_23
REMARK    5  A    between atoms: C_23  and  C_26
REMARK                            x       y       z     vdW  Elec       q    Type
REMARK                         _______ _______ _______ _____ _____    ______ ____
ROOT
ATOM      1  C   UNL     1     -10.668  55.566  48.076  0.00  0.00    +0.000 A 
ATOM      2  C   UNL     1      -9.200  55.627  48.341  0.00  0.00    +0.000 A 
ATOM      3  C   UNL     1     -11.135  54.949  46.978  0.00  0.00    +0.000 A 
ATOM      4  O   UNL     1      -8.829  56.222  49.358  0.00  0.00    +0.000 OA
ATOM      5  N   UNL     1      -8.340  54.986  47.446  0.00  0.00    +0.000 N 
ATOM      6  C   UNL     1     -10.214  54.292  46.039  0.00  0.00    +0.000 A 
ATOM      7  C   UNL     1      -8.828  54.322  46.282  0.00  0.00    +0.000 A 
ATOM      8  C   UNL     1     -10.702  53.620  44.905  0.00  0.00    +0.000 A 
ATOM      9  C   UNL     1      -7.962  53.688  45.375  0.00  0.00    +0.000 A 
ATOM     10  C   UNL     1      -9.834  52.981  44.022  0.00  0.00    +0.000 A 
ATOM     11  C   UNL     1      -8.464  53.017  44.256  0.00  0.00    +0.000 A 
ENDROOT
BRANCH   1  17
ATOM     12  S   UNL     1     -12.993  55.902  51.227  0.00  0.00    +0.000 S 
ATOM     13  O   UNL     1     -12.242  56.122  52.447  0.00  0.00    +0.000 OA
ATOM     14  O   UNL     1     -14.129  55.002  51.216  0.00  0.00    +0.000 OA
ATOM     15  N   UNL     1     -11.948  55.396  50.094  0.00  0.00    +0.000 N 
ATOM     16  C   UNL     1     -13.611  57.471  50.746  0.00  0.00    +0.000 A 
ATOM     17  C   UNL     1     -11.615  56.164  49.100  0.00  0.00    +0.000 C 
ATOM     18  C   UNL     1     -13.071  58.066  49.621  0.00  0.00    +0.000 A 
ATOM     19  C   UNL     1     -14.628  58.076  51.490  0.00  0.00    +0.000 A 
ATOM     20  N   UNL     1     -12.046  57.458  48.900  0.00  0.00    +0.000 N 
ATOM     21  C   UNL     1     -13.518  59.344  49.268  0.00  0.00    +0.000 A 
ATOM     22  C   UNL     1     -15.091  59.333  51.108  0.00  0.00    +0.000 A 
ATOM     23  C   UNL     1     -14.531  59.970  50.001  0.00  0.00    +0.000 A 
ATOM     24  H   UNL     1     -11.561  54.493  50.161  0.00  0.00    +0.000 HD
ATOM     25  H   UNL     1     -11.600  57.988  48.199  0.00  0.00    +0.000 HD
ENDBRANCH   1  17
BRANCH   3  26
ATOM     26  O   UNL     1     -12.476  54.847  46.651  0.00  0.00    +0.000 OA
ATOM     27  H   UNL     1     -12.887  54.006  46.618  0.00  0.00    +0.000 HD
ENDBRANCH   3  26
BRANCH   5  28
ATOM     28  N   UNL     1      -6.915  55.070  47.620  0.00  0.00    +0.000 N 
ATOM     29  H   UNL     1      -6.403  55.883  47.406  0.00  0.00    +0.000 HD
BRANCH  28  30
ATOM     30  C   UNL     1      -6.282  53.852  48.144  0.00  0.00    +0.000 C 
BRANCH  30  31
ATOM     31  C   UNL     1      -6.259  53.870  49.645  0.00  0.00    +0.000 A 
ATOM     32  S   UNL     1      -7.382  52.919  50.532  0.00  0.00    +0.000 S 
ATOM     33  C   UNL     1      -5.397  54.546  50.483  0.00  0.00    +0.000 A 
ATOM     34  C   UNL     1      -6.708  53.403  52.024  0.00  0.00    +0.000 A 
ATOM     35  C   UNL     1      -5.657  54.279  51.857  0.00  0.00    +0.000 A 
ENDBRANCH  30  31
ENDBRANCH  28  30
ENDBRANCH   5  28
TORSDOF 5
ENDMDL
MODEL 6
REMARK VINA RESULT:      -8.1      3.637      7.399
REMARK  Name = 
REMARK  5 active torsions:
REMARK  status: ('A' for Active; 'I' for Inactive)
REMARK    1  A    between atoms: C_6  and  C_10
REMARK    2  A    between atoms: C_14  and  O_18
REMARK    3  A    between atoms: N_17  and  N_20
REMARK    4  A    between atoms: N_20  and  C_23
REMARK    5  A    between atoms: C_23  and  C_26
REMARK                            x       y       z     vdW  Elec       q    Type
REMARK                         _______ _______ _______ _____ _____    ______ ____
ROOT
ATOM      1  C   UNL     1     -10.387  55.142  50.903  0.00  0.00    +0.000 A 
ATOM      2  C   UNL     1     -10.062  55.004  49.453  0.00  0.00    +0.000 A 
ATOM      3  C   UNL     1     -11.550  55.695  51.289  0.00  0.00    +0.000 A 
ATOM      4  O   UNL     1      -8.972  54.504  49.158  0.00  0.00    +0.000 OA
ATOM      5  N   UNL     1     -11.016  55.418  48.519  0.00  0.00    +0.000 N 
ATOM      6  C   UNL     1     -12.536  56.138  50.292  0.00  0.00    +0.000 A 
ATOM      7  C   UNL     1     -12.255  55.998  48.920  0.00  0.00    +0.000 A 
ATOM      8  C   UNL     1     -13.765  56.689  50.692  0.00  0.00    +0.000 A 
ATOM      9  C   UNL     1     -13.209  56.426  47.981  0.00  0.00    +0.000 A 
ATOM     10  C   UNL     1     -14.710  57.094  49.752  0.00  0.00    +0.000 A 
ATOM     11  C   UNL     1     -14.430  56.965  48.396  0.00  0.00    +0.000 A 
ENDROOT
BRANCH   1  17
ATOM     12  S   UNL     1      -7.092  54.651  52.986  0.00  0.00    +0.000 S 
ATOM     13  O   UNL     1      -6.950  55.639  54.037  0.00  0.00    +0.000 OA
ATOM     14  O   UNL     1      -5.946  54.259  52.188  0.00  0.00    +0.000 OA
ATOM     15  N   UNL     1      -8.245  55.177  51.974  0.00  0.00    +0.000 N 
ATOM     16  C   UNL     1      -7.665  53.189  53.765  0.00  0.00    +0.000 A 
ATOM     17  C   UNL     1      -9.405  54.595  51.922  0.00  0.00    +0.000 C 
ATOM     18  C   UNL     1      -8.966  52.789  53.520  0.00  0.00    +0.000 A 
ATOM     19  C   UNL     1      -6.808  52.461  54.596  0.00  0.00    +0.000 A 
ATOM     20  N   UNL     1      -9.812  53.534  52.703  0.00  0.00    +0.000 N 
ATOM     21  C   UNL     1      -9.447  51.657  54.185  0.00  0.00    +0.000 A 
ATOM     22  C   UNL     1      -7.288  51.314  55.225  0.00  0.00    +0.000 A 
ATOM     23  C   UNL     1      -8.609  50.917  55.026  0.00  0.00    +0.000 A 
ATOM     24  H   UNL     1      -8.062  55.949  51.390  0.00  0.00    +0.000 HD
ATOM     25  H   UNL     1     -10.765  53.286  52.680  0.00  0.00    +0.000 HD
ENDBRANCH   1  17
BRANCH   3  26
ATOM     26  O   UNL     1     -11.933  55.865  52.607  0.00  0.00    +0.000 OA
ATOM     27  H   UNL     1     -12.839  55.965  52.823  0.00  0.00    +0.000 HD
ENDBRANCH   3  26
BRANCH   5  28
ATOM     28  N   UNL     1     -10.725  55.367  47.111  0.00  0.00    +0.000 N 
ATOM     29  H   UNL     1     -10.131  56.016  46.670  0.00  0.00    +0.000 HD
BRANCH  28  30
ATOM     30  C   UNL     1     -11.379  54.272  46.383  0.00  0.00    +0.000 C 
BRANCH  30  31
ATOM     31  C   UNL     1     -10.477  53.734  45.311  0.00  0.00    +0.000 A 
ATOM     32  S   UNL     1      -8.781  53.991  45.408  0.00  0.00    +0.000 S 
ATOM     33  C   UNL     1     -10.812  52.982  44.203  0.00  0.00    +0.000 A 
ATOM     34  C   UNL     1      -8.501  53.092  43.983  0.00  0.00    +0.000 A 
ATOM     35  C   UNL     1      -9.671  52.614  43.435  0.00  0.00    +0.000 A 
ENDBRANCH  30  31
ENDBRANCH  28  30
ENDBRANCH   5  28
TORSDOF 5
ENDMDL
MODEL 7
REMARK VINA RESULT:      -8.0      2.811      8.288
REMARK  Name = 
REMARK  5 active torsions:
REMARK  status: ('A' for Active; 'I' for Inactive)
REMARK    1  A    between atoms: C_6  and  C_10
REMARK    2  A    between atoms: C_14  and  O_18
REMARK    3  A    between atoms: N_17  and  N_20
REMARK    4  A    between atoms: N_20  and  C_23
REMARK    5  A    between atoms: C_23  and  C_26
REMARK                            x       y       z     vdW  Elec       q    Type
REMARK                         _______ _______ _______ _____ _____    ______ ____
ROOT
ATOM      1  C   UNL     1      -9.777  53.985  50.628  0.00  0.00    +0.000 A 
ATOM      2  C   UNL     1     -11.071  54.690  50.869  0.00  0.00    +0.000 A 
ATOM      3  C   UNL     1      -9.367  53.728  49.374  0.00  0.00    +0.000 A 
ATOM      4  O   UNL     1     -11.404  54.884  52.042  0.00  0.00    +0.000 OA
ATOM      5  N   UNL     1     -11.810  55.112  49.761  0.00  0.00    +0.000 N 
ATOM      6  C   UNL     1     -10.165  54.168  48.220  0.00  0.00    +0.000 A 
ATOM      7  C   UNL     1     -11.378  54.850  48.427  0.00  0.00    +0.000 A 
ATOM      8  C   UNL     1      -9.723  53.927  46.908  0.00  0.00    +0.000 A 
ATOM      9  C   UNL     1     -12.127  55.264  47.313  0.00  0.00    +0.000 A 
ATOM     10  C   UNL     1     -10.467  54.357  45.811  0.00  0.00    +0.000 A 
ATOM     11  C   UNL     1     -11.670  55.023  46.014  0.00  0.00    +0.000 A 
ENDROOT
BRANCH   1  17
ATOM     12  S   UNL     1      -6.713  53.836  53.084  0.00  0.00    +0.000 S 
ATOM     13  O   UNL     1      -6.637  55.000  53.943  0.00  0.00    +0.000 OA
ATOM     14  O   UNL     1      -5.512  53.281  52.491  0.00  0.00    +0.000 OA
ATOM     15  N   UNL     1      -7.746  54.182  51.882  0.00  0.00    +0.000 N 
ATOM     16  C   UNL     1      -7.410  52.556  54.059  0.00  0.00    +0.000 A 
ATOM     17  C   UNL     1      -8.916  53.621  51.823  0.00  0.00    +0.000 C 
ATOM     18  C   UNL     1      -8.695  52.140  53.763  0.00  0.00    +0.000 A 
ATOM     19  C   UNL     1      -6.663  51.982  55.092  0.00  0.00    +0.000 A 
ATOM     20  N   UNL     1      -9.433  52.733  52.742  0.00  0.00    +0.000 N 
ATOM     21  C   UNL     1      -9.277  51.161  54.575  0.00  0.00    +0.000 A 
ATOM     22  C   UNL     1      -7.240  50.982  55.871  0.00  0.00    +0.000 A 
ATOM     23  C   UNL     1      -8.550  50.577  55.618  0.00  0.00    +0.000 A 
ATOM     24  H   UNL     1      -7.481  54.828  51.187  0.00  0.00    +0.000 HD
ATOM     25  H   UNL     1     -10.388  52.501  52.671  0.00  0.00    +0.000 HD
ENDBRANCH   1  17
BRANCH   3  26
ATOM     26  O   UNL     1      -8.186  53.080  49.058  0.00  0.00    +0.000 OA
ATOM     27  H   UNL     1      -7.430  53.191  49.600  0.00  0.00    +0.000 HD
ENDBRANCH   3  26
BRANCH   5  28
ATOM     28  N   UNL     1     -13.094  55.736  49.938  0.00  0.00    +0.000 N 
ATOM     29  H   UNL     1     -13.927  55.218  50.018  0.00  0.00    +0.000 HD
BRANCH  28  30
ATOM     30  C   UNL     1     -13.066  57.204  49.992  0.00  0.00    +0.000 C 
BRANCH  30  31
ATOM     31  C   UNL     1     -13.852  57.706  51.168  0.00  0.00    +0.000 A 
ATOM     32  S   UNL     1     -14.637  59.232  51.086  0.00  0.00    +0.000 S 
ATOM     33  C   UNL     1     -14.092  57.078  52.372  0.00  0.00    +0.000 A 
ATOM     34  C   UNL     1     -15.300  59.044  52.649  0.00  0.00    +0.000 A 
ATOM     35  C   UNL     1     -14.926  57.851  53.229  0.00  0.00    +0.000 A 
ENDBRANCH  30  31
ENDBRANCH  28  30
ENDBRANCH   5  28
TORSDOF 5
ENDMDL
MODEL 8
REMARK VINA RESULT:      -8.0      4.519      7.361
REMARK  Name = 
REMARK  5 active torsions:
REMARK  status: ('A' for Active; 'I' for Inactive)
REMARK    1  A    between atoms: C_6  and  C_10
REMARK    2  A    between atoms: C_14  and  O_18
REMARK    3  A    between atoms: N_17  and  N_20
REMARK    4  A    between atoms: N_20  and  C_23
REMARK    5  A    between atoms: C_23  and  C_26
REMARK                            x       y       z     vdW  Elec       q    Type
REMARK                         _______ _______ _______ _____ _____    ______ ____
ROOT
ATOM      1  C   UNL     1     -11.266  54.713  48.351  0.00  0.00    +0.000 A 
ATOM      2  C   UNL     1     -11.084  54.213  49.746  0.00  0.00    +0.000 A 
ATOM      3  C   UNL     1     -12.124  55.716  48.096  0.00  0.00    +0.000 A 
ATOM      4  O   UNL     1     -10.295  53.278  49.918  0.00  0.00    +0.000 OA
ATOM      5  N   UNL     1     -11.790  54.846  50.773  0.00  0.00    +0.000 N 
ATOM      6  C   UNL     1     -12.868  56.361  49.187  0.00  0.00    +0.000 A 
ATOM      7  C   UNL     1     -12.696  55.916  50.511  0.00  0.00    +0.000 A 
ATOM      8  C   UNL     1     -13.744  57.430  48.927  0.00  0.00    +0.000 A 
ATOM      9  C   UNL     1     -13.415  56.544  51.542  0.00  0.00    +0.000 A 
ATOM     10  C   UNL     1     -14.438  58.056  49.959  0.00  0.00    +0.000 A 
ATOM     11  C   UNL     1     -14.275  57.611  51.267  0.00  0.00    +0.000 A 
ENDROOT
BRANCH   1  17
ATOM     12  S   UNL     1      -8.186  53.936  46.038  0.00  0.00    +0.000 S 
ATOM     13  O   UNL     1      -7.251  53.015  46.654  0.00  0.00    +0.000 OA
ATOM     14  O   UNL     1      -7.704  55.085  45.297  0.00  0.00    +0.000 OA
ATOM     15  N   UNL     1      -9.178  54.477  47.202  0.00  0.00    +0.000 N 
ATOM     16  C   UNL     1      -9.130  52.987  44.905  0.00  0.00    +0.000 A 
ATOM     17  C   UNL     1     -10.422  54.105  47.247  0.00  0.00    +0.000 C 
ATOM     18  C   UNL     1     -10.458  52.748  45.206  0.00  0.00    +0.000 A 
ATOM     19  C   UNL     1      -8.536  52.507  43.735  0.00  0.00    +0.000 A 
ATOM     20  N   UNL     1     -11.031  53.218  46.385  0.00  0.00    +0.000 N 
ATOM     21  C   UNL     1     -11.200  51.942  44.336  0.00  0.00    +0.000 A 
ATOM     22  C   UNL     1      -9.294  51.736  42.857  0.00  0.00    +0.000 A 
ATOM     23  C   UNL     1     -10.624  51.446  43.161  0.00  0.00    +0.000 A 
ATOM     24  H   UNL     1      -8.831  55.096  47.885  0.00  0.00    +0.000 HD
ATOM     25  H   UNL     1     -11.933  52.897  46.618  0.00  0.00    +0.000 HD
ENDBRANCH   1  17
BRANCH   3  26
ATOM     26  O   UNL     1     -12.357  56.241  46.837  0.00  0.00    +0.000 OA
ATOM     27  H   UNL     1     -11.741  56.094  46.146  0.00  0.00    +0.000 HD
ENDBRANCH   3  26
BRANCH   5  28
ATOM     28  N   UNL     1     -11.701  54.359  52.123  0.00  0.00    +0.000 N 
ATOM     29  H   UNL     1     -12.397  53.796  52.530  0.00  0.00    +0.000 HD
BRANCH  28  30
ATOM     30  C   UNL     1     -10.490  54.767  52.848  0.00  0.00    +0.000 C 
BRANCH  30  31
ATOM     31  C   UNL     1      -9.761  53.567  53.380  0.00  0.00    +0.000 A 
ATOM     32  S   UNL     1      -8.044  53.518  53.339  0.00  0.00    +0.000 S 
ATOM     33  C   UNL     1     -10.286  52.436  53.971  0.00  0.00    +0.000 A 
ATOM     34  C   UNL     1      -8.008  51.997  54.117  0.00  0.00    +0.000 A 
ATOM     35  C   UNL     1      -9.273  51.528  54.395  0.00  0.00    +0.000 A 
ENDBRANCH  30  31
ENDBRANCH  28  30
ENDBRANCH   5  28
TORSDOF 5
ENDMDL
MODEL 9
REMARK VINA RESULT:      -7.9      3.760      7.446
REMARK  Name = 
REMARK  5 active torsions:
REMARK  status: ('A' for Active; 'I' for Inactive)
REMARK    1  A    between atoms: C_6  and  C_10
REMARK    2  A    between atoms: C_14  and  O_18
REMARK    3  A    between atoms: N_17  and  N_20
REMARK    4  A    between atoms: N_20  and  C_23
REMARK    5  A    between atoms: C_23  and  C_26
REMARK                            x       y       z     vdW  Elec       q    Type
REMARK                         _______ _______ _______ _____ _____    ______ ____
ROOT
ATOM      1  C   UNL     1     -10.518  54.907  50.603  0.00  0.00    +0.000 A 
ATOM      2  C   UNL     1     -10.203  54.848  49.145  0.00  0.00    +0.000 A 
ATOM      3  C   UNL     1     -11.618  55.546  51.035  0.00  0.00    +0.000 A 
ATOM      4  O   UNL     1      -9.170  54.260  48.809  0.00  0.00    +0.000 OA
ATOM      5  N   UNL     1     -11.104  55.431  48.250  0.00  0.00    +0.000 N 
ATOM      6  C   UNL     1     -12.548  56.166  50.079  0.00  0.00    +0.000 A 
ATOM      7  C   UNL     1     -12.278  56.105  48.700  0.00  0.00    +0.000 A 
ATOM      8  C   UNL     1     -13.715  56.810  50.526  0.00  0.00    +0.000 A 
ATOM      9  C   UNL     1     -13.177  56.702  47.801  0.00  0.00    +0.000 A 
ATOM     10  C   UNL     1     -14.608  57.383  49.624  0.00  0.00    +0.000 A 
ATOM     11  C   UNL     1     -14.337  57.331  48.261  0.00  0.00    +0.000 A 
ENDROOT
BRANCH   1  17
ATOM     12  S   UNL     1      -9.158  52.184  53.089  0.00  0.00    +0.000 S 
ATOM     13  O   UNL     1      -8.611  51.032  52.401  0.00  0.00    +0.000 OA
ATOM     14  O   UNL     1      -9.975  52.011  54.275  0.00  0.00    +0.000 OA
ATOM     15  N   UNL     1     -10.023  53.032  52.010  0.00  0.00    +0.000 N 
ATOM     16  C   UNL     1      -7.784  53.155  53.582  0.00  0.00    +0.000 A 
ATOM     17  C   UNL     1      -9.603  54.182  51.572  0.00  0.00    +0.000 C 
ATOM     18  C   UNL     1      -7.578  54.363  52.941  0.00  0.00    +0.000 A 
ATOM     19  C   UNL     1      -6.944  52.704  54.605  0.00  0.00    +0.000 A 
ATOM     20  N   UNL     1      -8.414  54.790  51.913  0.00  0.00    +0.000 N 
ATOM     21  C   UNL     1      -6.450  55.113  53.289  0.00  0.00    +0.000 A 
ATOM     22  C   UNL     1      -5.844  53.477  54.968  0.00  0.00    +0.000 A 
ATOM     23  C   UNL     1      -5.593  54.678  54.305  0.00  0.00    +0.000 A 
ATOM     24  H   UNL     1     -10.878  52.670  51.682  0.00  0.00    +0.000 HD
ATOM     25  H   UNL     1      -8.138  55.581  51.395  0.00  0.00    +0.000 HD
ENDBRANCH   1  17
BRANCH   3  26
ATOM     26  O   UNL     1     -11.987  55.652  52.364  0.00  0.00    +0.000 OA
ATOM     27  H   UNL     1     -11.760  56.418  52.854  0.00  0.00    +0.000 HD
ENDBRANCH   3  26
BRANCH   5  28
ATOM     28  N   UNL     1     -10.814  55.459  46.842  0.00  0.00    +0.000 N 
ATOM     29  H   UNL     1     -10.189  56.107  46.443  0.00  0.00    +0.000 HD
BRANCH  28  30
ATOM     30  C   UNL     1     -11.519  54.447  46.044  0.00  0.00    +0.000 C 
BRANCH  30  31
ATOM     31  C   UNL     1     -10.561  53.713  45.151  0.00  0.00    +0.000 A 
ATOM     32  S   UNL     1      -8.868  53.929  45.348  0.00  0.00    +0.000 S 
ATOM     33  C   UNL     1     -10.842  52.802  44.154  0.00  0.00    +0.000 A 
ATOM     34  C   UNL     1      -8.518  52.802  44.113  0.00  0.00    +0.000 A 
ATOM     35  C   UNL     1      -9.662  52.277  43.553  0.00  0.00    +0.000 A 
ENDBRANCH  30  31
ENDBRANCH  28  30
ENDBRANCH   5  28
TORSDOF 5
ENDMDL
