MODEL 1
REMARK VINA RESULT:      -8.3      0.000      0.000
REMARK  Name = 
REMARK  5 active torsions:
REMARK  status: ('A' for Active; 'I' for Inactive)
REMARK    1  A    between atoms: C_6  and  C_10
REMARK    2  A    between atoms: C_14  and  O_18
REMARK    3  A    between atoms: N_17  and  N_20
REMARK    4  A    between atoms: N_20  and  C_23
REMARK    5  A    between atoms: C_23  and  C_26
REMARK                            x       y       z     vdW  Elec       q    Type
REMARK                         _______ _______ _______ _____ _____    ______ ____
ROOT
ATOM      1  C   UNL     1     -11.344  53.901  51.563  0.00  0.00    +0.000 A 
ATOM      2  C   UNL     1     -10.382  54.067  52.693  0.00  0.00    +0.000 A 
ATOM      3  C   UNL     1     -11.492  52.707  50.964  0.00  0.00    +0.000 A 
ATOM      4  O   UNL     1     -10.264  55.199  53.174  0.00  0.00    +0.000 OA
ATOM      5  N   UNL     1      -9.702  52.935  53.152  0.00  0.00    +0.000 N 
ATOM      6  C   UNL     1     -10.742  51.535  51.439  0.00  0.00    +0.000 A 
ATOM      7  C   UNL     1      -9.857  51.663  52.526  0.00  0.00    +0.000 A 
ATOM      8  C   UNL     1     -10.915  50.280  50.830  0.00  0.00    +0.000 A 
ATOM      9  C   UNL     1      -9.155  50.530  52.969  0.00  0.00    +0.000 A 
ATOM     10  C   UNL     1     -10.227  49.161  51.291  0.00  0.00    +0.000 A 
ATOM     11  C   UNL     1      -9.344  49.286  52.358  0.00  0.00    +0.000 A 
ENDROOT
BRANCH   1  17
ATOM     12  S   UNL     1     -12.863  56.781  49.380  0.00  0.00    +0.000 S 
ATOM     13  O   UNL     1     -13.892  56.309  48.471  0.00  0.00    +0.000 OA
ATOM     14  O   UNL     1     -11.893  57.761  48.937  0.00  0.00    +0.000 OA
ATOM     15  N   UNL     1     -12.057  55.488  49.923  0.00  0.00    +0.000 N 
ATOM     16  C   UNL     1     -13.714  57.519  50.728  0.00  0.00    +0.000 A 
ATOM     17  C   UNL     1     -12.187  55.089  51.152  0.00  0.00    +0.000 C 
ATOM     18  C   UNL     1     -13.679  56.866  51.947  0.00  0.00    +0.000 A 
ATOM     19  C   UNL     1     -14.386  58.734  50.553  0.00  0.00    +0.000 A 
ATOM     20  N   UNL     1     -13.015  55.653  52.101  0.00  0.00    +0.000 N 
ATOM     21  C   UNL     1     -14.407  57.413  53.009  0.00  0.00    +0.000 A 
ATOM     22  C   UNL     1     -15.073  59.286  51.631  0.00  0.00    +0.000 A 
ATOM     23  C   UNL     1     -15.093  58.623  52.854  0.00  0.00    +0.000 A 
ATOM     24  H   UNL     1     -11.461  54.997  49.313  0.00  0.00    +0.000 HD
ATOM     25  H   UNL     1     -13.145  55.163  52.945  0.00  0.00    +0.000 HD
ENDBRANCH   1  17
BRANCH   3  26
ATOM     26  O   UNL     1     -12.354  52.465  49.911  0.00  0.00    +0.000 OA
ATOM     27  H   UNL     1     -13.255  52.271  50.077  0.00  0.00    +0.000 HD
ENDBRANCH   3  26
BRANCH   5  28
ATOM     28  N   UNL     1      -8.753  53.051  54.234  0.00  0.00    +0.000 N 
ATOM     29  H   UNL     1      -8.989  52.890  55.176  0.00  0.00    +0.000 HD
BRANCH  28  30
ATOM     30  C   UNL     1      -7.403  53.431  53.800  0.00  0.00    +0.000 C 
BRANCH  30  31
ATOM     31  C   UNL     1      -6.997  54.728  54.432  0.00  0.00    +0.000 C 
ATOM     32  C   UNL     1      -6.733  55.975  53.630  0.00  0.00    +0.000 C 
ATOM     33  C   UNL     1      -5.582  55.221  54.236  0.00  0.00    +0.000 C 
ENDBRANCH  30  31
ENDBRANCH  28  30
ENDBRANCH   5  28
TORSDOF 5
ENDMDL
MODEL 2
REMARK VINA RESULT:      -8.2      2.198      2.808
REMARK  Name = 
REMARK  5 active torsions:
REMARK  status: ('A' for Active; 'I' for Inactive)
REMARK    1  A    between atoms: C_6  and  C_10
REMARK    2  A    between atoms: C_14  and  O_18
REMARK    3  A    between atoms: N_17  and  N_20
REMARK    4  A    between atoms: N_20  and  C_23
REMARK    5  A    between atoms: C_23  and  C_26
REMARK                            x       y       z     vdW  Elec       q    Type
REMARK                         _______ _______ _______ _____ _____    ______ ____
ROOT
ATOM      1  C   UNL     1     -10.121  54.548  52.195  0.00  0.00    +0.000 A 
ATOM      2  C   UNL     1      -8.755  55.108  51.973  0.00  0.00    +0.000 A 
ATOM      3  C   UNL     1     -10.293  53.454  52.955  0.00  0.00    +0.000 A 
ATOM      4  O   UNL     1      -8.660  56.092  51.232  0.00  0.00    +0.000 OA
ATOM      5  N   UNL     1      -7.680  54.508  52.635  0.00  0.00    +0.000 N 
ATOM      6  C   UNL     1      -9.146  52.815  53.617  0.00  0.00    +0.000 A 
ATOM      7  C   UNL     1      -7.855  53.349  53.449  0.00  0.00    +0.000 A 
ATOM      8  C   UNL     1      -9.329  51.686  54.434  0.00  0.00    +0.000 A 
ATOM      9  C   UNL     1      -6.773  52.728  54.094  0.00  0.00    +0.000 A 
ATOM     10  C   UNL     1      -8.250  51.091  55.082  0.00  0.00    +0.000 A 
ATOM     11  C   UNL     1      -6.971  51.610  54.911  0.00  0.00    +0.000 A 
ENDROOT
BRANCH   1  17
ATOM     12  S   UNL     1     -12.575  56.062  49.538  0.00  0.00    +0.000 S 
ATOM     13  O   UNL     1     -13.478  55.070  48.985  0.00  0.00    +0.000 OA
ATOM     14  O   UNL     1     -11.973  57.059  48.678  0.00  0.00    +0.000 OA
ATOM     15  N   UNL     1     -11.386  55.272  50.299  0.00  0.00    +0.000 N 
ATOM     16  C   UNL     1     -13.510  56.951  50.729  0.00  0.00    +0.000 A 
ATOM     17  C   UNL     1     -11.306  55.276  51.596  0.00  0.00    +0.000 C 
ATOM     18  C   UNL     1     -13.198  56.764  52.064  0.00  0.00    +0.000 A 
ATOM     19  C   UNL     1     -14.522  57.825  50.317  0.00  0.00    +0.000 A 
ATOM     20  N   UNL     1     -12.195  55.883  52.458  0.00  0.00    +0.000 N 
ATOM     21  C   UNL     1     -13.979  57.419  53.023  0.00  0.00    +0.000 A 
ATOM     22  C   UNL     1     -15.265  58.501  51.282  0.00  0.00    +0.000 A 
ATOM     23  C   UNL     1     -15.002  58.291  52.633  0.00  0.00    +0.000 A 
ATOM     24  H   UNL     1     -10.715  54.781  49.772  0.00  0.00    +0.000 HD
ATOM     25  H   UNL     1     -12.115  55.680  53.418  0.00  0.00    +0.000 HD
ENDBRANCH   1  17
BRANCH   3  26
ATOM     26  O   UNL     1     -11.520  52.867  53.210  0.00  0.00    +0.000 OA
ATOM     27  H   UNL     1     -11.933  52.985  54.042  0.00  0.00    +0.000 HD
ENDBRANCH   3  26
BRANCH   5  28
ATOM     28  N   UNL     1      -6.340  55.007  52.440  0.00  0.00    +0.000 N 
ATOM     29  H   UNL     1      -5.972  55.769  52.944  0.00  0.00    +0.000 HD
BRANCH  28  30
ATOM     30  C   UNL     1      -5.576  54.275  51.423  0.00  0.00    +0.000 C 
BRANCH  30  31
ATOM     31  C   UNL     1      -5.559  55.038  50.133  0.00  0.00    +0.000 C 
ATOM     32  C   UNL     1      -6.313  54.583  48.911  0.00  0.00    +0.000 C 
ATOM     33  C   UNL     1      -4.816  54.456  48.954  0.00  0.00    +0.000 C 
ENDBRANCH  30  31
ENDBRANCH  28  30
ENDBRANCH   5  28
TORSDOF 5
ENDMDL
MODEL 3
REMARK VINA RESULT:      -8.1      2.921      7.348
REMARK  Name = 
REMARK  5 active torsions:
REMARK  status: ('A' for Active; 'I' for Inactive)
REMARK    1  A    between atoms: C_6  and  C_10
REMARK    2  A    between atoms: C_14  and  O_18
REMARK    3  A    between atoms: N_17  and  N_20
REMARK    4  A    between atoms: N_20  and  C_23
REMARK    5  A    between atoms: C_23  and  C_26
REMARK                            x       y       z     vdW  Elec       q    Type
REMARK                         _______ _______ _______ _____ _____    ______ ____
ROOT
ATOM      1  C   UNL     1     -10.469  54.908  50.509  0.00  0.00    +0.000 A 
ATOM      2  C   UNL     1     -11.608  55.079  51.460  0.00  0.00    +0.000 A 
ATOM      3  C   UNL     1     -10.604  55.252  49.217  0.00  0.00    +0.000 A 
ATOM      4  O   UNL     1     -11.432  54.708  52.625  0.00  0.00    +0.000 OA
ATOM      5  N   UNL     1     -12.782  55.671  50.985  0.00  0.00    +0.000 N 
ATOM      6  C   UNL     1     -11.859  55.841  48.727  0.00  0.00    +0.000 A 
ATOM      7  C   UNL     1     -12.931  56.043  49.616  0.00  0.00    +0.000 A 
ATOM      8  C   UNL     1     -11.991  56.224  47.381  0.00  0.00    +0.000 A 
ATOM      9  C   UNL     1     -14.119  56.613  49.130  0.00  0.00    +0.000 A 
ATOM     10  C   UNL     1     -13.168  56.805  46.916  0.00  0.00    +0.000 A 
ATOM     11  C   UNL     1     -14.234  56.997  47.790  0.00  0.00    +0.000 A 
ENDROOT
BRANCH   1  17
ATOM     12  S   UNL     1      -7.250  52.713  50.943  0.00  0.00    +0.000 S 
ATOM     13  O   UNL     1      -6.215  53.045  49.981  0.00  0.00    +0.000 OA
ATOM     14  O   UNL     1      -7.519  51.330  51.277  0.00  0.00    +0.000 OA
ATOM     15  N   UNL     1      -8.630  53.382  50.429  0.00  0.00    +0.000 N 
ATOM     16  C   UNL     1      -6.776  53.489  52.445  0.00  0.00    +0.000 A 
ATOM     17  C   UNL     1      -9.149  54.400  51.047  0.00  0.00    +0.000 C 
ATOM     18  C   UNL     1      -7.526  54.568  52.878  0.00  0.00    +0.000 A 
ATOM     19  C   UNL     1      -5.681  53.005  53.170  0.00  0.00    +0.000 A 
ATOM     20  N   UNL     1      -8.606  55.043  52.141  0.00  0.00    +0.000 N 
ATOM     21  C   UNL     1      -7.117  55.232  54.040  0.00  0.00    +0.000 A 
ATOM     22  C   UNL     1      -5.309  53.653  54.345  0.00  0.00    +0.000 A 
ATOM     23  C   UNL     1      -6.019  54.771  54.775  0.00  0.00    +0.000 A 
ATOM     24  H   UNL     1      -9.082  53.014  49.636  0.00  0.00    +0.000 HD
ATOM     25  H   UNL     1      -9.010  55.897  52.418  0.00  0.00    +0.000 HD
ENDBRANCH   1  17
BRANCH   3  26
ATOM     26  O   UNL     1      -9.605  55.124  48.269  0.00  0.00    +0.000 OA
ATOM     27  H   UNL     1      -8.974  54.436  48.342  0.00  0.00    +0.000 HD
ENDBRANCH   3  26
BRANCH   5  28
ATOM     28  N   UNL     1     -13.912  55.843  51.865  0.00  0.00    +0.000 N 
ATOM     29  H   UNL     1     -14.637  55.181  51.946  0.00  0.00    +0.000 HD
BRANCH  28  30
ATOM     30  C   UNL     1     -13.884  57.097  52.629  0.00  0.00    +0.000 C 
BRANCH  30  31
ATOM     31  C   UNL     1     -15.104  57.915  52.335  0.00  0.00    +0.000 C 
ATOM     32  C   UNL     1     -15.046  59.218  51.581  0.00  0.00    +0.000 C 
ATOM     33  C   UNL     1     -15.295  59.225  53.064  0.00  0.00    +0.000 C 
ENDBRANCH  30  31
ENDBRANCH  28  30
ENDBRANCH   5  28
TORSDOF 5
ENDMDL
MODEL 4
REMARK VINA RESULT:      -8.0      3.281      7.648
REMARK  Name = 
REMARK  5 active torsions:
REMARK  status: ('A' for Active; 'I' for Inactive)
REMARK    1  A    between atoms: C_6  and  C_10
REMARK    2  A    between atoms: C_14  and  O_18
REMARK    3  A    between atoms: N_17  and  N_20
REMARK    4  A    between atoms: N_20  and  C_23
REMARK    5  A    between atoms: C_23  and  C_26
REMARK                            x       y       z     vdW  Elec       q    Type
REMARK                         _______ _______ _______ _____ _____    ______ ____
ROOT
ATOM      1  C   UNL     1     -10.072  55.284  50.786  0.00  0.00    +0.000 A 
ATOM      2  C   UNL     1     -11.261  55.389  51.683  0.00  0.00    +0.000 A 
ATOM      3  C   UNL     1     -10.191  55.514  49.468  0.00  0.00    +0.000 A 
ATOM      4  O   UNL     1     -11.092  55.127  52.878  0.00  0.00    +0.000 OA
ATOM      5  N   UNL     1     -12.474  55.801  51.125  0.00  0.00    +0.000 N 
ATOM      6  C   UNL     1     -11.484  55.914  48.892  0.00  0.00    +0.000 A 
ATOM      7  C   UNL     1     -12.609  56.052  49.727  0.00  0.00    +0.000 A 
ATOM      8  C   UNL     1     -11.603  56.179  47.517  0.00  0.00    +0.000 A 
ATOM      9  C   UNL     1     -13.833  56.441  49.159  0.00  0.00    +0.000 A 
ATOM     10  C   UNL     1     -12.819  56.582  46.970  0.00  0.00    +0.000 A 
ATOM     11  C   UNL     1     -13.935  56.710  47.790  0.00  0.00    +0.000 A 
ENDROOT
BRANCH   1  17
ATOM     12  S   UNL     1      -7.070  55.298  53.307  0.00  0.00    +0.000 S 
ATOM     13  O   UNL     1      -7.288  54.414  54.438  0.00  0.00    +0.000 OA
ATOM     14  O   UNL     1      -6.471  56.601  53.506  0.00  0.00    +0.000 OA
ATOM     15  N   UNL     1      -8.493  55.507  52.568  0.00  0.00    +0.000 N 
ATOM     16  C   UNL     1      -5.995  54.432  52.221  0.00  0.00    +0.000 A 
ATOM     17  C   UNL     1      -8.725  54.976  51.405  0.00  0.00    +0.000 C 
ATOM     18  C   UNL     1      -6.519  53.975  51.025  0.00  0.00    +0.000 A 
ATOM     19  C   UNL     1      -4.654  54.236  52.570  0.00  0.00    +0.000 A 
ATOM     20  N   UNL     1      -7.857  54.170  50.698  0.00  0.00    +0.000 N 
ATOM     21  C   UNL     1      -5.687  53.229  50.183  0.00  0.00    +0.000 A 
ATOM     22  C   UNL     1      -3.828  53.525  51.703  0.00  0.00    +0.000 A 
ATOM     23  C   UNL     1      -4.345  53.013  50.516  0.00  0.00    +0.000 A 
ATOM     24  H   UNL     1      -9.193  56.044  53.005  0.00  0.00    +0.000 HD
ATOM     25  H   UNL     1      -8.209  53.700  49.908  0.00  0.00    +0.000 HD
ENDBRANCH   1  17
BRANCH   3  26
ATOM     26  O   UNL     1      -9.146  55.436  48.565  0.00  0.00    +0.000 OA
ATOM     27  H   UNL     1      -8.260  55.486  48.867  0.00  0.00    +0.000 HD
ENDBRANCH   3  26
BRANCH   5  28
ATOM     28  N   UNL     1     -13.653  55.904  51.951  0.00  0.00    +0.000 N 
ATOM     29  H   UNL     1     -14.331  55.192  52.011  0.00  0.00    +0.000 HD
BRANCH  28  30
ATOM     30  C   UNL     1     -13.749  57.165  52.695  0.00  0.00    +0.000 C 
BRANCH  30  31
ATOM     31  C   UNL     1     -15.016  57.884  52.343  0.00  0.00    +0.000 C 
ATOM     32  C   UNL     1     -15.044  59.073  51.419  0.00  0.00    +0.000 C 
ATOM     33  C   UNL     1     -15.242  59.272  52.896  0.00  0.00    +0.000 C 
ENDBRANCH  30  31
ENDBRANCH  28  30
ENDBRANCH   5  28
TORSDOF 5
ENDMDL
MODEL 5
REMARK VINA RESULT:      -8.0      3.421      7.633
REMARK  Name = 
REMARK  5 active torsions:
REMARK  status: ('A' for Active; 'I' for Inactive)
REMARK    1  A    between atoms: C_6  and  C_10
REMARK    2  A    between atoms: C_14  and  O_18
REMARK    3  A    between atoms: N_17  and  N_20
REMARK    4  A    between atoms: N_20  and  C_23
REMARK    5  A    between atoms: C_23  and  C_26
REMARK                            x       y       z     vdW  Elec       q    Type
REMARK                         _______ _______ _______ _____ _____    ______ ____
ROOT
ATOM      1  C   UNL     1     -10.201  55.244  50.729  0.00  0.00    +0.000 A 
ATOM      2  C   UNL     1      -9.765  55.164  49.304  0.00  0.00    +0.000 A 
ATOM      3  C   UNL     1     -11.415  55.727  51.044  0.00  0.00    +0.000 A 
ATOM      4  O   UNL     1      -8.623  54.747  49.083  0.00  0.00    +0.000 OA
ATOM      5  N   UNL     1     -10.678  55.535  48.312  0.00  0.00    +0.000 N 
ATOM      6  C   UNL     1     -12.350  56.144  49.989  0.00  0.00    +0.000 A 
ATOM      7  C   UNL     1     -11.971  56.044  48.638  0.00  0.00    +0.000 A 
ATOM      8  C   UNL     1     -13.629  56.626  50.317  0.00  0.00    +0.000 A 
ATOM      9  C   UNL     1     -12.881  56.442  47.645  0.00  0.00    +0.000 A 
ATOM     10  C   UNL     1     -14.529  57.000  49.322  0.00  0.00    +0.000 A 
ATOM     11  C   UNL     1     -14.154  56.911  47.986  0.00  0.00    +0.000 A 
ENDROOT
BRANCH   1  17
ATOM     12  S   UNL     1      -7.036  54.824  53.004  0.00  0.00    +0.000 S 
ATOM     13  O   UNL     1      -6.992  55.794  54.083  0.00  0.00    +0.000 OA
ATOM     14  O   UNL     1      -5.828  54.485  52.279  0.00  0.00    +0.000 OA
ATOM     15  N   UNL     1      -8.137  55.331  51.934  0.00  0.00    +0.000 N 
ATOM     16  C   UNL     1      -7.602  53.327  53.726  0.00  0.00    +0.000 A 
ATOM     17  C   UNL     1      -9.271  54.712  51.799  0.00  0.00    +0.000 C 
ATOM     18  C   UNL     1      -8.873  52.892  53.394  0.00  0.00    +0.000 A 
ATOM     19  C   UNL     1      -6.773  52.608  54.593  0.00  0.00    +0.000 A 
ATOM     20  N   UNL     1      -9.689  53.624  52.537  0.00  0.00    +0.000 N 
ATOM     21  C   UNL     1      -9.358  51.735  54.013  0.00  0.00    +0.000 A 
ATOM     22  C   UNL     1      -7.254  51.436  55.172  0.00  0.00    +0.000 A 
ATOM     23  C   UNL     1      -8.548  51.005  54.892  0.00  0.00    +0.000 A 
ATOM     24  H   UNL     1      -7.945  56.120  51.377  0.00  0.00    +0.000 HD
ATOM     25  H   UNL     1     -10.630  53.347  52.452  0.00  0.00    +0.000 HD
ENDBRANCH   1  17
BRANCH   3  26
ATOM     26  O   UNL     1     -11.897  55.840  52.336  0.00  0.00    +0.000 OA
ATOM     27  H   UNL     1     -11.355  56.200  53.009  0.00  0.00    +0.000 HD
ENDBRANCH   3  26
BRANCH   5  28
ATOM     28  N   UNL     1     -10.296  55.487  46.921  0.00  0.00    +0.000 N 
ATOM     29  H   UNL     1     -10.110  56.293  46.387  0.00  0.00    +0.000 HD
BRANCH  28  30
ATOM     30  C   UNL     1     -10.210  54.127  46.376  0.00  0.00    +0.000 C 
BRANCH  30  31
ATOM     31  C   UNL     1     -11.242  53.925  45.310  0.00  0.00    +0.000 C 
ATOM     32  C   UNL     1     -12.031  52.649  45.175  0.00  0.00    +0.000 C 
ATOM     33  C   UNL     1     -10.946  52.963  44.183  0.00  0.00    +0.000 C 
ENDBRANCH  30  31
ENDBRANCH  28  30
ENDBRANCH   5  28
TORSDOF 5
ENDMDL
MODEL 6
REMARK VINA RESULT:      -8.0      2.859      7.311
REMARK  Name = 
REMARK  5 active torsions:
REMARK  status: ('A' for Active; 'I' for Inactive)
REMARK    1  A    between atoms: C_6  and  C_10
REMARK    2  A    between atoms: C_14  and  O_18
REMARK    3  A    between atoms: N_17  and  N_20
REMARK    4  A    between atoms: N_20  and  C_23
REMARK    5  A    between atoms: C_23  and  C_26
REMARK                            x       y       z     vdW  Elec       q    Type
REMARK                         _______ _______ _______ _____ _____    ______ ____
ROOT
ATOM      1  C   UNL     1     -10.224  54.940  50.895  0.00  0.00    +0.000 A 
ATOM      2  C   UNL     1     -11.528  55.478  51.385  0.00  0.00    +0.000 A 
ATOM      3  C   UNL     1      -9.972  54.859  49.578  0.00  0.00    +0.000 A 
ATOM      4  O   UNL     1     -11.712  55.490  52.606  0.00  0.00    +0.000 OA
ATOM      5  N   UNL     1     -12.440  55.957  50.441  0.00  0.00    +0.000 N 
ATOM      6  C   UNL     1     -10.958  55.336  48.598  0.00  0.00    +0.000 A 
ATOM      7  C   UNL     1     -12.179  55.879  49.040  0.00  0.00    +0.000 A 
ATOM      8  C   UNL     1     -10.685  55.275  47.220  0.00  0.00    +0.000 A 
ATOM      9  C   UNL     1     -13.105  56.336  48.088  0.00  0.00    +0.000 A 
ATOM     10  C   UNL     1     -11.605  55.748  46.288  0.00  0.00    +0.000 A 
ATOM     11  C   UNL     1     -12.817  56.276  46.721  0.00  0.00    +0.000 A 
ENDROOT
BRANCH   1  17
ATOM     12  S   UNL     1      -6.879  54.924  52.941  0.00  0.00    +0.000 S 
ATOM     13  O   UNL     1      -6.849  55.950  53.968  0.00  0.00    +0.000 OA
ATOM     14  O   UNL     1      -5.700  54.655  52.144  0.00  0.00    +0.000 OA
ATOM     15  N   UNL     1      -8.096  55.274  51.935  0.00  0.00    +0.000 N 
ATOM     16  C   UNL     1      -7.253  53.423  53.773  0.00  0.00    +0.000 A 
ATOM     17  C   UNL     1      -9.175  54.551  51.915  0.00  0.00    +0.000 C 
ATOM     18  C   UNL     1      -8.498  52.861  53.558  0.00  0.00    +0.000 A 
ATOM     19  C   UNL     1      -6.301  52.828  54.608  0.00  0.00    +0.000 A 
ATOM     20  N   UNL     1      -9.438  53.471  52.732  0.00  0.00    +0.000 N 
ATOM     21  C   UNL     1      -8.829  51.700  54.266  0.00  0.00    +0.000 A 
ATOM     22  C   UNL     1      -6.630  51.651  55.275  0.00  0.00    +0.000 A 
ATOM     23  C   UNL     1      -7.895  51.092  55.114  0.00  0.00    +0.000 A 
ATOM     24  H   UNL     1      -8.018  56.046  51.329  0.00  0.00    +0.000 HD
ATOM     25  H   UNL     1     -10.353  53.107  52.732  0.00  0.00    +0.000 HD
ENDBRANCH   1  17
BRANCH   3  26
ATOM     26  O   UNL     1      -8.796  54.371  49.039  0.00  0.00    +0.000 OA
ATOM     27  H   UNL     1      -8.450  54.745  48.252  0.00  0.00    +0.000 HD
ENDBRANCH   3  26
BRANCH   5  28
ATOM     28  N   UNL     1     -13.719  56.474  50.867  0.00  0.00    +0.000 N 
ATOM     29  H   UNL     1     -14.505  55.901  51.022  0.00  0.00    +0.000 HD
BRANCH  28  30
ATOM     30  C   UNL     1     -13.741  57.930  51.048  0.00  0.00    +0.000 C 
BRANCH  30  31
ATOM     31  C   UNL     1     -14.041  58.275  52.475  0.00  0.00    +0.000 C 
ATOM     32  C   UNL     1     -15.246  57.742  53.203  0.00  0.00    +0.000 C 
ATOM     33  C   UNL     1     -15.212  59.182  52.773  0.00  0.00    +0.000 C 
ENDBRANCH  30  31
ENDBRANCH  28  30
ENDBRANCH   5  28
TORSDOF 5
ENDMDL
MODEL 7
REMARK VINA RESULT:      -8.0      3.891      4.767
REMARK  Name = 
REMARK  5 active torsions:
REMARK  status: ('A' for Active; 'I' for Inactive)
REMARK    1  A    between atoms: C_6  and  C_10
REMARK    2  A    between atoms: C_14  and  O_18
REMARK    3  A    between atoms: N_17  and  N_20
REMARK    4  A    between atoms: N_20  and  C_23
REMARK    5  A    between atoms: C_23  and  C_26
REMARK                            x       y       z     vdW  Elec       q    Type
REMARK                         _______ _______ _______ _____ _____    ______ ____
ROOT
ATOM      1  C   UNL     1     -10.631  55.739  48.315  0.00  0.00    +0.000 A 
ATOM      2  C   UNL     1      -9.181  55.831  48.657  0.00  0.00    +0.000 A 
ATOM      3  C   UNL     1     -11.029  55.096  47.204  0.00  0.00    +0.000 A 
ATOM      4  O   UNL     1      -8.878  56.469  49.670  0.00  0.00    +0.000 OA
ATOM      5  N   UNL     1      -8.265  55.170  47.833  0.00  0.00    +0.000 N 
ATOM      6  C   UNL     1     -10.048  54.436  46.330  0.00  0.00    +0.000 A 
ATOM      7  C   UNL     1      -8.680  54.481  46.655  0.00  0.00    +0.000 A 
ATOM      8  C   UNL     1     -10.467  53.741  45.182  0.00  0.00    +0.000 A 
ATOM      9  C   UNL     1      -7.759  53.839  45.811  0.00  0.00    +0.000 A 
ATOM     10  C   UNL     1      -9.545  53.093  44.364  0.00  0.00    +0.000 A 
ATOM     11  C   UNL     1      -8.191  53.144  44.676  0.00  0.00    +0.000 A 
ENDROOT
BRANCH   1  17
ATOM     12  S   UNL     1     -13.130  56.062  51.318  0.00  0.00    +0.000 S 
ATOM     13  O   UNL     1     -12.456  56.305  52.581  0.00  0.00    +0.000 OA
ATOM     14  O   UNL     1     -14.251  55.148  51.255  0.00  0.00    +0.000 OA
ATOM     15  N   UNL     1     -12.017  55.564  50.256  0.00  0.00    +0.000 N 
ATOM     16  C   UNL     1     -13.748  57.621  50.795  0.00  0.00    +0.000 A 
ATOM     17  C   UNL     1     -11.639  56.331  49.277  0.00  0.00    +0.000 C 
ATOM     18  C   UNL     1     -13.149  58.216  49.700  0.00  0.00    +0.000 A 
ATOM     19  C   UNL     1     -14.819  58.214  51.472  0.00  0.00    +0.000 A 
ATOM     20  N   UNL     1     -12.077  57.617  49.044  0.00  0.00    +0.000 N 
ATOM     21  C   UNL     1     -13.592  59.487  49.315  0.00  0.00    +0.000 A 
ATOM     22  C   UNL     1     -15.275  59.461  51.053  0.00  0.00    +0.000 A 
ATOM     23  C   UNL     1     -14.656  60.102  49.983  0.00  0.00    +0.000 A 
ATOM     24  H   UNL     1     -11.619  54.669  50.353  0.00  0.00    +0.000 HD
ATOM     25  H   UNL     1     -11.599  58.150  48.368  0.00  0.00    +0.000 HD
ENDBRANCH   1  17
BRANCH   3  26
ATOM     26  O   UNL     1     -12.349  54.966  46.810  0.00  0.00    +0.000 OA
ATOM     27  H   UNL     1     -12.700  55.534  46.153  0.00  0.00    +0.000 HD
ENDBRANCH   3  26
BRANCH   5  28
ATOM     28  N   UNL     1      -6.852  55.243  48.117  0.00  0.00    +0.000 N 
ATOM     29  H   UNL     1      -6.263  55.937  47.742  0.00  0.00    +0.000 HD
BRANCH  28  30
ATOM     30  C   UNL     1      -6.373  54.188  49.018  0.00  0.00    +0.000 C 
BRANCH  30  31
ATOM     31  C   UNL     1      -5.847  54.784  50.289  0.00  0.00    +0.000 C 
ATOM     32  C   UNL     1      -4.670  54.207  51.029  0.00  0.00    +0.000 C 
ATOM     33  C   UNL     1      -6.057  54.035  51.584  0.00  0.00    +0.000 C 
ENDBRANCH  30  31
ENDBRANCH  28  30
ENDBRANCH   5  28
TORSDOF 5
ENDMDL
MODEL 8
REMARK VINA RESULT:      -7.7      3.195      4.058
REMARK  Name = 
REMARK  5 active torsions:
REMARK  status: ('A' for Active; 'I' for Inactive)
REMARK    1  A    between atoms: C_6  and  C_10
REMARK    2  A    between atoms: C_14  and  O_18
REMARK    3  A    between atoms: N_17  and  N_20
REMARK    4  A    between atoms: N_20  and  C_23
REMARK    5  A    between atoms: C_23  and  C_26
REMARK                            x       y       z     vdW  Elec       q    Type
REMARK                         _______ _______ _______ _____ _____    ______ ____
ROOT
ATOM      1  C   UNL     1     -11.609  56.067  48.720  0.00  0.00    +0.000 A 
ATOM      2  C   UNL     1     -10.489  55.495  49.525  0.00  0.00    +0.000 A 
ATOM      3  C   UNL     1     -11.795  55.685  47.445  0.00  0.00    +0.000 A 
ATOM      4  O   UNL     1     -10.348  55.917  50.678  0.00  0.00    +0.000 OA
ATOM      5  N   UNL     1      -9.694  54.505  48.940  0.00  0.00    +0.000 N 
ATOM      6  C   UNL     1     -10.927  54.667  46.836  0.00  0.00    +0.000 A 
ATOM      7  C   UNL     1      -9.888  54.090  47.589  0.00  0.00    +0.000 A 
ATOM      8  C   UNL     1     -11.138  54.248  45.510  0.00  0.00    +0.000 A 
ATOM      9  C   UNL     1      -9.074  53.115  46.991  0.00  0.00    +0.000 A 
ATOM     10  C   UNL     1     -10.335  53.267  44.935  0.00  0.00    +0.000 A 
ATOM     11  C   UNL     1      -9.300  52.702  45.673  0.00  0.00    +0.000 A 
ENDROOT
BRANCH   1  17
ATOM     12  S   UNL     1     -13.610  59.347  49.498  0.00  0.00    +0.000 S 
ATOM     13  O   UNL     1     -14.765  59.514  48.635  0.00  0.00    +0.000 OA
ATOM     14  O   UNL     1     -12.776  60.484  49.828  0.00  0.00    +0.000 OA
ATOM     15  N   UNL     1     -12.669  58.207  48.843  0.00  0.00    +0.000 N 
ATOM     16  C   UNL     1     -14.236  58.748  51.026  0.00  0.00    +0.000 A 
ATOM     17  C   UNL     1     -12.560  57.034  49.391  0.00  0.00    +0.000 C 
ATOM     18  C   UNL     1     -13.957  57.436  51.366  0.00  0.00    +0.000 A 
ATOM     19  C   UNL     1     -14.977  59.592  51.860  0.00  0.00    +0.000 A 
ATOM     20  N   UNL     1     -13.227  56.607  50.521  0.00  0.00    +0.000 N 
ATOM     21  C   UNL     1     -14.505  56.931  52.551  0.00  0.00    +0.000 A 
ATOM     22  C   UNL     1     -15.483  59.086  53.055  0.00  0.00    +0.000 A 
ATOM     23  C   UNL     1     -15.256  57.755  53.396  0.00  0.00    +0.000 A 
ATOM     24  H   UNL     1     -12.171  58.404  48.016  0.00  0.00    +0.000 HD
ATOM     25  H   UNL     1     -13.184  55.648  50.743  0.00  0.00    +0.000 HD
ENDBRANCH   1  17
BRANCH   3  26
ATOM     26  O   UNL     1     -12.802  56.164  46.628  0.00  0.00    +0.000 OA
ATOM     27  H   UNL     1     -13.697  55.959  46.815  0.00  0.00    +0.000 HD
ENDBRANCH   3  26
BRANCH   5  28
ATOM     28  N   UNL     1      -8.591  53.934  49.676  0.00  0.00    +0.000 N 
ATOM     29  H   UNL     1      -8.615  53.029  50.063  0.00  0.00    +0.000 HD
BRANCH  28  30
ATOM     30  C   UNL     1      -7.432  54.826  49.796  0.00  0.00    +0.000 C 
BRANCH  30  31
ATOM     31  C   UNL     1      -6.852  54.748  51.175  0.00  0.00    +0.000 C 
ATOM     32  C   UNL     1      -7.676  54.390  52.383  0.00  0.00    +0.000 C 
ATOM     33  C   UNL     1      -7.226  55.810  52.182  0.00  0.00    +0.000 C 
ENDBRANCH  30  31
ENDBRANCH  28  30
ENDBRANCH   5  28
TORSDOF 5
ENDMDL
MODEL 9
REMARK VINA RESULT:      -7.6      3.492      7.684
REMARK  Name = 
REMARK  5 active torsions:
REMARK  status: ('A' for Active; 'I' for Inactive)
REMARK    1  A    between atoms: C_6  and  C_10
REMARK    2  A    between atoms: C_14  and  O_18
REMARK    3  A    between atoms: N_17  and  N_20
REMARK    4  A    between atoms: N_20  and  C_23
REMARK    5  A    between atoms: C_23  and  C_26
REMARK                            x       y       z     vdW  Elec       q    Type
REMARK                         _______ _______ _______ _____ _____    ______ ____
ROOT
ATOM      1  C   UNL     1     -10.335  54.925  50.228  0.00  0.00    +0.000 A 
ATOM      2  C   UNL     1     -10.104  54.834  48.756  0.00  0.00    +0.000 A 
ATOM      3  C   UNL     1     -11.392  55.600  50.710  0.00  0.00    +0.000 A 
ATOM      4  O   UNL     1      -9.093  54.232  48.378  0.00  0.00    +0.000 OA
ATOM      5  N   UNL     1     -11.053  55.403  47.902  0.00  0.00    +0.000 N 
ATOM      6  C   UNL     1     -12.362  56.222  49.797  0.00  0.00    +0.000 A 
ATOM      7  C   UNL     1     -12.181  56.117  48.405  0.00  0.00    +0.000 A 
ATOM      8  C   UNL     1     -13.482  56.906  50.301  0.00  0.00    +0.000 A 
ATOM      9  C   UNL     1     -13.121  56.713  47.550  0.00  0.00    +0.000 A 
ATOM     10  C   UNL     1     -14.417  57.478  49.441  0.00  0.00    +0.000 A 
ATOM     11  C   UNL     1     -14.236  57.384  48.065  0.00  0.00    +0.000 A 
ENDROOT
BRANCH   1  17
ATOM     12  S   UNL     1      -8.580  52.003  52.165  0.00  0.00    +0.000 S 
ATOM     13  O   UNL     1      -7.611  51.296  51.348  0.00  0.00    +0.000 OA
ATOM     14  O   UNL     1      -9.460  51.270  53.051  0.00  0.00    +0.000 OA
ATOM     15  N   UNL     1      -9.496  52.896  51.176  0.00  0.00    +0.000 N 
ATOM     16  C   UNL     1      -7.649  53.081  53.192  0.00  0.00    +0.000 A 
ATOM     17  C   UNL     1      -9.390  54.191  51.154  0.00  0.00    +0.000 C 
ATOM     18  C   UNL     1      -7.730  54.439  52.943  0.00  0.00    +0.000 A 
ATOM     19  C   UNL     1      -6.869  52.560  54.231  0.00  0.00    +0.000 A 
ATOM     20  N   UNL     1      -8.502  54.940  51.899  0.00  0.00    +0.000 N 
ATOM     21  C   UNL     1      -6.942  55.300  53.714  0.00  0.00    +0.000 A 
ATOM     22  C   UNL     1      -6.120  53.433  55.016  0.00  0.00    +0.000 A 
ATOM     23  C   UNL     1      -6.147  54.800  54.753  0.00  0.00    +0.000 A 
ATOM     24  H   UNL     1     -10.143  52.453  50.581  0.00  0.00    +0.000 HD
ATOM     25  H   UNL     1      -8.408  55.895  51.676  0.00  0.00    +0.000 HD
ENDBRANCH   1  17
BRANCH   3  26
ATOM     26  O   UNL     1     -11.680  55.738  52.056  0.00  0.00    +0.000 OA
ATOM     27  H   UNL     1     -11.062  55.454  52.700  0.00  0.00    +0.000 HD
ENDBRANCH   3  26
BRANCH   5  28
ATOM     28  N   UNL     1     -10.863  55.350  46.472  0.00  0.00    +0.000 N 
ATOM     29  H   UNL     1     -10.304  55.994  45.980  0.00  0.00    +0.000 HD
BRANCH  28  30
ATOM     30  C   UNL     1     -11.581  54.250  45.818  0.00  0.00    +0.000 C 
BRANCH  30  31
ATOM     31  C   UNL     1     -10.627  53.162  45.429  0.00  0.00    +0.000 C 
ATOM     32  C   UNL     1      -9.334  53.436  44.707  0.00  0.00    +0.000 C 
ATOM     33  C   UNL     1     -10.483  52.810  43.967  0.00  0.00    +0.000 C 
ENDBRANCH  30  31
ENDBRANCH  28  30
ENDBRANCH   5  28
TORSDOF 5
ENDMDL
