MODEL 1
REMARK VINA RESULT:      -9.3      0.000      0.000
REMARK  Name = 
REMARK  5 active torsions:
REMARK  status: ('A' for Active; 'I' for Inactive)
REMARK    1  A    between atoms: C_7  and  C_8
REMARK    2  A    between atoms: C_8  and  N_9
REMARK    3  A    between atoms: N_9  and  N_10
REMARK    4  A    between atoms: C_14  and  C_17
REMARK    5  A    between atoms: C_18  and  O_23
REMARK                            x       y       z     vdW  Elec       q    Type
REMARK                         _______ _______ _______ _____ _____    ______ ____
ROOT
ATOM      1  N   UNL     1      -9.977  54.398  49.541  0.00  0.00    +0.000 N 
ATOM      2  C   UNL     1     -10.785  55.234  50.311  0.00  0.00    +0.000 A 
ATOM      3  C   UNL     1     -10.188  52.994  49.525  0.00  0.00    +0.000 A 
ATOM      4  O   UNL     1     -10.582  56.445  50.400  0.00  0.00    +0.000 OA
ATOM      5  C   UNL     1     -11.968  54.598  50.990  0.00  0.00    +0.000 A 
ATOM      6  C   UNL     1     -11.095  52.420  50.433  0.00  0.00    +0.000 A 
ATOM      7  C   UNL     1      -9.574  52.186  48.557  0.00  0.00    +0.000 A 
ATOM      8  C   UNL     1     -11.945  53.283  51.267  0.00  0.00    +0.000 A 
ATOM      9  C   UNL     1     -11.377  51.048  50.346  0.00  0.00    +0.000 A 
ATOM     10  C   UNL     1      -9.914  50.842  48.443  0.00  0.00    +0.000 A 
ATOM     11  C   UNL     1     -10.815  50.272  49.335  0.00  0.00    +0.000 A 
ENDROOT
BRANCH   5  12
ATOM     12  C   UNL     1     -13.161  55.445  51.342  0.00  0.00    +0.000 C 
ATOM     13  N   UNL     1     -13.092  56.408  52.238  0.00  0.00    +0.000 N 
ATOM     14  N   UNL     1     -14.331  55.250  50.617  0.00  0.00    +0.000 N 
ATOM     15  S   UNL     1     -14.435  57.382  52.323  0.00  0.00    +0.000 S 
ATOM     16  C   UNL     1     -14.524  56.438  49.848  0.00  0.00    +0.000 A 
ATOM     17  O   UNL     1     -14.058  58.667  52.883  0.00  0.00    +0.000 OA
ATOM     18  O   UNL     1     -15.551  56.630  52.834  0.00  0.00    +0.000 OA
ATOM     19  C   UNL     1     -14.746  57.626  50.565  0.00  0.00    +0.000 A 
ATOM     20  C   UNL     1     -13.913  56.506  48.597  0.00  0.00    +0.000 A 
ATOM     21  C   UNL     1     -14.559  58.874  49.988  0.00  0.00    +0.000 A 
ATOM     22  C   UNL     1     -13.563  57.747  48.077  0.00  0.00    +0.000 A 
ATOM     23  C   UNL     1     -13.935  58.924  48.740  0.00  0.00    +0.000 A 
ATOM     24  H   UNL     1     -12.305  56.540  52.814  0.00  0.00    +0.000 HD
ATOM     25  H   UNL     1     -14.910  54.454  50.630  0.00  0.00    +0.000 HD
ENDBRANCH   5  12
BRANCH   1  26
ATOM     26  N   UNL     1      -9.225  54.971  48.462  0.00  0.00    +0.000 N 
ATOM     27  H   UNL     1      -8.241  55.001  48.466  0.00  0.00    +0.000 HD
BRANCH  26  28
ATOM     28  C   UNL     1     -10.019  55.509  47.354  0.00  0.00    +0.000 C 
BRANCH  28  35
ATOM     29 BR   UNL     1     -10.045  51.360  42.732  0.00  0.00    +0.000 Br
ATOM     30  C   UNL     1     -10.032  52.663  44.103  0.00  0.00    +0.000 A 
ATOM     31  C   UNL     1      -8.824  53.214  44.526  0.00  0.00    +0.000 A 
ATOM     32  C   UNL     1     -11.231  53.055  44.690  0.00  0.00    +0.000 A 
ATOM     33  C   UNL     1      -8.816  54.155  45.562  0.00  0.00    +0.000 A 
ATOM     34  C   UNL     1     -11.222  53.991  45.726  0.00  0.00    +0.000 A 
ATOM     35  C   UNL     1     -10.014  54.541  46.184  0.00  0.00    +0.000 A 
ENDBRANCH  28  35
ENDBRANCH  26  28
ENDBRANCH   1  26
BRANCH   8  36
ATOM     36  O   UNL     1     -12.829  52.623  52.099  0.00  0.00    +0.000 OA
ATOM     37  H   UNL     1     -13.739  52.582  51.878  0.00  0.00    +0.000 HD
ENDBRANCH   8  36
TORSDOF 5
ENDMDL
MODEL 2
REMARK VINA RESULT:      -9.2      3.677      6.819
REMARK  Name = 
REMARK  5 active torsions:
REMARK  status: ('A' for Active; 'I' for Inactive)
REMARK    1  A    between atoms: C_7  and  C_8
REMARK    2  A    between atoms: C_8  and  N_9
REMARK    3  A    between atoms: N_9  and  N_10
REMARK    4  A    between atoms: C_14  and  C_17
REMARK    5  A    between atoms: C_18  and  O_23
REMARK                            x       y       z     vdW  Elec       q    Type
REMARK                         _______ _______ _______ _____ _____    ______ ____
ROOT
ATOM      1  N   UNL     1     -11.072  55.417  47.622  0.00  0.00    +0.000 N 
ATOM      2  C   UNL     1     -10.198  55.702  48.670  0.00  0.00    +0.000 A 
ATOM      3  C   UNL     1     -10.611  54.773  46.444  0.00  0.00    +0.000 A 
ATOM      4  O   UNL     1     -10.553  56.322  49.673  0.00  0.00    +0.000 OA
ATOM      5  C   UNL     1      -8.798  55.163  48.554  0.00  0.00    +0.000 A 
ATOM      6  C   UNL     1      -9.230  54.589  46.252  0.00  0.00    +0.000 A 
ATOM      7  C   UNL     1     -11.515  54.238  45.515  0.00  0.00    +0.000 A 
ATOM      8  C   UNL     1      -8.289  54.899  47.338  0.00  0.00    +0.000 A 
ATOM      9  C   UNL     1      -8.783  53.862  45.137  0.00  0.00    +0.000 A 
ATOM     10  C   UNL     1     -11.060  53.464  44.453  0.00  0.00    +0.000 A 
ATOM     11  C   UNL     1      -9.695  53.275  44.262  0.00  0.00    +0.000 A 
ENDROOT
BRANCH   5  12
ATOM     12  C   UNL     1      -7.993  54.921  49.801  0.00  0.00    +0.000 C 
ATOM     13  N   UNL     1      -7.652  55.901  50.612  0.00  0.00    +0.000 N 
ATOM     14  N   UNL     1      -7.697  53.604  50.137  0.00  0.00    +0.000 N 
ATOM     15  S   UNL     1      -6.973  55.418  52.049  0.00  0.00    +0.000 S 
ATOM     16  C   UNL     1      -8.430  53.324  51.330  0.00  0.00    +0.000 A 
ATOM     17  O   UNL     1      -7.156  56.462  53.039  0.00  0.00    +0.000 OA
ATOM     18  O   UNL     1      -5.686  54.823  51.804  0.00  0.00    +0.000 OA
ATOM     19  C   UNL     1      -8.087  54.066  52.473  0.00  0.00    +0.000 A 
ATOM     20  C   UNL     1      -9.738  52.859  51.192  0.00  0.00    +0.000 A 
ATOM     21  C   UNL     1      -8.947  54.182  53.555  0.00  0.00    +0.000 A 
ATOM     22  C   UNL     1     -10.661  53.116  52.198  0.00  0.00    +0.000 A 
ATOM     23  C   UNL     1     -10.256  53.722  53.395  0.00  0.00    +0.000 A 
ATOM     24  H   UNL     1      -7.789  56.849  50.383  0.00  0.00    +0.000 HD
ATOM     25  H   UNL     1      -7.102  52.989  49.651  0.00  0.00    +0.000 HD
ENDBRANCH   5  12
BRANCH   1  26
ATOM     26  N   UNL     1     -12.481  55.385  47.890  0.00  0.00    +0.000 N 
ATOM     27  H   UNL     1     -12.928  54.587  48.252  0.00  0.00    +0.000 HD
BRANCH  26  28
ATOM     28  C   UNL     1     -13.209  56.622  47.589  0.00  0.00    +0.000 C 
BRANCH  28  35
ATOM     29 BR   UNL     1     -15.260  59.111  52.898  0.00  0.00    +0.000 Br
ATOM     30  C   UNL     1     -14.686  58.356  51.261  0.00  0.00    +0.000 A 
ATOM     31  C   UNL     1     -14.900  57.002  51.008  0.00  0.00    +0.000 A 
ATOM     32  C   UNL     1     -14.040  59.156  50.324  0.00  0.00    +0.000 A 
ATOM     33  C   UNL     1     -14.446  56.440  49.810  0.00  0.00    +0.000 A 
ATOM     34  C   UNL     1     -13.584  58.593  49.130  0.00  0.00    +0.000 A 
ATOM     35  C   UNL     1     -13.768  57.227  48.865  0.00  0.00    +0.000 A 
ENDBRANCH  28  35
ENDBRANCH  26  28
ENDBRANCH   1  26
BRANCH   8  36
ATOM     36  O   UNL     1      -6.958  54.648  47.063  0.00  0.00    +0.000 OA
ATOM     37  H   UNL     1      -6.593  54.907  46.239  0.00  0.00    +0.000 HD
ENDBRANCH   8  36
TORSDOF 5
ENDMDL
MODEL 3
REMARK VINA RESULT:      -8.9      3.696      6.918
REMARK  Name = 
REMARK  5 active torsions:
REMARK  status: ('A' for Active; 'I' for Inactive)
REMARK    1  A    between atoms: C_7  and  C_8
REMARK    2  A    between atoms: C_8  and  N_9
REMARK    3  A    between atoms: N_9  and  N_10
REMARK    4  A    between atoms: C_14  and  C_17
REMARK    5  A    between atoms: C_18  and  O_23
REMARK                            x       y       z     vdW  Elec       q    Type
REMARK                         _______ _______ _______ _____ _____    ______ ____
ROOT
ATOM      1  N   UNL     1     -10.591  55.247  48.126  0.00  0.00    +0.000 N 
ATOM      2  C   UNL     1      -9.913  55.541  49.307  0.00  0.00    +0.000 A 
ATOM      3  C   UNL     1      -9.889  54.802  46.975  0.00  0.00    +0.000 A 
ATOM      4  O   UNL     1     -10.486  55.995  50.299  0.00  0.00    +0.000 OA
ATOM      5  C   UNL     1      -8.444  55.219  49.347  0.00  0.00    +0.000 A 
ATOM      6  C   UNL     1      -8.483  54.835  46.966  0.00  0.00    +0.000 A 
ATOM      7  C   UNL     1     -10.573  54.245  45.885  0.00  0.00    +0.000 A 
ATOM      8  C   UNL     1      -7.748  55.159  48.198  0.00  0.00    +0.000 A 
ATOM      9  C   UNL     1      -7.790  54.300  45.869  0.00  0.00    +0.000 A 
ATOM     10  C   UNL     1      -9.872  53.659  44.836  0.00  0.00    +0.000 A 
ATOM     11  C   UNL     1      -8.481  53.685  44.827  0.00  0.00    +0.000 A 
ENDROOT
BRANCH   5  12
ATOM     12  C   UNL     1      -7.778  54.964  50.671  0.00  0.00    +0.000 C 
ATOM     13  N   UNL     1      -8.054  55.682  51.740  0.00  0.00    +0.000 N 
ATOM     14  N   UNL     1      -6.924  53.869  50.768  0.00  0.00    +0.000 N 
ATOM     15  S   UNL     1      -7.402  55.108  53.157  0.00  0.00    +0.000 S 
ATOM     16  C   UNL     1      -7.568  52.940  51.641  0.00  0.00    +0.000 A 
ATOM     17  O   UNL     1      -8.185  55.600  54.276  0.00  0.00    +0.000 OA
ATOM     18  O   UNL     1      -5.969  55.233  53.121  0.00  0.00    +0.000 OA
ATOM     19  C   UNL     1      -7.766  53.353  52.970  0.00  0.00    +0.000 A 
ATOM     20  C   UNL     1      -8.461  52.031  51.074  0.00  0.00    +0.000 A 
ATOM     21  C   UNL     1      -8.697  52.739  53.795  0.00  0.00    +0.000 A 
ATOM     22  C   UNL     1      -9.507  51.534  51.844  0.00  0.00    +0.000 A 
ATOM     23  C   UNL     1      -9.591  51.841  53.208  0.00  0.00    +0.000 A 
ATOM     24  H   UNL     1      -8.603  56.498  51.702  0.00  0.00    +0.000 HD
ATOM     25  H   UNL     1      -6.053  53.758  50.324  0.00  0.00    +0.000 HD
ENDBRANCH   5  12
BRANCH   1  26
ATOM     26  N   UNL     1     -12.001  54.989  48.186  0.00  0.00    +0.000 N 
ATOM     27  H   UNL     1     -12.364  54.126  48.489  0.00  0.00    +0.000 HD
BRANCH  26  28
ATOM     28  C   UNL     1     -12.865  56.097  47.767  0.00  0.00    +0.000 C 
BRANCH  28  35
ATOM     29 BR   UNL     1     -15.133  58.930  52.808  0.00  0.00    +0.000 Br
ATOM     30  C   UNL     1     -14.493  58.060  51.255  0.00  0.00    +0.000 A 
ATOM     31  C   UNL     1     -14.520  56.669  51.176  0.00  0.00    +0.000 A 
ATOM     32  C   UNL     1     -13.986  58.817  50.203  0.00  0.00    +0.000 A 
ATOM     33  C   UNL     1     -14.018  56.028  50.039  0.00  0.00    +0.000 A 
ATOM     34  C   UNL     1     -13.480  58.176  49.070  0.00  0.00    +0.000 A 
ATOM     35  C   UNL     1     -13.477  56.776  48.980  0.00  0.00    +0.000 A 
ENDBRANCH  28  35
ENDBRANCH  26  28
ENDBRANCH   1  26
BRANCH   8  36
ATOM     36  O   UNL     1      -6.371  55.129  48.095  0.00  0.00    +0.000 OA
ATOM     37  H   UNL     1      -5.911  55.868  47.748  0.00  0.00    +0.000 HD
ENDBRANCH   8  36
TORSDOF 5
ENDMDL
MODEL 4
REMARK VINA RESULT:      -8.4      4.573      7.686
REMARK  Name = 
REMARK  5 active torsions:
REMARK  status: ('A' for Active; 'I' for Inactive)
REMARK    1  A    between atoms: C_7  and  C_8
REMARK    2  A    between atoms: C_8  and  N_9
REMARK    3  A    between atoms: N_9  and  N_10
REMARK    4  A    between atoms: C_14  and  C_17
REMARK    5  A    between atoms: C_18  and  O_23
REMARK                            x       y       z     vdW  Elec       q    Type
REMARK                         _______ _______ _______ _____ _____    ______ ____
ROOT
ATOM      1  N   UNL     1     -11.517  55.524  50.041  0.00  0.00    +0.000 N 
ATOM      2  C   UNL     1     -10.978  55.221  51.291  0.00  0.00    +0.000 A 
ATOM      3  C   UNL     1     -10.703  55.525  48.878  0.00  0.00    +0.000 A 
ATOM      4  O   UNL     1     -11.643  55.280  52.326  0.00  0.00    +0.000 OA
ATOM      5  C   UNL     1      -9.549  54.752  51.319  0.00  0.00    +0.000 A 
ATOM      6  C   UNL     1      -9.308  55.403  49.010  0.00  0.00    +0.000 A 
ATOM      7  C   UNL     1     -11.277  55.554  47.599  0.00  0.00    +0.000 A 
ATOM      8  C   UNL     1      -8.718  55.100  50.322  0.00  0.00    +0.000 A 
ATOM      9  C   UNL     1      -8.516  55.302  47.855  0.00  0.00    +0.000 A 
ATOM     10  C   UNL     1     -10.485  55.386  46.467  0.00  0.00    +0.000 A 
ATOM     11  C   UNL     1      -9.106  55.259  46.594  0.00  0.00    +0.000 A 
ENDROOT
BRANCH   5  12
ATOM     12  C   UNL     1      -9.074  53.894  52.461  0.00  0.00    +0.000 C 
ATOM     13  N   UNL     1      -8.509  52.721  52.263  0.00  0.00    +0.000 N 
ATOM     14  N   UNL     1      -9.157  54.421  53.745  0.00  0.00    +0.000 N 
ATOM     15  S   UNL     1      -7.840  52.029  53.618  0.00  0.00    +0.000 S 
ATOM     16  C   UNL     1      -7.811  54.619  54.180  0.00  0.00    +0.000 A 
ATOM     17  O   UNL     1      -6.812  51.088  53.215  0.00  0.00    +0.000 OA
ATOM     18  O   UNL     1      -8.881  51.665  54.543  0.00  0.00    +0.000 OA
ATOM     19  C   UNL     1      -7.015  53.469  54.320  0.00  0.00    +0.000 A 
ATOM     20  C   UNL     1      -7.199  55.831  53.862  0.00  0.00    +0.000 A 
ATOM     21  C   UNL     1      -5.629  53.537  54.347  0.00  0.00    +0.000 A 
ATOM     22  C   UNL     1      -5.817  55.879  53.717  0.00  0.00    +0.000 A 
ATOM     23  C   UNL     1      -5.034  54.755  54.014  0.00  0.00    +0.000 A 
ATOM     24  H   UNL     1      -8.485  52.287  51.380  0.00  0.00    +0.000 HD
ATOM     25  H   UNL     1      -9.977  54.617  54.252  0.00  0.00    +0.000 HD
ENDBRANCH   5  12
BRANCH   1  26
ATOM     26  N   UNL     1     -12.937  55.422  49.860  0.00  0.00    +0.000 N 
ATOM     27  H   UNL     1     -13.427  54.583  50.019  0.00  0.00    +0.000 HD
BRANCH  26  28
ATOM     28  C   UNL     1     -13.608  56.650  49.423  0.00  0.00    +0.000 C 
BRANCH  28  35
ATOM     29 BR   UNL     1     -15.976  59.611  54.343  0.00  0.00    +0.000 Br
ATOM     30  C   UNL     1     -15.305  58.697  52.829  0.00  0.00    +0.000 A 
ATOM     31  C   UNL     1     -15.208  57.307  52.844  0.00  0.00    +0.000 A 
ATOM     32  C   UNL     1     -14.900  59.421  51.712  0.00  0.00    +0.000 A 
ATOM     33  C   UNL     1     -14.682  56.636  51.734  0.00  0.00    +0.000 A 
ATOM     34  C   UNL     1     -14.372  58.751  50.606  0.00  0.00    +0.000 A 
ATOM     35  C   UNL     1     -14.243  57.354  50.609  0.00  0.00    +0.000 A 
ENDBRANCH  28  35
ENDBRANCH  26  28
ENDBRANCH   1  26
BRANCH   8  36
ATOM     36  O   UNL     1      -7.343  54.963  50.339  0.00  0.00    +0.000 OA
ATOM     37  H   UNL     1      -6.888  54.899  51.155  0.00  0.00    +0.000 HD
ENDBRANCH   8  36
TORSDOF 5
ENDMDL
MODEL 5
REMARK VINA RESULT:      -8.3      4.454      7.580
REMARK  Name = 
REMARK  5 active torsions:
REMARK  status: ('A' for Active; 'I' for Inactive)
REMARK    1  A    between atoms: C_7  and  C_8
REMARK    2  A    between atoms: C_8  and  N_9
REMARK    3  A    between atoms: N_9  and  N_10
REMARK    4  A    between atoms: C_14  and  C_17
REMARK    5  A    between atoms: C_18  and  O_23
REMARK                            x       y       z     vdW  Elec       q    Type
REMARK                         _______ _______ _______ _____ _____    ______ ____
ROOT
ATOM      1  N   UNL     1      -9.886  54.643  49.392  0.00  0.00    +0.000 N 
ATOM      2  C   UNL     1      -8.999  54.841  50.449  0.00  0.00    +0.000 A 
ATOM      3  C   UNL     1      -9.421  54.585  48.052  0.00  0.00    +0.000 A 
ATOM      4  O   UNL     1      -9.379  54.966  51.613  0.00  0.00    +0.000 OA
ATOM      5  C   UNL     1      -7.531  54.834  50.115  0.00  0.00    +0.000 A 
ATOM      6  C   UNL     1      -8.084  54.914  47.768  0.00  0.00    +0.000 A 
ATOM      7  C   UNL     1     -10.251  54.116  47.023  0.00  0.00    +0.000 A 
ATOM      8  C   UNL     1      -7.135  55.143  48.868  0.00  0.00    +0.000 A 
ATOM      9  C   UNL     1      -7.601  54.757  46.460  0.00  0.00    +0.000 A 
ATOM     10  C   UNL     1      -9.739  53.904  45.747  0.00  0.00    +0.000 A 
ATOM     11  C   UNL     1      -8.415  54.222  45.464  0.00  0.00    +0.000 A 
ENDROOT
BRANCH   5  12
ATOM     12  C   UNL     1      -6.532  54.475  51.180  0.00  0.00    +0.000 C 
ATOM     13  N   UNL     1      -6.352  55.225  52.248  0.00  0.00    +0.000 N 
ATOM     14  N   UNL     1      -5.863  53.261  51.059  0.00  0.00    +0.000 N 
ATOM     15  S   UNL     1      -5.385  54.553  53.421  0.00  0.00    +0.000 S 
ATOM     16  C   UNL     1      -6.333  52.441  52.130  0.00  0.00    +0.000 A 
ATOM     17  O   UNL     1      -5.699  55.157  54.702  0.00  0.00    +0.000 OA
ATOM     18  O   UNL     1      -4.032  54.455  52.940  0.00  0.00    +0.000 OA
ATOM     19  C   UNL     1      -6.045  52.876  53.435  0.00  0.00    +0.000 A 
ATOM     20  C   UNL     1      -7.482  51.682  51.908  0.00  0.00    +0.000 A 
ATOM     21  C   UNL     1      -6.753  52.412  54.534  0.00  0.00    +0.000 A 
ATOM     22  C   UNL     1      -8.298  51.352  52.983  0.00  0.00    +0.000 A 
ATOM     23  C   UNL     1      -7.907  51.664  54.292  0.00  0.00    +0.000 A 
ATOM     24  H   UNL     1      -6.759  56.116  52.344  0.00  0.00    +0.000 HD
ATOM     25  H   UNL     1      -5.199  53.018  50.375  0.00  0.00    +0.000 HD
ENDBRANCH   5  12
BRANCH   1  26
ATOM     26  N   UNL     1     -11.179  54.088  49.674  0.00  0.00    +0.000 N 
ATOM     27  H   UNL     1     -11.302  53.333  50.292  0.00  0.00    +0.000 HD
BRANCH  26  28
ATOM     28  C   UNL     1     -12.304  54.721  48.977  0.00  0.00    +0.000 C 
BRANCH  28  35
ATOM     29 BR   UNL     1     -14.982  58.959  52.644  0.00  0.00    +0.000 Br
ATOM     30  C   UNL     1     -14.205  57.633  51.541  0.00  0.00    +0.000 A 
ATOM     31  C   UNL     1     -13.405  56.642  52.106  0.00  0.00    +0.000 A 
ATOM     32  C   UNL     1     -14.427  57.664  50.168  0.00  0.00    +0.000 A 
ATOM     33  C   UNL     1     -12.806  55.681  51.284  0.00  0.00    +0.000 A 
ATOM     34  C   UNL     1     -13.827  56.707  49.348  0.00  0.00    +0.000 A 
ATOM     35  C   UNL     1     -12.998  55.714  49.893  0.00  0.00    +0.000 A 
ENDBRANCH  28  35
ENDBRANCH  26  28
ENDBRANCH   1  26
BRANCH   8  36
ATOM     36  O   UNL     1      -5.837  55.423  48.486  0.00  0.00    +0.000 OA
ATOM     37  H   UNL     1      -5.353  56.095  48.926  0.00  0.00    +0.000 HD
ENDBRANCH   8  36
TORSDOF 5
ENDMDL
MODEL 6
REMARK VINA RESULT:      -8.2      4.044      7.278
REMARK  Name = 
REMARK  5 active torsions:
REMARK  status: ('A' for Active; 'I' for Inactive)
REMARK    1  A    between atoms: C_7  and  C_8
REMARK    2  A    between atoms: C_8  and  N_9
REMARK    3  A    between atoms: N_9  and  N_10
REMARK    4  A    between atoms: C_14  and  C_17
REMARK    5  A    between atoms: C_18  and  O_23
REMARK                            x       y       z     vdW  Elec       q    Type
REMARK                         _______ _______ _______ _____ _____    ______ ____
ROOT
ATOM      1  N   UNL     1     -11.361  55.228  47.768  0.00  0.00    +0.000 N 
ATOM      2  C   UNL     1     -10.588  55.303  48.926  0.00  0.00    +0.000 A 
ATOM      3  C   UNL     1     -10.891  54.533  46.623  0.00  0.00    +0.000 A 
ATOM      4  O   UNL     1     -10.938  55.957  49.909  0.00  0.00    +0.000 OA
ATOM      5  C   UNL     1      -9.320  54.494  48.951  0.00  0.00    +0.000 A 
ATOM      6  C   UNL     1      -9.561  54.076  46.588  0.00  0.00    +0.000 A 
ATOM      7  C   UNL     1     -11.758  54.216  45.567  0.00  0.00    +0.000 A 
ATOM      8  C   UNL     1      -8.723  54.162  47.793  0.00  0.00    +0.000 A 
ATOM      9  C   UNL     1      -9.129  53.302  45.499  0.00  0.00    +0.000 A 
ATOM     10  C   UNL     1     -11.334  53.393  44.529  0.00  0.00    +0.000 A 
ATOM     11  C   UNL     1     -10.021  52.935  44.494  0.00  0.00    +0.000 A 
ENDROOT
BRANCH   5  12
ATOM     12  C   UNL     1      -8.744  54.062  50.272  0.00  0.00    +0.000 C 
ATOM     13  N   UNL     1      -8.679  52.794  50.623  0.00  0.00    +0.000 N 
ATOM     14  N   UNL     1      -8.181  55.041  51.085  0.00  0.00    +0.000 N 
ATOM     15  S   UNL     1      -7.804  52.494  52.003  0.00  0.00    +0.000 S 
ATOM     16  C   UNL     1      -6.779  54.771  51.117  0.00  0.00    +0.000 A 
ATOM     17  O   UNL     1      -7.337  51.120  51.983  0.00  0.00    +0.000 OA
ATOM     18  O   UNL     1      -8.487  53.046  53.143  0.00  0.00    +0.000 OA
ATOM     19  C   UNL     1      -6.380  53.556  51.698  0.00  0.00    +0.000 A 
ATOM     20  C   UNL     1      -5.989  55.333  50.114  0.00  0.00    +0.000 A 
ATOM     21  C   UNL     1      -5.133  53.001  51.450  0.00  0.00    +0.000 A 
ATOM     22  C   UNL     1      -4.815  54.694  49.733  0.00  0.00    +0.000 A 
ATOM     23  C   UNL     1      -4.362  53.568  50.435  0.00  0.00    +0.000 A 
ATOM     24  H   UNL     1      -9.117  52.079  50.108  0.00  0.00    +0.000 HD
ATOM     25  H   UNL     1      -8.654  55.770  51.546  0.00  0.00    +0.000 HD
ENDBRANCH   5  12
BRANCH   1  26
ATOM     26  N   UNL     1     -12.771  55.476  47.864  0.00  0.00    +0.000 N 
ATOM     27  H   UNL     1     -13.417  54.761  48.061  0.00  0.00    +0.000 HD
BRANCH  26  28
ATOM     28  C   UNL     1     -13.183  56.867  47.649  0.00  0.00    +0.000 C 
BRANCH  28  35
ATOM     29 BR   UNL     1     -15.377  59.227  52.959  0.00  0.00    +0.000 Br
ATOM     30  C   UNL     1     -14.758  58.513  51.320  0.00  0.00    +0.000 A 
ATOM     31  C   UNL     1     -15.000  57.176  51.009  0.00  0.00    +0.000 A 
ATOM     32  C   UNL     1     -14.052  59.326  50.439  0.00  0.00    +0.000 A 
ATOM     33  C   UNL     1     -14.514  56.644  49.810  0.00  0.00    +0.000 A 
ATOM     34  C   UNL     1     -13.564  58.793  49.245  0.00  0.00    +0.000 A 
ATOM     35  C   UNL     1     -13.776  57.443  48.922  0.00  0.00    +0.000 A 
ENDBRANCH  28  35
ENDBRANCH  26  28
ENDBRANCH   1  26
BRANCH   8  36
ATOM     36  O   UNL     1      -7.445  53.653  47.667  0.00  0.00    +0.000 OA
ATOM     37  H   UNL     1      -7.184  53.231  46.871  0.00  0.00    +0.000 HD
ENDBRANCH   8  36
TORSDOF 5
ENDMDL
MODEL 7
REMARK VINA RESULT:      -8.1      4.520      7.405
REMARK  Name = 
REMARK  5 active torsions:
REMARK  status: ('A' for Active; 'I' for Inactive)
REMARK    1  A    between atoms: C_7  and  C_8
REMARK    2  A    between atoms: C_8  and  N_9
REMARK    3  A    between atoms: N_9  and  N_10
REMARK    4  A    between atoms: C_14  and  C_17
REMARK    5  A    between atoms: C_18  and  O_23
REMARK                            x       y       z     vdW  Elec       q    Type
REMARK                         _______ _______ _______ _____ _____    ______ ____
ROOT
ATOM      1  N   UNL     1      -8.988  55.629  48.329  0.00  0.00    +0.000 N 
ATOM      2  C   UNL     1      -8.052  55.596  49.361  0.00  0.00    +0.000 A 
ATOM      3  C   UNL     1      -8.834  54.812  47.178  0.00  0.00    +0.000 A 
ATOM      4  O   UNL     1      -8.122  56.344  50.337  0.00  0.00    +0.000 OA
ATOM      5  C   UNL     1      -6.971  54.554  49.265  0.00  0.00    +0.000 A 
ATOM      6  C   UNL     1      -7.634  54.101  46.991  0.00  0.00    +0.000 A 
ATOM      7  C   UNL     1      -9.892  54.631  46.276  0.00  0.00    +0.000 A 
ATOM      8  C   UNL     1      -6.626  54.067  48.060  0.00  0.00    +0.000 A 
ATOM      9  C   UNL     1      -7.524  53.215  45.907  0.00  0.00    +0.000 A 
ATOM     10  C   UNL     1      -9.790  53.701  45.247  0.00  0.00    +0.000 A 
ATOM     11  C   UNL     1      -8.608  52.992  45.062  0.00  0.00    +0.000 A 
ENDROOT
BRANCH   5  12
ATOM     12  C   UNL     1      -6.297  54.069  50.520  0.00  0.00    +0.000 C 
ATOM     13  N   UNL     1      -5.295  54.723  51.069  0.00  0.00    +0.000 N 
ATOM     14  N   UNL     1      -6.831  52.951  51.151  0.00  0.00    +0.000 N 
ATOM     15  S   UNL     1      -4.836  54.170  52.568  0.00  0.00    +0.000 S 
ATOM     16  C   UNL     1      -7.370  53.415  52.389  0.00  0.00    +0.000 A 
ATOM     17  O   UNL     1      -4.167  55.239  53.286  0.00  0.00    +0.000 OA
ATOM     18  O   UNL     1      -4.257  52.859  52.447  0.00  0.00    +0.000 OA
ATOM     19  C   UNL     1      -6.459  53.945  53.319  0.00  0.00    +0.000 A 
ATOM     20  C   UNL     1      -8.685  53.881  52.388  0.00  0.00    +0.000 A 
ATOM     21  C   UNL     1      -6.870  54.767  54.358  0.00  0.00    +0.000 A 
ATOM     22  C   UNL     1      -9.069  54.837  53.322  0.00  0.00    +0.000 A 
ATOM     23  C   UNL     1      -8.185  55.234  54.335  0.00  0.00    +0.000 A 
ATOM     24  H   UNL     1      -4.850  55.481  50.626  0.00  0.00    +0.000 HD
ATOM     25  H   UNL     1      -6.835  52.027  50.813  0.00  0.00    +0.000 HD
ENDBRANCH   5  12
BRANCH   1  26
ATOM     26  N   UNL     1     -10.295  56.155  48.601  0.00  0.00    +0.000 N 
ATOM     27  H   UNL     1     -10.590  57.031  48.264  0.00  0.00    +0.000 HD
BRANCH  26  28
ATOM     28  C   UNL     1     -11.163  55.299  49.417  0.00  0.00    +0.000 C 
BRANCH  28  35
ATOM     29 BR   UNL     1     -15.204  58.578  52.809  0.00  0.00    +0.000 Br
ATOM     30  C   UNL     1     -13.937  57.619  51.781  0.00  0.00    +0.000 A 
ATOM     31  C   UNL     1     -13.761  57.927  50.433  0.00  0.00    +0.000 A 
ATOM     32  C   UNL     1     -13.198  56.602  52.375  0.00  0.00    +0.000 A 
ATOM     33  C   UNL     1     -12.845  57.196  49.668  0.00  0.00    +0.000 A 
ATOM     34  C   UNL     1     -12.287  55.870  51.610  0.00  0.00    +0.000 A 
ATOM     35  C   UNL     1     -12.111  56.148  50.246  0.00  0.00    +0.000 A 
ENDBRANCH  28  35
ENDBRANCH  26  28
ENDBRANCH   1  26
BRANCH   8  36
ATOM     36  O   UNL     1      -5.500  53.312  47.793  0.00  0.00    +0.000 OA
ATOM     37  H   UNL     1      -4.794  53.681  47.300  0.00  0.00    +0.000 HD
ENDBRANCH   8  36
TORSDOF 5
ENDMDL
MODEL 8
REMARK VINA RESULT:      -8.0      3.420      4.659
REMARK  Name = 
REMARK  5 active torsions:
REMARK  status: ('A' for Active; 'I' for Inactive)
REMARK    1  A    between atoms: C_7  and  C_8
REMARK    2  A    between atoms: C_8  and  N_9
REMARK    3  A    between atoms: N_9  and  N_10
REMARK    4  A    between atoms: C_14  and  C_17
REMARK    5  A    between atoms: C_18  and  O_23
REMARK                            x       y       z     vdW  Elec       q    Type
REMARK                         _______ _______ _______ _____ _____    ______ ____
ROOT
ATOM      1  N   UNL     1      -6.852  55.641  50.879  0.00  0.00    +0.000 N 
ATOM      2  C   UNL     1      -8.206  55.917  50.696  0.00  0.00    +0.000 A 
ATOM      3  C   UNL     1      -6.398  54.958  52.038  0.00  0.00    +0.000 A 
ATOM      4  O   UNL     1      -8.621  56.569  49.737  0.00  0.00    +0.000 OA
ATOM      5  C   UNL     1      -9.162  55.328  51.698  0.00  0.00    +0.000 A 
ATOM      6  C   UNL     1      -7.293  54.722  53.097  0.00  0.00    +0.000 A 
ATOM      7  C   UNL     1      -5.098  54.435  52.101  0.00  0.00    +0.000 A 
ATOM      8  C   UNL     1      -8.722  55.021  52.931  0.00  0.00    +0.000 A 
ATOM      9  C   UNL     1      -6.869  53.957  54.195  0.00  0.00    +0.000 A 
ATOM     10  C   UNL     1      -4.716  53.625  53.165  0.00  0.00    +0.000 A 
ATOM     11  C   UNL     1      -5.599  53.385  54.212  0.00  0.00    +0.000 A 
ENDROOT
BRANCH   5  12
ATOM     12  C   UNL     1     -10.592  55.083  51.301  0.00  0.00    +0.000 C 
ATOM     13  N   UNL     1     -11.272  55.949  50.578  0.00  0.00    +0.000 N 
ATOM     14  N   UNL     1     -11.158  53.857  51.635  0.00  0.00    +0.000 N 
ATOM     15  S   UNL     1     -12.748  55.407  50.042  0.00  0.00    +0.000 S 
ATOM     16  C   UNL     1     -11.373  53.171  50.401  0.00  0.00    +0.000 A 
ATOM     17  O   UNL     1     -13.132  56.159  48.861  0.00  0.00    +0.000 OA
ATOM     18  O   UNL     1     -13.641  55.241  51.158  0.00  0.00    +0.000 OA
ATOM     19  C   UNL     1     -12.287  53.750  49.505  0.00  0.00    +0.000 A 
ATOM     20  C   UNL     1     -10.324  52.403  49.896  0.00  0.00    +0.000 A 
ATOM     21  C   UNL     1     -12.297  53.423  48.157  0.00  0.00    +0.000 A 
ATOM     22  C   UNL     1     -10.223  52.207  48.523  0.00  0.00    +0.000 A 
ATOM     23  C   UNL     1     -11.233  52.664  47.666  0.00  0.00    +0.000 A 
ATOM     24  H   UNL     1     -10.932  56.850  50.373  0.00  0.00    +0.000 HD
ATOM     25  H   UNL     1     -11.367  53.529  52.539  0.00  0.00    +0.000 HD
ENDBRANCH   5  12
BRANCH   1  26
ATOM     26  N   UNL     1      -5.985  55.664  49.736  0.00  0.00    +0.000 N 
ATOM     27  H   UNL     1      -5.670  56.504  49.333  0.00  0.00    +0.000 HD
BRANCH  26  28
ATOM     28  C   UNL     1      -5.599  54.351  49.210  0.00  0.00    +0.000 C 
BRANCH  28  35
ATOM     29 BR   UNL     1      -8.995  52.814  44.241  0.00  0.00    +0.000 Br
ATOM     30  C   UNL     1      -8.006  53.278  45.785  0.00  0.00    +0.000 A 
ATOM     31  C   UNL     1      -8.052  54.582  46.274  0.00  0.00    +0.000 A 
ATOM     32  C   UNL     1      -7.224  52.315  46.417  0.00  0.00    +0.000 A 
ATOM     33  C   UNL     1      -7.295  54.929  47.398  0.00  0.00    +0.000 A 
ATOM     34  C   UNL     1      -6.465  52.663  47.536  0.00  0.00    +0.000 A 
ATOM     35  C   UNL     1      -6.480  53.977  48.031  0.00  0.00    +0.000 A 
ENDBRANCH  28  35
ENDBRANCH  26  28
ENDBRANCH   1  26
BRANCH   8  36
ATOM     36  O   UNL     1      -9.523  54.719  54.016  0.00  0.00    +0.000 OA
ATOM     37  H   UNL     1     -10.428  54.963  54.012  0.00  0.00    +0.000 HD
ENDBRANCH   8  36
TORSDOF 5
ENDMDL
MODEL 9
REMARK VINA RESULT:      -7.8      4.480      7.136
REMARK  Name = 
REMARK  5 active torsions:
REMARK  status: ('A' for Active; 'I' for Inactive)
REMARK    1  A    between atoms: C_7  and  C_8
REMARK    2  A    between atoms: C_8  and  N_9
REMARK    3  A    between atoms: N_9  and  N_10
REMARK    4  A    between atoms: C_14  and  C_17
REMARK    5  A    between atoms: C_18  and  O_23
REMARK                            x       y       z     vdW  Elec       q    Type
REMARK                         _______ _______ _______ _____ _____    ______ ____
ROOT
ATOM      1  N   UNL     1      -8.249  53.326  50.577  0.00  0.00    +0.000 N 
ATOM      2  C   UNL     1      -8.751  52.753  49.409  0.00  0.00    +0.000 A 
ATOM      3  C   UNL     1      -6.853  53.350  50.835  0.00  0.00    +0.000 A 
ATOM      4  O   UNL     1      -9.959  52.654  49.191  0.00  0.00    +0.000 OA
ATOM      5  C   UNL     1      -7.744  52.309  48.383  0.00  0.00    +0.000 A 
ATOM      6  C   UNL     1      -5.983  52.628  49.999  0.00  0.00    +0.000 A 
ATOM      7  C   UNL     1      -6.324  54.156  51.853  0.00  0.00    +0.000 A 
ATOM      8  C   UNL     1      -6.494  52.002  48.771  0.00  0.00    +0.000 A 
ATOM      9  C   UNL     1      -4.597  52.737  50.194  0.00  0.00    +0.000 A 
ATOM     10  C   UNL     1      -4.948  54.305  51.991  0.00  0.00    +0.000 A 
ATOM     11  C   UNL     1      -4.084  53.597  51.163  0.00  0.00    +0.000 A 
ENDROOT
BRANCH   5  12
ATOM     12  C   UNL     1      -8.151  52.223  46.937  0.00  0.00    +0.000 C 
ATOM     13  N   UNL     1      -8.932  51.262  46.490  0.00  0.00    +0.000 N 
ATOM     14  N   UNL     1      -7.758  53.254  46.090  0.00  0.00    +0.000 N 
ATOM     15  S   UNL     1      -9.462  51.460  44.927  0.00  0.00    +0.000 S 
ATOM     16  C   UNL     1      -8.955  53.939  45.718  0.00  0.00    +0.000 A 
ATOM     17  O   UNL     1     -10.689  50.709  44.740  0.00  0.00    +0.000 OA
ATOM     18  O   UNL     1      -8.353  51.341  44.017  0.00  0.00    +0.000 OA
ATOM     19  C   UNL     1      -9.897  53.209  44.974  0.00  0.00    +0.000 A 
ATOM     20  C   UNL     1      -9.400  54.965  46.551  0.00  0.00    +0.000 A 
ATOM     21  C   UNL     1     -11.225  53.601  44.888  0.00  0.00    +0.000 A 
ATOM     22  C   UNL     1     -10.757  55.259  46.604  0.00  0.00    +0.000 A 
ATOM     23  C   UNL     1     -11.655  54.622  45.738  0.00  0.00    +0.000 A 
ATOM     24  H   UNL     1      -9.182  50.484  47.038  0.00  0.00    +0.000 HD
ATOM     25  H   UNL     1      -6.841  53.468  45.805  0.00  0.00    +0.000 HD
ENDBRANCH   5  12
BRANCH   1  26
ATOM     26  N   UNL     1      -9.077  54.246  51.303  0.00  0.00    +0.000 N 
ATOM     27  H   UNL     1      -9.458  54.027  52.183  0.00  0.00    +0.000 HD
BRANCH  26  28
ATOM     28  C   UNL     1      -9.317  55.535  50.645  0.00  0.00    +0.000 C 
BRANCH  28  35
ATOM     29 BR   UNL     1     -15.439  56.578  50.532  0.00  0.00    +0.000 Br
ATOM     30  C   UNL     1     -13.567  56.311  50.583  0.00  0.00    +0.000 A 
ATOM     31  C   UNL     1     -12.772  56.765  49.531  0.00  0.00    +0.000 A 
ATOM     32  C   UNL     1     -12.996  55.650  51.666  0.00  0.00    +0.000 A 
ATOM     33  C   UNL     1     -11.392  56.538  49.558  0.00  0.00    +0.000 A 
ATOM     34  C   UNL     1     -11.618  55.421  51.689  0.00  0.00    +0.000 A 
ATOM     35  C   UNL     1     -10.802  55.849  50.630  0.00  0.00    +0.000 A 
ENDBRANCH  28  35
ENDBRANCH  26  28
ENDBRANCH   1  26
BRANCH   8  36
ATOM     36  O   UNL     1      -5.553  51.348  48.000  0.00  0.00    +0.000 OA
ATOM     37  H   UNL     1      -5.376  50.440  48.147  0.00  0.00    +0.000 HD
ENDBRANCH   8  36
TORSDOF 5
ENDMDL
