MODEL 1
REMARK VINA RESULT:      -8.4      0.000      0.000
REMARK  Name = 
REMARK  6 active torsions:
REMARK  status: ('A' for Active; 'I' for Inactive)
REMARK    1  A    between atoms: C_6  and  C_10
REMARK    2  A    between atoms: C_14  and  O_18
REMARK    3  A    between atoms: N_17  and  N_20
REMARK    4  A    between atoms: N_20  and  C_23
REMARK    5  A    between atoms: C_23  and  C_26
REMARK    6  A    between atoms: C_29  and  C_32
REMARK                            x       y       z     vdW  Elec       q    Type
REMARK                         _______ _______ _______ _____ _____    ______ ____
ROOT
ATOM      1  C   UNL     1     -10.028  54.303  52.405  0.00  0.00    +0.000 A 
ATOM      2  C   UNL     1      -8.643  54.865  52.346  0.00  0.00    +0.000 A 
ATOM      3  C   UNL     1     -10.278  53.195  53.121  0.00  0.00    +0.000 A 
ATOM      4  O   UNL     1      -8.514  55.945  51.761  0.00  0.00    +0.000 OA
ATOM      5  N   UNL     1      -7.603  54.155  52.967  0.00  0.00    +0.000 N 
ATOM      6  C   UNL     1      -9.202  52.525  53.865  0.00  0.00    +0.000 A 
ATOM      7  C   UNL     1      -7.879  52.992  53.767  0.00  0.00    +0.000 A 
ATOM      8  C   UNL     1      -9.492  51.411  54.674  0.00  0.00    +0.000 A 
ATOM      9  C   UNL     1      -6.877  52.319  54.492  0.00  0.00    +0.000 A 
ATOM     10  C   UNL     1      -8.493  50.777  55.407  0.00  0.00    +0.000 A 
ATOM     11  C   UNL     1      -7.187  51.234  55.318  0.00  0.00    +0.000 A 
ENDROOT
BRANCH   1  17
ATOM     12  S   UNL     1     -12.216  55.805  49.502  0.00  0.00    +0.000 S 
ATOM     13  O   UNL     1     -13.085  54.815  48.896  0.00  0.00    +0.000 OA
ATOM     14  O   UNL     1     -11.516  56.767  48.673  0.00  0.00    +0.000 OA
ATOM     15  N   UNL     1     -11.114  55.013  50.385  0.00  0.00    +0.000 N 
ATOM     16  C   UNL     1     -13.226  56.742  50.588  0.00  0.00    +0.000 A 
ATOM     17  C   UNL     1     -11.146  55.041  51.686  0.00  0.00    +0.000 C 
ATOM     18  C   UNL     1     -13.037  56.581  51.949  0.00  0.00    +0.000 A 
ATOM     19  C   UNL     1     -14.183  57.623  50.072  0.00  0.00    +0.000 A 
ATOM     20  N   UNL     1     -12.096  55.685  52.449  0.00  0.00    +0.000 N 
ATOM     21  C   UNL     1     -13.881  57.277  52.822  0.00  0.00    +0.000 A 
ATOM     22  C   UNL     1     -14.993  58.336  50.953  0.00  0.00    +0.000 A 
ATOM     23  C   UNL     1     -14.848  58.157  52.328  0.00  0.00    +0.000 A 
ATOM     24  H   UNL     1     -10.407  54.501  49.930  0.00  0.00    +0.000 HD
ATOM     25  H   UNL     1     -12.111  55.498  53.416  0.00  0.00    +0.000 HD
ENDBRANCH   1  17
BRANCH   3  26
ATOM     26  O   UNL     1     -11.528  52.614  53.248  0.00  0.00    +0.000 OA
ATOM     27  H   UNL     1     -11.603  51.697  53.427  0.00  0.00    +0.000 HD
ENDBRANCH   3  26
BRANCH   5  28
ATOM     28  N   UNL     1      -6.210  54.497  52.721  0.00  0.00    +0.000 N 
ATOM     29  H   UNL     1      -5.777  55.258  53.171  0.00  0.00    +0.000 HD
BRANCH  28  30
ATOM     30  C   UNL     1      -5.479  53.647  51.767  0.00  0.00    +0.000 C 
BRANCH  30  31
ATOM     31  C   UNL     1      -6.060  53.768  50.381  0.00  0.00    +0.000 A 
ATOM     32  S   UNL     1      -5.700  55.148  49.430  0.00  0.00    +0.000 S 
ATOM     33  C   UNL     1      -6.953  52.914  49.748  0.00  0.00    +0.000 A 
ATOM     34  C   UNL     1      -6.756  54.646  48.188  0.00  0.00    +0.000 A 
ATOM     35  C   UNL     1      -7.349  53.439  48.473  0.00  0.00    +0.000 A 
ATOM     36  C   UNL     1      -7.479  51.629  50.303  0.00  0.00    +0.000 C 
ENDBRANCH  30  31
ENDBRANCH  28  30
ENDBRANCH   5  28
TORSDOF 5
ENDMDL
MODEL 2
REMARK VINA RESULT:      -8.3      2.830      5.255
REMARK  Name = 
REMARK  6 active torsions:
REMARK  status: ('A' for Active; 'I' for Inactive)
REMARK    1  A    between atoms: C_6  and  C_10
REMARK    2  A    between atoms: C_14  and  O_18
REMARK    3  A    between atoms: N_17  and  N_20
REMARK    4  A    between atoms: N_20  and  C_23
REMARK    5  A    between atoms: C_23  and  C_26
REMARK    6  A    between atoms: C_29  and  C_32
REMARK                            x       y       z     vdW  Elec       q    Type
REMARK                         _______ _______ _______ _____ _____    ______ ____
ROOT
ATOM      1  C   UNL     1     -11.758  55.666  48.700  0.00  0.00    +0.000 A 
ATOM      2  C   UNL     1     -10.821  54.875  49.556  0.00  0.00    +0.000 A 
ATOM      3  C   UNL     1     -11.852  55.410  47.385  0.00  0.00    +0.000 A 
ATOM      4  O   UNL     1     -10.872  55.092  50.771  0.00  0.00    +0.000 OA
ATOM      5  N   UNL     1      -9.976  53.938  48.938  0.00  0.00    +0.000 N 
ATOM      6  C   UNL     1     -11.048  54.346  46.769  0.00  0.00    +0.000 A 
ATOM      7  C   UNL     1     -10.108  53.637  47.539  0.00  0.00    +0.000 A 
ATOM      8  C   UNL     1     -11.214  54.035  45.407  0.00  0.00    +0.000 A 
ATOM      9  C   UNL     1      -9.354  52.627  46.909  0.00  0.00    +0.000 A 
ATOM     10  C   UNL     1     -10.481  53.014  44.809  0.00  0.00    +0.000 A 
ATOM     11  C   UNL     1      -9.554  52.308  45.562  0.00  0.00    +0.000 A 
ENDROOT
BRANCH   1  17
ATOM     12  S   UNL     1     -13.487  59.121  49.438  0.00  0.00    +0.000 S 
ATOM     13  O   UNL     1     -14.615  59.373  48.563  0.00  0.00    +0.000 OA
ATOM     14  O   UNL     1     -12.558  60.189  49.758  0.00  0.00    +0.000 OA
ATOM     15  N   UNL     1     -12.638  57.897  48.803  0.00  0.00    +0.000 N 
ATOM     16  C   UNL     1     -14.164  58.590  50.968  0.00  0.00    +0.000 A 
ATOM     17  C   UNL     1     -12.634  56.721  49.359  0.00  0.00    +0.000 C 
ATOM     18  C   UNL     1     -14.000  57.263  51.322  0.00  0.00    +0.000 A 
ATOM     19  C   UNL     1     -14.839  59.499  51.789  0.00  0.00    +0.000 A 
ATOM     20  N   UNL     1     -13.344  56.365  50.485  0.00  0.00    +0.000 N 
ATOM     21  C   UNL     1     -14.592  56.817  52.509  0.00  0.00    +0.000 A 
ATOM     22  C   UNL     1     -15.393  59.050  52.985  0.00  0.00    +0.000 A 
ATOM     23  C   UNL     1     -15.276  57.707  53.342  0.00  0.00    +0.000 A 
ATOM     24  H   UNL     1     -12.117  58.045  47.981  0.00  0.00    +0.000 HD
ATOM     25  H   UNL     1     -13.391  55.408  50.714  0.00  0.00    +0.000 HD
ENDBRANCH   1  17
BRANCH   3  26
ATOM     26  O   UNL     1     -12.702  56.078  46.520  0.00  0.00    +0.000 OA
ATOM     27  H   UNL     1     -13.026  56.928  46.744  0.00  0.00    +0.000 HD
ENDBRANCH   3  26
BRANCH   5  28
ATOM     28  N   UNL     1      -8.866  53.337  49.663  0.00  0.00    +0.000 N 
ATOM     29  H   UNL     1      -8.947  52.455  50.095  0.00  0.00    +0.000 HD
BRANCH  28  30
ATOM     30  C   UNL     1      -7.616  54.111  49.717  0.00  0.00    +0.000 C 
BRANCH  30  31
ATOM     31  C   UNL     1      -7.346  54.603  51.117  0.00  0.00    +0.000 A 
ATOM     32  S   UNL     1      -6.956  53.478  52.350  0.00  0.00    +0.000 S 
ATOM     33  C   UNL     1      -7.443  55.901  51.603  0.00  0.00    +0.000 A 
ATOM     34  C   UNL     1      -6.951  54.693  53.546  0.00  0.00    +0.000 A 
ATOM     35  C   UNL     1      -7.209  55.936  53.018  0.00  0.00    +0.000 A 
ATOM     36  C   UNL     1      -7.775  57.115  50.797  0.00  0.00    +0.000 C 
ENDBRANCH  30  31
ENDBRANCH  28  30
ENDBRANCH   5  28
TORSDOF 5
ENDMDL
MODEL 3
REMARK VINA RESULT:      -8.3      2.101      2.874
REMARK  Name = 
REMARK  6 active torsions:
REMARK  status: ('A' for Active; 'I' for Inactive)
REMARK    1  A    between atoms: C_6  and  C_10
REMARK    2  A    between atoms: C_14  and  O_18
REMARK    3  A    between atoms: N_17  and  N_20
REMARK    4  A    between atoms: N_20  and  C_23
REMARK    5  A    between atoms: C_23  and  C_26
REMARK    6  A    between atoms: C_29  and  C_32
REMARK                            x       y       z     vdW  Elec       q    Type
REMARK                         _______ _______ _______ _____ _____    ______ ____
ROOT
ATOM      1  C   UNL     1     -11.132  54.624  50.965  0.00  0.00    +0.000 A 
ATOM      2  C   UNL     1      -9.719  55.030  50.692  0.00  0.00    +0.000 A 
ATOM      3  C   UNL     1     -11.411  53.370  51.357  0.00  0.00    +0.000 A 
ATOM      4  O   UNL     1      -9.530  56.225  50.443  0.00  0.00    +0.000 OA
ATOM      5  N   UNL     1      -8.714  54.051  50.756  0.00  0.00    +0.000 N 
ATOM      6  C   UNL     1     -10.336  52.384  51.536  0.00  0.00    +0.000 A 
ATOM      7  C   UNL     1      -9.008  52.721  51.216  0.00  0.00    +0.000 A 
ATOM      8  C   UNL     1     -10.633  51.098  52.024  0.00  0.00    +0.000 A 
ATOM      9  C   UNL     1      -8.009  51.746  51.397  0.00  0.00    +0.000 A 
ATOM     10  C   UNL     1      -9.628  50.157  52.224  0.00  0.00    +0.000 A 
ATOM     11  C   UNL     1      -8.316  50.483  51.914  0.00  0.00    +0.000 A 
ENDROOT
BRANCH   1  17
ATOM     12  S   UNL     1     -13.556  57.291  49.389  0.00  0.00    +0.000 S 
ATOM     13  O   UNL     1     -14.676  56.680  48.701  0.00  0.00    +0.000 OA
ATOM     14  O   UNL     1     -12.877  58.434  48.809  0.00  0.00    +0.000 OA
ATOM     15  N   UNL     1     -12.451  56.135  49.646  0.00  0.00    +0.000 N 
ATOM     16  C   UNL     1     -14.169  57.826  50.943  0.00  0.00    +0.000 A 
ATOM     17  C   UNL     1     -12.229  55.670  50.841  0.00  0.00    +0.000 C 
ATOM     18  C   UNL     1     -13.753  57.144  52.073  0.00  0.00    +0.000 A 
ATOM     19  C   UNL     1     -15.047  58.913  51.014  0.00  0.00    +0.000 A 
ATOM     20  N   UNL     1     -12.895  56.052  51.985  0.00  0.00    +0.000 N 
ATOM     21  C   UNL     1     -14.286  57.524  53.309  0.00  0.00    +0.000 A 
ATOM     22  C   UNL     1     -15.544  59.302  52.256  0.00  0.00    +0.000 A 
ATOM     23  C   UNL     1     -15.170  58.604  53.403  0.00  0.00    +0.000 A 
ATOM     24  H   UNL     1     -11.939  55.777  48.885  0.00  0.00    +0.000 HD
ATOM     25  H   UNL     1     -12.755  55.513  52.798  0.00  0.00    +0.000 HD
ENDBRANCH   1  17
BRANCH   3  26
ATOM     26  O   UNL     1     -12.683  52.910  51.649  0.00  0.00    +0.000 OA
ATOM     27  H   UNL     1     -13.318  52.821  50.965  0.00  0.00    +0.000 HD
ENDBRANCH   3  26
BRANCH   5  28
ATOM     28  N   UNL     1      -7.377  54.314  50.244  0.00  0.00    +0.000 N 
ATOM     29  H   UNL     1      -7.039  53.875  49.429  0.00  0.00    +0.000 HD
BRANCH  28  30
ATOM     30  C   UNL     1      -6.553  55.269  51.004  0.00  0.00    +0.000 C 
BRANCH  30  31
ATOM     31  C   UNL     1      -5.991  54.627  52.247  0.00  0.00    +0.000 A 
ATOM     32  S   UNL     1      -4.574  53.668  52.138  0.00  0.00    +0.000 S 
ATOM     33  C   UNL     1      -6.520  54.636  53.532  0.00  0.00    +0.000 A 
ATOM     34  C   UNL     1      -4.671  53.225  53.782  0.00  0.00    +0.000 A 
ATOM     35  C   UNL     1      -5.740  53.817  54.413  0.00  0.00    +0.000 A 
ATOM     36  C   UNL     1      -7.751  55.365  53.965  0.00  0.00    +0.000 C 
ENDBRANCH  30  31
ENDBRANCH  28  30
ENDBRANCH   5  28
TORSDOF 5
ENDMDL
MODEL 4
REMARK VINA RESULT:      -8.3      2.012      2.532
REMARK  Name = 
REMARK  6 active torsions:
REMARK  status: ('A' for Active; 'I' for Inactive)
REMARK    1  A    between atoms: C_6  and  C_10
REMARK    2  A    between atoms: C_14  and  O_18
REMARK    3  A    between atoms: N_17  and  N_20
REMARK    4  A    between atoms: N_20  and  C_23
REMARK    5  A    between atoms: C_23  and  C_26
REMARK    6  A    between atoms: C_29  and  C_32
REMARK                            x       y       z     vdW  Elec       q    Type
REMARK                         _______ _______ _______ _____ _____    ______ ____
ROOT
ATOM      1  C   UNL     1     -11.365  53.846  51.636  0.00  0.00    +0.000 A 
ATOM      2  C   UNL     1     -10.446  54.005  52.805  0.00  0.00    +0.000 A 
ATOM      3  C   UNL     1     -11.483  52.655  51.027  0.00  0.00    +0.000 A 
ATOM      4  O   UNL     1     -10.473  55.099  53.380  0.00  0.00    +0.000 OA
ATOM      5  N   UNL     1      -9.642  52.917  53.182  0.00  0.00    +0.000 N 
ATOM      6  C   UNL     1     -10.725  51.491  51.504  0.00  0.00    +0.000 A 
ATOM      7  C   UNL     1      -9.800  51.632  52.556  0.00  0.00    +0.000 A 
ATOM      8  C   UNL     1     -10.918  50.231  50.908  0.00  0.00    +0.000 A 
ATOM      9  C   UNL     1      -9.090  50.493  52.979  0.00  0.00    +0.000 A 
ATOM     10  C   UNL     1     -10.228  49.109  51.360  0.00  0.00    +0.000 A 
ATOM     11  C   UNL     1      -9.318  49.241  52.399  0.00  0.00    +0.000 A 
ENDROOT
BRANCH   1  17
ATOM     12  S   UNL     1     -12.821  56.720  49.379  0.00  0.00    +0.000 S 
ATOM     13  O   UNL     1     -13.835  56.240  48.460  0.00  0.00    +0.000 OA
ATOM     14  O   UNL     1     -11.830  57.682  48.937  0.00  0.00    +0.000 OA
ATOM     15  N   UNL     1     -12.036  55.428  49.959  0.00  0.00    +0.000 N 
ATOM     16  C   UNL     1     -13.684  57.483  50.703  0.00  0.00    +0.000 A 
ATOM     17  C   UNL     1     -12.194  55.041  51.192  0.00  0.00    +0.000 C 
ATOM     18  C   UNL     1     -13.680  56.847  51.931  0.00  0.00    +0.000 A 
ATOM     19  C   UNL     1     -14.344  58.700  50.500  0.00  0.00    +0.000 A 
ATOM     20  N   UNL     1     -13.036  55.626  52.113  0.00  0.00    +0.000 N 
ATOM     21  C   UNL     1     -14.418  57.417  52.975  0.00  0.00    +0.000 A 
ATOM     22  C   UNL     1     -15.047  59.274  51.557  0.00  0.00    +0.000 A 
ATOM     23  C   UNL     1     -15.090  58.629  52.793  0.00  0.00    +0.000 A 
ATOM     24  H   UNL     1     -11.429  54.925  49.369  0.00  0.00    +0.000 HD
ATOM     25  H   UNL     1     -13.194  55.146  52.959  0.00  0.00    +0.000 HD
ENDBRANCH   1  17
BRANCH   3  26
ATOM     26  O   UNL     1     -12.320  52.409  49.952  0.00  0.00    +0.000 OA
ATOM     27  H   UNL     1     -12.927  53.066  49.671  0.00  0.00    +0.000 HD
ENDBRANCH   3  26
BRANCH   5  28
ATOM     28  N   UNL     1      -8.545  53.084  54.123  0.00  0.00    +0.000 N 
ATOM     29  H   UNL     1      -8.695  53.090  55.097  0.00  0.00    +0.000 HD
BRANCH  28  30
ATOM     30  C   UNL     1      -7.199  53.243  53.549  0.00  0.00    +0.000 C 
BRANCH  30  31
ATOM     31  C   UNL     1      -7.158  54.398  52.581  0.00  0.00    +0.000 A 
ATOM     32  S   UNL     1      -7.127  56.004  53.180  0.00  0.00    +0.000 S 
ATOM     33  C   UNL     1      -7.217  54.358  51.194  0.00  0.00    +0.000 A 
ATOM     34  C   UNL     1      -7.233  56.660  51.609  0.00  0.00    +0.000 A 
ATOM     35  C   UNL     1      -7.259  55.681  50.644  0.00  0.00    +0.000 A 
ATOM     36  C   UNL     1      -7.264  53.120  50.356  0.00  0.00    +0.000 C 
ENDBRANCH  30  31
ENDBRANCH  28  30
ENDBRANCH   5  28
TORSDOF 5
ENDMDL
MODEL 5
REMARK VINA RESULT:      -8.3      2.528      7.933
REMARK  Name = 
REMARK  6 active torsions:
REMARK  status: ('A' for Active; 'I' for Inactive)
REMARK    1  A    between atoms: C_6  and  C_10
REMARK    2  A    between atoms: C_14  and  O_18
REMARK    3  A    between atoms: N_17  and  N_20
REMARK    4  A    between atoms: N_20  and  C_23
REMARK    5  A    between atoms: C_23  and  C_26
REMARK    6  A    between atoms: C_29  and  C_32
REMARK                            x       y       z     vdW  Elec       q    Type
REMARK                         _______ _______ _______ _____ _____    ______ ____
ROOT
ATOM      1  C   UNL     1      -9.631  54.214  50.221  0.00  0.00    +0.000 A 
ATOM      2  C   UNL     1     -10.875  55.031  50.370  0.00  0.00    +0.000 A 
ATOM      3  C   UNL     1      -9.278  53.733  49.018  0.00  0.00    +0.000 A 
ATOM      4  O   UNL     1     -11.074  55.530  51.482  0.00  0.00    +0.000 OA
ATOM      5  N   UNL     1     -11.709  55.195  49.251  0.00  0.00    +0.000 N 
ATOM      6  C   UNL     1     -10.097  54.011  47.831  0.00  0.00    +0.000 A 
ATOM      7  C   UNL     1     -11.308  54.715  47.957  0.00  0.00    +0.000 A 
ATOM      8  C   UNL     1      -9.674  53.569  46.563  0.00  0.00    +0.000 A 
ATOM      9  C   UNL     1     -12.066  54.956  46.794  0.00  0.00    +0.000 A 
ATOM     10  C   UNL     1     -10.421  53.842  45.421  0.00  0.00    +0.000 A 
ATOM     11  C   UNL     1     -11.615  54.539  45.538  0.00  0.00    +0.000 A 
ENDROOT
BRANCH   1  17
ATOM     12  S   UNL     1      -6.671  54.582  52.786  0.00  0.00    +0.000 S 
ATOM     13  O   UNL     1      -6.848  55.715  53.674  0.00  0.00    +0.000 OA
ATOM     14  O   UNL     1      -5.366  54.290  52.225  0.00  0.00    +0.000 OA
ATOM     15  N   UNL     1      -7.712  54.758  51.558  0.00  0.00    +0.000 N 
ATOM     16  C   UNL     1      -7.135  53.162  53.706  0.00  0.00    +0.000 A 
ATOM     17  C   UNL     1      -8.756  53.989  51.444  0.00  0.00    +0.000 C 
ATOM     18  C   UNL     1      -8.310  52.520  53.358  0.00  0.00    +0.000 A 
ATOM     19  C   UNL     1      -6.324  52.708  54.751  0.00  0.00    +0.000 A 
ATOM     20  N   UNL     1      -9.118  52.996  52.329  0.00  0.00    +0.000 N 
ATOM     21  C   UNL     1      -8.719  51.425  54.127  0.00  0.00    +0.000 A 
ATOM     22  C   UNL     1      -6.726  51.595  55.487  0.00  0.00    +0.000 A 
ATOM     23  C   UNL     1      -7.927  50.958  55.180  0.00  0.00    +0.000 A 
ATOM     24  H   UNL     1      -7.553  55.459  50.885  0.00  0.00    +0.000 HD
ATOM     25  H   UNL     1     -10.012  52.595  52.226  0.00  0.00    +0.000 HD
ENDBRANCH   1  17
BRANCH   3  26
ATOM     26  O   UNL     1      -8.138  52.984  48.782  0.00  0.00    +0.000 OA
ATOM     27  H   UNL     1      -8.112  52.081  49.030  0.00  0.00    +0.000 HD
ENDBRANCH   3  26
BRANCH   5  28
ATOM     28  N   UNL     1     -13.051  55.741  49.390  0.00  0.00    +0.000 N 
ATOM     29  H   UNL     1     -13.831  55.162  49.551  0.00  0.00    +0.000 HD
BRANCH  28  30
ATOM     30  C   UNL     1     -13.185  57.203  49.277  0.00  0.00    +0.000 C 
BRANCH  30  31
ATOM     31  C   UNL     1     -13.866  57.778  50.492  0.00  0.00    +0.000 A 
ATOM     32  S   UNL     1     -14.413  56.728  51.733  0.00  0.00    +0.000 S 
ATOM     33  C   UNL     1     -14.201  59.102  50.742  0.00  0.00    +0.000 A 
ATOM     34  C   UNL     1     -15.133  58.014  52.591  0.00  0.00    +0.000 A 
ATOM     35  C   UNL     1     -14.938  59.223  51.967  0.00  0.00    +0.000 A 
ATOM     36  C   UNL     1     -13.883  60.266  49.860  0.00  0.00    +0.000 C 
ENDBRANCH  30  31
ENDBRANCH  28  30
ENDBRANCH   5  28
TORSDOF 5
ENDMDL
MODEL 6
REMARK VINA RESULT:      -8.2      3.657      4.627
REMARK  Name = 
REMARK  6 active torsions:
REMARK  status: ('A' for Active; 'I' for Inactive)
REMARK    1  A    between atoms: C_6  and  C_10
REMARK    2  A    between atoms: C_14  and  O_18
REMARK    3  A    between atoms: N_17  and  N_20
REMARK    4  A    between atoms: N_20  and  C_23
REMARK    5  A    between atoms: C_23  and  C_26
REMARK    6  A    between atoms: C_29  and  C_32
REMARK                            x       y       z     vdW  Elec       q    Type
REMARK                         _______ _______ _______ _____ _____    ______ ____
ROOT
ATOM      1  C   UNL     1     -12.554  54.245  49.586  0.00  0.00    +0.000 A 
ATOM      2  C   UNL     1     -12.095  54.174  48.165  0.00  0.00    +0.000 A 
ATOM      3  C   UNL     1     -12.240  53.264  50.449  0.00  0.00    +0.000 A 
ATOM      4  O   UNL     1     -12.327  55.163  47.463  0.00  0.00    +0.000 OA
ATOM      5  N   UNL     1     -11.421  53.019  47.734  0.00  0.00    +0.000 N 
ATOM      6  C   UNL     1     -11.433  52.116  50.015  0.00  0.00    +0.000 A 
ATOM      7  C   UNL     1     -11.050  51.990  48.667  0.00  0.00    +0.000 A 
ATOM      8  C   UNL     1     -11.043  51.136  50.947  0.00  0.00    +0.000 A 
ATOM      9  C   UNL     1     -10.280  50.872  48.293  0.00  0.00    +0.000 A 
ATOM     10  C   UNL     1     -10.258  50.053  50.564  0.00  0.00    +0.000 A 
ATOM     11  C   UNL     1      -9.874  49.924  49.237  0.00  0.00    +0.000 A 
ENDROOT
BRANCH   1  17
ATOM     12  S   UNL     1     -15.388  56.461  51.176  0.00  0.00    +0.000 S 
ATOM     13  O   UNL     1     -15.277  56.549  52.619  0.00  0.00    +0.000 OA
ATOM     14  O   UNL     1     -16.687  56.294  50.553  0.00  0.00    +0.000 OA
ATOM     15  N   UNL     1     -14.441  55.244  50.686  0.00  0.00    +0.000 N 
ATOM     16  C   UNL     1     -14.734  57.961  50.544  0.00  0.00    +0.000 A 
ATOM     17  C   UNL     1     -13.333  55.470  50.041  0.00  0.00    +0.000 C 
ATOM     18  C   UNL     1     -13.522  57.910  49.879  0.00  0.00    +0.000 A 
ATOM     19  C   UNL     1     -15.436  59.159  50.713  0.00  0.00    +0.000 A 
ATOM     20  N   UNL     1     -12.824  56.714  49.736  0.00  0.00    +0.000 N 
ATOM     21  C   UNL     1     -12.963  59.110  49.427  0.00  0.00    +0.000 A 
ATOM     22  C   UNL     1     -14.884  60.343  50.228  0.00  0.00    +0.000 A 
ATOM     23  C   UNL     1     -13.644  60.320  49.592  0.00  0.00    +0.000 A 
ATOM     24  H   UNL     1     -14.706  54.316  50.879  0.00  0.00    +0.000 HD
ATOM     25  H   UNL     1     -11.902  56.760  49.393  0.00  0.00    +0.000 HD
ENDBRANCH   1  17
BRANCH   3  26
ATOM     26  O   UNL     1     -12.606  53.254  51.784  0.00  0.00    +0.000 OA
ATOM     27  H   UNL     1     -12.090  52.780  52.407  0.00  0.00    +0.000 HD
ENDBRANCH   3  26
BRANCH   5  28
ATOM     28  N   UNL     1     -11.189  52.770  46.319  0.00  0.00    +0.000 N 
ATOM     29  H   UNL     1     -11.625  52.024  45.847  0.00  0.00    +0.000 HD
BRANCH  28  30
ATOM     30  C   UNL     1     -10.271  53.690  45.628  0.00  0.00    +0.000 C 
BRANCH  30  31
ATOM     31  C   UNL     1      -8.910  53.684  46.277  0.00  0.00    +0.000 A 
ATOM     32  S   UNL     1      -8.434  55.007  47.257  0.00  0.00    +0.000 S 
ATOM     33  C   UNL     1      -7.895  52.746  46.135  0.00  0.00    +0.000 A 
ATOM     34  C   UNL     1      -6.866  54.369  47.469  0.00  0.00    +0.000 A 
ATOM     35  C   UNL     1      -6.714  53.158  46.834  0.00  0.00    +0.000 A 
ATOM     36  C   UNL     1      -7.978  51.482  45.340  0.00  0.00    +0.000 C 
ENDBRANCH  30  31
ENDBRANCH  28  30
ENDBRANCH   5  28
TORSDOF 5
ENDMDL
MODEL 7
REMARK VINA RESULT:      -8.2      2.748      8.037
REMARK  Name = 
REMARK  6 active torsions:
REMARK  status: ('A' for Active; 'I' for Inactive)
REMARK    1  A    between atoms: C_6  and  C_10
REMARK    2  A    between atoms: C_14  and  O_18
REMARK    3  A    between atoms: N_17  and  N_20
REMARK    4  A    between atoms: N_20  and  C_23
REMARK    5  A    between atoms: C_23  and  C_26
REMARK    6  A    between atoms: C_29  and  C_32
REMARK                            x       y       z     vdW  Elec       q    Type
REMARK                         _______ _______ _______ _____ _____    ______ ____
ROOT
ATOM      1  C   UNL     1      -9.051  54.343  49.800  0.00  0.00    +0.000 A 
ATOM      2  C   UNL     1      -9.978  55.516  49.790  0.00  0.00    +0.000 A 
ATOM      3  C   UNL     1      -9.026  53.493  48.761  0.00  0.00    +0.000 A 
ATOM      4  O   UNL     1      -9.865  56.312  50.728  0.00  0.00    +0.000 OA
ATOM      5  N   UNL     1     -10.885  55.647  48.726  0.00  0.00    +0.000 N 
ATOM      6  C   UNL     1      -9.896  53.706  47.597  0.00  0.00    +0.000 A 
ATOM      7  C   UNL     1     -10.828  54.761  47.596  0.00  0.00    +0.000 A 
ATOM      8  C   UNL     1      -9.804  52.854  46.481  0.00  0.00    +0.000 A 
ATOM      9  C   UNL     1     -11.647  54.927  46.462  0.00  0.00    +0.000 A 
ATOM     10  C   UNL     1     -10.601  53.052  45.358  0.00  0.00    +0.000 A 
ATOM     11  C   UNL     1     -11.519  54.092  45.348  0.00  0.00    +0.000 A 
ENDROOT
BRANCH   1  17
ATOM     12  S   UNL     1      -7.744  54.092  53.502  0.00  0.00    +0.000 S 
ATOM     13  O   UNL     1      -8.007  52.795  54.094  0.00  0.00    +0.000 OA
ATOM     14  O   UNL     1      -7.935  55.303  54.278  0.00  0.00    +0.000 OA
ATOM     15  N   UNL     1      -8.647  54.211  52.163  0.00  0.00    +0.000 N 
ATOM     16  C   UNL     1      -6.054  54.080  53.029  0.00  0.00    +0.000 A 
ATOM     17  C   UNL     1      -8.107  54.168  50.980  0.00  0.00    +0.000 C 
ATOM     18  C   UNL     1      -5.759  54.041  51.678  0.00  0.00    +0.000 A 
ATOM     19  C   UNL     1      -5.052  54.112  54.006  0.00  0.00    +0.000 A 
ATOM     20  N   UNL     1      -6.766  53.988  50.718  0.00  0.00    +0.000 N 
ATOM     21  C   UNL     1      -4.415  53.967  51.295  0.00  0.00    +0.000 A 
ATOM     22  C   UNL     1      -3.718  54.073  53.609  0.00  0.00    +0.000 A 
ATOM     23  C   UNL     1      -3.399  53.992  52.254  0.00  0.00    +0.000 A 
ATOM     24  H   UNL     1      -9.622  54.318  52.246  0.00  0.00    +0.000 HD
ATOM     25  H   UNL     1      -6.501  53.807  49.787  0.00  0.00    +0.000 HD
ENDBRANCH   1  17
BRANCH   3  26
ATOM     26  O   UNL     1      -8.190  52.392  48.674  0.00  0.00    +0.000 OA
ATOM     27  H   UNL     1      -7.291  52.465  48.928  0.00  0.00    +0.000 HD
ENDBRANCH   3  26
BRANCH   5  28
ATOM     28  N   UNL     1     -11.983  56.600  48.789  0.00  0.00    +0.000 N 
ATOM     29  H   UNL     1     -11.996  57.412  48.232  0.00  0.00    +0.000 HD
BRANCH  28  30
ATOM     30  C   UNL     1     -13.076  56.288  49.725  0.00  0.00    +0.000 C 
BRANCH  30  31
ATOM     31  C   UNL     1     -13.821  57.538  50.120  0.00  0.00    +0.000 A 
ATOM     32  S   UNL     1     -13.734  58.927  49.120  0.00  0.00    +0.000 S 
ATOM     33  C   UNL     1     -14.554  57.771  51.277  0.00  0.00    +0.000 A 
ATOM     34  C   UNL     1     -14.632  59.861  50.229  0.00  0.00    +0.000 A 
ATOM     35  C   UNL     1     -15.018  59.126  51.326  0.00  0.00    +0.000 A 
ATOM     36  C   UNL     1     -14.814  56.776  52.362  0.00  0.00    +0.000 C 
ENDBRANCH  30  31
ENDBRANCH  28  30
ENDBRANCH   5  28
TORSDOF 5
ENDMDL
MODEL 8
REMARK VINA RESULT:      -8.0      3.507      4.764
REMARK  Name = 
REMARK  6 active torsions:
REMARK  status: ('A' for Active; 'I' for Inactive)
REMARK    1  A    between atoms: C_6  and  C_10
REMARK    2  A    between atoms: C_14  and  O_18
REMARK    3  A    between atoms: N_17  and  N_20
REMARK    4  A    between atoms: N_20  and  C_23
REMARK    5  A    between atoms: C_23  and  C_26
REMARK    6  A    between atoms: C_29  and  C_32
REMARK                            x       y       z     vdW  Elec       q    Type
REMARK                         _______ _______ _______ _____ _____    ______ ____
ROOT
ATOM      1  C   UNL     1     -12.358  54.287  50.172  0.00  0.00    +0.000 A 
ATOM      2  C   UNL     1     -12.163  53.883  48.746  0.00  0.00    +0.000 A 
ATOM      3  C   UNL     1     -11.765  53.593  51.158  0.00  0.00    +0.000 A 
ATOM      4  O   UNL     1     -12.648  54.633  47.892  0.00  0.00    +0.000 OA
ATOM      5  N   UNL     1     -11.436  52.713  48.471  0.00  0.00    +0.000 N 
ATOM      6  C   UNL     1     -10.909  52.439  50.852  0.00  0.00    +0.000 A 
ATOM      7  C   UNL     1     -10.768  51.996  49.524  0.00  0.00    +0.000 A 
ATOM      8  C   UNL     1     -10.231  51.770  51.888  0.00  0.00    +0.000 A 
ATOM      9  C   UNL     1      -9.942  50.883  49.275  0.00  0.00    +0.000 A 
ATOM     10  C   UNL     1      -9.395  50.690  51.618  0.00  0.00    +0.000 A 
ATOM     11  C   UNL     1      -9.249  50.250  50.311  0.00  0.00    +0.000 A 
ENDROOT
BRANCH   1  17
ATOM     12  S   UNL     1     -15.321  56.548  51.429  0.00  0.00    +0.000 S 
ATOM     13  O   UNL     1     -15.271  56.780  52.859  0.00  0.00    +0.000 OA
ATOM     14  O   UNL     1     -16.588  56.274  50.777  0.00  0.00    +0.000 OA
ATOM     15  N   UNL     1     -14.317  55.321  51.097  0.00  0.00    +0.000 N 
ATOM     16  C   UNL     1     -14.690  58.000  50.674  0.00  0.00    +0.000 A 
ATOM     17  C   UNL     1     -13.192  55.522  50.474  0.00  0.00    +0.000 C 
ATOM     18  C   UNL     1     -13.450  57.926  50.063  0.00  0.00    +0.000 A 
ATOM     19  C   UNL     1     -15.435  59.184  50.698  0.00  0.00    +0.000 A 
ATOM     20  N   UNL     1     -12.711  56.747  50.065  0.00  0.00    +0.000 N 
ATOM     21  C   UNL     1     -12.912  59.095  49.515  0.00  0.00    +0.000 A 
ATOM     22  C   UNL     1     -14.902  60.332  50.118  0.00  0.00    +0.000 A 
ATOM     23  C   UNL     1     -13.637  60.290  49.532  0.00  0.00    +0.000 A 
ATOM     24  H   UNL     1     -14.561  54.408  51.372  0.00  0.00    +0.000 HD
ATOM     25  H   UNL     1     -11.777  56.792  49.754  0.00  0.00    +0.000 HD
ENDBRANCH   1  17
BRANCH   3  26
ATOM     26  O   UNL     1     -11.874  53.903  52.503  0.00  0.00    +0.000 OA
ATOM     27  H   UNL     1     -11.714  53.244  53.150  0.00  0.00    +0.000 HD
ENDBRANCH   3  26
BRANCH   5  28
ATOM     28  N   UNL     1     -11.438  52.122  47.141  0.00  0.00    +0.000 N 
ATOM     29  H   UNL     1     -11.283  51.159  47.003  0.00  0.00    +0.000 HD
BRANCH  28  30
ATOM     30  C   UNL     1     -11.684  53.035  46.013  0.00  0.00    +0.000 C 
BRANCH  30  31
ATOM     31  C   UNL     1     -10.425  53.260  45.216  0.00  0.00    +0.000 A 
ATOM     32  S   UNL     1     -10.140  52.333  43.803  0.00  0.00    +0.000 S 
ATOM     33  C   UNL     1      -9.363  54.105  45.511  0.00  0.00    +0.000 A 
ATOM     34  C   UNL     1      -8.590  53.013  43.591  0.00  0.00    +0.000 A 
ATOM     35  C   UNL     1      -8.304  53.950  44.556  0.00  0.00    +0.000 A 
ATOM     36  C   UNL     1      -9.286  55.040  46.675  0.00  0.00    +0.000 C 
ENDBRANCH  30  31
ENDBRANCH  28  30
ENDBRANCH   5  28
TORSDOF 5
ENDMDL
MODEL 9
REMARK VINA RESULT:      -8.0      3.234      5.265
REMARK  Name = 
REMARK  6 active torsions:
REMARK  status: ('A' for Active; 'I' for Inactive)
REMARK    1  A    between atoms: C_6  and  C_10
REMARK    2  A    between atoms: C_14  and  O_18
REMARK    3  A    between atoms: N_17  and  N_20
REMARK    4  A    between atoms: N_20  and  C_23
REMARK    5  A    between atoms: C_23  and  C_26
REMARK    6  A    between atoms: C_29  and  C_32
REMARK                            x       y       z     vdW  Elec       q    Type
REMARK                         _______ _______ _______ _____ _____    ______ ____
ROOT
ATOM      1  C   UNL     1     -11.859  54.729  48.669  0.00  0.00    +0.000 A 
ATOM      2  C   UNL     1     -11.181  53.672  49.479  0.00  0.00    +0.000 A 
ATOM      3  C   UNL     1     -11.702  54.764  47.335  0.00  0.00    +0.000 A 
ATOM      4  O   UNL     1     -11.461  53.638  50.682  0.00  0.00    +0.000 OA
ATOM      5  N   UNL     1     -10.303  52.788  48.831  0.00  0.00    +0.000 N 
ATOM      6  C   UNL     1     -10.874  53.761  46.652  0.00  0.00    +0.000 A 
ATOM      7  C   UNL     1     -10.168  52.800  47.400  0.00  0.00    +0.000 A 
ATOM      8  C   UNL     1     -10.782  53.760  45.248  0.00  0.00    +0.000 A 
ATOM      9  C   UNL     1      -9.382  51.860  46.707  0.00  0.00    +0.000 A 
ATOM     10  C   UNL     1     -10.023  52.804  44.579  0.00  0.00    +0.000 A 
ATOM     11  C   UNL     1      -9.327  51.852  45.309  0.00  0.00    +0.000 A 
ENDROOT
BRANCH   1  17
ATOM     12  S   UNL     1     -14.798  56.168  50.852  0.00  0.00    +0.000 S 
ATOM     13  O   UNL     1     -14.520  56.089  52.273  0.00  0.00    +0.000 OA
ATOM     14  O   UNL     1     -16.119  55.849  50.347  0.00  0.00    +0.000 OA
ATOM     15  N   UNL     1     -13.731  55.217  50.092  0.00  0.00    +0.000 N 
ATOM     16  C   UNL     1     -14.488  57.831  50.386  0.00  0.00    +0.000 A 
ATOM     17  C   UNL     1     -12.767  55.723  49.378  0.00  0.00    +0.000 C 
ATOM     18  C   UNL     1     -13.378  58.087  49.601  0.00  0.00    +0.000 A 
ATOM     19  C   UNL     1     -15.352  58.849  50.803  0.00  0.00    +0.000 A 
ATOM     20  N   UNL     1     -12.515  57.067  49.211  0.00  0.00    +0.000 N 
ATOM     21  C   UNL     1     -13.088  59.418  49.277  0.00  0.00    +0.000 A 
ATOM     22  C   UNL     1     -15.071  60.166  50.445  0.00  0.00    +0.000 A 
ATOM     23  C   UNL     1     -13.935  60.451  49.688  0.00  0.00    +0.000 A 
ATOM     24  H   UNL     1     -13.811  54.239  50.171  0.00  0.00    +0.000 HD
ATOM     25  H   UNL     1     -11.664  57.324  48.786  0.00  0.00    +0.000 HD
ENDBRANCH   1  17
BRANCH   3  26
ATOM     26  O   UNL     1     -12.303  55.692  46.504  0.00  0.00    +0.000 OA
ATOM     27  H   UNL     1     -13.059  55.453  46.003  0.00  0.00    +0.000 HD
ENDBRANCH   3  26
BRANCH   5  28
ATOM     28  N   UNL     1      -9.414  51.921  49.591  0.00  0.00    +0.000 N 
ATOM     29  H   UNL     1      -9.745  51.117  50.053  0.00  0.00    +0.000 HD
BRANCH  28  30
ATOM     30  C   UNL     1      -7.993  52.306  49.634  0.00  0.00    +0.000 C 
BRANCH  30  31
ATOM     31  C   UNL     1      -7.832  53.719  50.133  0.00  0.00    +0.000 A 
ATOM     32  S   UNL     1      -8.046  54.059  51.800  0.00  0.00    +0.000 S 
ATOM     33  C   UNL     1      -7.592  54.869  49.391  0.00  0.00    +0.000 A 
ATOM     34  C   UNL     1      -7.863  55.735  51.547  0.00  0.00    +0.000 A 
ATOM     35  C   UNL     1      -7.613  56.033  50.228  0.00  0.00    +0.000 A 
ATOM     36  C   UNL     1      -7.370  54.926  47.914  0.00  0.00    +0.000 C 
ENDBRANCH  30  31
ENDBRANCH  28  30
ENDBRANCH   5  28
TORSDOF 5
ENDMDL
