MODEL 1
REMARK VINA RESULT:      -8.5      0.000      0.000
REMARK  Name = 
REMARK  5 active torsions:
REMARK  status: ('A' for Active; 'I' for Inactive)
REMARK    1  A    between atoms: C_6  and  C_10
REMARK    2  A    between atoms: C_14  and  O_18
REMARK    3  A    between atoms: N_17  and  N_20
REMARK    4  A    between atoms: N_20  and  C_23
REMARK    5  A    between atoms: C_23  and  C_26
REMARK                            x       y       z     vdW  Elec       q    Type
REMARK                         _______ _______ _______ _____ _____    ______ ____
ROOT
ATOM      1  C   UNL     1     -10.064  54.478  52.203  0.00  0.00    +0.000 A 
ATOM      2  C   UNL     1      -8.711  55.103  52.072  0.00  0.00    +0.000 A 
ATOM      3  C   UNL     1     -10.263  53.374  52.939  0.00  0.00    +0.000 A 
ATOM      4  O   UNL     1      -8.661  56.183  51.473  0.00  0.00    +0.000 OA
ATOM      5  N   UNL     1      -7.638  54.453  52.679  0.00  0.00    +0.000 N 
ATOM      6  C   UNL     1      -9.127  52.736  53.609  0.00  0.00    +0.000 A 
ATOM      7  C   UNL     1      -7.833  53.274  53.471  0.00  0.00    +0.000 A 
ATOM      8  C   UNL     1      -9.335  51.617  54.435  0.00  0.00    +0.000 A 
ATOM      9  C   UNL     1      -6.777  52.671  54.170  0.00  0.00    +0.000 A 
ATOM     10  C   UNL     1      -8.285  51.063  55.160  0.00  0.00    +0.000 A 
ATOM     11  C   UNL     1      -7.008  51.594  55.031  0.00  0.00    +0.000 A 
ENDROOT
BRANCH   1  17
ATOM     12  S   UNL     1     -12.462  55.941  49.508  0.00  0.00    +0.000 S 
ATOM     13  O   UNL     1     -13.364  54.925  49.007  0.00  0.00    +0.000 OA
ATOM     14  O   UNL     1     -11.859  56.902  48.598  0.00  0.00    +0.000 OA
ATOM     15  N   UNL     1     -11.274  55.197  50.297  0.00  0.00    +0.000 N 
ATOM     16  C   UNL     1     -13.376  56.877  50.676  0.00  0.00    +0.000 A 
ATOM     17  C   UNL     1     -11.233  55.190  51.600  0.00  0.00    +0.000 C 
ATOM     18  C   UNL     1     -13.093  56.691  52.025  0.00  0.00    +0.000 A 
ATOM     19  C   UNL     1     -14.346  57.763  50.231  0.00  0.00    +0.000 A 
ATOM     20  N   UNL     1     -12.146  55.772  52.444  0.00  0.00    +0.000 N 
ATOM     21  C   UNL     1     -13.856  57.403  52.953  0.00  0.00    +0.000 A 
ATOM     22  C   UNL     1     -15.084  58.478  51.168  0.00  0.00    +0.000 A 
ATOM     23  C   UNL     1     -14.840  58.295  52.529  0.00  0.00    +0.000 A 
ATOM     24  H   UNL     1     -10.566  54.740  49.789  0.00  0.00    +0.000 HD
ATOM     25  H   UNL     1     -12.126  55.522  53.396  0.00  0.00    +0.000 HD
ENDBRANCH   1  17
BRANCH   3  26
ATOM     26  O   UNL     1     -11.501  52.802  53.184  0.00  0.00    +0.000 OA
ATOM     27  H   UNL     1     -11.743  52.006  52.751  0.00  0.00    +0.000 HD
ENDBRANCH   3  26
BRANCH   5  28
ATOM     28  N   UNL     1      -6.307  55.019  52.632  0.00  0.00    +0.000 N 
ATOM     29  H   UNL     1      -6.060  55.821  53.148  0.00  0.00    +0.000 HD
BRANCH  28  30
ATOM     30  C   UNL     1      -5.351  54.323  51.767  0.00  0.00    +0.000 C 
BRANCH  30  31
ATOM     31  C   UNL     1      -5.885  54.257  50.379  0.00  0.00    +0.000 A 
ATOM     32  C   UNL     1      -5.877  55.280  49.451  0.00  0.00    +0.000 A 
ATOM     33  C   UNL     1      -6.444  53.137  49.701  0.00  0.00    +0.000 A 
ATOM     34  O   UNL     1      -6.407  54.871  48.272  0.00  0.00    +0.000 OA
ATOM     35  C   UNL     1      -6.750  53.567  48.427  0.00  0.00    +0.000 A 
ENDBRANCH  30  31
ENDBRANCH  28  30
ENDBRANCH   5  28
TORSDOF 5
ENDMDL
MODEL 2
REMARK VINA RESULT:      -8.4      2.720      4.916
REMARK  Name = 
REMARK  5 active torsions:
REMARK  status: ('A' for Active; 'I' for Inactive)
REMARK    1  A    between atoms: C_6  and  C_10
REMARK    2  A    between atoms: C_14  and  O_18
REMARK    3  A    between atoms: N_17  and  N_20
REMARK    4  A    between atoms: N_20  and  C_23
REMARK    5  A    between atoms: C_23  and  C_26
REMARK                            x       y       z     vdW  Elec       q    Type
REMARK                         _______ _______ _______ _____ _____    ______ ____
ROOT
ATOM      1  C   UNL     1     -11.461  56.084  48.840  0.00  0.00    +0.000 A 
ATOM      2  C   UNL     1     -10.403  55.501  49.721  0.00  0.00    +0.000 A 
ATOM      3  C   UNL     1     -11.599  55.708  47.559  0.00  0.00    +0.000 A 
ATOM      4  O   UNL     1     -10.441  55.825  50.913  0.00  0.00    +0.000 OA
ATOM      5  N   UNL     1      -9.504  54.605  49.146  0.00  0.00    +0.000 N 
ATOM      6  C   UNL     1     -10.672  54.727  46.989  0.00  0.00    +0.000 A 
ATOM      7  C   UNL     1      -9.638  54.191  47.779  0.00  0.00    +0.000 A 
ATOM      8  C   UNL     1     -10.848  54.279  45.668  0.00  0.00    +0.000 A 
ATOM      9  C   UNL     1      -8.803  53.213  47.219  0.00  0.00    +0.000 A 
ATOM     10  C   UNL     1     -10.042  53.272  45.146  0.00  0.00    +0.000 A 
ATOM     11  C   UNL     1      -9.024  52.736  45.923  0.00  0.00    +0.000 A 
ENDROOT
BRANCH   1  17
ATOM     12  S   UNL     1     -13.577  59.291  49.465  0.00  0.00    +0.000 S 
ATOM     13  O   UNL     1     -14.705  59.356  48.560  0.00  0.00    +0.000 OA
ATOM     14  O   UNL     1     -12.811  60.489  49.773  0.00  0.00    +0.000 OA
ATOM     15  N   UNL     1     -12.556  58.184  48.900  0.00  0.00    +0.000 N 
ATOM     16  C   UNL     1     -14.208  58.706  50.994  0.00  0.00    +0.000 A 
ATOM     17  C   UNL     1     -12.464  57.008  49.454  0.00  0.00    +0.000 C 
ATOM     18  C   UNL     1     -13.919  57.395  51.359  0.00  0.00    +0.000 A 
ATOM     19  C   UNL     1     -14.971  59.551  51.786  0.00  0.00    +0.000 A 
ATOM     20  N   UNL     1     -13.187  56.560  50.532  0.00  0.00    +0.000 N 
ATOM     21  C   UNL     1     -14.463  56.919  52.554  0.00  0.00    +0.000 A 
ATOM     22  C   UNL     1     -15.489  59.066  52.982  0.00  0.00    +0.000 A 
ATOM     23  C   UNL     1     -15.238  57.748  53.363  0.00  0.00    +0.000 A 
ATOM     24  H   UNL     1     -11.991  58.398  48.124  0.00  0.00    +0.000 HD
ATOM     25  H   UNL     1     -13.184  55.595  50.726  0.00  0.00    +0.000 HD
ENDBRANCH   1  17
BRANCH   3  26
ATOM     26  O   UNL     1     -12.616  56.131  46.718  0.00  0.00    +0.000 OA
ATOM     27  H   UNL     1     -12.647  55.827  45.831  0.00  0.00    +0.000 HD
ENDBRANCH   3  26
BRANCH   5  28
ATOM     28  N   UNL     1      -8.480  53.968  49.944  0.00  0.00    +0.000 N 
ATOM     29  H   UNL     1      -8.629  53.108  50.400  0.00  0.00    +0.000 HD
BRANCH  28  30
ATOM     30  C   UNL     1      -7.205  54.687  50.033  0.00  0.00    +0.000 C 
BRANCH  30  31
ATOM     31  C   UNL     1      -6.926  55.040  51.452  0.00  0.00    +0.000 A 
ATOM     32  C   UNL     1      -7.333  56.187  52.104  0.00  0.00    +0.000 A 
ATOM     33  C   UNL     1      -6.256  54.263  52.439  0.00  0.00    +0.000 A 
ATOM     34  O   UNL     1      -6.944  56.173  53.402  0.00  0.00    +0.000 OA
ATOM     35  C   UNL     1      -6.289  55.002  53.603  0.00  0.00    +0.000 A 
ENDBRANCH  30  31
ENDBRANCH  28  30
ENDBRANCH   5  28
TORSDOF 5
ENDMDL
MODEL 3
REMARK VINA RESULT:      -8.3      2.050      2.726
REMARK  Name = 
REMARK  5 active torsions:
REMARK  status: ('A' for Active; 'I' for Inactive)
REMARK    1  A    between atoms: C_6  and  C_10
REMARK    2  A    between atoms: C_14  and  O_18
REMARK    3  A    between atoms: N_17  and  N_20
REMARK    4  A    between atoms: N_20  and  C_23
REMARK    5  A    between atoms: C_23  and  C_26
REMARK                            x       y       z     vdW  Elec       q    Type
REMARK                         _______ _______ _______ _____ _____    ______ ____
ROOT
ATOM      1  C   UNL     1     -11.162  54.641  50.878  0.00  0.00    +0.000 A 
ATOM      2  C   UNL     1      -9.764  55.090  50.590  0.00  0.00    +0.000 A 
ATOM      3  C   UNL     1     -11.427  53.405  51.327  0.00  0.00    +0.000 A 
ATOM      4  O   UNL     1      -9.619  56.282  50.299  0.00  0.00    +0.000 OA
ATOM      5  N   UNL     1      -8.743  54.151  50.728  0.00  0.00    +0.000 N 
ATOM      6  C   UNL     1     -10.332  52.450  51.511  0.00  0.00    +0.000 A 
ATOM      7  C   UNL     1      -9.009  52.827  51.208  0.00  0.00    +0.000 A 
ATOM      8  C   UNL     1     -10.592  51.174  52.042  0.00  0.00    +0.000 A 
ATOM      9  C   UNL     1      -7.978  51.908  51.449  0.00  0.00    +0.000 A 
ATOM     10  C   UNL     1      -9.551  50.295  52.321  0.00  0.00    +0.000 A 
ATOM     11  C   UNL     1      -8.244  50.664  52.029  0.00  0.00    +0.000 A 
ENDROOT
BRANCH   1  17
ATOM     12  S   UNL     1     -13.627  57.230  49.338  0.00  0.00    +0.000 S 
ATOM     13  O   UNL     1     -14.756  56.569  48.717  0.00  0.00    +0.000 OA
ATOM     14  O   UNL     1     -13.002  58.375  48.695  0.00  0.00    +0.000 OA
ATOM     15  N   UNL     1     -12.488  56.123  49.591  0.00  0.00    +0.000 N 
ATOM     16  C   UNL     1     -14.186  57.790  50.903  0.00  0.00    +0.000 A 
ATOM     17  C   UNL     1     -12.262  55.650  50.784  0.00  0.00    +0.000 C 
ATOM     18  C   UNL     1     -13.749  57.106  52.034  0.00  0.00    +0.000 A 
ATOM     19  C   UNL     1     -15.039  58.881  50.974  0.00  0.00    +0.000 A 
ATOM     20  N   UNL     1     -12.928  55.995  51.933  0.00  0.00    +0.000 N 
ATOM     21  C   UNL     1     -14.234  57.526  53.275  0.00  0.00    +0.000 A 
ATOM     22  C   UNL     1     -15.497  59.297  52.219  0.00  0.00    +0.000 A 
ATOM     23  C   UNL     1     -15.097  58.617  53.369  0.00  0.00    +0.000 A 
ATOM     24  H   UNL     1     -11.952  55.799  48.832  0.00  0.00    +0.000 HD
ATOM     25  H   UNL     1     -12.816  55.424  52.727  0.00  0.00    +0.000 HD
ENDBRANCH   1  17
BRANCH   3  26
ATOM     26  O   UNL     1     -12.682  52.957  51.708  0.00  0.00    +0.000 OA
ATOM     27  H   UNL     1     -13.046  52.189  51.310  0.00  0.00    +0.000 HD
ENDBRANCH   3  26
BRANCH   5  28
ATOM     28  N   UNL     1      -7.362  54.522  50.508  0.00  0.00    +0.000 N 
ATOM     29  H   UNL     1      -6.794  54.060  49.849  0.00  0.00    +0.000 HD
BRANCH  28  30
ATOM     30  C   UNL     1      -6.863  55.630  51.328  0.00  0.00    +0.000 C 
BRANCH  30  31
ATOM     31  C   UNL     1      -6.543  55.136  52.695  0.00  0.00    +0.000 A 
ATOM     32  C   UNL     1      -7.242  55.420  53.852  0.00  0.00    +0.000 A 
ATOM     33  C   UNL     1      -5.515  54.234  53.089  0.00  0.00    +0.000 A 
ATOM     34  O   UNL     1      -6.704  54.776  54.916  0.00  0.00    +0.000 OA
ATOM     35  C   UNL     1      -5.654  54.055  54.449  0.00  0.00    +0.000 A 
ENDBRANCH  30  31
ENDBRANCH  28  30
ENDBRANCH   5  28
TORSDOF 5
ENDMDL
MODEL 4
REMARK VINA RESULT:      -8.2      2.996      6.909
REMARK  Name = 
REMARK  5 active torsions:
REMARK  status: ('A' for Active; 'I' for Inactive)
REMARK    1  A    between atoms: C_6  and  C_10
REMARK    2  A    between atoms: C_14  and  O_18
REMARK    3  A    between atoms: N_17  and  N_20
REMARK    4  A    between atoms: N_20  and  C_23
REMARK    5  A    between atoms: C_23  and  C_26
REMARK                            x       y       z     vdW  Elec       q    Type
REMARK                         _______ _______ _______ _____ _____    ______ ____
ROOT
ATOM      1  C   UNL     1     -10.348  55.272  50.839  0.00  0.00    +0.000 A 
ATOM      2  C   UNL     1      -9.978  55.126  49.397  0.00  0.00    +0.000 A 
ATOM      3  C   UNL     1     -11.534  55.775  51.215  0.00  0.00    +0.000 A 
ATOM      4  O   UNL     1      -8.916  54.541  49.159  0.00  0.00    +0.000 OA
ATOM      5  N   UNL     1     -10.878  55.606  48.447  0.00  0.00    +0.000 N 
ATOM      6  C   UNL     1     -12.485  56.227  50.197  0.00  0.00    +0.000 A 
ATOM      7  C   UNL     1     -12.150  56.144  48.832  0.00  0.00    +0.000 A 
ATOM      8  C   UNL     1     -13.755  56.695  50.579  0.00  0.00    +0.000 A 
ATOM      9  C   UNL     1     -13.105  56.533  47.881  0.00  0.00    +0.000 A 
ATOM     10  C   UNL     1     -14.707  57.029  49.621  0.00  0.00    +0.000 A 
ATOM     11  C   UNL     1     -14.383  56.943  48.273  0.00  0.00    +0.000 A 
ENDROOT
BRANCH   1  17
ATOM     12  S   UNL     1      -7.118  54.759  52.950  0.00  0.00    +0.000 S 
ATOM     13  O   UNL     1      -7.029  55.737  54.013  0.00  0.00    +0.000 OA
ATOM     14  O   UNL     1      -5.934  54.389  52.190  0.00  0.00    +0.000 OA
ATOM     15  N   UNL     1      -8.234  55.265  51.907  0.00  0.00    +0.000 N 
ATOM     16  C   UNL     1      -7.708  53.282  53.689  0.00  0.00    +0.000 A 
ATOM     17  C   UNL     1      -9.416  54.717  51.868  0.00  0.00    +0.000 C 
ATOM     18  C   UNL     1      -9.026  52.911  53.442  0.00  0.00    +0.000 A 
ATOM     19  C   UNL     1      -6.859  52.534  54.493  0.00  0.00    +0.000 A 
ATOM     20  N   UNL     1      -9.864  53.695  52.668  0.00  0.00    +0.000 N 
ATOM     21  C   UNL     1      -9.505  51.760  54.072  0.00  0.00    +0.000 A 
ATOM     22  C   UNL     1      -7.348  51.381  55.096  0.00  0.00    +0.000 A 
ATOM     23  C   UNL     1      -8.672  50.996  54.888  0.00  0.00    +0.000 A 
ATOM     24  H   UNL     1      -8.021  56.000  51.289  0.00  0.00    +0.000 HD
ATOM     25  H   UNL     1     -10.830  53.511  52.691  0.00  0.00    +0.000 HD
ENDBRANCH   1  17
BRANCH   3  26
ATOM     26  O   UNL     1     -11.981  55.845  52.525  0.00  0.00    +0.000 OA
ATOM     27  H   UNL     1     -11.443  56.241  53.183  0.00  0.00    +0.000 HD
ENDBRANCH   3  26
BRANCH   5  28
ATOM     28  N   UNL     1     -10.609  55.462  47.033  0.00  0.00    +0.000 N 
ATOM     29  H   UNL     1     -10.078  56.123  46.530  0.00  0.00    +0.000 HD
BRANCH  28  30
ATOM     30  C   UNL     1     -11.176  54.269  46.396  0.00  0.00    +0.000 C 
BRANCH  30  31
ATOM     31  C   UNL     1     -10.247  53.773  45.344  0.00  0.00    +0.000 A 
ATOM     32  C   UNL     1      -8.881  53.973  45.299  0.00  0.00    +0.000 A 
ATOM     33  C   UNL     1     -10.544  52.949  44.223  0.00  0.00    +0.000 A 
ATOM     34  O   UNL     1      -8.334  53.351  44.226  0.00  0.00    +0.000 OA
ATOM     35  C   UNL     1      -9.348  52.729  43.574  0.00  0.00    +0.000 A 
ENDBRANCH  30  31
ENDBRANCH  28  30
ENDBRANCH   5  28
TORSDOF 5
ENDMDL
MODEL 5
REMARK VINA RESULT:      -8.2      2.776      7.865
REMARK  Name = 
REMARK  5 active torsions:
REMARK  status: ('A' for Active; 'I' for Inactive)
REMARK    1  A    between atoms: C_6  and  C_10
REMARK    2  A    between atoms: C_14  and  O_18
REMARK    3  A    between atoms: N_17  and  N_20
REMARK    4  A    between atoms: N_20  and  C_23
REMARK    5  A    between atoms: C_23  and  C_26
REMARK                            x       y       z     vdW  Elec       q    Type
REMARK                         _______ _______ _______ _____ _____    ______ ____
ROOT
ATOM      1  C   UNL     1     -10.019  54.528  50.784  0.00  0.00    +0.000 A 
ATOM      2  C   UNL     1     -11.345  55.138  51.109  0.00  0.00    +0.000 A 
ATOM      3  C   UNL     1      -9.604  54.377  49.517  0.00  0.00    +0.000 A 
ATOM      4  O   UNL     1     -11.577  55.342  52.306  0.00  0.00    +0.000 OA
ATOM      5  N   UNL     1     -12.180  55.474  50.045  0.00  0.00    +0.000 N 
ATOM      6  C   UNL     1     -10.478  54.784  48.414  0.00  0.00    +0.000 A 
ATOM      7  C   UNL     1     -11.751  55.321  48.685  0.00  0.00    +0.000 A 
ATOM      8  C   UNL     1     -10.027  54.689  47.086  0.00  0.00    +0.000 A 
ATOM      9  C   UNL     1     -12.541  55.752  47.610  0.00  0.00    +0.000 A 
ATOM     10  C   UNL     1     -10.803  55.168  46.036  0.00  0.00    +0.000 A 
ATOM     11  C   UNL     1     -12.057  55.704  46.299  0.00  0.00    +0.000 A 
ENDROOT
BRANCH   1  17
ATOM     12  S   UNL     1      -6.916  54.699  53.128  0.00  0.00    +0.000 S 
ATOM     13  O   UNL     1      -7.061  55.754  54.109  0.00  0.00    +0.000 OA
ATOM     14  O   UNL     1      -5.635  54.471  52.478  0.00  0.00    +0.000 OA
ATOM     15  N   UNL     1      -8.016  54.940  51.979  0.00  0.00    +0.000 N 
ATOM     16  C   UNL     1      -7.322  53.204  53.951  0.00  0.00    +0.000 A 
ATOM     17  C   UNL     1      -9.091  54.208  51.913  0.00  0.00    +0.000 C 
ATOM     18  C   UNL     1      -8.543  52.608  53.654  0.00  0.00    +0.000 A 
ATOM     19  C   UNL     1      -6.430  52.664  54.866  0.00  0.00    +0.000 A 
ATOM     20  N   UNL     1      -9.433  53.188  52.766  0.00  0.00    +0.000 N 
ATOM     21  C   UNL     1      -8.883  51.443  54.348  0.00  0.00    +0.000 A 
ATOM     22  C   UNL     1      -6.776  51.495  55.533  0.00  0.00    +0.000 A 
ATOM     23  C   UNL     1      -8.005  50.887  55.275  0.00  0.00    +0.000 A 
ATOM     24  H   UNL     1      -7.873  55.653  51.316  0.00  0.00    +0.000 HD
ATOM     25  H   UNL     1     -10.357  52.852  52.744  0.00  0.00    +0.000 HD
ENDBRANCH   1  17
BRANCH   3  26
ATOM     26  O   UNL     1      -8.351  53.914  49.147  0.00  0.00    +0.000 OA
ATOM     27  H   UNL     1      -8.219  53.551  48.293  0.00  0.00    +0.000 HD
ENDBRANCH   3  26
BRANCH   5  28
ATOM     28  N   UNL     1     -13.460  56.106  50.280  0.00  0.00    +0.000 N 
ATOM     29  H   UNL     1     -14.286  55.585  50.411  0.00  0.00    +0.000 HD
BRANCH  28  30
ATOM     30  C   UNL     1     -13.449  57.572  50.310  0.00  0.00    +0.000 C 
BRANCH  30  31
ATOM     31  C   UNL     1     -14.190  58.054  51.507  0.00  0.00    +0.000 A 
ATOM     32  C   UNL     1     -14.823  59.274  51.640  0.00  0.00    +0.000 A 
ATOM     33  C   UNL     1     -14.458  57.357  52.719  0.00  0.00    +0.000 A 
ATOM     34  O   UNL     1     -15.436  59.376  52.845  0.00  0.00    +0.000 OA
ATOM     35  C   UNL     1     -15.212  58.208  53.499  0.00  0.00    +0.000 A 
ENDBRANCH  30  31
ENDBRANCH  28  30
ENDBRANCH   5  28
TORSDOF 5
ENDMDL
MODEL 6
REMARK VINA RESULT:      -8.2      3.473      5.090
REMARK  Name = 
REMARK  5 active torsions:
REMARK  status: ('A' for Active; 'I' for Inactive)
REMARK    1  A    between atoms: C_6  and  C_10
REMARK    2  A    between atoms: C_14  and  O_18
REMARK    3  A    between atoms: N_17  and  N_20
REMARK    4  A    between atoms: N_20  and  C_23
REMARK    5  A    between atoms: C_23  and  C_26
REMARK                            x       y       z     vdW  Elec       q    Type
REMARK                         _______ _______ _______ _____ _____    ______ ____
ROOT
ATOM      1  C   UNL     1     -10.591  55.821  48.331  0.00  0.00    +0.000 A 
ATOM      2  C   UNL     1      -9.148  55.887  48.720  0.00  0.00    +0.000 A 
ATOM      3  C   UNL     1     -10.997  55.161  47.235  0.00  0.00    +0.000 A 
ATOM      4  O   UNL     1      -8.896  56.414  49.808  0.00  0.00    +0.000 OA
ATOM      5  N   UNL     1      -8.220  55.305  47.859  0.00  0.00    +0.000 N 
ATOM      6  C   UNL     1     -10.006  54.514  46.371  0.00  0.00    +0.000 A 
ATOM      7  C   UNL     1      -8.636  54.594  46.685  0.00  0.00    +0.000 A 
ATOM      8  C   UNL     1     -10.426  53.766  45.257  0.00  0.00    +0.000 A 
ATOM      9  C   UNL     1      -7.719  53.917  45.868  0.00  0.00    +0.000 A 
ATOM     10  C   UNL     1      -9.508  53.059  44.488  0.00  0.00    +0.000 A 
ATOM     11  C   UNL     1      -8.156  53.131  44.796  0.00  0.00    +0.000 A 
ENDROOT
BRANCH   1  17
ATOM     12  S   UNL     1     -13.162  56.051  51.245  0.00  0.00    +0.000 S 
ATOM     13  O   UNL     1     -12.495  56.259  52.513  0.00  0.00    +0.000 OA
ATOM     14  O   UNL     1     -14.291  55.139  51.149  0.00  0.00    +0.000 OA
ATOM     15  N   UNL     1     -12.054  55.579  50.178  0.00  0.00    +0.000 N 
ATOM     16  C   UNL     1     -13.756  57.622  50.738  0.00  0.00    +0.000 A 
ATOM     17  C   UNL     1     -11.603  56.397  49.269  0.00  0.00    +0.000 C 
ATOM     18  C   UNL     1     -13.093  58.265  49.698  0.00  0.00    +0.000 A 
ATOM     19  C   UNL     1     -14.854  58.176  51.380  0.00  0.00    +0.000 A 
ATOM     20  N   UNL     1     -11.976  57.707  49.100  0.00  0.00    +0.000 N 
ATOM     21  C   UNL     1     -13.540  59.537  49.331  0.00  0.00    +0.000 A 
ATOM     22  C   UNL     1     -15.297  59.434  50.989  0.00  0.00    +0.000 A 
ATOM     23  C   UNL     1     -14.637  60.115  49.966  0.00  0.00    +0.000 A 
ATOM     24  H   UNL     1     -11.711  54.657  50.212  0.00  0.00    +0.000 HD
ATOM     25  H   UNL     1     -11.420  58.279  48.523  0.00  0.00    +0.000 HD
ENDBRANCH   1  17
BRANCH   3  26
ATOM     26  O   UNL     1     -12.321  54.975  46.872  0.00  0.00    +0.000 OA
ATOM     27  H   UNL     1     -12.530  54.603  46.037  0.00  0.00    +0.000 HD
ENDBRANCH   3  26
BRANCH   5  28
ATOM     28  N   UNL     1      -6.811  55.292  48.188  0.00  0.00    +0.000 N 
ATOM     29  H   UNL     1      -6.155  55.847  47.706  0.00  0.00    +0.000 HD
BRANCH  28  30
ATOM     30  C   UNL     1      -6.423  54.400  49.285  0.00  0.00    +0.000 C 
BRANCH  30  31
ATOM     31  C   UNL     1      -5.563  53.305  48.759  0.00  0.00    +0.000 A 
ATOM     32  C   UNL     1      -5.698  51.958  49.031  0.00  0.00    +0.000 A 
ATOM     33  C   UNL     1      -4.485  53.396  47.834  0.00  0.00    +0.000 A 
ATOM     34  O   UNL     1      -4.773  51.230  48.357  0.00  0.00    +0.000 OA
ATOM     35  C   UNL     1      -4.037  52.108  47.631  0.00  0.00    +0.000 A 
ENDBRANCH  30  31
ENDBRANCH  28  30
ENDBRANCH   5  28
TORSDOF 5
ENDMDL
MODEL 7
REMARK VINA RESULT:      -8.1      3.137      6.989
REMARK  Name = 
REMARK  5 active torsions:
REMARK  status: ('A' for Active; 'I' for Inactive)
REMARK    1  A    between atoms: C_6  and  C_10
REMARK    2  A    between atoms: C_14  and  O_18
REMARK    3  A    between atoms: N_17  and  N_20
REMARK    4  A    between atoms: N_20  and  C_23
REMARK    5  A    between atoms: C_23  and  C_26
REMARK                            x       y       z     vdW  Elec       q    Type
REMARK                         _______ _______ _______ _____ _____    ______ ____
ROOT
ATOM      1  C   UNL     1     -10.428  55.004  50.575  0.00  0.00    +0.000 A 
ATOM      2  C   UNL     1     -10.163  54.937  49.104  0.00  0.00    +0.000 A 
ATOM      3  C   UNL     1     -11.538  55.574  51.067  0.00  0.00    +0.000 A 
ATOM      4  O   UNL     1      -9.174  54.285  48.753  0.00  0.00    +0.000 OA
ATOM      5  N   UNL     1     -11.075  55.562  48.255  0.00  0.00    +0.000 N 
ATOM      6  C   UNL     1     -12.508  56.181  50.151  0.00  0.00    +0.000 A 
ATOM      7  C   UNL     1     -12.268  56.174  48.764  0.00  0.00    +0.000 A 
ATOM      8  C   UNL     1     -13.704  56.724  50.651  0.00  0.00    +0.000 A 
ATOM      9  C   UNL     1     -13.242  56.714  47.911  0.00  0.00    +0.000 A 
ATOM     10  C   UNL     1     -14.681  57.209  49.787  0.00  0.00    +0.000 A 
ATOM     11  C   UNL     1     -14.451  57.199  48.418  0.00  0.00    +0.000 A 
ENDROOT
BRANCH   1  17
ATOM     12  S   UNL     1      -8.948  52.223  52.861  0.00  0.00    +0.000 S 
ATOM     13  O   UNL     1      -8.271  51.210  52.079  0.00  0.00    +0.000 OA
ATOM     14  O   UNL     1      -9.780  51.843  53.993  0.00  0.00    +0.000 OA
ATOM     15  N   UNL     1      -9.851  53.098  51.858  0.00  0.00    +0.000 N 
ATOM     16  C   UNL     1      -7.695  53.268  53.503  0.00  0.00    +0.000 A 
ATOM     17  C   UNL     1      -9.486  54.296  51.496  0.00  0.00    +0.000 C 
ATOM     18  C   UNL     1      -7.550  54.533  52.941  0.00  0.00    +0.000 A 
ATOM     19  C   UNL     1      -6.889  52.813  54.536  0.00  0.00    +0.000 A 
ATOM     20  N   UNL     1      -8.342  54.948  51.884  0.00  0.00    +0.000 N 
ATOM     21  C   UNL     1      -6.519  55.344  53.423  0.00  0.00    +0.000 A 
ATOM     22  C   UNL     1      -5.880  53.641  55.016  0.00  0.00    +0.000 A 
ATOM     23  C   UNL     1      -5.694  54.905  54.457  0.00  0.00    +0.000 A 
ATOM     24  H   UNL     1     -10.692  52.723  51.512  0.00  0.00    +0.000 HD
ATOM     25  H   UNL     1      -8.073  55.753  51.386  0.00  0.00    +0.000 HD
ENDBRANCH   1  17
BRANCH   3  26
ATOM     26  O   UNL     1     -11.894  55.582  52.406  0.00  0.00    +0.000 OA
ATOM     27  H   UNL     1     -12.679  56.015  52.680  0.00  0.00    +0.000 HD
ENDBRANCH   3  26
BRANCH   5  28
ATOM     28  N   UNL     1     -10.908  55.504  46.819  0.00  0.00    +0.000 N 
ATOM     29  H   UNL     1     -10.444  56.212  46.316  0.00  0.00    +0.000 HD
BRANCH  28  30
ATOM     30  C   UNL     1     -11.476  54.323  46.161  0.00  0.00    +0.000 C 
BRANCH  30  31
ATOM     31  C   UNL     1     -10.465  53.723  45.248  0.00  0.00    +0.000 A 
ATOM     32  C   UNL     1     -10.722  52.898  44.172  0.00  0.00    +0.000 A 
ATOM     33  C   UNL     1      -9.054  53.918  45.244  0.00  0.00    +0.000 A 
ATOM     34  O   UNL     1      -9.576  52.563  43.530  0.00  0.00    +0.000 OA
ATOM     35  C   UNL     1      -8.564  53.184  44.185  0.00  0.00    +0.000 A 
ENDBRANCH  30  31
ENDBRANCH  28  30
ENDBRANCH   5  28
TORSDOF 5
ENDMDL
MODEL 8
REMARK VINA RESULT:      -8.1      2.911      5.341
REMARK  Name = 
REMARK  5 active torsions:
REMARK  status: ('A' for Active; 'I' for Inactive)
REMARK    1  A    between atoms: C_6  and  C_10
REMARK    2  A    between atoms: C_14  and  O_18
REMARK    3  A    between atoms: N_17  and  N_20
REMARK    4  A    between atoms: N_20  and  C_23
REMARK    5  A    between atoms: C_23  and  C_26
REMARK                            x       y       z     vdW  Elec       q    Type
REMARK                         _______ _______ _______ _____ _____    ______ ____
ROOT
ATOM      1  C   UNL     1     -11.689  56.071  48.666  0.00  0.00    +0.000 A 
ATOM      2  C   UNL     1     -10.610  55.427  49.478  0.00  0.00    +0.000 A 
ATOM      3  C   UNL     1     -11.908  55.731  47.387  0.00  0.00    +0.000 A 
ATOM      4  O   UNL     1     -10.573  55.725  50.677  0.00  0.00    +0.000 OA
ATOM      5  N   UNL     1      -9.779  54.511  48.836  0.00  0.00    +0.000 N 
ATOM      6  C   UNL     1     -11.052  54.728  46.748  0.00  0.00    +0.000 A 
ATOM      7  C   UNL     1     -10.000  54.134  47.471  0.00  0.00    +0.000 A 
ATOM      8  C   UNL     1     -11.314  54.317  45.429  0.00  0.00    +0.000 A 
ATOM      9  C   UNL     1      -9.235  53.138  46.847  0.00  0.00    +0.000 A 
ATOM     10  C   UNL     1     -10.577  53.293  44.844  0.00  0.00    +0.000 A 
ATOM     11  C   UNL     1      -9.542  52.700  45.555  0.00  0.00    +0.000 A 
ENDROOT
BRANCH   1  17
ATOM     12  S   UNL     1     -13.605  59.355  49.500  0.00  0.00    +0.000 S 
ATOM     13  O   UNL     1     -14.754  59.523  48.634  0.00  0.00    +0.000 OA
ATOM     14  O   UNL     1     -12.766  60.495  49.835  0.00  0.00    +0.000 OA
ATOM     15  N   UNL     1     -12.664  58.222  48.854  0.00  0.00    +0.000 N 
ATOM     16  C   UNL     1     -14.222  58.736  51.020  0.00  0.00    +0.000 A 
ATOM     17  C   UNL     1     -12.621  57.019  49.353  0.00  0.00    +0.000 C 
ATOM     18  C   UNL     1     -13.995  57.396  51.318  0.00  0.00    +0.000 A 
ATOM     19  C   UNL     1     -14.914  59.583  51.873  0.00  0.00    +0.000 A 
ATOM     20  N   UNL     1     -13.336  56.561  50.432  0.00  0.00    +0.000 N 
ATOM     21  C   UNL     1     -14.530  56.895  52.508  0.00  0.00    +0.000 A 
ATOM     22  C   UNL     1     -15.423  59.073  53.062  0.00  0.00    +0.000 A 
ATOM     23  C   UNL     1     -15.233  57.727  53.377  0.00  0.00    +0.000 A 
ATOM     24  H   UNL     1     -12.111  58.441  48.070  0.00  0.00    +0.000 HD
ATOM     25  H   UNL     1     -13.380  55.590  50.583  0.00  0.00    +0.000 HD
ENDBRANCH   1  17
BRANCH   3  26
ATOM     26  O   UNL     1     -12.950  56.212  46.610  0.00  0.00    +0.000 OA
ATOM     27  H   UNL     1     -13.462  56.938  46.910  0.00  0.00    +0.000 HD
ENDBRANCH   3  26
BRANCH   5  28
ATOM     28  N   UNL     1      -8.740  53.817  49.566  0.00  0.00    +0.000 N 
ATOM     29  H   UNL     1      -7.827  54.178  49.651  0.00  0.00    +0.000 HD
BRANCH  28  30
ATOM     30  C   UNL     1      -9.133  52.541  50.171  0.00  0.00    +0.000 C 
BRANCH  30  31
ATOM     31  C   UNL     1      -9.300  52.712  51.640  0.00  0.00    +0.000 A 
ATOM     32  C   UNL     1      -8.496  53.466  52.472  0.00  0.00    +0.000 A 
ATOM     33  C   UNL     1     -10.337  52.207  52.474  0.00  0.00    +0.000 A 
ATOM     34  O   UNL     1      -8.954  53.438  53.747  0.00  0.00    +0.000 OA
ATOM     35  C   UNL     1     -10.074  52.672  53.745  0.00  0.00    +0.000 A 
ENDBRANCH  30  31
ENDBRANCH  28  30
ENDBRANCH   5  28
TORSDOF 5
ENDMDL
MODEL 9
REMARK VINA RESULT:      -8.0      2.939      6.910
REMARK  Name = 
REMARK  5 active torsions:
REMARK  status: ('A' for Active; 'I' for Inactive)
REMARK    1  A    between atoms: C_6  and  C_10
REMARK    2  A    between atoms: C_14  and  O_18
REMARK    3  A    between atoms: N_17  and  N_20
REMARK    4  A    between atoms: N_20  and  C_23
REMARK    5  A    between atoms: C_23  and  C_26
REMARK                            x       y       z     vdW  Elec       q    Type
REMARK                         _______ _______ _______ _____ _____    ______ ____
ROOT
ATOM      1  C   UNL     1     -12.110  55.035  48.947  0.00  0.00    +0.000 A 
ATOM      2  C   UNL     1     -11.599  54.551  50.267  0.00  0.00    +0.000 A 
ATOM      3  C   UNL     1     -12.977  56.055  48.858  0.00  0.00    +0.000 A 
ATOM      4  O   UNL     1     -10.713  53.690  50.230  0.00  0.00    +0.000 OA
ATOM      5  N   UNL     1     -12.117  55.143  51.417  0.00  0.00    +0.000 N 
ATOM      6  C   UNL     1     -13.470  56.696  50.079  0.00  0.00    +0.000 A 
ATOM      7  C   UNL     1     -13.042  56.236  51.339  0.00  0.00    +0.000 A 
ATOM      8  C   UNL     1     -14.329  57.807  49.995  0.00  0.00    +0.000 A 
ATOM      9  C   UNL     1     -13.490  56.907  52.487  0.00  0.00    +0.000 A 
ATOM     10  C   UNL     1     -14.721  58.491  51.140  0.00  0.00    +0.000 A 
ATOM     11  C   UNL     1     -14.298  58.044  52.385  0.00  0.00    +0.000 A 
ENDROOT
BRANCH   1  17
ATOM     12  S   UNL     1     -11.533  52.564  45.995  0.00  0.00    +0.000 S 
ATOM     13  O   UNL     1     -12.487  52.792  44.930  0.00  0.00    +0.000 OA
ATOM     14  O   UNL     1     -11.175  51.208  46.383  0.00  0.00    +0.000 OA
ATOM     15  N   UNL     1     -12.068  53.327  47.307  0.00  0.00    +0.000 N 
ATOM     16  C   UNL     1     -10.043  53.341  45.495  0.00  0.00    +0.000 A 
ATOM     17  C   UNL     1     -11.527  54.444  47.703  0.00  0.00    +0.000 C 
ATOM     18  C   UNL     1      -9.684  54.529  46.125  0.00  0.00    +0.000 A 
ATOM     19  C   UNL     1      -9.274  52.764  44.495  0.00  0.00    +0.000 A 
ATOM     20  N   UNL     1     -10.489  55.104  47.093  0.00  0.00    +0.000 N 
ATOM     21  C   UNL     1      -8.521  55.169  45.690  0.00  0.00    +0.000 A 
ATOM     22  C   UNL     1      -8.109  53.405  44.088  0.00  0.00    +0.000 A 
ATOM     23  C   UNL     1      -7.736  54.610  44.684  0.00  0.00    +0.000 A 
ATOM     24  H   UNL     1     -12.816  52.943  47.819  0.00  0.00    +0.000 HD
ATOM     25  H   UNL     1     -10.309  56.035  47.358  0.00  0.00    +0.000 HD
ENDBRANCH   1  17
BRANCH   3  26
ATOM     26  O   UNL     1     -13.412  56.619  47.669  0.00  0.00    +0.000 OA
ATOM     27  H   UNL     1     -12.839  56.651  46.928  0.00  0.00    +0.000 HD
ENDBRANCH   3  26
BRANCH   5  28
ATOM     28  N   UNL     1     -11.640  54.757  52.727  0.00  0.00    +0.000 N 
ATOM     29  H   UNL     1     -12.237  54.371  53.409  0.00  0.00    +0.000 HD
BRANCH  28  30
ATOM     30  C   UNL     1     -10.212  54.977  52.975  0.00  0.00    +0.000 C 
BRANCH  30  31
ATOM     31  C   UNL     1      -9.582  53.709  53.434  0.00  0.00    +0.000 A 
ATOM     32  C   UNL     1      -8.231  53.484  53.608  0.00  0.00    +0.000 A 
ATOM     33  C   UNL     1     -10.221  52.506  53.848  0.00  0.00    +0.000 A 
ATOM     34  O   UNL     1      -8.002  52.232  54.075  0.00  0.00    +0.000 OA
ATOM     35  C   UNL     1      -9.214  51.640  54.220  0.00  0.00    +0.000 A 
ENDBRANCH  30  31
ENDBRANCH  28  30
ENDBRANCH   5  28
TORSDOF 5
ENDMDL
