MODEL 1
REMARK VINA RESULT:      -8.3      0.000      0.000
REMARK  Name = 
REMARK  5 active torsions:
REMARK  status: ('A' for Active; 'I' for Inactive)
REMARK    1  A    between atoms: C_6  and  C_10
REMARK    2  A    between atoms: C_14  and  O_18
REMARK    3  A    between atoms: N_17  and  N_20
REMARK    4  A    between atoms: N_20  and  C_23
REMARK    5  A    between atoms: C_23  and  C_26
REMARK                            x       y       z     vdW  Elec       q    Type
REMARK                         _______ _______ _______ _____ _____    ______ ____
ROOT
ATOM      1  C   UNL     1     -11.352  53.921  51.547  0.00  0.00    +0.000 A 
ATOM      2  C   UNL     1     -10.402  54.083  52.688  0.00  0.00    +0.000 A 
ATOM      3  C   UNL     1     -11.490  52.731  50.941  0.00  0.00    +0.000 A 
ATOM      4  O   UNL     1     -10.300  55.210  53.182  0.00  0.00    +0.000 OA
ATOM      5  N   UNL     1      -9.712  52.955  53.139  0.00  0.00    +0.000 N 
ATOM      6  C   UNL     1     -10.738  51.559  51.412  0.00  0.00    +0.000 A 
ATOM      7  C   UNL     1      -9.857  51.684  52.504  0.00  0.00    +0.000 A 
ATOM      8  C   UNL     1     -10.904  50.306  50.797  0.00  0.00    +0.000 A 
ATOM      9  C   UNL     1      -9.152  50.552  52.942  0.00  0.00    +0.000 A 
ATOM     10  C   UNL     1     -10.212  49.187  51.253  0.00  0.00    +0.000 A 
ATOM     11  C   UNL     1      -9.333  49.312  52.325  0.00  0.00    +0.000 A 
ENDROOT
BRANCH   1  17
ATOM     12  S   UNL     1     -12.888  56.808  49.368  0.00  0.00    +0.000 S 
ATOM     13  O   UNL     1     -13.910  56.329  48.463  0.00  0.00    +0.000 OA
ATOM     14  O   UNL     1     -11.916  57.788  48.927  0.00  0.00    +0.000 OA
ATOM     15  N   UNL     1     -12.071  55.514  49.911  0.00  0.00    +0.000 N 
ATOM     16  C   UNL     1     -13.731  57.535  50.722  0.00  0.00    +0.000 A 
ATOM     17  C   UNL     1     -12.198  55.110  51.140  0.00  0.00    +0.000 C 
ATOM     18  C   UNL     1     -13.688  56.881  51.942  0.00  0.00    +0.000 A 
ATOM     19  C   UNL     1     -14.407  58.746  50.552  0.00  0.00    +0.000 A 
ATOM     20  N   UNL     1     -13.024  55.668  52.091  0.00  0.00    +0.000 N 
ATOM     21  C   UNL     1     -14.411  57.426  53.009  0.00  0.00    +0.000 A 
ATOM     22  C   UNL     1     -15.091  59.296  51.633  0.00  0.00    +0.000 A 
ATOM     23  C   UNL     1     -15.101  58.632  52.858  0.00  0.00    +0.000 A 
ATOM     24  H   UNL     1     -11.471  55.027  49.300  0.00  0.00    +0.000 HD
ATOM     25  H   UNL     1     -13.154  55.173  52.933  0.00  0.00    +0.000 HD
ENDBRANCH   1  17
BRANCH   3  26
ATOM     26  O   UNL     1     -12.345  52.492  49.879  0.00  0.00    +0.000 OA
ATOM     27  H   UNL     1     -12.263  52.990  49.090  0.00  0.00    +0.000 HD
ENDBRANCH   3  26
BRANCH   5  28
ATOM     28  N   UNL     1      -8.764  53.068  54.222  0.00  0.00    +0.000 N 
ATOM     29  H   UNL     1      -9.007  52.918  55.165  0.00  0.00    +0.000 HD
BRANCH  28  30
ATOM     30  C   UNL     1      -7.407  53.427  53.796  0.00  0.00    +0.000 C 
BRANCH  30  31
ATOM     31  C   UNL     1      -6.993  54.727  54.413  0.00  0.00    +0.000 C 
ATOM     32  C   UNL     1      -6.848  55.995  53.616  0.00  0.00    +0.000 C 
ATOM     33  C   UNL     1      -5.622  55.277  54.103  0.00  0.00    +0.000 C 
ENDBRANCH  30  31
ENDBRANCH  28  30
ENDBRANCH   5  28
TORSDOF 5
ENDMDL
MODEL 2
REMARK VINA RESULT:      -8.2      2.206      2.811
REMARK  Name = 
REMARK  5 active torsions:
REMARK  status: ('A' for Active; 'I' for Inactive)
REMARK    1  A    between atoms: C_6  and  C_10
REMARK    2  A    between atoms: C_14  and  O_18
REMARK    3  A    between atoms: N_17  and  N_20
REMARK    4  A    between atoms: N_20  and  C_23
REMARK    5  A    between atoms: C_23  and  C_26
REMARK                            x       y       z     vdW  Elec       q    Type
REMARK                         _______ _______ _______ _____ _____    ______ ____
ROOT
ATOM      1  C   UNL     1     -10.111  54.543  52.182  0.00  0.00    +0.000 A 
ATOM      2  C   UNL     1      -8.746  55.108  51.965  0.00  0.00    +0.000 A 
ATOM      3  C   UNL     1     -10.281  53.450  52.944  0.00  0.00    +0.000 A 
ATOM      4  O   UNL     1      -8.655  56.097  51.230  0.00  0.00    +0.000 OA
ATOM      5  N   UNL     1      -7.669  54.506  52.620  0.00  0.00    +0.000 N 
ATOM      6  C   UNL     1      -9.134  52.814  53.606  0.00  0.00    +0.000 A 
ATOM      7  C   UNL     1      -7.842  53.347  53.436  0.00  0.00    +0.000 A 
ATOM      8  C   UNL     1      -9.314  51.687  54.427  0.00  0.00    +0.000 A 
ATOM      9  C   UNL     1      -6.760  52.728  54.082  0.00  0.00    +0.000 A 
ATOM     10  C   UNL     1      -8.235  51.093  55.076  0.00  0.00    +0.000 A 
ATOM     11  C   UNL     1      -6.955  51.614  54.900  0.00  0.00    +0.000 A 
ENDROOT
BRANCH   1  17
ATOM     12  S   UNL     1     -12.576  56.049  49.517  0.00  0.00    +0.000 S 
ATOM     13  O   UNL     1     -13.470  55.052  48.970  0.00  0.00    +0.000 OA
ATOM     14  O   UNL     1     -11.970  57.045  48.658  0.00  0.00    +0.000 OA
ATOM     15  N   UNL     1     -11.378  55.264  50.283  0.00  0.00    +0.000 N 
ATOM     16  C   UNL     1     -13.503  56.938  50.711  0.00  0.00    +0.000 A 
ATOM     17  C   UNL     1     -11.297  55.269  51.580  0.00  0.00    +0.000 C 
ATOM     18  C   UNL     1     -13.186  56.758  52.048  0.00  0.00    +0.000 A 
ATOM     19  C   UNL     1     -14.517  57.806  50.300  0.00  0.00    +0.000 A 
ATOM     20  N   UNL     1     -12.184  55.876  52.442  0.00  0.00    +0.000 N 
ATOM     21  C   UNL     1     -13.963  57.417  53.006  0.00  0.00    +0.000 A 
ATOM     22  C   UNL     1     -15.258  58.486  51.263  0.00  0.00    +0.000 A 
ATOM     23  C   UNL     1     -14.988  58.284  52.615  0.00  0.00    +0.000 A 
ATOM     24  H   UNL     1     -10.704  54.775  49.757  0.00  0.00    +0.000 HD
ATOM     25  H   UNL     1     -12.105  55.671  53.402  0.00  0.00    +0.000 HD
ENDBRANCH   1  17
BRANCH   3  26
ATOM     26  O   UNL     1     -11.507  52.860  53.198  0.00  0.00    +0.000 OA
ATOM     27  H   UNL     1     -11.552  51.953  53.425  0.00  0.00    +0.000 HD
ENDBRANCH   3  26
BRANCH   5  28
ATOM     28  N   UNL     1      -6.328  55.003  52.420  0.00  0.00    +0.000 N 
ATOM     29  H   UNL     1      -5.960  55.767  52.920  0.00  0.00    +0.000 HD
BRANCH  28  30
ATOM     30  C   UNL     1      -5.562  54.269  51.406  0.00  0.00    +0.000 C 
BRANCH  30  31
ATOM     31  C   UNL     1      -5.532  55.035  50.120  0.00  0.00    +0.000 C 
ATOM     32  C   UNL     1      -6.303  54.607  48.901  0.00  0.00    +0.000 C 
ATOM     33  C   UNL     1      -4.810  54.441  48.935  0.00  0.00    +0.000 C 
ENDBRANCH  30  31
ENDBRANCH  28  30
ENDBRANCH   5  28
TORSDOF 5
ENDMDL
MODEL 3
REMARK VINA RESULT:      -8.1      2.919      7.337
REMARK  Name = 
REMARK  5 active torsions:
REMARK  status: ('A' for Active; 'I' for Inactive)
REMARK    1  A    between atoms: C_6  and  C_10
REMARK    2  A    between atoms: C_14  and  O_18
REMARK    3  A    between atoms: N_17  and  N_20
REMARK    4  A    between atoms: N_20  and  C_23
REMARK    5  A    between atoms: C_23  and  C_26
REMARK                            x       y       z     vdW  Elec       q    Type
REMARK                         _______ _______ _______ _____ _____    ______ ____
ROOT
ATOM      1  C   UNL     1     -10.469  54.911  50.513  0.00  0.00    +0.000 A 
ATOM      2  C   UNL     1     -11.603  55.096  51.465  0.00  0.00    +0.000 A 
ATOM      3  C   UNL     1     -10.604  55.248  49.220  0.00  0.00    +0.000 A 
ATOM      4  O   UNL     1     -11.423  54.738  52.634  0.00  0.00    +0.000 OA
ATOM      5  N   UNL     1     -12.779  55.681  50.988  0.00  0.00    +0.000 N 
ATOM      6  C   UNL     1     -11.857  55.840  48.728  0.00  0.00    +0.000 A 
ATOM      7  C   UNL     1     -12.930  56.048  49.616  0.00  0.00    +0.000 A 
ATOM      8  C   UNL     1     -11.990  56.221  47.382  0.00  0.00    +0.000 A 
ATOM      9  C   UNL     1     -14.116  56.619  49.128  0.00  0.00    +0.000 A 
ATOM     10  C   UNL     1     -13.165  56.802  46.914  0.00  0.00    +0.000 A 
ATOM     11  C   UNL     1     -14.230  56.998  47.789  0.00  0.00    +0.000 A 
ENDROOT
BRANCH   1  17
ATOM     12  S   UNL     1      -7.246  52.706  50.956  0.00  0.00    +0.000 S 
ATOM     13  O   UNL     1      -6.220  53.032  49.990  0.00  0.00    +0.000 OA
ATOM     14  O   UNL     1      -7.524  51.325  51.295  0.00  0.00    +0.000 OA
ATOM     15  N   UNL     1      -8.632  53.377  50.440  0.00  0.00    +0.000 N 
ATOM     16  C   UNL     1      -6.779  53.489  52.454  0.00  0.00    +0.000 A 
ATOM     17  C   UNL     1      -9.149  54.399  51.054  0.00  0.00    +0.000 C 
ATOM     18  C   UNL     1      -7.530  54.570  52.885  0.00  0.00    +0.000 A 
ATOM     19  C   UNL     1      -5.685  53.008  53.178  0.00  0.00    +0.000 A 
ATOM     20  N   UNL     1      -8.606  55.046  52.142  0.00  0.00    +0.000 N 
ATOM     21  C   UNL     1      -7.124  55.235  54.046  0.00  0.00    +0.000 A 
ATOM     22  C   UNL     1      -5.315  53.658  54.353  0.00  0.00    +0.000 A 
ATOM     23  C   UNL     1      -6.028  54.776  54.781  0.00  0.00    +0.000 A 
ATOM     24  H   UNL     1      -9.089  53.003  49.651  0.00  0.00    +0.000 HD
ATOM     25  H   UNL     1      -9.007  55.905  52.413  0.00  0.00    +0.000 HD
ENDBRANCH   1  17
BRANCH   3  26
ATOM     26  O   UNL     1      -9.607  55.111  48.270  0.00  0.00    +0.000 OA
ATOM     27  H   UNL     1      -9.702  54.488  47.578  0.00  0.00    +0.000 HD
ENDBRANCH   3  26
BRANCH   5  28
ATOM     28  N   UNL     1     -13.912  55.856  51.866  0.00  0.00    +0.000 N 
ATOM     29  H   UNL     1     -14.640  55.197  51.940  0.00  0.00    +0.000 HD
BRANCH  28  30
ATOM     30  C   UNL     1     -13.883  57.104  52.638  0.00  0.00    +0.000 C 
BRANCH  30  31
ATOM     31  C   UNL     1     -15.097  57.928  52.342  0.00  0.00    +0.000 C 
ATOM     32  C   UNL     1     -15.031  59.233  51.594  0.00  0.00    +0.000 C 
ATOM     33  C   UNL     1     -15.288  59.234  53.074  0.00  0.00    +0.000 C 
ENDBRANCH  30  31
ENDBRANCH  28  30
ENDBRANCH   5  28
TORSDOF 5
ENDMDL
MODEL 4
REMARK VINA RESULT:      -8.0      3.381      7.612
REMARK  Name = 
REMARK  5 active torsions:
REMARK  status: ('A' for Active; 'I' for Inactive)
REMARK    1  A    between atoms: C_6  and  C_10
REMARK    2  A    between atoms: C_14  and  O_18
REMARK    3  A    between atoms: N_17  and  N_20
REMARK    4  A    between atoms: N_20  and  C_23
REMARK    5  A    between atoms: C_23  and  C_26
REMARK                            x       y       z     vdW  Elec       q    Type
REMARK                         _______ _______ _______ _____ _____    ______ ____
ROOT
ATOM      1  C   UNL     1     -10.256  55.203  50.819  0.00  0.00    +0.000 A 
ATOM      2  C   UNL     1      -9.824  55.141  49.391  0.00  0.00    +0.000 A 
ATOM      3  C   UNL     1     -11.471  55.677  51.141  0.00  0.00    +0.000 A 
ATOM      4  O   UNL     1      -8.683  54.723  49.164  0.00  0.00    +0.000 OA
ATOM      5  N   UNL     1     -10.735  55.529  48.406  0.00  0.00    +0.000 N 
ATOM      6  C   UNL     1     -12.409  56.105  50.094  0.00  0.00    +0.000 A 
ATOM      7  C   UNL     1     -12.031  56.028  48.740  0.00  0.00    +0.000 A 
ATOM      8  C   UNL     1     -13.691  56.572  50.429  0.00  0.00    +0.000 A 
ATOM      9  C   UNL     1     -12.944  56.437  47.755  0.00  0.00    +0.000 A 
ATOM     10  C   UNL     1     -14.594  56.958  49.442  0.00  0.00    +0.000 A 
ATOM     11  C   UNL     1     -14.217  56.893  48.102  0.00  0.00    +0.000 A 
ENDROOT
BRANCH   1  17
ATOM     12  S   UNL     1      -7.077  54.761  53.087  0.00  0.00    +0.000 S 
ATOM     13  O   UNL     1      -7.035  55.722  54.168  0.00  0.00    +0.000 OA
ATOM     14  O   UNL     1      -5.874  54.431  52.351  0.00  0.00    +0.000 OA
ATOM     15  N   UNL     1      -8.185  55.278  52.018  0.00  0.00    +0.000 N 
ATOM     16  C   UNL     1      -7.646  53.257  53.786  0.00  0.00    +0.000 A 
ATOM     17  C   UNL     1      -9.320  54.661  51.880  0.00  0.00    +0.000 C 
ATOM     18  C   UNL     1      -8.917  52.823  53.449  0.00  0.00    +0.000 A 
ATOM     19  C   UNL     1      -6.817  52.532  54.645  0.00  0.00    +0.000 A 
ATOM     20  N   UNL     1      -9.737  53.567  52.606  0.00  0.00    +0.000 N 
ATOM     21  C   UNL     1      -9.398  51.656  54.053  0.00  0.00    +0.000 A 
ATOM     22  C   UNL     1      -7.295  51.352  55.210  0.00  0.00    +0.000 A 
ATOM     23  C   UNL     1      -8.588  50.920  54.922  0.00  0.00    +0.000 A 
ATOM     24  H   UNL     1      -7.993  56.071  51.465  0.00  0.00    +0.000 HD
ATOM     25  H   UNL     1     -10.680  53.292  52.523  0.00  0.00    +0.000 HD
ENDBRANCH   1  17
BRANCH   3  26
ATOM     26  O   UNL     1     -11.952  55.769  52.436  0.00  0.00    +0.000 OA
ATOM     27  H   UNL     1     -12.316  56.576  52.743  0.00  0.00    +0.000 HD
ENDBRANCH   3  26
BRANCH   5  28
ATOM     28  N   UNL     1     -10.353  55.510  47.014  0.00  0.00    +0.000 N 
ATOM     29  H   UNL     1     -10.179  56.328  46.494  0.00  0.00    +0.000 HD
BRANCH  28  30
ATOM     30  C   UNL     1     -10.247  54.163  46.441  0.00  0.00    +0.000 C 
BRANCH  30  31
ATOM     31  C   UNL     1     -11.255  53.980  45.349  0.00  0.00    +0.000 C 
ATOM     32  C   UNL     1     -12.038  52.708  45.171  0.00  0.00    +0.000 C 
ATOM     33  C   UNL     1     -10.933  53.044  44.210  0.00  0.00    +0.000 C 
ENDBRANCH  30  31
ENDBRANCH  28  30
ENDBRANCH   5  28
TORSDOF 5
ENDMDL
MODEL 5
REMARK VINA RESULT:      -7.9      2.940      7.308
REMARK  Name = 
REMARK  5 active torsions:
REMARK  status: ('A' for Active; 'I' for Inactive)
REMARK    1  A    between atoms: C_6  and  C_10
REMARK    2  A    between atoms: C_14  and  O_18
REMARK    3  A    between atoms: N_17  and  N_20
REMARK    4  A    between atoms: N_20  and  C_23
REMARK    5  A    between atoms: C_23  and  C_26
REMARK                            x       y       z     vdW  Elec       q    Type
REMARK                         _______ _______ _______ _____ _____    ______ ____
ROOT
ATOM      1  C   UNL     1     -10.060  54.748  50.873  0.00  0.00    +0.000 A 
ATOM      2  C   UNL     1     -11.391  55.264  51.310  0.00  0.00    +0.000 A 
ATOM      3  C   UNL     1      -9.751  54.686  49.567  0.00  0.00    +0.000 A 
ATOM      4  O   UNL     1     -11.624  55.267  52.524  0.00  0.00    +0.000 OA
ATOM      5  N   UNL     1     -12.274  55.732  50.334  0.00  0.00    +0.000 N 
ATOM      6  C   UNL     1     -10.700  55.160  48.550  0.00  0.00    +0.000 A 
ATOM      7  C   UNL     1     -11.950  55.676  48.944  0.00  0.00    +0.000 A 
ATOM      8  C   UNL     1     -10.366  55.124  47.185  0.00  0.00    +0.000 A 
ATOM      9  C   UNL     1     -12.841  56.128  47.957  0.00  0.00    +0.000 A 
ATOM     10  C   UNL     1     -11.251  55.592  46.218  0.00  0.00    +0.000 A 
ATOM     11  C   UNL     1     -12.492  56.092  46.606  0.00  0.00    +0.000 A 
ENDROOT
BRANCH   1  17
ATOM     12  S   UNL     1      -6.778  54.713  53.033  0.00  0.00    +0.000 S 
ATOM     13  O   UNL     1      -6.763  55.765  54.027  0.00  0.00    +0.000 OA
ATOM     14  O   UNL     1      -5.583  54.400  52.276  0.00  0.00    +0.000 OA
ATOM     15  N   UNL     1      -7.957  55.062  51.972  0.00  0.00    +0.000 N 
ATOM     16  C   UNL     1      -7.216  53.242  53.880  0.00  0.00    +0.000 A 
ATOM     17  C   UNL     1      -9.052  54.362  51.935  0.00  0.00    +0.000 C 
ATOM     18  C   UNL     1      -8.466  52.697  53.635  0.00  0.00    +0.000 A 
ATOM     19  C   UNL     1      -6.307  52.649  54.761  0.00  0.00    +0.000 A 
ATOM     20  N   UNL     1      -9.365  53.310  52.767  0.00  0.00    +0.000 N 
ATOM     21  C   UNL     1      -8.842  51.559  54.355  0.00  0.00    +0.000 A 
ATOM     22  C   UNL     1      -6.682  51.494  55.442  0.00  0.00    +0.000 A 
ATOM     23  C   UNL     1      -7.952  50.955  55.246  0.00  0.00    +0.000 A 
ATOM     24  H   UNL     1      -7.841  55.814  51.347  0.00  0.00    +0.000 HD
ATOM     25  H   UNL     1     -10.289  52.968  52.748  0.00  0.00    +0.000 HD
ENDBRANCH   1  17
BRANCH   3  26
ATOM     26  O   UNL     1      -8.544  54.224  49.074  0.00  0.00    +0.000 OA
ATOM     27  H   UNL     1      -8.129  54.667  48.360  0.00  0.00    +0.000 HD
ENDBRANCH   3  26
BRANCH   5  28
ATOM     28  N   UNL     1     -13.581  56.217  50.708  0.00  0.00    +0.000 N 
ATOM     29  H   UNL     1     -14.382  55.644  50.719  0.00  0.00    +0.000 HD
BRANCH  28  30
ATOM     30  C   UNL     1     -13.612  57.639  51.069  0.00  0.00    +0.000 C 
BRANCH  30  31
ATOM     31  C   UNL     1     -14.079  57.807  52.482  0.00  0.00    +0.000 C 
ATOM     32  C   UNL     1     -15.444  57.372  52.944  0.00  0.00    +0.000 C 
ATOM     33  C   UNL     1     -15.143  58.835  52.780  0.00  0.00    +0.000 C 
ENDBRANCH  30  31
ENDBRANCH  28  30
ENDBRANCH   5  28
TORSDOF 5
ENDMDL
MODEL 6
REMARK VINA RESULT:      -7.8      3.369      7.723
REMARK  Name = 
REMARK  5 active torsions:
REMARK  status: ('A' for Active; 'I' for Inactive)
REMARK    1  A    between atoms: C_6  and  C_10
REMARK    2  A    between atoms: C_14  and  O_18
REMARK    3  A    between atoms: N_17  and  N_20
REMARK    4  A    between atoms: N_20  and  C_23
REMARK    5  A    between atoms: C_23  and  C_26
REMARK                            x       y       z     vdW  Elec       q    Type
REMARK                         _______ _______ _______ _____ _____    ______ ____
ROOT
ATOM      1  C   UNL     1      -9.444  55.036  50.896  0.00  0.00    +0.000 A 
ATOM      2  C   UNL     1     -10.712  55.138  51.676  0.00  0.00    +0.000 A 
ATOM      3  C   UNL     1      -9.453  55.183  49.560  0.00  0.00    +0.000 A 
ATOM      4  O   UNL     1     -10.640  54.964  52.897  0.00  0.00    +0.000 OA
ATOM      5  N   UNL     1     -11.889  55.449  50.989  0.00  0.00    +0.000 N 
ATOM      6  C   UNL     1     -10.704  55.485  48.850  0.00  0.00    +0.000 A 
ATOM      7  C   UNL     1     -11.907  55.613  49.571  0.00  0.00    +0.000 A 
ATOM      8  C   UNL     1     -10.710  55.669  47.456  0.00  0.00    +0.000 A 
ATOM      9  C   UNL     1     -13.089  55.907  48.874  0.00  0.00    +0.000 A 
ATOM     10  C   UNL     1     -11.886  55.978  46.779  0.00  0.00    +0.000 A 
ATOM     11  C   UNL     1     -13.078  56.094  47.490  0.00  0.00    +0.000 A 
ENDROOT
BRANCH   1  17
ATOM     12  S   UNL     1      -6.623  55.438  53.603  0.00  0.00    +0.000 S 
ATOM     13  O   UNL     1      -6.937  54.740  54.831  0.00  0.00    +0.000 OA
ATOM     14  O   UNL     1      -6.031  56.759  53.638  0.00  0.00    +0.000 OA
ATOM     15  N   UNL     1      -7.992  55.533  52.733  0.00  0.00    +0.000 N 
ATOM     16  C   UNL     1      -5.489  54.420  52.735  0.00  0.00    +0.000 A 
ATOM     17  C   UNL     1      -8.147  54.830  51.651  0.00  0.00    +0.000 C 
ATOM     18  C   UNL     1      -5.930  53.789  51.584  0.00  0.00    +0.000 A 
ATOM     19  C   UNL     1      -4.181  54.279  53.205  0.00  0.00    +0.000 A 
ATOM     20  N   UNL     1      -7.241  53.927  51.139  0.00  0.00    +0.000 N 
ATOM     21  C   UNL     1      -5.047  52.928  50.924  0.00  0.00    +0.000 A 
ATOM     22  C   UNL     1      -3.301  53.448  52.516  0.00  0.00    +0.000 A 
ATOM     23  C   UNL     1      -3.737  52.766  51.382  0.00  0.00    +0.000 A 
ATOM     24  H   UNL     1      -8.715  56.133  53.029  0.00  0.00    +0.000 HD
ATOM     25  H   UNL     1      -7.542  53.338  50.408  0.00  0.00    +0.000 HD
ENDBRANCH   1  17
BRANCH   3  26
ATOM     26  O   UNL     1      -8.327  55.105  48.760  0.00  0.00    +0.000 OA
ATOM     27  H   UNL     1      -8.392  55.277  47.842  0.00  0.00    +0.000 HD
ENDBRANCH   3  26
BRANCH   5  28
ATOM     28  N   UNL     1     -13.143  55.534  51.698  0.00  0.00    +0.000 N 
ATOM     29  H   UNL     1     -13.800  54.800  51.714  0.00  0.00    +0.000 HD
BRANCH  28  30
ATOM     30  C   UNL     1     -13.354  56.809  52.393  0.00  0.00    +0.000 C 
BRANCH  30  31
ATOM     31  C   UNL     1     -14.802  57.190  52.355  0.00  0.00    +0.000 C 
ATOM     32  C   UNL     1     -15.627  57.123  51.098  0.00  0.00    +0.000 C 
ATOM     33  C   UNL     1     -15.203  58.458  51.641  0.00  0.00    +0.000 C 
ENDBRANCH  30  31
ENDBRANCH  28  30
ENDBRANCH   5  28
TORSDOF 5
ENDMDL
MODEL 7
REMARK VINA RESULT:      -7.7      3.078      7.618
REMARK  Name = 
REMARK  5 active torsions:
REMARK  status: ('A' for Active; 'I' for Inactive)
REMARK    1  A    between atoms: C_6  and  C_10
REMARK    2  A    between atoms: C_14  and  O_18
REMARK    3  A    between atoms: N_17  and  N_20
REMARK    4  A    between atoms: N_20  and  C_23
REMARK    5  A    between atoms: C_23  and  C_26
REMARK                            x       y       z     vdW  Elec       q    Type
REMARK                         _______ _______ _______ _____ _____    ______ ____
ROOT
ATOM      1  C   UNL     1      -9.855  53.958  50.630  0.00  0.00    +0.000 A 
ATOM      2  C   UNL     1     -11.062  54.309  51.435  0.00  0.00    +0.000 A 
ATOM      3  C   UNL     1      -9.803  54.252  49.321  0.00  0.00    +0.000 A 
ATOM      4  O   UNL     1     -11.059  53.985  52.628  0.00  0.00    +0.000 OA
ATOM      5  N   UNL     1     -12.101  55.000  50.805  0.00  0.00    +0.000 N 
ATOM      6  C   UNL     1     -10.914  54.958  48.667  0.00  0.00    +0.000 A 
ATOM      7  C   UNL     1     -12.050  55.322  49.415  0.00  0.00    +0.000 A 
ATOM      8  C   UNL     1     -10.848  55.292  47.303  0.00  0.00    +0.000 A 
ATOM      9  C   UNL     1     -13.099  56.000  48.773  0.00  0.00    +0.000 A 
ATOM     10  C   UNL     1     -11.887  55.980  46.683  0.00  0.00    +0.000 A 
ATOM     11  C   UNL     1     -13.015  56.331  47.419  0.00  0.00    +0.000 A 
ENDROOT
BRANCH   1  17
ATOM     12  S   UNL     1      -7.748  51.509  52.867  0.00  0.00    +0.000 S 
ATOM     13  O   UNL     1      -7.438  50.271  52.185  0.00  0.00    +0.000 OA
ATOM     14  O   UNL     1      -8.145  51.501  54.260  0.00  0.00    +0.000 OA
ATOM     15  N   UNL     1      -8.921  52.250  52.023  0.00  0.00    +0.000 N 
ATOM     16  C   UNL     1      -6.300  52.494  52.780  0.00  0.00    +0.000 A 
ATOM     17  C   UNL     1      -8.674  53.327  51.338  0.00  0.00    +0.000 C 
ATOM     18  C   UNL     1      -6.323  53.613  51.964  0.00  0.00    +0.000 A 
ATOM     19  C   UNL     1      -5.176  52.147  53.532  0.00  0.00    +0.000 A 
ATOM     20  N   UNL     1      -7.446  53.935  51.208  0.00  0.00    +0.000 N 
ATOM     21  C   UNL     1      -5.150  54.367  51.844  0.00  0.00    +0.000 A 
ATOM     22  C   UNL     1      -4.027  52.928  53.432  0.00  0.00    +0.000 A 
ATOM     23  C   UNL     1      -4.012  54.031  52.581  0.00  0.00    +0.000 A 
ATOM     24  H   UNL     1      -9.834  51.878  52.031  0.00  0.00    +0.000 HD
ATOM     25  H   UNL     1      -7.355  54.647  50.532  0.00  0.00    +0.000 HD
ENDBRANCH   1  17
BRANCH   3  26
ATOM     26  O   UNL     1      -8.726  53.964  48.500  0.00  0.00    +0.000 OA
ATOM     27  H   UNL     1      -8.067  54.612  48.348  0.00  0.00    +0.000 HD
ENDBRANCH   3  26
BRANCH   5  28
ATOM     28  N   UNL     1     -13.298  55.338  51.538  0.00  0.00    +0.000 N 
ATOM     29  H   UNL     1     -14.081  54.743  51.589  0.00  0.00    +0.000 HD
BRANCH  28  30
ATOM     30  C   UNL     1     -13.246  56.648  52.199  0.00  0.00    +0.000 C 
BRANCH  30  31
ATOM     31  C   UNL     1     -14.560  57.353  52.061  0.00  0.00    +0.000 C 
ATOM     32  C   UNL     1     -14.683  58.853  52.091  0.00  0.00    +0.000 C 
ATOM     33  C   UNL     1     -15.145  58.044  53.269  0.00  0.00    +0.000 C 
ENDBRANCH  30  31
ENDBRANCH  28  30
ENDBRANCH   5  28
TORSDOF 5
ENDMDL
MODEL 8
REMARK VINA RESULT:      -7.5      3.245      7.612
REMARK  Name = 
REMARK  5 active torsions:
REMARK  status: ('A' for Active; 'I' for Inactive)
REMARK    1  A    between atoms: C_6  and  C_10
REMARK    2  A    between atoms: C_14  and  O_18
REMARK    3  A    between atoms: N_17  and  N_20
REMARK    4  A    between atoms: N_20  and  C_23
REMARK    5  A    between atoms: C_23  and  C_26
REMARK                            x       y       z     vdW  Elec       q    Type
REMARK                         _______ _______ _______ _____ _____    ______ ____
ROOT
ATOM      1  C   UNL     1     -10.390  54.841  50.445  0.00  0.00    +0.000 A 
ATOM      2  C   UNL     1      -9.930  54.904  49.026  0.00  0.00    +0.000 A 
ATOM      3  C   UNL     1     -11.587  55.340  50.795  0.00  0.00    +0.000 A 
ATOM      4  O   UNL     1      -8.807  54.454  48.776  0.00  0.00    +0.000 OA
ATOM      5  N   UNL     1     -10.799  55.440  48.072  0.00  0.00    +0.000 N 
ATOM      6  C   UNL     1     -12.479  55.923  49.783  0.00  0.00    +0.000 A 
ATOM      7  C   UNL     1     -12.076  55.968  48.435  0.00  0.00    +0.000 A 
ATOM      8  C   UNL     1     -13.744  56.419  50.143  0.00  0.00    +0.000 A 
ATOM      9  C   UNL     1     -12.945  56.523  47.483  0.00  0.00    +0.000 A 
ATOM     10  C   UNL     1     -14.604  56.951  49.187  0.00  0.00    +0.000 A 
ATOM     11  C   UNL     1     -14.201  57.006  47.855  0.00  0.00    +0.000 A 
ENDROOT
BRANCH   1  17
ATOM     12  S   UNL     1      -9.096  52.175  53.027  0.00  0.00    +0.000 S 
ATOM     13  O   UNL     1      -8.512  51.022  52.380  0.00  0.00    +0.000 OA
ATOM     14  O   UNL     1      -9.957  52.013  54.181  0.00  0.00    +0.000 OA
ATOM     15  N   UNL     1      -9.930  52.997  51.901  0.00  0.00    +0.000 N 
ATOM     16  C   UNL     1      -7.756  53.174  53.558  0.00  0.00    +0.000 A 
ATOM     17  C   UNL     1      -9.506  54.143  51.459  0.00  0.00    +0.000 C 
ATOM     18  C   UNL     1      -7.540  54.375  52.902  0.00  0.00    +0.000 A 
ATOM     19  C   UNL     1      -6.954  52.753  54.621  0.00  0.00    +0.000 A 
ATOM     20  N   UNL     1      -8.338  54.771  51.834  0.00  0.00    +0.000 N 
ATOM     21  C   UNL     1      -6.435  55.144  53.282  0.00  0.00    +0.000 A 
ATOM     22  C   UNL     1      -5.879  53.548  55.013  0.00  0.00    +0.000 A 
ATOM     23  C   UNL     1      -5.615  54.738  54.338  0.00  0.00    +0.000 A 
ATOM     24  H   UNL     1     -10.769  52.621  51.548  0.00  0.00    +0.000 HD
ATOM     25  H   UNL     1      -8.048  55.552  51.309  0.00  0.00    +0.000 HD
ENDBRANCH   1  17
BRANCH   3  26
ATOM     26  O   UNL     1     -12.091  55.323  52.084  0.00  0.00    +0.000 OA
ATOM     27  H   UNL     1     -11.516  55.440  52.814  0.00  0.00    +0.000 HD
ENDBRANCH   3  26
BRANCH   5  28
ATOM     28  N   UNL     1     -10.388  55.545  46.692  0.00  0.00    +0.000 N 
ATOM     29  H   UNL     1     -10.214  56.407  46.249  0.00  0.00    +0.000 HD
BRANCH  28  30
ATOM     30  C   UNL     1     -10.252  54.254  46.008  0.00  0.00    +0.000 C 
BRANCH  30  31
ATOM     31  C   UNL     1     -11.602  53.696  45.675  0.00  0.00    +0.000 C 
ATOM     32  C   UNL     1     -12.149  52.453  46.323  0.00  0.00    +0.000 C 
ATOM     33  C   UNL     1     -11.684  52.407  44.895  0.00  0.00    +0.000 C 
ENDBRANCH  30  31
ENDBRANCH  28  30
ENDBRANCH   5  28
TORSDOF 5
ENDMDL
MODEL 9
REMARK VINA RESULT:      -7.4      4.370      7.145
REMARK  Name = 
REMARK  5 active torsions:
REMARK  status: ('A' for Active; 'I' for Inactive)
REMARK    1  A    between atoms: C_6  and  C_10
REMARK    2  A    between atoms: C_14  and  O_18
REMARK    3  A    between atoms: N_17  and  N_20
REMARK    4  A    between atoms: N_20  and  C_23
REMARK    5  A    between atoms: C_23  and  C_26
REMARK                            x       y       z     vdW  Elec       q    Type
REMARK                         _______ _______ _______ _____ _____    ______ ____
ROOT
ATOM      1  C   UNL     1     -11.417  54.253  48.262  0.00  0.00    +0.000 A 
ATOM      2  C   UNL     1     -11.425  53.581  49.595  0.00  0.00    +0.000 A 
ATOM      3  C   UNL     1     -12.181  55.336  48.042  0.00  0.00    +0.000 A 
ATOM      4  O   UNL     1     -10.723  52.573  49.723  0.00  0.00    +0.000 OA
ATOM      5  N   UNL     1     -12.198  54.143  50.615  0.00  0.00    +0.000 N 
ATOM      6  C   UNL     1     -13.007  55.900  49.118  0.00  0.00    +0.000 A 
ATOM      7  C   UNL     1     -13.008  55.297  50.391  0.00  0.00    +0.000 A 
ATOM      8  C   UNL     1     -13.784  57.050  48.898  0.00  0.00    +0.000 A 
ATOM      9  C   UNL     1     -13.800  55.855  51.407  0.00  0.00    +0.000 A 
ATOM     10  C   UNL     1     -14.552  57.604  49.919  0.00  0.00    +0.000 A 
ATOM     11  C   UNL     1     -14.562  57.002  51.175  0.00  0.00    +0.000 A 
ENDROOT
BRANCH   1  17
ATOM     12  S   UNL     1      -8.141  53.607  46.190  0.00  0.00    +0.000 S 
ATOM     13  O   UNL     1      -7.288  52.613  46.806  0.00  0.00    +0.000 OA
ATOM     14  O   UNL     1      -7.572  54.804  45.607  0.00  0.00    +0.000 OA
ATOM     15  N   UNL     1      -9.232  54.069  47.300  0.00  0.00    +0.000 N 
ATOM     16  C   UNL     1      -8.989  52.791  44.890  0.00  0.00    +0.000 A 
ATOM     17  C   UNL     1     -10.481  53.725  47.194  0.00  0.00    +0.000 C 
ATOM     18  C   UNL     1     -10.346  52.560  45.043  0.00  0.00    +0.000 A 
ATOM     19  C   UNL     1      -8.295  52.406  43.740  0.00  0.00    +0.000 A 
ATOM     20  N   UNL     1     -11.019  52.934  46.202  0.00  0.00    +0.000 N 
ATOM     21  C   UNL     1     -11.013  51.855  44.036  0.00  0.00    +0.000 A 
ATOM     22  C   UNL     1      -8.981  51.737  42.729  0.00  0.00    +0.000 A 
ATOM     23  C   UNL     1     -10.336  51.454  42.881  0.00  0.00    +0.000 A 
ATOM     24  H   UNL     1      -8.944  54.617  48.066  0.00  0.00    +0.000 HD
ATOM     25  H   UNL     1     -11.942  52.611  46.322  0.00  0.00    +0.000 HD
ENDBRANCH   1  17
BRANCH   3  26
ATOM     26  O   UNL     1     -12.235  56.020  46.840  0.00  0.00    +0.000 OA
ATOM     27  H   UNL     1     -13.022  56.459  46.586  0.00  0.00    +0.000 HD
ENDBRANCH   3  26
BRANCH   5  28
ATOM     28  N   UNL     1     -12.256  53.514  51.913  0.00  0.00    +0.000 N 
ATOM     29  H   UNL     1     -13.094  53.186  52.313  0.00  0.00    +0.000 HD
BRANCH  28  30
ATOM     30  C   UNL     1     -10.956  53.405  52.585  0.00  0.00    +0.000 C 
BRANCH  30  31
ATOM     31  C   UNL     1     -10.385  54.766  52.838  0.00  0.00    +0.000 C 
ATOM     32  C   UNL     1      -9.162  55.279  52.128  0.00  0.00    +0.000 C 
ATOM     33  C   UNL     1      -9.072  54.880  53.573  0.00  0.00    +0.000 C 
ENDBRANCH  30  31
ENDBRANCH  28  30
ENDBRANCH   5  28
TORSDOF 5
ENDMDL
