MODEL 1
REMARK VINA RESULT:      -8.0      0.000      0.000
REMARK  Name = 
REMARK  9 active torsions:
REMARK  status: ('A' for Active; 'I' for Inactive)
REMARK    1  A    between atoms: C_6  and  C_10
REMARK    2  A    between atoms: C_14  and  O_18
REMARK    3  A    between atoms: N_17  and  N_20
REMARK    4  A    between atoms: N_20  and  C_23
REMARK    5  A    between atoms: C_23  and  C_26
REMARK    6  A    between atoms: C_23  and  C_27
REMARK    7  A    between atoms: C_26  and  C_29
REMARK    8  A    between atoms: C_27  and  C_30
REMARK    9  A    between atoms: C_29  and  C_31
REMARK                            x       y       z     vdW  Elec       q    Type
REMARK                         _______ _______ _______ _____ _____    ______ ____
ROOT
ATOM      1  C   UNL     1      -8.992  54.724  50.298  0.00  0.00    +0.000 A 
ATOM      2  C   UNL     1     -10.402  54.710  50.802  0.00  0.00    +0.000 A 
ATOM      3  C   UNL     1      -8.772  54.672  48.970  0.00  0.00    +0.000 A 
ATOM      4  O   UNL     1     -10.591  54.417  51.987  0.00  0.00    +0.000 OA
ATOM      5  N   UNL     1     -11.400  55.119  49.900  0.00  0.00    +0.000 N 
ATOM      6  C   UNL     1      -9.891  54.705  48.021  0.00  0.00    +0.000 A 
ATOM      7  C   UNL     1     -11.187  54.987  48.483  0.00  0.00    +0.000 A 
ATOM      8  C   UNL     1      -9.655  54.525  46.645  0.00  0.00    +0.000 A 
ATOM      9  C   UNL     1     -12.220  55.089  47.532  0.00  0.00    +0.000 A 
ATOM     10  C   UNL     1     -10.687  54.629  45.722  0.00  0.00    +0.000 A 
ATOM     11  C   UNL     1     -11.970  54.916  46.166  0.00  0.00    +0.000 A 
ENDROOT
BRANCH   1  17
ATOM     12  S   UNL     1      -7.007  55.826  53.505  0.00  0.00    +0.000 S 
ATOM     13  O   UNL     1      -7.566  55.163  54.667  0.00  0.00    +0.000 OA
ATOM     14  O   UNL     1      -6.627  57.221  53.569  0.00  0.00    +0.000 OA
ATOM     15  N   UNL     1      -8.066  55.664  52.295  0.00  0.00    +0.000 N 
ATOM     16  C   UNL     1      -5.561  54.938  53.086  0.00  0.00    +0.000 A 
ATOM     17  C   UNL     1      -7.844  54.871  51.286  0.00  0.00    +0.000 C 
ATOM     18  C   UNL     1      -5.569  54.187  51.921  0.00  0.00    +0.000 A 
ATOM     19  C   UNL     1      -4.452  55.004  53.934  0.00  0.00    +0.000 A 
ATOM     20  N   UNL     1      -6.690  54.143  51.095  0.00  0.00    +0.000 N 
ATOM     21  C   UNL     1      -4.423  53.444  51.622  0.00  0.00    +0.000 A 
ATOM     22  C   UNL     1      -3.312  54.278  53.611  0.00  0.00    +0.000 A 
ATOM     23  C   UNL     1      -3.300  53.493  52.458  0.00  0.00    +0.000 A 
ATOM     24  H   UNL     1      -8.904  56.181  52.320  0.00  0.00    +0.000 HD
ATOM     25  H   UNL     1      -6.655  53.545  50.314  0.00  0.00    +0.000 HD
ENDBRANCH   1  17
BRANCH   3  26
ATOM     26  O   UNL     1      -7.524  54.648  48.374  0.00  0.00    +0.000 OA
ATOM     27  H   UNL     1      -7.165  53.836  48.073  0.00  0.00    +0.000 HD
ENDBRANCH   3  26
BRANCH   5  28
ATOM     28  N   UNL     1     -12.725  55.351  50.392  0.00  0.00    +0.000 N 
ATOM     29  H   UNL     1     -13.368  54.615  50.512  0.00  0.00    +0.000 HD
BRANCH  28  30
ATOM     30  C   UNL     1     -13.079  56.756  50.712  0.00  0.00    +0.000 C 
BRANCH  30  31
ATOM     31  C   UNL     1     -13.504  56.762  52.204  0.00  0.00    +0.000 C 
ATOM     32  C   UNL     1     -14.979  57.076  52.424  0.00  0.00    +0.000 C 
ENDBRANCH  30  31
BRANCH  30  33
ATOM     33  C   UNL     1     -14.217  57.322  49.820  0.00  0.00    +0.000 C 
BRANCH  33  34
ATOM     34  C   UNL     1     -13.783  58.553  49.001  0.00  0.00    +0.000 C 
ATOM     35  C   UNL     1     -13.687  59.817  49.838  0.00  0.00    +0.000 C 
ENDBRANCH  33  34
ENDBRANCH  30  33
ENDBRANCH  28  30
ENDBRANCH   5  28
TORSDOF 7
ENDMDL
MODEL 2
REMARK VINA RESULT:      -7.9      2.326      4.759
REMARK  Name = 
REMARK  9 active torsions:
REMARK  status: ('A' for Active; 'I' for Inactive)
REMARK    1  A    between atoms: C_6  and  C_10
REMARK    2  A    between atoms: C_14  and  O_18
REMARK    3  A    between atoms: N_17  and  N_20
REMARK    4  A    between atoms: N_20  and  C_23
REMARK    5  A    between atoms: C_23  and  C_26
REMARK    6  A    between atoms: C_23  and  C_27
REMARK    7  A    between atoms: C_26  and  C_29
REMARK    8  A    between atoms: C_27  and  C_30
REMARK    9  A    between atoms: C_29  and  C_31
REMARK                            x       y       z     vdW  Elec       q    Type
REMARK                         _______ _______ _______ _____ _____    ______ ____
ROOT
ATOM      1  C   UNL     1      -9.911  55.317  50.381  0.00  0.00    +0.000 A 
ATOM      2  C   UNL     1      -9.438  55.406  48.962  0.00  0.00    +0.000 A 
ATOM      3  C   UNL     1     -11.152  55.740  50.684  0.00  0.00    +0.000 A 
ATOM      4  O   UNL     1      -8.222  55.345  48.752  0.00  0.00    +0.000 OA
ATOM      5  N   UNL     1     -10.430  55.466  47.968  0.00  0.00    +0.000 N 
ATOM      6  C   UNL     1     -12.073  56.186  49.631  0.00  0.00    +0.000 A 
ATOM      7  C   UNL     1     -11.733  55.992  48.283  0.00  0.00    +0.000 A 
ATOM      8  C   UNL     1     -13.320  56.741  49.973  0.00  0.00    +0.000 A 
ATOM      9  C   UNL     1     -12.675  56.360  47.304  0.00  0.00    +0.000 A 
ATOM     10  C   UNL     1     -14.237  57.098  48.993  0.00  0.00    +0.000 A 
ATOM     11  C   UNL     1     -13.916  56.903  47.657  0.00  0.00    +0.000 A 
ENDROOT
BRANCH   1  17
ATOM     12  S   UNL     1      -6.881  54.848  52.839  0.00  0.00    +0.000 S 
ATOM     13  O   UNL     1      -6.958  55.843  53.892  0.00  0.00    +0.000 OA
ATOM     14  O   UNL     1      -5.609  54.526  52.227  0.00  0.00    +0.000 OA
ATOM     15  N   UNL     1      -7.888  55.307  51.660  0.00  0.00    +0.000 N 
ATOM     16  C   UNL     1      -7.489  53.361  53.528  0.00  0.00    +0.000 A 
ATOM     17  C   UNL     1      -9.010  54.685  51.433  0.00  0.00    +0.000 C 
ATOM     18  C   UNL     1      -8.711  52.885  53.081  0.00  0.00    +0.000 A 
ATOM     19  C   UNL     1      -6.736  52.707  54.507  0.00  0.00    +0.000 A 
ATOM     20  N   UNL     1      -9.437  53.559  52.101  0.00  0.00    +0.000 N 
ATOM     21  C   UNL     1      -9.209  51.720  53.673  0.00  0.00    +0.000 A 
ATOM     22  C   UNL     1      -7.233  51.538  55.071  0.00  0.00    +0.000 A 
ATOM     23  C   UNL     1      -8.472  51.049  54.658  0.00  0.00    +0.000 A 
ATOM     24  H   UNL     1      -7.646  56.077  51.098  0.00  0.00    +0.000 HD
ATOM     25  H   UNL     1     -10.325  53.203  51.868  0.00  0.00    +0.000 HD
ENDBRANCH   1  17
BRANCH   3  26
ATOM     26  O   UNL     1     -11.701  55.741  51.954  0.00  0.00    +0.000 OA
ATOM     27  H   UNL     1     -12.181  56.488  52.256  0.00  0.00    +0.000 HD
ENDBRANCH   3  26
BRANCH   5  28
ATOM     28  N   UNL     1     -10.046  55.315  46.597  0.00  0.00    +0.000 N 
ATOM     29  H   UNL     1      -9.764  56.085  46.051  0.00  0.00    +0.000 HD
BRANCH  28  30
ATOM     30  C   UNL     1     -10.094  53.939  46.041  0.00  0.00    +0.000 C 
BRANCH  30  31
ATOM     31  C   UNL     1      -8.899  53.832  45.058  0.00  0.00    +0.000 C 
ATOM     32  C   UNL     1      -7.769  54.812  45.352  0.00  0.00    +0.000 C 
ENDBRANCH  30  31
BRANCH  30  33
ATOM     33  C   UNL     1     -11.428  53.618  45.313  0.00  0.00    +0.000 C 
BRANCH  33  34
ATOM     34  C   UNL     1     -12.124  52.358  45.865  0.00  0.00    +0.000 C 
ATOM     35  C   UNL     1     -12.224  52.352  47.381  0.00  0.00    +0.000 C 
ENDBRANCH  33  34
ENDBRANCH  30  33
ENDBRANCH  28  30
ENDBRANCH   5  28
TORSDOF 7
ENDMDL
MODEL 3
REMARK VINA RESULT:      -7.9      3.796      7.667
REMARK  Name = 
REMARK  9 active torsions:
REMARK  status: ('A' for Active; 'I' for Inactive)
REMARK    1  A    between atoms: C_6  and  C_10
REMARK    2  A    between atoms: C_14  and  O_18
REMARK    3  A    between atoms: N_17  and  N_20
REMARK    4  A    between atoms: N_20  and  C_23
REMARK    5  A    between atoms: C_23  and  C_26
REMARK    6  A    between atoms: C_23  and  C_27
REMARK    7  A    between atoms: C_26  and  C_29
REMARK    8  A    between atoms: C_27  and  C_30
REMARK    9  A    between atoms: C_29  and  C_31
REMARK                            x       y       z     vdW  Elec       q    Type
REMARK                         _______ _______ _______ _____ _____    ______ ____
ROOT
ATOM      1  C   UNL     1     -12.329  54.309  49.711  0.00  0.00    +0.000 A 
ATOM      2  C   UNL     1     -11.584  54.245  48.414  0.00  0.00    +0.000 A 
ATOM      3  C   UNL     1     -12.139  53.338  50.624  0.00  0.00    +0.000 A 
ATOM      4  O   UNL     1     -12.004  54.922  47.470  0.00  0.00    +0.000 OA
ATOM      5  N   UNL     1     -10.405  53.479  48.400  0.00  0.00    +0.000 N 
ATOM      6  C   UNL     1     -11.141  52.284  50.404  0.00  0.00    +0.000 A 
ATOM      7  C   UNL     1     -10.243  52.392  49.330  0.00  0.00    +0.000 A 
ATOM      8  C   UNL     1     -11.039  51.209  51.306  0.00  0.00    +0.000 A 
ATOM      9  C   UNL     1      -9.250  51.403  49.198  0.00  0.00    +0.000 A 
ATOM     10  C   UNL     1     -10.052  50.243  51.159  0.00  0.00    +0.000 A 
ATOM     11  C   UNL     1      -9.153  50.343  50.107  0.00  0.00    +0.000 A 
ENDROOT
BRANCH   1  17
ATOM     12  S   UNL     1     -15.338  56.401  51.131  0.00  0.00    +0.000 S 
ATOM     13  O   UNL     1     -15.235  56.471  52.576  0.00  0.00    +0.000 OA
ATOM     14  O   UNL     1     -16.620  56.181  50.498  0.00  0.00    +0.000 OA
ATOM     15  N   UNL     1     -14.338  55.236  50.627  0.00  0.00    +0.000 N 
ATOM     16  C   UNL     1     -14.743  57.930  50.526  0.00  0.00    +0.000 A 
ATOM     17  C   UNL     1     -13.227  55.504  50.001  0.00  0.00    +0.000 C 
ATOM     18  C   UNL     1     -13.533  57.939  49.850  0.00  0.00    +0.000 A 
ATOM     19  C   UNL     1     -15.494  59.087  50.747  0.00  0.00    +0.000 A 
ATOM     20  N   UNL     1     -12.809  56.767  49.644  0.00  0.00    +0.000 N 
ATOM     21  C   UNL     1     -13.045  59.174  49.413  0.00  0.00    +0.000 A 
ATOM     22  C   UNL     1     -15.007  60.304  50.285  0.00  0.00    +0.000 A 
ATOM     23  C   UNL     1     -13.780  60.349  49.624  0.00  0.00    +0.000 A 
ATOM     24  H   UNL     1     -14.575  54.296  50.797  0.00  0.00    +0.000 HD
ATOM     25  H   UNL     1     -11.928  56.847  49.210  0.00  0.00    +0.000 HD
ENDBRANCH   1  17
BRANCH   3  26
ATOM     26  O   UNL     1     -12.784  53.261  51.846  0.00  0.00    +0.000 OA
ATOM     27  H   UNL     1     -13.444  52.611  51.986  0.00  0.00    +0.000 HD
ENDBRANCH   3  26
BRANCH   5  28
ATOM     28  N   UNL     1      -9.533  53.571  47.268  0.00  0.00    +0.000 N 
ATOM     29  H   UNL     1      -9.517  52.876  46.570  0.00  0.00    +0.000 HD
BRANCH  28  30
ATOM     30  C   UNL     1      -8.656  54.766  47.200  0.00  0.00    +0.000 C 
BRANCH  30  31
ATOM     31  C   UNL     1      -8.159  54.851  45.733  0.00  0.00    +0.000 C 
ATOM     32  C   UNL     1      -8.519  53.634  44.889  0.00  0.00    +0.000 C 
ENDBRANCH  30  31
BRANCH  30  33
ATOM     33  C   UNL     1      -7.452  54.701  48.179  0.00  0.00    +0.000 C 
BRANCH  33  34
ATOM     34  C   UNL     1      -7.724  55.424  49.513  0.00  0.00    +0.000 C 
ATOM     35  C   UNL     1      -8.814  56.477  49.405  0.00  0.00    +0.000 C 
ENDBRANCH  33  34
ENDBRANCH  30  33
ENDBRANCH  28  30
ENDBRANCH   5  28
TORSDOF 7
ENDMDL
MODEL 4
REMARK VINA RESULT:      -7.8      2.311      4.774
REMARK  Name = 
REMARK  9 active torsions:
REMARK  status: ('A' for Active; 'I' for Inactive)
REMARK    1  A    between atoms: C_6  and  C_10
REMARK    2  A    between atoms: C_14  and  O_18
REMARK    3  A    between atoms: N_17  and  N_20
REMARK    4  A    between atoms: N_20  and  C_23
REMARK    5  A    between atoms: C_23  and  C_26
REMARK    6  A    between atoms: C_23  and  C_27
REMARK    7  A    between atoms: C_26  and  C_29
REMARK    8  A    between atoms: C_27  and  C_30
REMARK    9  A    between atoms: C_29  and  C_31
REMARK                            x       y       z     vdW  Elec       q    Type
REMARK                         _______ _______ _______ _____ _____    ______ ____
ROOT
ATOM      1  C   UNL     1     -10.330  55.191  50.497  0.00  0.00    +0.000 A 
ATOM      2  C   UNL     1      -9.746  55.344  49.126  0.00  0.00    +0.000 A 
ATOM      3  C   UNL     1     -11.583  55.629  50.726  0.00  0.00    +0.000 A 
ATOM      4  O   UNL     1      -8.519  55.263  49.007  0.00  0.00    +0.000 OA
ATOM      5  N   UNL     1     -10.656  55.481  48.063  0.00  0.00    +0.000 N 
ATOM      6  C   UNL     1     -12.408  56.154  49.632  0.00  0.00    +0.000 A 
ATOM      7  C   UNL     1     -11.968  56.022  48.305  0.00  0.00    +0.000 A 
ATOM      8  C   UNL     1     -13.667  56.721  49.906  0.00  0.00    +0.000 A 
ATOM      9  C   UNL     1     -12.823  56.466  47.278  0.00  0.00    +0.000 A 
ATOM     10  C   UNL     1     -14.496  57.152  48.879  0.00  0.00    +0.000 A 
ATOM     11  C   UNL     1     -14.076  57.020  47.564  0.00  0.00    +0.000 A 
ENDROOT
BRANCH   1  17
ATOM     12  S   UNL     1      -9.142  52.355  52.943  0.00  0.00    +0.000 S 
ATOM     13  O   UNL     1      -8.551  51.275  52.176  0.00  0.00    +0.000 OA
ATOM     14  O   UNL     1     -10.020  52.067  54.057  0.00  0.00    +0.000 OA
ATOM     15  N   UNL     1      -9.955  53.298  51.912  0.00  0.00    +0.000 N 
ATOM     16  C   UNL     1      -7.808  53.279  53.591  0.00  0.00    +0.000 A 
ATOM     17  C   UNL     1      -9.528  54.482  51.579  0.00  0.00    +0.000 C 
ATOM     18  C   UNL     1      -7.585  54.550  53.084  0.00  0.00    +0.000 A 
ATOM     19  C   UNL     1      -7.007  52.712  54.586  0.00  0.00    +0.000 A 
ATOM     20  N   UNL     1      -8.403  55.088  52.093  0.00  0.00    +0.000 N 
ATOM     21  C   UNL     1      -6.486  55.260  53.576  0.00  0.00    +0.000 A 
ATOM     22  C   UNL     1      -5.932  53.440  55.082  0.00  0.00    +0.000 A 
ATOM     23  C   UNL     1      -5.668  54.711  54.573  0.00  0.00    +0.000 A 
ATOM     24  H   UNL     1     -10.797  52.968  51.525  0.00  0.00    +0.000 HD
ATOM     25  H   UNL     1      -8.158  55.971  51.732  0.00  0.00    +0.000 HD
ENDBRANCH   1  17
BRANCH   3  26
ATOM     26  O   UNL     1     -12.229  55.576  51.948  0.00  0.00    +0.000 OA
ATOM     27  H   UNL     1     -12.521  54.752  52.287  0.00  0.00    +0.000 HD
ENDBRANCH   3  26
BRANCH   5  28
ATOM     28  N   UNL     1     -10.169  55.393  46.719  0.00  0.00    +0.000 N 
ATOM     29  H   UNL     1      -9.850  56.187  46.232  0.00  0.00    +0.000 HD
BRANCH  28  30
ATOM     30  C   UNL     1     -10.171  54.045  46.098  0.00  0.00    +0.000 C 
BRANCH  30  31
ATOM     31  C   UNL     1      -8.924  53.996  45.177  0.00  0.00    +0.000 C 
ATOM     32  C   UNL     1      -7.730  54.775  45.714  0.00  0.00    +0.000 C 
ENDBRANCH  30  31
BRANCH  30  33
ATOM     33  C   UNL     1     -11.460  53.744  45.287  0.00  0.00    +0.000 C 
BRANCH  33  34
ATOM     34  C   UNL     1     -12.223  52.510  45.807  0.00  0.00    +0.000 C 
ATOM     35  C   UNL     1     -12.061  52.301  47.303  0.00  0.00    +0.000 C 
ENDBRANCH  33  34
ENDBRANCH  30  33
ENDBRANCH  28  30
ENDBRANCH   5  28
TORSDOF 7
ENDMDL
MODEL 5
REMARK VINA RESULT:      -7.5      4.400      7.874
REMARK  Name = 
REMARK  9 active torsions:
REMARK  status: ('A' for Active; 'I' for Inactive)
REMARK    1  A    between atoms: C_6  and  C_10
REMARK    2  A    between atoms: C_14  and  O_18
REMARK    3  A    between atoms: N_17  and  N_20
REMARK    4  A    between atoms: N_20  and  C_23
REMARK    5  A    between atoms: C_23  and  C_26
REMARK    6  A    between atoms: C_23  and  C_27
REMARK    7  A    between atoms: C_26  and  C_29
REMARK    8  A    between atoms: C_27  and  C_30
REMARK    9  A    between atoms: C_29  and  C_31
REMARK                            x       y       z     vdW  Elec       q    Type
REMARK                         _______ _______ _______ _____ _____    ______ ____
ROOT
ATOM      1  C   UNL     1     -12.364  54.316  49.734  0.00  0.00    +0.000 A 
ATOM      2  C   UNL     1     -11.615  54.252  48.439  0.00  0.00    +0.000 A 
ATOM      3  C   UNL     1     -12.183  53.339  50.643  0.00  0.00    +0.000 A 
ATOM      4  O   UNL     1     -12.028  54.937  47.497  0.00  0.00    +0.000 OA
ATOM      5  N   UNL     1     -10.442  53.479  48.424  0.00  0.00    +0.000 N 
ATOM      6  C   UNL     1     -11.192  52.280  50.420  0.00  0.00    +0.000 A 
ATOM      7  C   UNL     1     -10.289  52.386  49.349  0.00  0.00    +0.000 A 
ATOM      8  C   UNL     1     -11.100  51.199  51.317  0.00  0.00    +0.000 A 
ATOM      9  C   UNL     1      -9.302  51.392  49.216  0.00  0.00    +0.000 A 
ATOM     10  C   UNL     1     -10.118  50.227  51.169  0.00  0.00    +0.000 A 
ATOM     11  C   UNL     1      -9.216  50.326  50.120  0.00  0.00    +0.000 A 
ENDROOT
BRANCH   1  17
ATOM     12  S   UNL     1     -15.352  56.425  51.172  0.00  0.00    +0.000 S 
ATOM     13  O   UNL     1     -15.235  56.501  52.617  0.00  0.00    +0.000 OA
ATOM     14  O   UNL     1     -16.641  56.206  50.552  0.00  0.00    +0.000 OA
ATOM     15  N   UNL     1     -14.361  55.253  50.664  0.00  0.00    +0.000 N 
ATOM     16  C   UNL     1     -14.758  57.948  50.555  0.00  0.00    +0.000 A 
ATOM     17  C   UNL     1     -13.255  55.515  50.027  0.00  0.00    +0.000 C 
ATOM     18  C   UNL     1     -13.554  57.950  49.868  0.00  0.00    +0.000 A 
ATOM     19  C   UNL     1     -15.502  59.110  50.778  0.00  0.00    +0.000 A 
ATOM     20  N   UNL     1     -12.836  56.775  49.660  0.00  0.00    +0.000 N 
ATOM     21  C   UNL     1     -13.066  59.182  49.420  0.00  0.00    +0.000 A 
ATOM     22  C   UNL     1     -15.015  60.323  50.306  0.00  0.00    +0.000 A 
ATOM     23  C   UNL     1     -13.794  60.360  49.633  0.00  0.00    +0.000 A 
ATOM     24  H   UNL     1     -14.599  54.315  50.841  0.00  0.00    +0.000 HD
ATOM     25  H   UNL     1     -11.959  56.850  49.218  0.00  0.00    +0.000 HD
ENDBRANCH   1  17
BRANCH   3  26
ATOM     26  O   UNL     1     -12.832  53.260  51.862  0.00  0.00    +0.000 OA
ATOM     27  H   UNL     1     -13.497  52.614  51.997  0.00  0.00    +0.000 HD
ENDBRANCH   3  26
BRANCH   5  28
ATOM     28  N   UNL     1      -9.566  53.570  47.295  0.00  0.00    +0.000 N 
ATOM     29  H   UNL     1      -8.896  54.288  47.217  0.00  0.00    +0.000 HD
BRANCH  28  30
ATOM     30  C   UNL     1      -9.718  52.528  46.250  0.00  0.00    +0.000 C 
BRANCH  30  31
ATOM     31  C   UNL     1      -8.288  52.237  45.723  0.00  0.00    +0.000 C 
ATOM     32  C   UNL     1      -7.220  53.161  46.297  0.00  0.00    +0.000 C 
ENDBRANCH  30  31
BRANCH  30  33
ATOM     33  C   UNL     1     -10.650  52.958  45.085  0.00  0.00    +0.000 C 
BRANCH  33  34
ATOM     34  C   UNL     1     -11.826  51.986  44.866  0.00  0.00    +0.000 C 
ATOM     35  C   UNL     1     -12.477  51.543  46.166  0.00  0.00    +0.000 C 
ENDBRANCH  33  34
ENDBRANCH  30  33
ENDBRANCH  28  30
ENDBRANCH   5  28
TORSDOF 7
ENDMDL
MODEL 6
REMARK VINA RESULT:      -7.4      2.559      2.792
REMARK  Name = 
REMARK  9 active torsions:
REMARK  status: ('A' for Active; 'I' for Inactive)
REMARK    1  A    between atoms: C_6  and  C_10
REMARK    2  A    between atoms: C_14  and  O_18
REMARK    3  A    between atoms: N_17  and  N_20
REMARK    4  A    between atoms: N_20  and  C_23
REMARK    5  A    between atoms: C_23  and  C_26
REMARK    6  A    between atoms: C_23  and  C_27
REMARK    7  A    between atoms: C_26  and  C_29
REMARK    8  A    between atoms: C_27  and  C_30
REMARK    9  A    between atoms: C_29  and  C_31
REMARK                            x       y       z     vdW  Elec       q    Type
REMARK                         _______ _______ _______ _____ _____    ______ ____
ROOT
ATOM      1  C   UNL     1      -9.949  53.478  50.755  0.00  0.00    +0.000 A 
ATOM      2  C   UNL     1     -11.377  53.822  51.047  0.00  0.00    +0.000 A 
ATOM      3  C   UNL     1      -9.490  53.606  49.496  0.00  0.00    +0.000 A 
ATOM      4  O   UNL     1     -11.876  53.389  52.092  0.00  0.00    +0.000 OA
ATOM      5  N   UNL     1     -12.016  54.689  50.144  0.00  0.00    +0.000 N 
ATOM      6  C   UNL     1     -10.338  54.172  48.440  0.00  0.00    +0.000 A 
ATOM      7  C   UNL     1     -11.567  54.762  48.778  0.00  0.00    +0.000 A 
ATOM      8  C   UNL     1      -9.890  54.185  47.106  0.00  0.00    +0.000 A 
ATOM      9  C   UNL     1     -12.315  55.365  47.749  0.00  0.00    +0.000 A 
ATOM     10  C   UNL     1     -10.643  54.785  46.105  0.00  0.00    +0.000 A 
ATOM     11  C   UNL     1     -11.855  55.379  46.427  0.00  0.00    +0.000 A 
ENDROOT
BRANCH   1  17
ATOM     12  S   UNL     1      -6.834  53.434  53.150  0.00  0.00    +0.000 S 
ATOM     13  O   UNL     1      -6.819  54.651  53.941  0.00  0.00    +0.000 OA
ATOM     14  O   UNL     1      -5.608  52.910  52.589  0.00  0.00    +0.000 OA
ATOM     15  N   UNL     1      -7.873  53.658  51.932  0.00  0.00    +0.000 N 
ATOM     16  C   UNL     1      -7.475  52.185  54.191  0.00  0.00    +0.000 A 
ATOM     17  C   UNL     1      -9.030  53.062  51.895  0.00  0.00    +0.000 C 
ATOM     18  C   UNL     1      -8.737  51.683  53.910  0.00  0.00    +0.000 A 
ATOM     19  C   UNL     1      -6.708  51.739  55.271  0.00  0.00    +0.000 A 
ATOM     20  N   UNL     1      -9.476  52.148  52.824  0.00  0.00    +0.000 N 
ATOM     21  C   UNL     1      -9.258  50.718  54.777  0.00  0.00    +0.000 A 
ATOM     22  C   UNL     1      -7.231  50.762  56.110  0.00  0.00    +0.000 A 
ATOM     23  C   UNL     1      -8.508  50.257  55.867  0.00  0.00    +0.000 A 
ATOM     24  H   UNL     1      -7.623  54.261  51.196  0.00  0.00    +0.000 HD
ATOM     25  H   UNL     1     -10.389  51.795  52.712  0.00  0.00    +0.000 HD
ENDBRANCH   1  17
BRANCH   3  26
ATOM     26  O   UNL     1      -8.206  53.296  49.086  0.00  0.00    +0.000 OA
ATOM     27  H   UNL     1      -7.537  53.136  49.723  0.00  0.00    +0.000 HD
ENDBRANCH   3  26
BRANCH   5  28
ATOM     28  N   UNL     1     -13.292  55.236  50.494  0.00  0.00    +0.000 N 
ATOM     29  H   UNL     1     -14.102  54.677  50.533  0.00  0.00    +0.000 HD
BRANCH  28  30
ATOM     30  C   UNL     1     -13.332  56.690  50.794  0.00  0.00    +0.000 C 
BRANCH  30  31
ATOM     31  C   UNL     1     -13.746  56.808  52.284  0.00  0.00    +0.000 C 
ATOM     32  C   UNL     1     -15.214  57.162  52.490  0.00  0.00    +0.000 C 
ENDBRANCH  30  31
BRANCH  30  33
ATOM     33  C   UNL     1     -14.320  57.477  49.890  0.00  0.00    +0.000 C 
BRANCH  33  34
ATOM     34  C   UNL     1     -13.698  58.752  49.290  0.00  0.00    +0.000 C 
ATOM     35  C   UNL     1     -14.319  60.027  49.837  0.00  0.00    +0.000 C 
ENDBRANCH  33  34
ENDBRANCH  30  33
ENDBRANCH  28  30
ENDBRANCH   5  28
TORSDOF 7
ENDMDL
MODEL 7
REMARK VINA RESULT:      -7.2      3.217      7.547
REMARK  Name = 
REMARK  9 active torsions:
REMARK  status: ('A' for Active; 'I' for Inactive)
REMARK    1  A    between atoms: C_6  and  C_10
REMARK    2  A    between atoms: C_14  and  O_18
REMARK    3  A    between atoms: N_17  and  N_20
REMARK    4  A    between atoms: N_20  and  C_23
REMARK    5  A    between atoms: C_23  and  C_26
REMARK    6  A    between atoms: C_23  and  C_27
REMARK    7  A    between atoms: C_26  and  C_29
REMARK    8  A    between atoms: C_27  and  C_30
REMARK    9  A    between atoms: C_29  and  C_31
REMARK                            x       y       z     vdW  Elec       q    Type
REMARK                         _______ _______ _______ _____ _____    ______ ____
ROOT
ATOM      1  C   UNL     1     -11.062  55.588  49.357  0.00  0.00    +0.000 A 
ATOM      2  C   UNL     1     -10.999  55.258  47.897  0.00  0.00    +0.000 A 
ATOM      3  C   UNL     1     -10.196  54.995  50.200  0.00  0.00    +0.000 A 
ATOM      4  O   UNL     1     -11.982  55.526  47.199  0.00  0.00    +0.000 OA
ATOM      5  N   UNL     1      -9.781  54.744  47.418  0.00  0.00    +0.000 N 
ATOM      6  C   UNL     1      -9.135  54.117  49.692  0.00  0.00    +0.000 A 
ATOM      7  C   UNL     1      -8.895  54.043  48.310  0.00  0.00    +0.000 A 
ATOM      8  C   UNL     1      -8.316  53.407  50.590  0.00  0.00    +0.000 A 
ATOM      9  C   UNL     1      -7.818  53.253  47.868  0.00  0.00    +0.000 A 
ATOM     10  C   UNL     1      -7.258  52.632  50.134  0.00  0.00    +0.000 A 
ATOM     11  C   UNL     1      -7.006  52.558  48.772  0.00  0.00    +0.000 A 
ENDROOT
BRANCH   1  17
ATOM     12  S   UNL     1     -13.297  58.821  49.380  0.00  0.00    +0.000 S 
ATOM     13  O   UNL     1     -14.344  58.688  48.385  0.00  0.00    +0.000 OA
ATOM     14  O   UNL     1     -12.597  60.076  49.544  0.00  0.00    +0.000 OA
ATOM     15  N   UNL     1     -12.191  57.681  49.079  0.00  0.00    +0.000 N 
ATOM     16  C   UNL     1     -14.042  58.465  50.921  0.00  0.00    +0.000 A 
ATOM     17  C   UNL     1     -12.051  56.637  49.846  0.00  0.00    +0.000 C 
ATOM     18  C   UNL     1     -13.689  57.287  51.561  0.00  0.00    +0.000 A 
ATOM     19  C   UNL     1     -14.969  59.364  51.453  0.00  0.00    +0.000 A 
ATOM     20  N   UNL     1     -12.758  56.411  51.006  0.00  0.00    +0.000 N 
ATOM     21  C   UNL     1     -14.326  56.991  52.770  0.00  0.00    +0.000 A 
ATOM     22  C   UNL     1     -15.577  59.067  52.666  0.00  0.00    +0.000 A 
ATOM     23  C   UNL     1     -15.260  57.877  53.321  0.00  0.00    +0.000 A 
ATOM     24  H   UNL     1     -11.606  57.778  48.294  0.00  0.00    +0.000 HD
ATOM     25  H   UNL     1     -12.594  55.563  51.479  0.00  0.00    +0.000 HD
ENDBRANCH   1  17
BRANCH   3  26
ATOM     26  O   UNL     1     -10.166  55.187  51.569  0.00  0.00    +0.000 OA
ATOM     27  H   UNL     1     -10.582  54.568  52.138  0.00  0.00    +0.000 HD
ENDBRANCH   3  26
BRANCH   5  28
ATOM     28  N   UNL     1      -9.585  54.634  46.003  0.00  0.00    +0.000 N 
ATOM     29  H   UNL     1      -9.253  55.390  45.467  0.00  0.00    +0.000 HD
BRANCH  28  30
ATOM     30  C   UNL     1      -9.907  53.322  45.388  0.00  0.00    +0.000 C 
BRANCH  30  31
ATOM     31  C   UNL     1      -8.799  53.059  44.335  0.00  0.00    +0.000 C 
ATOM     32  C   UNL     1      -8.212  51.654  44.394  0.00  0.00    +0.000 C 
ENDBRANCH  30  31
BRANCH  30  33
ATOM     33  C   UNL     1     -11.310  53.283  44.724  0.00  0.00    +0.000 C 
BRANCH  33  34
ATOM     34  C   UNL     1     -12.262  52.270  45.389  0.00  0.00    +0.000 C 
ATOM     35  C   UNL     1     -11.732  51.739  46.711  0.00  0.00    +0.000 C 
ENDBRANCH  33  34
ENDBRANCH  30  33
ENDBRANCH  28  30
ENDBRANCH   5  28
TORSDOF 7
ENDMDL
MODEL 8
REMARK VINA RESULT:      -7.1      1.849      4.571
REMARK  Name = 
REMARK  9 active torsions:
REMARK  status: ('A' for Active; 'I' for Inactive)
REMARK    1  A    between atoms: C_6  and  C_10
REMARK    2  A    between atoms: C_14  and  O_18
REMARK    3  A    between atoms: N_17  and  N_20
REMARK    4  A    between atoms: N_20  and  C_23
REMARK    5  A    between atoms: C_23  and  C_26
REMARK    6  A    between atoms: C_23  and  C_27
REMARK    7  A    between atoms: C_26  and  C_29
REMARK    8  A    between atoms: C_27  and  C_30
REMARK    9  A    between atoms: C_29  and  C_31
REMARK                            x       y       z     vdW  Elec       q    Type
REMARK                         _______ _______ _______ _____ _____    ______ ____
ROOT
ATOM      1  C   UNL     1      -9.262  55.349  50.480  0.00  0.00    +0.000 A 
ATOM      2  C   UNL     1      -9.563  55.598  49.034  0.00  0.00    +0.000 A 
ATOM      3  C   UNL     1     -10.256  55.453  51.382  0.00  0.00    +0.000 A 
ATOM      4  O   UNL     1      -8.615  55.836  48.278  0.00  0.00    +0.000 OA
ATOM      5  N   UNL     1     -10.903  55.456  48.634  0.00  0.00    +0.000 N 
ATOM      6  C   UNL     1     -11.637  55.705  50.954  0.00  0.00    +0.000 A 
ATOM      7  C   UNL     1     -11.963  55.645  49.589  0.00  0.00    +0.000 A 
ATOM      8  C   UNL     1     -12.643  55.935  51.911  0.00  0.00    +0.000 A 
ATOM      9  C   UNL     1     -13.312  55.813  49.223  0.00  0.00    +0.000 A 
ATOM     10  C   UNL     1     -13.969  56.097  51.531  0.00  0.00    +0.000 A 
ATOM     11  C   UNL     1     -14.305  56.032  50.186  0.00  0.00    +0.000 A 
ENDROOT
BRANCH   1  17
ATOM     12  S   UNL     1      -5.661  53.798  50.224  0.00  0.00    +0.000 S 
ATOM     13  O   UNL     1      -4.854  54.603  49.326  0.00  0.00    +0.000 OA
ATOM     14  O   UNL     1      -5.592  52.354  50.174  0.00  0.00    +0.000 OA
ATOM     15  N   UNL     1      -7.205  54.222  50.004  0.00  0.00    +0.000 N 
ATOM     16  C   UNL     1      -5.194  54.260  51.843  0.00  0.00    +0.000 A 
ATOM     17  C   UNL     1      -7.862  54.913  50.890  0.00  0.00    +0.000 C 
ATOM     18  C   UNL     1      -6.105  54.971  52.609  0.00  0.00    +0.000 A 
ATOM     19  C   UNL     1      -3.924  53.911  52.312  0.00  0.00    +0.000 A 
ATOM     20  N   UNL     1      -7.365  55.302  52.114  0.00  0.00    +0.000 N 
ATOM     21  C   UNL     1      -5.703  55.375  53.885  0.00  0.00    +0.000 A 
ATOM     22  C   UNL     1      -3.547  54.301  53.591  0.00  0.00    +0.000 A 
ATOM     23  C   UNL     1      -4.434  55.038  54.375  0.00  0.00    +0.000 A 
ATOM     24  H   UNL     1      -7.662  53.950  49.176  0.00  0.00    +0.000 HD
ATOM     25  H   UNL     1      -7.944  55.859  52.684  0.00  0.00    +0.000 HD
ENDBRANCH   1  17
BRANCH   3  26
ATOM     26  O   UNL     1     -10.110  55.279  52.747  0.00  0.00    +0.000 OA
ATOM     27  H   UNL     1     -10.320  55.979  53.333  0.00  0.00    +0.000 HD
ENDBRANCH   3  26
BRANCH   5  28
ATOM     28  N   UNL     1     -11.210  55.449  47.235  0.00  0.00    +0.000 N 
ATOM     29  H   UNL     1     -11.133  56.262  46.685  0.00  0.00    +0.000 HD
BRANCH  28  30
ATOM     30  C   UNL     1     -11.651  54.154  46.658  0.00  0.00    +0.000 C 
BRANCH  30  31
ATOM     31  C   UNL     1     -11.113  53.055  47.610  0.00  0.00    +0.000 C 
ATOM     32  C   UNL     1     -12.202  52.186  48.227  0.00  0.00    +0.000 C 
ENDBRANCH  30  31
BRANCH  30  33
ATOM     33  C   UNL     1     -11.137  53.920  45.211  0.00  0.00    +0.000 C 
BRANCH  33  34
ATOM     34  C   UNL     1      -9.980  52.905  45.141  0.00  0.00    +0.000 C 
ATOM     35  C   UNL     1      -9.126  53.066  43.895  0.00  0.00    +0.000 C 
ENDBRANCH  33  34
ENDBRANCH  30  33
ENDBRANCH  28  30
ENDBRANCH   5  28
TORSDOF 7
ENDMDL
MODEL 9
REMARK VINA RESULT:      -7.1      1.996      2.390
REMARK  Name = 
REMARK  9 active torsions:
REMARK  status: ('A' for Active; 'I' for Inactive)
REMARK    1  A    between atoms: C_6  and  C_10
REMARK    2  A    between atoms: C_14  and  O_18
REMARK    3  A    between atoms: N_17  and  N_20
REMARK    4  A    between atoms: N_20  and  C_23
REMARK    5  A    between atoms: C_23  and  C_26
REMARK    6  A    between atoms: C_23  and  C_27
REMARK    7  A    between atoms: C_26  and  C_29
REMARK    8  A    between atoms: C_27  and  C_30
REMARK    9  A    between atoms: C_29  and  C_31
REMARK                            x       y       z     vdW  Elec       q    Type
REMARK                         _______ _______ _______ _____ _____    ______ ____
ROOT
ATOM      1  C   UNL     1     -10.439  54.151  50.640  0.00  0.00    +0.000 A 
ATOM      2  C   UNL     1     -11.817  54.452  51.143  0.00  0.00    +0.000 A 
ATOM      3  C   UNL     1     -10.145  54.399  49.349  0.00  0.00    +0.000 A 
ATOM      4  O   UNL     1     -12.177  53.920  52.198  0.00  0.00    +0.000 OA
ATOM      5  N   UNL     1     -12.565  55.391  50.413  0.00  0.00    +0.000 N 
ATOM      6  C   UNL     1     -11.121  55.050  48.468  0.00  0.00    +0.000 A 
ATOM      7  C   UNL     1     -12.295  55.595  49.014  0.00  0.00    +0.000 A 
ATOM      8  C   UNL     1     -10.849  55.191  47.094  0.00  0.00    +0.000 A 
ATOM      9  C   UNL     1     -13.169  56.281  48.149  0.00  0.00    +0.000 A 
ATOM     10  C   UNL     1     -11.724  55.872  46.257  0.00  0.00    +0.000 A 
ATOM     11  C   UNL     1     -12.882  56.422  46.786  0.00  0.00    +0.000 A 
ENDROOT
BRANCH   1  17
ATOM     12  S   UNL     1      -8.600  51.782  53.178  0.00  0.00    +0.000 S 
ATOM     13  O   UNL     1      -8.147  50.591  52.483  0.00  0.00    +0.000 OA
ATOM     14  O   UNL     1      -9.189  51.681  54.496  0.00  0.00    +0.000 OA
ATOM     15  N   UNL     1      -9.667  52.529  52.222  0.00  0.00    +0.000 N 
ATOM     16  C   UNL     1      -7.197  52.812  53.341  0.00  0.00    +0.000 A 
ATOM     17  C   UNL     1      -9.381  53.642  51.609  0.00  0.00    +0.000 C 
ATOM     18  C   UNL     1      -7.153  53.980  52.595  0.00  0.00    +0.000 A 
ATOM     19  C   UNL     1      -6.167  52.429  54.204  0.00  0.00    +0.000 A 
ATOM     20  N   UNL     1      -8.198  54.335  51.745  0.00  0.00    +0.000 N 
ATOM     21  C   UNL     1      -6.006  54.772  52.698  0.00  0.00    +0.000 A 
ATOM     22  C   UNL     1      -5.043  53.239  54.313  0.00  0.00    +0.000 A 
ATOM     23  C   UNL     1      -4.960  54.406  53.556  0.00  0.00    +0.000 A 
ATOM     24  H   UNL     1     -10.558  52.131  52.098  0.00  0.00    +0.000 HD
ATOM     25  H   UNL     1      -8.082  55.146  51.197  0.00  0.00    +0.000 HD
ENDBRANCH   1  17
BRANCH   3  26
ATOM     26  O   UNL     1      -8.925  54.141  48.750  0.00  0.00    +0.000 OA
ATOM     27  H   UNL     1      -8.304  54.835  48.637  0.00  0.00    +0.000 HD
ENDBRANCH   3  26
BRANCH   5  28
ATOM     28  N   UNL     1     -13.785  55.891  50.973  0.00  0.00    +0.000 N 
ATOM     29  H   UNL     1     -14.562  55.306  51.125  0.00  0.00    +0.000 HD
BRANCH  28  30
ATOM     30  C   UNL     1     -13.818  57.336  51.312  0.00  0.00    +0.000 C 
BRANCH  30  31
ATOM     31  C   UNL     1     -13.819  57.413  52.861  0.00  0.00    +0.000 C 
ATOM     32  C   UNL     1     -15.151  57.852  53.456  0.00  0.00    +0.000 C 
ENDBRANCH  30  31
BRANCH  30  33
ATOM     33  C   UNL     1     -15.052  58.076  50.729  0.00  0.00    +0.000 C 
BRANCH  33  34
ATOM     34  C   UNL     1     -14.748  59.534  50.334  0.00  0.00    +0.000 C 
ATOM     35  C   UNL     1     -13.355  59.711  49.753  0.00  0.00    +0.000 C 
ENDBRANCH  33  34
ENDBRANCH  30  33
ENDBRANCH  28  30
ENDBRANCH   5  28
TORSDOF 7
ENDMDL
