MODEL 1
REMARK VINA RESULT:      -8.8      0.000      0.000
REMARK  Name = 
REMARK  5 active torsions:
REMARK  status: ('A' for Active; 'I' for Inactive)
REMARK    1  A    between atoms: C_6  and  C_10
REMARK    2  A    between atoms: C_14  and  O_18
REMARK    3  A    between atoms: N_17  and  N_20
REMARK    4  A    between atoms: N_20  and  C_23
REMARK    5  A    between atoms: C_23  and  C_26
REMARK                            x       y       z     vdW  Elec       q    Type
REMARK                         _______ _______ _______ _____ _____    ______ ____
ROOT
ATOM      1  C   UNL     1      -9.126  54.356  49.891  0.00  0.00    +0.000 A 
ATOM      2  C   UNL     1     -10.176  55.414  49.975  0.00  0.00    +0.000 A 
ATOM      3  C   UNL     1      -9.015  53.596  48.788  0.00  0.00    +0.000 A 
ATOM      4  O   UNL     1     -10.244  56.067  51.022  0.00  0.00    +0.000 OA
ATOM      5  N   UNL     1     -11.000  55.619  48.865  0.00  0.00    +0.000 N 
ATOM      6  C   UNL     1      -9.895  53.820  47.632  0.00  0.00    +0.000 A 
ATOM      7  C   UNL     1     -10.877  54.824  47.685  0.00  0.00    +0.000 A 
ATOM      8  C   UNL     1      -9.759  53.048  46.465  0.00  0.00    +0.000 A 
ATOM      9  C   UNL     1     -11.709  55.028  46.570  0.00  0.00    +0.000 A 
ATOM     10  C   UNL     1     -10.578  53.270  45.360  0.00  0.00    +0.000 A 
ATOM     11  C   UNL     1     -11.555  54.257  45.413  0.00  0.00    +0.000 A 
ENDROOT
BRANCH   1  17
ATOM     12  S   UNL     1      -7.745  54.096  53.559  0.00  0.00    +0.000 S 
ATOM     13  O   UNL     1      -7.968  52.787  54.143  0.00  0.00    +0.000 OA
ATOM     14  O   UNL     1      -7.944  55.299  54.350  0.00  0.00    +0.000 OA
ATOM     15  N   UNL     1      -8.678  54.214  52.240  0.00  0.00    +0.000 N 
ATOM     16  C   UNL     1      -6.065  54.127  53.052  0.00  0.00    +0.000 A 
ATOM     17  C   UNL     1      -8.159  54.200  51.048  0.00  0.00    +0.000 C 
ATOM     18  C   UNL     1      -5.797  54.116  51.696  0.00  0.00    +0.000 A 
ATOM     19  C   UNL     1      -5.047  54.171  54.012  0.00  0.00    +0.000 A 
ATOM     20  N   UNL     1      -6.819  54.059  50.754  0.00  0.00    +0.000 N 
ATOM     21  C   UNL     1      -4.460  54.075  51.288  0.00  0.00    +0.000 A 
ATOM     22  C   UNL     1      -3.721  54.168  53.591  0.00  0.00    +0.000 A 
ATOM     23  C   UNL     1      -3.427  54.108  52.229  0.00  0.00    +0.000 A 
ATOM     24  H   UNL     1      -9.654  54.298  52.342  0.00  0.00    +0.000 HD
ATOM     25  H   UNL     1      -6.569  53.908  49.814  0.00  0.00    +0.000 HD
ENDBRANCH   1  17
BRANCH   3  26
ATOM     26  O   UNL     1      -8.079  52.591  48.624  0.00  0.00    +0.000 OA
ATOM     27  H   UNL     1      -7.800  52.086  49.363  0.00  0.00    +0.000 HD
ENDBRANCH   3  26
BRANCH   5  28
ATOM     28  N   UNL     1     -12.084  56.560  48.926  0.00  0.00    +0.000 N 
ATOM     29  H   UNL     1     -12.026  57.459  48.527  0.00  0.00    +0.000 HD
BRANCH  28  30
ATOM     30  C   UNL     1     -13.287  56.084  49.624  0.00  0.00    +0.000 C 
BRANCH  30  31
ATOM     31  C   UNL     1     -13.740  57.064  50.674  0.00  0.00    +0.000 A 
ATOM     32  C   UNL     1     -14.277  58.299  50.316  0.00  0.00    +0.000 A 
ATOM     33  C   UNL     1     -13.653  56.773  52.037  0.00  0.00    +0.000 A 
ATOM     34  N   UNL     1     -14.699  59.230  51.200  0.00  0.00    +0.000 NA
ATOM     35  C   UNL     1     -14.079  57.713  52.970  0.00  0.00    +0.000 A 
ATOM     36  C   UNL     1     -14.585  58.917  52.508  0.00  0.00    +0.000 A 
ENDBRANCH  30  31
ENDBRANCH  28  30
ENDBRANCH   5  28
TORSDOF 5
ENDMDL
MODEL 2
REMARK VINA RESULT:      -8.8      2.612      7.335
REMARK  Name = 
REMARK  5 active torsions:
REMARK  status: ('A' for Active; 'I' for Inactive)
REMARK    1  A    between atoms: C_6  and  C_10
REMARK    2  A    between atoms: C_14  and  O_18
REMARK    3  A    between atoms: N_17  and  N_20
REMARK    4  A    between atoms: N_20  and  C_23
REMARK    5  A    between atoms: C_23  and  C_26
REMARK                            x       y       z     vdW  Elec       q    Type
REMARK                         _______ _______ _______ _____ _____    ______ ____
ROOT
ATOM      1  C   UNL     1     -11.406  56.032  48.834  0.00  0.00    +0.000 A 
ATOM      2  C   UNL     1     -10.333  55.462  49.701  0.00  0.00    +0.000 A 
ATOM      3  C   UNL     1     -11.507  55.661  47.547  0.00  0.00    +0.000 A 
ATOM      4  O   UNL     1     -10.276  55.857  50.871  0.00  0.00    +0.000 OA
ATOM      5  N   UNL     1      -9.476  54.504  49.151  0.00  0.00    +0.000 N 
ATOM      6  C   UNL     1     -10.593  54.657  46.982  0.00  0.00    +0.000 A 
ATOM      7  C   UNL     1      -9.588  54.095  47.788  0.00  0.00    +0.000 A 
ATOM      8  C   UNL     1     -10.718  54.243  45.644  0.00  0.00    +0.000 A 
ATOM      9  C   UNL     1      -8.723  53.135  47.234  0.00  0.00    +0.000 A 
ATOM     10  C   UNL     1      -9.866  53.279  45.110  0.00  0.00    +0.000 A 
ATOM     11  C   UNL     1      -8.867  52.727  45.904  0.00  0.00    +0.000 A 
ENDROOT
BRANCH   1  17
ATOM     12  S   UNL     1     -13.552  59.264  49.447  0.00  0.00    +0.000 S 
ATOM     13  O   UNL     1     -14.686  59.355  48.546  0.00  0.00    +0.000 OA
ATOM     14  O   UNL     1     -12.764  60.445  49.760  0.00  0.00    +0.000 OA
ATOM     15  N   UNL     1     -12.545  58.139  48.861  0.00  0.00    +0.000 N 
ATOM     16  C   UNL     1     -14.189  58.692  50.979  0.00  0.00    +0.000 A 
ATOM     17  C   UNL     1     -12.406  56.989  49.451  0.00  0.00    +0.000 C 
ATOM     18  C   UNL     1     -13.866  57.406  51.375  0.00  0.00    +0.000 A 
ATOM     19  C   UNL     1     -14.987  59.533  51.762  0.00  0.00    +0.000 A 
ATOM     20  N   UNL     1     -13.083  56.576  50.580  0.00  0.00    +0.000 N 
ATOM     21  C   UNL     1     -14.424  56.922  52.563  0.00  0.00    +0.000 A 
ATOM     22  C   UNL     1     -15.503  59.052  52.962  0.00  0.00    +0.000 A 
ATOM     23  C   UNL     1     -15.232  57.742  53.356  0.00  0.00    +0.000 A 
ATOM     24  H   UNL     1     -12.028  58.330  48.044  0.00  0.00    +0.000 HD
ATOM     25  H   UNL     1     -13.007  55.630  50.840  0.00  0.00    +0.000 HD
ENDBRANCH   1  17
BRANCH   3  26
ATOM     26  O   UNL     1     -12.463  56.140  46.669  0.00  0.00    +0.000 OA
ATOM     27  H   UNL     1     -13.180  55.593  46.412  0.00  0.00    +0.000 HD
ENDBRANCH   3  26
BRANCH   5  28
ATOM     28  N   UNL     1      -8.371  53.992  49.913  0.00  0.00    +0.000 N 
ATOM     29  H   UNL     1      -8.398  53.112  50.356  0.00  0.00    +0.000 HD
BRANCH  28  30
ATOM     30  C   UNL     1      -7.197  54.873  49.984  0.00  0.00    +0.000 C 
BRANCH  30  31
ATOM     31  C   UNL     1      -6.688  55.003  51.395  0.00  0.00    +0.000 A 
ATOM     32  C   UNL     1      -5.549  54.317  51.811  0.00  0.00    +0.000 A 
ATOM     33  C   UNL     1      -7.323  55.821  52.332  0.00  0.00    +0.000 A 
ATOM     34  N   UNL     1      -5.037  54.380  53.061  0.00  0.00    +0.000 NA
ATOM     35  C   UNL     1      -6.820  55.904  53.626  0.00  0.00    +0.000 A 
ATOM     36  C   UNL     1      -5.688  55.169  53.941  0.00  0.00    +0.000 A 
ENDBRANCH  30  31
ENDBRANCH  28  30
ENDBRANCH   5  28
TORSDOF 5
ENDMDL
MODEL 3
REMARK VINA RESULT:      -8.7      3.260      8.566
REMARK  Name = 
REMARK  5 active torsions:
REMARK  status: ('A' for Active; 'I' for Inactive)
REMARK    1  A    between atoms: C_6  and  C_10
REMARK    2  A    between atoms: C_14  and  O_18
REMARK    3  A    between atoms: N_17  and  N_20
REMARK    4  A    between atoms: N_20  and  C_23
REMARK    5  A    between atoms: C_23  and  C_26
REMARK                            x       y       z     vdW  Elec       q    Type
REMARK                         _______ _______ _______ _____ _____    ______ ____
ROOT
ATOM      1  C   UNL     1     -10.135  54.543  52.232  0.00  0.00    +0.000 A 
ATOM      2  C   UNL     1      -8.763  55.103  52.050  0.00  0.00    +0.000 A 
ATOM      3  C   UNL     1     -10.324  53.437  52.971  0.00  0.00    +0.000 A 
ATOM      4  O   UNL     1      -8.649  56.110  51.343  0.00  0.00    +0.000 OA
ATOM      5  N   UNL     1      -7.700  54.475  52.705  0.00  0.00    +0.000 N 
ATOM      6  C   UNL     1      -9.193  52.784  53.646  0.00  0.00    +0.000 A 
ATOM      7  C   UNL     1      -7.897  53.307  53.502  0.00  0.00    +0.000 A 
ATOM      8  C   UNL     1      -9.394  51.645  54.445  0.00  0.00    +0.000 A 
ATOM      9  C   UNL     1      -6.826  52.673  54.156  0.00  0.00    +0.000 A 
ATOM     10  C   UNL     1      -8.328  51.034  55.103  0.00  0.00    +0.000 A 
ATOM     11  C   UNL     1      -7.044  51.546  54.956  0.00  0.00    +0.000 A 
ENDROOT
BRANCH   1  17
ATOM     12  S   UNL     1     -12.543  56.083  49.537  0.00  0.00    +0.000 S 
ATOM     13  O   UNL     1     -13.426  55.091  48.952  0.00  0.00    +0.000 OA
ATOM     14  O   UNL     1     -11.922  57.098  48.703  0.00  0.00    +0.000 OA
ATOM     15  N   UNL     1     -11.362  55.294  50.316  0.00  0.00    +0.000 N 
ATOM     16  C   UNL     1     -13.501  56.953  50.722  0.00  0.00    +0.000 A 
ATOM     17  C   UNL     1     -11.307  55.280  51.615  0.00  0.00    +0.000 C 
ATOM     18  C   UNL     1     -13.214  56.754  52.060  0.00  0.00    +0.000 A 
ATOM     19  C   UNL     1     -14.512  57.824  50.299  0.00  0.00    +0.000 A 
ATOM     20  N   UNL     1     -12.215  55.875  52.466  0.00  0.00    +0.000 N 
ATOM     21  C   UNL     1     -14.016  57.395  53.009  0.00  0.00    +0.000 A 
ATOM     22  C   UNL     1     -15.278  58.486  51.254  0.00  0.00    +0.000 A 
ATOM     23  C   UNL     1     -15.038  58.262  52.610  0.00  0.00    +0.000 A 
ATOM     24  H   UNL     1     -10.673  54.818  49.798  0.00  0.00    +0.000 HD
ATOM     25  H   UNL     1     -12.152  55.664  53.425  0.00  0.00    +0.000 HD
ENDBRANCH   1  17
BRANCH   3  26
ATOM     26  O   UNL     1     -11.556  52.845  53.188  0.00  0.00    +0.000 OA
ATOM     27  H   UNL     1     -11.856  52.165  52.616  0.00  0.00    +0.000 HD
ENDBRANCH   3  26
BRANCH   5  28
ATOM     28  N   UNL     1      -6.349  54.916  52.491  0.00  0.00    +0.000 N 
ATOM     29  H   UNL     1      -5.807  55.321  53.207  0.00  0.00    +0.000 HD
BRANCH  28  30
ATOM     30  C   UNL     1      -5.835  54.721  51.128  0.00  0.00    +0.000 C 
BRANCH  30  31
ATOM     31  C   UNL     1      -5.043  53.445  51.014  0.00  0.00    +0.000 A 
ATOM     32  C   UNL     1      -5.318  52.518  50.011  0.00  0.00    +0.000 A 
ATOM     33  C   UNL     1      -4.000  53.148  51.894  0.00  0.00    +0.000 A 
ATOM     34  N   UNL     1      -4.654  51.352  49.850  0.00  0.00    +0.000 NA
ATOM     35  C   UNL     1      -3.300  51.954  51.753  0.00  0.00    +0.000 A 
ATOM     36  C   UNL     1      -3.663  51.095  50.729  0.00  0.00    +0.000 A 
ENDBRANCH  30  31
ENDBRANCH  28  30
ENDBRANCH   5  28
TORSDOF 5
ENDMDL
MODEL 4
REMARK VINA RESULT:      -8.7      3.003      7.634
REMARK  Name = 
REMARK  5 active torsions:
REMARK  status: ('A' for Active; 'I' for Inactive)
REMARK    1  A    between atoms: C_6  and  C_10
REMARK    2  A    between atoms: C_14  and  O_18
REMARK    3  A    between atoms: N_17  and  N_20
REMARK    4  A    between atoms: N_20  and  C_23
REMARK    5  A    between atoms: C_23  and  C_26
REMARK                            x       y       z     vdW  Elec       q    Type
REMARK                         _______ _______ _______ _____ _____    ______ ____
ROOT
ATOM      1  C   UNL     1     -11.162  54.560  50.755  0.00  0.00    +0.000 A 
ATOM      2  C   UNL     1      -9.778  54.925  50.330  0.00  0.00    +0.000 A 
ATOM      3  C   UNL     1     -11.426  53.330  51.227  0.00  0.00    +0.000 A 
ATOM      4  O   UNL     1      -9.601  56.063  49.884  0.00  0.00    +0.000 OA
ATOM      5  N   UNL     1      -8.768  53.971  50.481  0.00  0.00    +0.000 N 
ATOM      6  C   UNL     1     -10.352  52.337  51.372  0.00  0.00    +0.000 A 
ATOM      7  C   UNL     1      -9.040  52.667  50.994  0.00  0.00    +0.000 A 
ATOM      8  C   UNL     1     -10.621  51.060  51.895  0.00  0.00    +0.000 A 
ATOM      9  C   UNL     1      -8.023  51.707  51.141  0.00  0.00    +0.000 A 
ATOM     10  C   UNL     1      -9.603  50.122  52.052  0.00  0.00    +0.000 A 
ATOM     11  C   UNL     1      -8.305  50.444  51.672  0.00  0.00    +0.000 A 
ENDROOT
BRANCH   1  17
ATOM     12  S   UNL     1     -13.617  57.277  49.332  0.00  0.00    +0.000 S 
ATOM     13  O   UNL     1     -14.773  56.691  48.680  0.00  0.00    +0.000 OA
ATOM     14  O   UNL     1     -12.948  58.428  48.749  0.00  0.00    +0.000 OA
ATOM     15  N   UNL     1     -12.512  56.108  49.521  0.00  0.00    +0.000 N 
ATOM     16  C   UNL     1     -14.158  57.789  50.921  0.00  0.00    +0.000 A 
ATOM     17  C   UNL     1     -12.242  55.623  50.697  0.00  0.00    +0.000 C 
ATOM     18  C   UNL     1     -13.696  57.086  52.020  0.00  0.00    +0.000 A 
ATOM     19  C   UNL     1     -15.021  58.883  51.046  0.00  0.00    +0.000 A 
ATOM     20  N   UNL     1     -12.849  55.993  51.879  0.00  0.00    +0.000 N 
ATOM     21  C   UNL     1     -14.175  57.449  53.283  0.00  0.00    +0.000 A 
ATOM     22  C   UNL     1     -15.459  59.257  52.313  0.00  0.00    +0.000 A 
ATOM     23  C   UNL     1     -15.046  58.532  53.431  0.00  0.00    +0.000 A 
ATOM     24  H   UNL     1     -12.036  55.759  48.733  0.00  0.00    +0.000 HD
ATOM     25  H   UNL     1     -12.670  55.445  52.677  0.00  0.00    +0.000 HD
ENDBRANCH   1  17
BRANCH   3  26
ATOM     26  O   UNL     1     -12.677  52.904  51.637  0.00  0.00    +0.000 OA
ATOM     27  H   UNL     1     -12.870  52.832  52.552  0.00  0.00    +0.000 HD
ENDBRANCH   3  26
BRANCH   5  28
ATOM     28  N   UNL     1      -7.439  54.236  50.003  0.00  0.00    +0.000 N 
ATOM     29  H   UNL     1      -7.039  53.740  49.251  0.00  0.00    +0.000 HD
BRANCH  28  30
ATOM     30  C   UNL     1      -6.718  55.301  50.715  0.00  0.00    +0.000 C 
BRANCH  30  31
ATOM     31  C   UNL     1      -6.481  54.939  52.157  0.00  0.00    +0.000 A 
ATOM     32  C   UNL     1      -7.253  55.501  53.172  0.00  0.00    +0.000 A 
ATOM     33  C   UNL     1      -5.496  54.023  52.532  0.00  0.00    +0.000 A 
ATOM     34  N   UNL     1      -7.096  55.229  54.487  0.00  0.00    +0.000 NA
ATOM     35  C   UNL     1      -5.311  53.725  53.878  0.00  0.00    +0.000 A 
ATOM     36  C   UNL     1      -6.124  54.350  54.809  0.00  0.00    +0.000 A 
ENDBRANCH  30  31
ENDBRANCH  28  30
ENDBRANCH   5  28
TORSDOF 5
ENDMDL
MODEL 5
REMARK VINA RESULT:      -8.7      2.307      5.652
REMARK  Name = 
REMARK  5 active torsions:
REMARK  status: ('A' for Active; 'I' for Inactive)
REMARK    1  A    between atoms: C_6  and  C_10
REMARK    2  A    between atoms: C_14  and  O_18
REMARK    3  A    between atoms: N_17  and  N_20
REMARK    4  A    between atoms: N_20  and  C_23
REMARK    5  A    between atoms: C_23  and  C_26
REMARK                            x       y       z     vdW  Elec       q    Type
REMARK                         _______ _______ _______ _____ _____    ______ ____
ROOT
ATOM      1  C   UNL     1     -10.403  55.175  50.925  0.00  0.00    +0.000 A 
ATOM      2  C   UNL     1     -10.091  55.074  49.468  0.00  0.00    +0.000 A 
ATOM      3  C   UNL     1     -11.572  55.697  51.334  0.00  0.00    +0.000 A 
ATOM      4  O   UNL     1      -8.992  54.606  49.153  0.00  0.00    +0.000 OA
ATOM      5  N   UNL     1     -11.062  55.490  48.553  0.00  0.00    +0.000 N 
ATOM      6  C   UNL     1     -12.580  56.136  50.357  0.00  0.00    +0.000 A 
ATOM      7  C   UNL     1     -12.311  56.032  48.982  0.00  0.00    +0.000 A 
ATOM      8  C   UNL     1     -13.816  56.652  50.784  0.00  0.00    +0.000 A 
ATOM      9  C   UNL     1     -13.286  56.454  48.061  0.00  0.00    +0.000 A 
ATOM     10  C   UNL     1     -14.781  57.052  49.862  0.00  0.00    +0.000 A 
ATOM     11  C   UNL     1     -14.515  56.956  48.501  0.00  0.00    +0.000 A 
ENDROOT
BRANCH   1  17
ATOM     12  S   UNL     1      -7.072  54.696  52.950  0.00  0.00    +0.000 S 
ATOM     13  O   UNL     1      -6.918  55.681  54.004  0.00  0.00    +0.000 OA
ATOM     14  O   UNL     1      -5.934  54.310  52.131  0.00  0.00    +0.000 OA
ATOM     15  N   UNL     1      -8.242  55.214  51.956  0.00  0.00    +0.000 N 
ATOM     16  C   UNL     1      -7.622  53.224  53.731  0.00  0.00    +0.000 A 
ATOM     17  C   UNL     1      -9.401  54.627  51.921  0.00  0.00    +0.000 C 
ATOM     18  C   UNL     1      -8.925  52.818  53.505  0.00  0.00    +0.000 A 
ATOM     19  C   UNL     1      -6.747  52.496  54.545  0.00  0.00    +0.000 A 
ATOM     20  N   UNL     1      -9.787  53.559  52.704  0.00  0.00    +0.000 N 
ATOM     21  C   UNL     1      -9.388  51.683  54.176  0.00  0.00    +0.000 A 
ATOM     22  C   UNL     1      -7.209  51.346  55.177  0.00  0.00    +0.000 A 
ATOM     23  C   UNL     1      -8.534  50.945  55.002  0.00  0.00    +0.000 A 
ATOM     24  H   UNL     1      -8.072  55.986  51.369  0.00  0.00    +0.000 HD
ATOM     25  H   UNL     1     -10.738  53.304  52.695  0.00  0.00    +0.000 HD
ENDBRANCH   1  17
BRANCH   3  26
ATOM     26  O   UNL     1     -11.943  55.835  52.660  0.00  0.00    +0.000 OA
ATOM     27  H   UNL     1     -12.243  56.665  52.978  0.00  0.00    +0.000 HD
ENDBRANCH   3  26
BRANCH   5  28
ATOM     28  N   UNL     1     -10.779  55.500  47.144  0.00  0.00    +0.000 N 
ATOM     29  H   UNL     1     -10.190  56.172  46.729  0.00  0.00    +0.000 HD
BRANCH  28  30
ATOM     30  C   UNL     1     -11.430  54.436  46.367  0.00  0.00    +0.000 C 
BRANCH  30  31
ATOM     31  C   UNL     1     -10.485  53.826  45.366  0.00  0.00    +0.000 A 
ATOM     32  C   UNL     1      -9.106  53.982  45.497  0.00  0.00    +0.000 A 
ATOM     33  C   UNL     1     -10.946  53.075  44.283  0.00  0.00    +0.000 A 
ATOM     34  N   UNL     1      -8.198  53.469  44.636  0.00  0.00    +0.000 NA
ATOM     35  C   UNL     1     -10.034  52.536  43.381  0.00  0.00    +0.000 A 
ATOM     36  C   UNL     1      -8.684  52.762  43.595  0.00  0.00    +0.000 A 
ENDBRANCH  30  31
ENDBRANCH  28  30
ENDBRANCH   5  28
TORSDOF 5
ENDMDL
MODEL 6
REMARK VINA RESULT:      -8.6      3.697      7.676
REMARK  Name = 
REMARK  5 active torsions:
REMARK  status: ('A' for Active; 'I' for Inactive)
REMARK    1  A    between atoms: C_6  and  C_10
REMARK    2  A    between atoms: C_14  and  O_18
REMARK    3  A    between atoms: N_17  and  N_20
REMARK    4  A    between atoms: N_20  and  C_23
REMARK    5  A    between atoms: C_23  and  C_26
REMARK                            x       y       z     vdW  Elec       q    Type
REMARK                         _______ _______ _______ _____ _____    ______ ____
ROOT
ATOM      1  C   UNL     1     -12.449  54.281  49.758  0.00  0.00    +0.000 A 
ATOM      2  C   UNL     1     -12.027  54.140  48.333  0.00  0.00    +0.000 A 
ATOM      3  C   UNL     1     -12.067  53.374  50.672  0.00  0.00    +0.000 A 
ATOM      4  O   UNL     1     -12.427  54.994  47.533  0.00  0.00    +0.000 OA
ATOM      5  N   UNL     1     -11.192  53.072  47.993  0.00  0.00    +0.000 N 
ATOM      6  C   UNL     1     -11.194  52.252  50.295  0.00  0.00    +0.000 A 
ATOM      7  C   UNL     1     -10.772  52.113  48.962  0.00  0.00    +0.000 A 
ATOM      8  C   UNL     1     -10.768  51.320  51.257  0.00  0.00    +0.000 A 
ATOM      9  C   UNL     1      -9.935  51.036  48.619  0.00  0.00    +0.000 A 
ATOM     10  C   UNL     1      -9.925  50.267  50.908  0.00  0.00    +0.000 A 
ATOM     11  C   UNL     1      -9.512  50.122  49.589  0.00  0.00    +0.000 A 
ENDROOT
BRANCH   1  17
ATOM     12  S   UNL     1     -15.353  56.473  51.238  0.00  0.00    +0.000 S 
ATOM     13  O   UNL     1     -15.268  56.605  52.680  0.00  0.00    +0.000 OA
ATOM     14  O   UNL     1     -16.639  56.262  50.593  0.00  0.00    +0.000 OA
ATOM     15  N   UNL     1     -14.374  55.262  50.793  0.00  0.00    +0.000 N 
ATOM     16  C   UNL     1     -14.722  57.968  50.571  0.00  0.00    +0.000 A 
ATOM     17  C   UNL     1     -13.265  55.495  50.156  0.00  0.00    +0.000 C 
ATOM     18  C   UNL     1     -13.501  57.923  49.922  0.00  0.00    +0.000 A 
ATOM     19  C   UNL     1     -15.454  59.154  50.698  0.00  0.00    +0.000 A 
ATOM     20  N   UNL     1     -12.778  56.740  49.815  0.00  0.00    +0.000 N 
ATOM     21  C   UNL     1     -12.963  59.123  49.446  0.00  0.00    +0.000 A 
ATOM     22  C   UNL     1     -14.924  60.335  50.185  0.00  0.00    +0.000 A 
ATOM     23  C   UNL     1     -13.672  60.322  49.570  0.00  0.00    +0.000 A 
ATOM     24  H   UNL     1     -14.622  54.334  51.009  0.00  0.00    +0.000 HD
ATOM     25  H   UNL     1     -11.857  56.795  49.474  0.00  0.00    +0.000 HD
ENDBRANCH   1  17
BRANCH   3  26
ATOM     26  O   UNL     1     -12.415  53.420  52.010  0.00  0.00    +0.000 OA
ATOM     27  H   UNL     1     -13.317  53.382  52.262  0.00  0.00    +0.000 HD
ENDBRANCH   3  26
BRANCH   5  28
ATOM     28  N   UNL     1     -10.832  52.837  46.621  0.00  0.00    +0.000 N 
ATOM     29  H   UNL     1     -11.140  52.045  46.123  0.00  0.00    +0.000 HD
BRANCH  28  30
ATOM     30  C   UNL     1      -9.971  53.863  46.016  0.00  0.00    +0.000 C 
BRANCH  30  31
ATOM     31  C   UNL     1      -8.620  53.912  46.679  0.00  0.00    +0.000 A 
ATOM     32  C   UNL     1      -7.643  52.963  46.385  0.00  0.00    +0.000 A 
ATOM     33  C   UNL     1      -8.289  54.911  47.597  0.00  0.00    +0.000 A 
ATOM     34  N   UNL     1      -6.412  52.940  46.944  0.00  0.00    +0.000 NA
ATOM     35  C   UNL     1      -7.030  54.911  48.189  0.00  0.00    +0.000 A 
ATOM     36  C   UNL     1      -6.136  53.913  47.837  0.00  0.00    +0.000 A 
ENDBRANCH  30  31
ENDBRANCH  28  30
ENDBRANCH   5  28
TORSDOF 5
ENDMDL
MODEL 7
REMARK VINA RESULT:      -8.5      1.584      2.129
REMARK  Name = 
REMARK  5 active torsions:
REMARK  status: ('A' for Active; 'I' for Inactive)
REMARK    1  A    between atoms: C_6  and  C_10
REMARK    2  A    between atoms: C_14  and  O_18
REMARK    3  A    between atoms: N_17  and  N_20
REMARK    4  A    between atoms: N_20  and  C_23
REMARK    5  A    between atoms: C_23  and  C_26
REMARK                            x       y       z     vdW  Elec       q    Type
REMARK                         _______ _______ _______ _____ _____    ______ ____
ROOT
ATOM      1  C   UNL     1      -9.645  54.266  50.141  0.00  0.00    +0.000 A 
ATOM      2  C   UNL     1     -10.645  55.375  50.151  0.00  0.00    +0.000 A 
ATOM      3  C   UNL     1      -9.465  53.524  49.036  0.00  0.00    +0.000 A 
ATOM      4  O   UNL     1     -10.783  56.008  51.203  0.00  0.00    +0.000 OA
ATOM      5  N   UNL     1     -11.347  55.643  48.972  0.00  0.00    +0.000 N 
ATOM      6  C   UNL     1     -10.216  53.816  47.806  0.00  0.00    +0.000 A 
ATOM      7  C   UNL     1     -11.149  54.867  47.791  0.00  0.00    +0.000 A 
ATOM      8  C   UNL     1     -10.005  53.061  46.639  0.00  0.00    +0.000 A 
ATOM      9  C   UNL     1     -11.858  55.135  46.606  0.00  0.00    +0.000 A 
ATOM     10  C   UNL     1     -10.701  53.346  45.467  0.00  0.00    +0.000 A 
ATOM     11  C   UNL     1     -11.630  54.380  45.451  0.00  0.00    +0.000 A 
ENDROOT
BRANCH   1  17
ATOM     12  S   UNL     1      -6.825  54.706  52.840  0.00  0.00    +0.000 S 
ATOM     13  O   UNL     1      -7.109  55.785  53.767  0.00  0.00    +0.000 OA
ATOM     14  O   UNL     1      -5.479  54.515  52.323  0.00  0.00    +0.000 OA
ATOM     15  N   UNL     1      -7.821  54.868  51.573  0.00  0.00    +0.000 N 
ATOM     16  C   UNL     1      -7.233  53.219  53.678  0.00  0.00    +0.000 A 
ATOM     17  C   UNL     1      -8.803  54.038  51.381  0.00  0.00    +0.000 C 
ATOM     18  C   UNL     1      -8.345  52.518  53.248  0.00  0.00    +0.000 A 
ATOM     19  C   UNL     1      -6.436  52.774  54.738  0.00  0.00    +0.000 A 
ATOM     20  N   UNL     1      -9.136  52.980  52.202  0.00  0.00    +0.000 N 
ATOM     21  C   UNL     1      -8.713  51.368  53.954  0.00  0.00    +0.000 A 
ATOM     22  C   UNL     1      -6.791  51.606  55.407  0.00  0.00    +0.000 A 
ATOM     23  C   UNL     1      -7.937  50.909  55.023  0.00  0.00    +0.000 A 
ATOM     24  H   UNL     1      -7.681  55.607  50.938  0.00  0.00    +0.000 HD
ATOM     25  H   UNL     1      -9.990  52.521  52.035  0.00  0.00    +0.000 HD
ENDBRANCH   1  17
BRANCH   3  26
ATOM     26  O   UNL     1      -8.567  52.476  48.938  0.00  0.00    +0.000 OA
ATOM     27  H   UNL     1      -8.857  51.638  48.635  0.00  0.00    +0.000 HD
ENDBRANCH   3  26
BRANCH   5  28
ATOM     28  N   UNL     1     -12.385  56.636  48.952  0.00  0.00    +0.000 N 
ATOM     29  H   UNL     1     -12.256  57.527  48.552  0.00  0.00    +0.000 HD
BRANCH  28  30
ATOM     30  C   UNL     1     -13.654  56.227  49.571  0.00  0.00    +0.000 C 
BRANCH  30  31
ATOM     31  C   UNL     1     -14.073  57.185  50.655  0.00  0.00    +0.000 A 
ATOM     32  C   UNL     1     -14.366  58.515  50.362  0.00  0.00    +0.000 A 
ATOM     33  C   UNL     1     -14.197  56.779  51.986  0.00  0.00    +0.000 A 
ATOM     34  N   UNL     1     -14.743  59.432  51.281  0.00  0.00    +0.000 NA
ATOM     35  C   UNL     1     -14.582  57.701  52.954  0.00  0.00    +0.000 A 
ATOM     36  C   UNL     1     -14.837  59.004  52.557  0.00  0.00    +0.000 A 
ENDBRANCH  30  31
ENDBRANCH  28  30
ENDBRANCH   5  28
TORSDOF 5
ENDMDL
MODEL 8
REMARK VINA RESULT:      -8.5      3.069      7.780
REMARK  Name = 
REMARK  5 active torsions:
REMARK  status: ('A' for Active; 'I' for Inactive)
REMARK    1  A    between atoms: C_6  and  C_10
REMARK    2  A    between atoms: C_14  and  O_18
REMARK    3  A    between atoms: N_17  and  N_20
REMARK    4  A    between atoms: N_20  and  C_23
REMARK    5  A    between atoms: C_23  and  C_26
REMARK                            x       y       z     vdW  Elec       q    Type
REMARK                         _______ _______ _______ _____ _____    ______ ____
ROOT
ATOM      1  C   UNL     1     -10.655  55.695  48.266  0.00  0.00    +0.000 A 
ATOM      2  C   UNL     1      -9.204  55.766  48.608  0.00  0.00    +0.000 A 
ATOM      3  C   UNL     1     -11.060  55.067  47.149  0.00  0.00    +0.000 A 
ATOM      4  O   UNL     1      -8.890  56.376  49.636  0.00  0.00    +0.000 OA
ATOM      5  N   UNL     1      -8.293  55.124  47.765  0.00  0.00    +0.000 N 
ATOM      6  C   UNL     1     -10.087  54.403  46.269  0.00  0.00    +0.000 A 
ATOM      7  C   UNL     1      -8.718  54.443  46.584  0.00  0.00    +0.000 A 
ATOM      8  C   UNL     1     -10.512  53.718  45.117  0.00  0.00    +0.000 A 
ATOM      9  C   UNL     1      -7.801  53.801  45.734  0.00  0.00    +0.000 A 
ATOM     10  C   UNL     1      -9.596  53.071  44.291  0.00  0.00    +0.000 A 
ATOM     11  C   UNL     1      -8.241  53.115  44.596  0.00  0.00    +0.000 A 
ENDROOT
BRANCH   1  17
ATOM     12  S   UNL     1     -13.131  56.049  51.295  0.00  0.00    +0.000 S 
ATOM     13  O   UNL     1     -12.442  56.293  52.548  0.00  0.00    +0.000 OA
ATOM     14  O   UNL     1     -14.262  55.137  51.242  0.00  0.00    +0.000 OA
ATOM     15  N   UNL     1     -12.034  55.538  50.219  0.00  0.00    +0.000 N 
ATOM     16  C   UNL     1     -13.744  57.605  50.762  0.00  0.00    +0.000 A 
ATOM     17  C   UNL     1     -11.658  56.296  49.231  0.00  0.00    +0.000 C 
ATOM     18  C   UNL     1     -13.155  58.189  49.656  0.00  0.00    +0.000 A 
ATOM     19  C   UNL     1     -14.803  58.210  51.448  0.00  0.00    +0.000 A 
ATOM     20  N   UNL     1     -12.094  57.583  48.992  0.00  0.00    +0.000 N 
ATOM     21  C   UNL     1     -13.595  59.458  49.267  0.00  0.00    +0.000 A 
ATOM     22  C   UNL     1     -15.258  59.456  51.026  0.00  0.00    +0.000 A 
ATOM     23  C   UNL     1     -14.646  60.086  49.943  0.00  0.00    +0.000 A 
ATOM     24  H   UNL     1     -11.645  54.638  50.313  0.00  0.00    +0.000 HD
ATOM     25  H   UNL     1     -11.621  58.107  48.306  0.00  0.00    +0.000 HD
ENDBRANCH   1  17
BRANCH   3  26
ATOM     26  O   UNL     1     -12.380  54.958  46.750  0.00  0.00    +0.000 OA
ATOM     27  H   UNL     1     -12.741  55.582  46.150  0.00  0.00    +0.000 HD
ENDBRANCH   3  26
BRANCH   5  28
ATOM     28  N   UNL     1      -6.879  55.238  47.996  0.00  0.00    +0.000 N 
ATOM     29  H   UNL     1      -6.306  55.843  47.471  0.00  0.00    +0.000 HD
BRANCH  28  30
ATOM     30  C   UNL     1      -6.351  54.388  49.073  0.00  0.00    +0.000 C 
BRANCH  30  31
ATOM     31  C   UNL     1      -5.622  53.191  48.525  0.00  0.00    +0.000 A 
ATOM     32  C   UNL     1      -4.360  53.323  47.948  0.00  0.00    +0.000 A 
ATOM     33  C   UNL     1      -6.169  51.907  48.583  0.00  0.00    +0.000 A 
ATOM     34  N   UNL     1      -3.648  52.297  47.431  0.00  0.00    +0.000 NA
ATOM     35  C   UNL     1      -5.460  50.832  48.056  0.00  0.00    +0.000 A 
ATOM     36  C   UNL     1      -4.218  51.075  47.493  0.00  0.00    +0.000 A 
ENDBRANCH  30  31
ENDBRANCH  28  30
ENDBRANCH   5  28
TORSDOF 5
ENDMDL
MODEL 9
REMARK VINA RESULT:      -8.5      3.060      7.210
REMARK  Name = 
REMARK  5 active torsions:
REMARK  status: ('A' for Active; 'I' for Inactive)
REMARK    1  A    between atoms: C_6  and  C_10
REMARK    2  A    between atoms: C_14  and  O_18
REMARK    3  A    between atoms: N_17  and  N_20
REMARK    4  A    between atoms: N_20  and  C_23
REMARK    5  A    between atoms: C_23  and  C_26
REMARK                            x       y       z     vdW  Elec       q    Type
REMARK                         _______ _______ _______ _____ _____    ______ ____
ROOT
ATOM      1  C   UNL     1     -11.240  54.620  48.361  0.00  0.00    +0.000 A 
ATOM      2  C   UNL     1     -10.995  54.146  49.756  0.00  0.00    +0.000 A 
ATOM      3  C   UNL     1     -12.154  55.575  48.119  0.00  0.00    +0.000 A 
ATOM      4  O   UNL     1     -10.158  53.251  49.914  0.00  0.00    +0.000 OA
ATOM      5  N   UNL     1     -11.704  54.755  50.795  0.00  0.00    +0.000 N 
ATOM      6  C   UNL     1     -12.897  56.199  49.224  0.00  0.00    +0.000 A 
ATOM      7  C   UNL     1     -12.666  55.779  50.546  0.00  0.00    +0.000 A 
ATOM      8  C   UNL     1     -13.830  57.220  48.976  0.00  0.00    +0.000 A 
ATOM      9  C   UNL     1     -13.383  56.388  51.591  0.00  0.00    +0.000 A 
ATOM     10  C   UNL     1     -14.522  57.828  50.021  0.00  0.00    +0.000 A 
ATOM     11  C   UNL     1     -14.301  57.410  51.328  0.00  0.00    +0.000 A 
ENDROOT
BRANCH   1  17
ATOM     12  S   UNL     1      -8.172  53.926  46.009  0.00  0.00    +0.000 S 
ATOM     13  O   UNL     1      -7.210  53.018  46.606  0.00  0.00    +0.000 OA
ATOM     14  O   UNL     1      -7.720  55.093  45.269  0.00  0.00    +0.000 OA
ATOM     15  N   UNL     1      -9.162  54.440  47.184  0.00  0.00    +0.000 N 
ATOM     16  C   UNL     1      -9.109  52.971  44.875  0.00  0.00    +0.000 A 
ATOM     17  C   UNL     1     -10.398  54.042  47.241  0.00  0.00    +0.000 C 
ATOM     18  C   UNL     1     -10.429  52.703  45.189  0.00  0.00    +0.000 A 
ATOM     19  C   UNL     1      -8.518  52.514  43.691  0.00  0.00    +0.000 A 
ATOM     20  N   UNL     1     -10.999  53.152  46.375  0.00  0.00    +0.000 N 
ATOM     21  C   UNL     1     -11.162  51.888  44.320  0.00  0.00    +0.000 A 
ATOM     22  C   UNL     1      -9.270  51.735  42.816  0.00  0.00    +0.000 A 
ATOM     23  C   UNL     1     -10.589  51.412  43.136  0.00  0.00    +0.000 A 
ATOM     24  H   UNL     1      -8.822  55.063  47.866  0.00  0.00    +0.000 HD
ATOM     25  H   UNL     1     -11.891  52.812  46.613  0.00  0.00    +0.000 HD
ENDBRANCH   1  17
BRANCH   3  26
ATOM     26  O   UNL     1     -12.452  56.069  46.862  0.00  0.00    +0.000 OA
ATOM     27  H   UNL     1     -12.647  56.979  46.751  0.00  0.00    +0.000 HD
ENDBRANCH   3  26
BRANCH   5  28
ATOM     28  N   UNL     1     -11.575  54.276  52.144  0.00  0.00    +0.000 N 
ATOM     29  H   UNL     1     -12.208  53.631  52.538  0.00  0.00    +0.000 HD
BRANCH  28  30
ATOM     30  C   UNL     1     -10.431  54.815  52.893  0.00  0.00    +0.000 C 
BRANCH  30  31
ATOM     31  C   UNL     1      -9.543  53.715  53.412  0.00  0.00    +0.000 A 
ATOM     32  C   UNL     1     -10.079  52.491  53.809  0.00  0.00    +0.000 A 
ATOM     33  C   UNL     1      -8.159  53.870  53.504  0.00  0.00    +0.000 A 
ATOM     34  N   UNL     1      -9.347  51.461  54.289  0.00  0.00    +0.000 NA
ATOM     35  C   UNL     1      -7.380  52.827  53.996  0.00  0.00    +0.000 A 
ATOM     36  C   UNL     1      -8.014  51.655  54.376  0.00  0.00    +0.000 A 
ENDBRANCH  30  31
ENDBRANCH  28  30
ENDBRANCH   5  28
TORSDOF 5
ENDMDL
