MODEL 1
REMARK VINA RESULT:      -8.0      0.000      0.000
REMARK  Name = 
REMARK  8 active torsions:
REMARK  status: ('A' for Active; 'I' for Inactive)
REMARK    1  A    between atoms: C_6  and  C_10
REMARK    2  A    between atoms: C_14  and  O_18
REMARK    3  A    between atoms: N_17  and  N_20
REMARK    4  A    between atoms: N_20  and  C_23
REMARK    5  A    between atoms: C_23  and  C_26
REMARK    6  A    between atoms: C_23  and  C_27
REMARK    7  A    between atoms: C_26  and  C_29
REMARK    8  A    between atoms: C_27  and  C_30
REMARK                            x       y       z     vdW  Elec       q    Type
REMARK                         _______ _______ _______ _____ _____    ______ ____
ROOT
ATOM      1  C   UNL     1     -10.046  55.382  50.641  0.00  0.00    +0.000 A 
ATOM      2  C   UNL     1      -9.593  55.512  49.220  0.00  0.00    +0.000 A 
ATOM      3  C   UNL     1     -11.283  55.807  50.975  0.00  0.00    +0.000 A 
ATOM      4  O   UNL     1      -8.386  55.425  48.969  0.00  0.00    +0.000 OA
ATOM      5  N   UNL     1     -10.596  55.657  48.255  0.00  0.00    +0.000 N 
ATOM      6  C   UNL     1     -12.229  56.268  49.949  0.00  0.00    +0.000 A 
ATOM      7  C   UNL     1     -11.896  56.125  48.597  0.00  0.00    +0.000 A 
ATOM      8  C   UNL     1     -13.502  56.749  50.297  0.00  0.00    +0.000 A 
ATOM      9  C   UNL     1     -12.843  56.461  47.616  0.00  0.00    +0.000 A 
ATOM     10  C   UNL     1     -14.441  57.064  49.317  0.00  0.00    +0.000 A 
ATOM     11  C   UNL     1     -14.112  56.917  47.975  0.00  0.00    +0.000 A 
ENDROOT
BRANCH   1  17
ATOM     12  S   UNL     1      -6.954  54.787  52.981  0.00  0.00    +0.000 S 
ATOM     13  O   UNL     1      -6.982  55.767  54.047  0.00  0.00    +0.000 OA
ATOM     14  O   UNL     1      -5.700  54.438  52.334  0.00  0.00    +0.000 OA
ATOM     15  N   UNL     1      -7.975  55.263  51.828  0.00  0.00    +0.000 N 
ATOM     16  C   UNL     1      -7.575  53.301  53.668  0.00  0.00    +0.000 A 
ATOM     17  C   UNL     1      -9.143  54.706  51.661  0.00  0.00    +0.000 C 
ATOM     18  C   UNL     1      -8.847  52.893  53.294  0.00  0.00    +0.000 A 
ATOM     19  C   UNL     1      -6.786  52.587  54.575  0.00  0.00    +0.000 A 
ATOM     20  N   UNL     1      -9.597  53.608  52.363  0.00  0.00    +0.000 N 
ATOM     21  C   UNL     1      -9.346  51.721  53.872  0.00  0.00    +0.000 A 
ATOM     22  C   UNL     1      -7.293  51.419  55.134  0.00  0.00    +0.000 A 
ATOM     23  C   UNL     1      -8.574  50.990  54.784  0.00  0.00    +0.000 A 
ATOM     24  H   UNL     1      -7.710  55.999  51.230  0.00  0.00    +0.000 HD
ATOM     25  H   UNL     1     -10.519  53.309  52.194  0.00  0.00    +0.000 HD
ENDBRANCH   1  17
BRANCH   3  26
ATOM     26  O   UNL     1     -11.812  55.773  52.252  0.00  0.00    +0.000 OA
ATOM     27  H   UNL     1     -12.701  55.507  52.384  0.00  0.00    +0.000 HD
ENDBRANCH   3  26
BRANCH   5  28
ATOM     28  N   UNL     1     -10.299  55.506  46.871  0.00  0.00    +0.000 N 
ATOM     29  H   UNL     1     -10.053  56.264  46.294  0.00  0.00    +0.000 HD
BRANCH  28  30
ATOM     30  C   UNL     1     -10.390  54.120  46.366  0.00  0.00    +0.000 C 
BRANCH  30  31
ATOM     31  C   UNL     1     -11.445  53.940  45.248  0.00  0.00    +0.000 C 
ATOM     32  C   UNL     1     -11.842  52.502  44.946  0.00  0.00    +0.000 C 
ENDBRANCH  30  31
BRANCH  30  33
ATOM     33  C   UNL     1      -8.995  53.659  45.891  0.00  0.00    +0.000 C 
ATOM     34  C   UNL     1      -8.072  54.808  45.500  0.00  0.00    +0.000 C 
ENDBRANCH  30  33
ENDBRANCH  28  30
ENDBRANCH   5  28
TORSDOF 6
ENDMDL
MODEL 2
REMARK VINA RESULT:      -7.9      3.241      7.375
REMARK  Name = 
REMARK  8 active torsions:
REMARK  status: ('A' for Active; 'I' for Inactive)
REMARK    1  A    between atoms: C_6  and  C_10
REMARK    2  A    between atoms: C_14  and  O_18
REMARK    3  A    between atoms: N_17  and  N_20
REMARK    4  A    between atoms: N_20  and  C_23
REMARK    5  A    between atoms: C_23  and  C_26
REMARK    6  A    between atoms: C_23  and  C_27
REMARK    7  A    between atoms: C_26  and  C_29
REMARK    8  A    between atoms: C_27  and  C_30
REMARK                            x       y       z     vdW  Elec       q    Type
REMARK                         _______ _______ _______ _____ _____    ______ ____
ROOT
ATOM      1  C   UNL     1      -9.968  54.358  52.171  0.00  0.00    +0.000 A 
ATOM      2  C   UNL     1      -8.555  54.796  51.945  0.00  0.00    +0.000 A 
ATOM      3  C   UNL     1     -10.202  53.278  52.946  0.00  0.00    +0.000 A 
ATOM      4  O   UNL     1      -8.313  55.567  51.009  0.00  0.00    +0.000 OA
ATOM      5  N   UNL     1      -7.605  54.346  52.869  0.00  0.00    +0.000 N 
ATOM      6  C   UNL     1      -9.110  52.613  53.670  0.00  0.00    +0.000 A 
ATOM      7  C   UNL     1      -7.837  53.196  53.674  0.00  0.00    +0.000 A 
ATOM      8  C   UNL     1      -9.343  51.464  54.444  0.00  0.00    +0.000 A 
ATOM      9  C   UNL     1      -6.820  52.623  54.456  0.00  0.00    +0.000 A 
ATOM     10  C   UNL     1      -8.333  50.913  55.230  0.00  0.00    +0.000 A 
ATOM     11  C   UNL     1      -7.071  51.495  55.238  0.00  0.00    +0.000 A 
ENDROOT
BRANCH   1  17
ATOM     12  S   UNL     1     -12.414  55.881  49.508  0.00  0.00    +0.000 S 
ATOM     13  O   UNL     1     -13.263  54.824  48.998  0.00  0.00    +0.000 OA
ATOM     14  O   UNL     1     -11.864  56.883  48.611  0.00  0.00    +0.000 OA
ATOM     15  N   UNL     1     -11.178  55.205  50.292  0.00  0.00    +0.000 N 
ATOM     16  C   UNL     1     -13.378  56.757  50.679  0.00  0.00    +0.000 A 
ATOM     17  C   UNL     1     -11.112  55.177  51.595  0.00  0.00    +0.000 C 
ATOM     18  C   UNL     1     -13.078  56.589  52.024  0.00  0.00    +0.000 A 
ATOM     19  C   UNL     1     -14.417  57.576  50.231  0.00  0.00    +0.000 A 
ATOM     20  N   UNL     1     -12.014  55.791  52.440  0.00  0.00    +0.000 N 
ATOM     21  C   UNL     1     -13.873  57.269  52.952  0.00  0.00    +0.000 A 
ATOM     22  C   UNL     1     -15.193  58.252  51.167  0.00  0.00    +0.000 A 
ATOM     23  C   UNL     1     -14.922  58.095  52.526  0.00  0.00    +0.000 A 
ATOM     24  H   UNL     1     -10.448  54.798  49.771  0.00  0.00    +0.000 HD
ATOM     25  H   UNL     1     -11.899  55.654  53.407  0.00  0.00    +0.000 HD
ENDBRANCH   1  17
BRANCH   3  26
ATOM     26  O   UNL     1     -11.453  52.751  53.211  0.00  0.00    +0.000 OA
ATOM     27  H   UNL     1     -11.800  52.071  52.667  0.00  0.00    +0.000 HD
ENDBRANCH   3  26
BRANCH   5  28
ATOM     28  N   UNL     1      -6.304  54.923  52.913  0.00  0.00    +0.000 N 
ATOM     29  H   UNL     1      -6.120  55.787  53.349  0.00  0.00    +0.000 HD
BRANCH  28  30
ATOM     30  C   UNL     1      -5.250  54.126  52.253  0.00  0.00    +0.000 C 
BRANCH  30  31
ATOM     31  C   UNL     1      -5.133  54.397  50.734  0.00  0.00    +0.000 C 
ATOM     32  C   UNL     1      -5.754  53.340  49.830  0.00  0.00    +0.000 C 
ENDBRANCH  30  31
BRANCH  30  33
ATOM     33  C   UNL     1      -3.903  54.374  52.966  0.00  0.00    +0.000 C 
ATOM     34  C   UNL     1      -4.030  55.202  54.241  0.00  0.00    +0.000 C 
ENDBRANCH  30  33
ENDBRANCH  28  30
ENDBRANCH   5  28
TORSDOF 6
ENDMDL
MODEL 3
REMARK VINA RESULT:      -7.8      3.809      6.846
REMARK  Name = 
REMARK  8 active torsions:
REMARK  status: ('A' for Active; 'I' for Inactive)
REMARK    1  A    between atoms: C_6  and  C_10
REMARK    2  A    between atoms: C_14  and  O_18
REMARK    3  A    between atoms: N_17  and  N_20
REMARK    4  A    between atoms: N_20  and  C_23
REMARK    5  A    between atoms: C_23  and  C_26
REMARK    6  A    between atoms: C_23  and  C_27
REMARK    7  A    between atoms: C_26  and  C_29
REMARK    8  A    between atoms: C_27  and  C_30
REMARK                            x       y       z     vdW  Elec       q    Type
REMARK                         _______ _______ _______ _____ _____    ______ ____
ROOT
ATOM      1  C   UNL     1     -12.368  54.333  49.588  0.00  0.00    +0.000 A 
ATOM      2  C   UNL     1     -11.674  54.272  48.264  0.00  0.00    +0.000 A 
ATOM      3  C   UNL     1     -12.150  53.349  50.487  0.00  0.00    +0.000 A 
ATOM      4  O   UNL     1     -12.097  54.974  47.338  0.00  0.00    +0.000 OA
ATOM      5  N   UNL     1     -10.536  53.461  48.190  0.00  0.00    +0.000 N 
ATOM      6  C   UNL     1     -11.150  52.302  50.237  0.00  0.00    +0.000 A 
ATOM      7  C   UNL     1     -10.310  52.409  49.121  0.00  0.00    +0.000 A 
ATOM      8  C   UNL     1     -10.950  51.253  51.150  0.00  0.00    +0.000 A 
ATOM      9  C   UNL     1      -9.282  51.470  48.941  0.00  0.00    +0.000 A 
ATOM     10  C   UNL     1      -9.915  50.336  50.972  0.00  0.00    +0.000 A 
ATOM     11  C   UNL     1      -9.079  50.447  49.868  0.00  0.00    +0.000 A 
ENDROOT
BRANCH   1  17
ATOM     12  S   UNL     1     -15.310  56.407  51.148  0.00  0.00    +0.000 S 
ATOM     13  O   UNL     1     -15.131  56.460  52.584  0.00  0.00    +0.000 OA
ATOM     14  O   UNL     1     -16.630  56.203  50.576  0.00  0.00    +0.000 OA
ATOM     15  N   UNL     1     -14.346  55.256  50.559  0.00  0.00    +0.000 N 
ATOM     16  C   UNL     1     -14.748  57.946  50.529  0.00  0.00    +0.000 A 
ATOM     17  C   UNL     1     -13.237  55.532  49.930  0.00  0.00    +0.000 C 
ATOM     18  C   UNL     1     -13.540  57.970  49.847  0.00  0.00    +0.000 A 
ATOM     19  C   UNL     1     -15.515  59.092  50.752  0.00  0.00    +0.000 A 
ATOM     20  N   UNL     1     -12.812  56.806  49.611  0.00  0.00    +0.000 N 
ATOM     21  C   UNL     1     -13.084  59.209  49.384  0.00  0.00    +0.000 A 
ATOM     22  C   UNL     1     -15.053  60.315  50.278  0.00  0.00    +0.000 A 
ATOM     23  C   UNL     1     -13.836  60.372  49.597  0.00  0.00    +0.000 A 
ATOM     24  H   UNL     1     -14.602  54.313  50.679  0.00  0.00    +0.000 HD
ATOM     25  H   UNL     1     -11.929  56.898  49.186  0.00  0.00    +0.000 HD
ENDBRANCH   1  17
BRANCH   3  26
ATOM     26  O   UNL     1     -12.747  53.268  51.731  0.00  0.00    +0.000 OA
ATOM     27  H   UNL     1     -13.598  52.886  51.819  0.00  0.00    +0.000 HD
ENDBRANCH   3  26
BRANCH   5  28
ATOM     28  N   UNL     1      -9.651  53.551  47.079  0.00  0.00    +0.000 N 
ATOM     29  H   UNL     1      -9.545  52.824  46.423  0.00  0.00    +0.000 HD
BRANCH  28  30
ATOM     30  C   UNL     1      -8.902  54.821  46.984  0.00  0.00    +0.000 C 
BRANCH  30  31
ATOM     31  C   UNL     1      -7.931  55.053  48.166  0.00  0.00    +0.000 C 
ATOM     32  C   UNL     1      -6.706  54.148  48.196  0.00  0.00    +0.000 C 
ENDBRANCH  30  31
BRANCH  30  33
ATOM     33  C   UNL     1      -8.154  54.872  45.634  0.00  0.00    +0.000 C 
ATOM     34  C   UNL     1      -8.473  53.697  44.714  0.00  0.00    +0.000 C 
ENDBRANCH  30  33
ENDBRANCH  28  30
ENDBRANCH   5  28
TORSDOF 6
ENDMDL
MODEL 4
REMARK VINA RESULT:      -7.7      3.407      7.727
REMARK  Name = 
REMARK  8 active torsions:
REMARK  status: ('A' for Active; 'I' for Inactive)
REMARK    1  A    between atoms: C_6  and  C_10
REMARK    2  A    between atoms: C_14  and  O_18
REMARK    3  A    between atoms: N_17  and  N_20
REMARK    4  A    between atoms: N_20  and  C_23
REMARK    5  A    between atoms: C_23  and  C_26
REMARK    6  A    between atoms: C_23  and  C_27
REMARK    7  A    between atoms: C_26  and  C_29
REMARK    8  A    between atoms: C_27  and  C_30
REMARK                            x       y       z     vdW  Elec       q    Type
REMARK                         _______ _______ _______ _____ _____    ______ ____
ROOT
ATOM      1  C   UNL     1     -11.599  54.177  51.160  0.00  0.00    +0.000 A 
ATOM      2  C   UNL     1     -10.672  54.058  52.329  0.00  0.00    +0.000 A 
ATOM      3  C   UNL     1     -11.712  53.139  50.305  0.00  0.00    +0.000 A 
ATOM      4  O   UNL     1     -10.327  55.085  52.923  0.00  0.00    +0.000 OA
ATOM      5  N   UNL     1     -10.310  52.761  52.710  0.00  0.00    +0.000 N 
ATOM      6  C   UNL     1     -11.044  51.858  50.576  0.00  0.00    +0.000 A 
ATOM      7  C   UNL     1     -10.406  51.665  51.807  0.00  0.00    +0.000 A 
ATOM      8  C   UNL     1     -11.125  50.789  49.668  0.00  0.00    +0.000 A 
ATOM      9  C   UNL     1      -9.865  50.405  52.112  0.00  0.00    +0.000 A 
ATOM     10  C   UNL     1     -10.600  49.538  49.986  0.00  0.00    +0.000 A 
ATOM     11  C   UNL     1      -9.972  49.346  51.211  0.00  0.00    +0.000 A 
ENDROOT
BRANCH   1  17
ATOM     12  S   UNL     1     -13.495  57.126  49.399  0.00  0.00    +0.000 S 
ATOM     13  O   UNL     1     -14.617  56.583  48.662  0.00  0.00    +0.000 OA
ATOM     14  O   UNL     1     -12.677  58.181  48.825  0.00  0.00    +0.000 OA
ATOM     15  N   UNL     1     -12.511  55.911  49.792  0.00  0.00    +0.000 N 
ATOM     16  C   UNL     1     -14.157  57.781  50.882  0.00  0.00    +0.000 A 
ATOM     17  C   UNL     1     -12.454  55.425  51.001  0.00  0.00    +0.000 C 
ATOM     18  C   UNL     1     -13.918  57.090  52.062  0.00  0.00    +0.000 A 
ATOM     19  C   UNL     1     -14.911  58.956  50.833  0.00  0.00    +0.000 A 
ATOM     20  N   UNL     1     -13.135  55.937  52.086  0.00  0.00    +0.000 N 
ATOM     21  C   UNL     1     -14.477  57.604  53.236  0.00  0.00    +0.000 A 
ATOM     22  C   UNL     1     -15.453  59.459  52.010  0.00  0.00    +0.000 A 
ATOM     23  C   UNL     1     -15.238  58.780  53.210  0.00  0.00    +0.000 A 
ATOM     24  H   UNL     1     -11.933  55.522  49.095  0.00  0.00    +0.000 HD
ATOM     25  H   UNL     1     -13.063  55.453  52.939  0.00  0.00    +0.000 HD
ENDBRANCH   1  17
BRANCH   3  26
ATOM     26  O   UNL     1     -12.507  53.129  49.174  0.00  0.00    +0.000 OA
ATOM     27  H   UNL     1     -13.377  53.474  49.210  0.00  0.00    +0.000 HD
ENDBRANCH   3  26
BRANCH   5  28
ATOM     28  N   UNL     1      -9.672  52.523  53.960  0.00  0.00    +0.000 N 
ATOM     29  H   UNL     1     -10.169  52.465  54.808  0.00  0.00    +0.000 HD
BRANCH  28  30
ATOM     30  C   UNL     1      -8.205  52.370  53.888  0.00  0.00    +0.000 C 
BRANCH  30  31
ATOM     31  C   UNL     1      -7.439  53.709  54.017  0.00  0.00    +0.000 C 
ATOM     32  C   UNL     1      -6.140  53.648  54.808  0.00  0.00    +0.000 C 
ENDBRANCH  30  31
BRANCH  30  33
ATOM     33  C   UNL     1      -7.744  51.362  54.963  0.00  0.00    +0.000 C 
ATOM     34  C   UNL     1      -8.893  50.613  55.631  0.00  0.00    +0.000 C 
ENDBRANCH  30  33
ENDBRANCH  28  30
ENDBRANCH   5  28
TORSDOF 6
ENDMDL
MODEL 5
REMARK VINA RESULT:      -7.6      2.229      4.516
REMARK  Name = 
REMARK  8 active torsions:
REMARK  status: ('A' for Active; 'I' for Inactive)
REMARK    1  A    between atoms: C_6  and  C_10
REMARK    2  A    between atoms: C_14  and  O_18
REMARK    3  A    between atoms: N_17  and  N_20
REMARK    4  A    between atoms: N_20  and  C_23
REMARK    5  A    between atoms: C_23  and  C_26
REMARK    6  A    between atoms: C_23  and  C_27
REMARK    7  A    between atoms: C_26  and  C_29
REMARK    8  A    between atoms: C_27  and  C_30
REMARK                            x       y       z     vdW  Elec       q    Type
REMARK                         _______ _______ _______ _____ _____    ______ ____
ROOT
ATOM      1  C   UNL     1      -8.851  54.315  50.088  0.00  0.00    +0.000 A 
ATOM      2  C   UNL     1     -10.295  54.314  50.483  0.00  0.00    +0.000 A 
ATOM      3  C   UNL     1      -8.530  54.172  48.784  0.00  0.00    +0.000 A 
ATOM      4  O   UNL     1     -10.587  54.130  51.670  0.00  0.00    +0.000 OA
ATOM      5  N   UNL     1     -11.221  54.594  49.472  0.00  0.00    +0.000 N 
ATOM      6  C   UNL     1      -9.569  54.147  47.746  0.00  0.00    +0.000 A 
ATOM      7  C   UNL     1     -10.896  54.424  48.097  0.00  0.00    +0.000 A 
ATOM      8  C   UNL     1      -9.241  53.956  46.393  0.00  0.00    +0.000 A 
ATOM      9  C   UNL     1     -11.871  54.511  47.090  0.00  0.00    +0.000 A 
ATOM     10  C   UNL     1     -10.213  54.061  45.399  0.00  0.00    +0.000 A 
ATOM     11  C   UNL     1     -11.528  54.342  45.748  0.00  0.00    +0.000 A 
ENDROOT
BRANCH   1  17
ATOM     12  S   UNL     1      -7.137  55.733  53.319  0.00  0.00    +0.000 S 
ATOM     13  O   UNL     1      -7.772  55.143  54.479  0.00  0.00    +0.000 OA
ATOM     14  O   UNL     1      -6.784  57.143  53.308  0.00  0.00    +0.000 OA
ATOM     15  N   UNL     1      -8.073  55.461  52.035  0.00  0.00    +0.000 N 
ATOM     16  C   UNL     1      -5.638  54.858  53.085  0.00  0.00    +0.000 A 
ATOM     17  C   UNL     1      -7.781  54.557  51.140  0.00  0.00    +0.000 C 
ATOM     18  C   UNL     1      -5.562  53.973  52.019  0.00  0.00    +0.000 A 
ATOM     19  C   UNL     1      -4.582  55.062  53.977  0.00  0.00    +0.000 A 
ATOM     20  N   UNL     1      -6.620  53.813  51.127  0.00  0.00    +0.000 N 
ATOM     21  C   UNL     1      -4.372  53.255  51.860  0.00  0.00    +0.000 A 
ATOM     22  C   UNL     1      -3.403  54.348  53.800  0.00  0.00    +0.000 A 
ATOM     23  C   UNL     1      -3.300  53.443  52.743  0.00  0.00    +0.000 A 
ATOM     24  H   UNL     1      -8.894  55.993  51.922  0.00  0.00    +0.000 HD
ATOM     25  H   UNL     1      -6.532  53.118  50.436  0.00  0.00    +0.000 HD
ENDBRANCH   1  17
BRANCH   3  26
ATOM     26  O   UNL     1      -7.240  54.126  48.288  0.00  0.00    +0.000 OA
ATOM     27  H   UNL     1      -6.852  53.303  48.066  0.00  0.00    +0.000 HD
ENDBRANCH   3  26
BRANCH   5  28
ATOM     28  N   UNL     1     -12.575  54.894  49.791  0.00  0.00    +0.000 N 
ATOM     29  H   UNL     1     -13.307  54.248  49.664  0.00  0.00    +0.000 HD
BRANCH  28  30
ATOM     30  C   UNL     1     -12.799  56.252  50.327  0.00  0.00    +0.000 C 
BRANCH  30  31
ATOM     31  C   UNL     1     -12.972  57.328  49.228  0.00  0.00    +0.000 C 
ATOM     32  C   UNL     1     -14.170  57.138  48.307  0.00  0.00    +0.000 C 
ENDBRANCH  30  31
BRANCH  30  33
ATOM     33  C   UNL     1     -14.016  56.230  51.278  0.00  0.00    +0.000 C 
ATOM     34  C   UNL     1     -13.837  57.096  52.520  0.00  0.00    +0.000 C 
ENDBRANCH  30  33
ENDBRANCH  28  30
ENDBRANCH   5  28
TORSDOF 6
ENDMDL
MODEL 6
REMARK VINA RESULT:      -7.6      3.200      6.344
REMARK  Name = 
REMARK  8 active torsions:
REMARK  status: ('A' for Active; 'I' for Inactive)
REMARK    1  A    between atoms: C_6  and  C_10
REMARK    2  A    between atoms: C_14  and  O_18
REMARK    3  A    between atoms: N_17  and  N_20
REMARK    4  A    between atoms: N_20  and  C_23
REMARK    5  A    between atoms: C_23  and  C_26
REMARK    6  A    between atoms: C_23  and  C_27
REMARK    7  A    between atoms: C_26  and  C_29
REMARK    8  A    between atoms: C_27  and  C_30
REMARK                            x       y       z     vdW  Elec       q    Type
REMARK                         _______ _______ _______ _____ _____    ______ ____
ROOT
ATOM      1  C   UNL     1     -10.915  54.869  49.610  0.00  0.00    +0.000 A 
ATOM      2  C   UNL     1     -11.077  53.905  48.477  0.00  0.00    +0.000 A 
ATOM      3  C   UNL     1      -9.748  54.890  50.290  0.00  0.00    +0.000 A 
ATOM      4  O   UNL     1     -12.215  53.659  48.063  0.00  0.00    +0.000 OA
ATOM      5  N   UNL     1      -9.900  53.397  47.915  0.00  0.00    +0.000 N 
ATOM      6  C   UNL     1      -8.602  54.082  49.853  0.00  0.00    +0.000 A 
ATOM      7  C   UNL     1      -8.672  53.396  48.634  0.00  0.00    +0.000 A 
ATOM      8  C   UNL     1      -7.400  54.070  50.581  0.00  0.00    +0.000 A 
ATOM      9  C   UNL     1      -7.538  52.715  48.162  0.00  0.00    +0.000 A 
ATOM     10  C   UNL     1      -6.276  53.405  50.096  0.00  0.00    +0.000 A 
ATOM     11  C   UNL     1      -6.344  52.729  48.884  0.00  0.00    +0.000 A 
ENDROOT
BRANCH   1  17
ATOM     12  S   UNL     1     -13.873  57.376  49.014  0.00  0.00    +0.000 S 
ATOM     13  O   UNL     1     -15.024  56.634  48.544  0.00  0.00    +0.000 OA
ATOM     14  O   UNL     1     -13.533  58.661  48.427  0.00  0.00    +0.000 OA
ATOM     15  N   UNL     1     -12.573  56.430  48.888  0.00  0.00    +0.000 N 
ATOM     16  C   UNL     1     -14.152  57.681  50.716  0.00  0.00    +0.000 A 
ATOM     17  C   UNL     1     -12.027  55.857  49.925  0.00  0.00    +0.000 C 
ATOM     18  C   UNL     1     -13.402  56.962  51.636  0.00  0.00    +0.000 A 
ATOM     19  C   UNL     1     -15.120  58.615  51.092  0.00  0.00    +0.000 A 
ATOM     20  N   UNL     1     -12.420  56.060  51.232  0.00  0.00    +0.000 N 
ATOM     21  C   UNL     1     -13.654  57.190  52.993  0.00  0.00    +0.000 A 
ATOM     22  C   UNL     1     -15.353  58.836  52.445  0.00  0.00    +0.000 A 
ATOM     23  C   UNL     1     -14.622  58.121  53.394  0.00  0.00    +0.000 A 
ATOM     24  H   UNL     1     -12.178  56.279  47.999  0.00  0.00    +0.000 HD
ATOM     25  H   UNL     1     -11.974  55.529  51.929  0.00  0.00    +0.000 HD
ENDBRANCH   1  17
BRANCH   3  26
ATOM     26  O   UNL     1      -9.479  55.707  51.373  0.00  0.00    +0.000 OA
ATOM     27  H   UNL     1     -10.055  56.417  51.579  0.00  0.00    +0.000 HD
ENDBRANCH   3  26
BRANCH   5  28
ATOM     28  N   UNL     1      -9.929  52.706  46.671  0.00  0.00    +0.000 N 
ATOM     29  H   UNL     1      -9.905  51.724  46.607  0.00  0.00    +0.000 HD
BRANCH  28  30
ATOM     30  C   UNL     1      -9.997  53.578  45.480  0.00  0.00    +0.000 C 
BRANCH  30  31
ATOM     31  C   UNL     1      -8.659  53.671  44.708  0.00  0.00    +0.000 C 
ATOM     32  C   UNL     1      -7.736  54.807  45.130  0.00  0.00    +0.000 C 
ENDBRANCH  30  31
BRANCH  30  33
ATOM     33  C   UNL     1     -11.136  53.092  44.558  0.00  0.00    +0.000 C 
ATOM     34  C   UNL     1     -11.759  51.771  45.000  0.00  0.00    +0.000 C 
ENDBRANCH  30  33
ENDBRANCH  28  30
ENDBRANCH   5  28
TORSDOF 6
ENDMDL
MODEL 7
REMARK VINA RESULT:      -7.6      2.989      6.810
REMARK  Name = 
REMARK  8 active torsions:
REMARK  status: ('A' for Active; 'I' for Inactive)
REMARK    1  A    between atoms: C_6  and  C_10
REMARK    2  A    between atoms: C_14  and  O_18
REMARK    3  A    between atoms: N_17  and  N_20
REMARK    4  A    between atoms: N_20  and  C_23
REMARK    5  A    between atoms: C_23  and  C_26
REMARK    6  A    between atoms: C_23  and  C_27
REMARK    7  A    between atoms: C_26  and  C_29
REMARK    8  A    between atoms: C_27  and  C_30
REMARK                            x       y       z     vdW  Elec       q    Type
REMARK                         _______ _______ _______ _____ _____    ______ ____
ROOT
ATOM      1  C   UNL     1     -11.871  54.374  48.108  0.00  0.00    +0.000 A 
ATOM      2  C   UNL     1     -12.019  53.540  49.342  0.00  0.00    +0.000 A 
ATOM      3  C   UNL     1     -12.531  55.548  48.028  0.00  0.00    +0.000 A 
ATOM      4  O   UNL     1     -11.686  52.350  49.301  0.00  0.00    +0.000 OA
ATOM      5  N   UNL     1     -12.469  54.199  50.492  0.00  0.00    +0.000 N 
ATOM      6  C   UNL     1     -13.280  56.076  49.177  0.00  0.00    +0.000 A 
ATOM      7  C   UNL     1     -13.184  55.426  50.414  0.00  0.00    +0.000 A 
ATOM      8  C   UNL     1     -14.002  57.278  49.085  0.00  0.00    +0.000 A 
ATOM      9  C   UNL     1     -13.809  55.992  51.538  0.00  0.00    +0.000 A 
ATOM     10  C   UNL     1     -14.604  57.839  50.210  0.00  0.00    +0.000 A 
ATOM     11  C   UNL     1     -14.504  57.197  51.438  0.00  0.00    +0.000 A 
ENDROOT
BRANCH   1  17
ATOM     12  S   UNL     1      -8.547  53.987  46.060  0.00  0.00    +0.000 S 
ATOM     13  O   UNL     1      -7.623  53.174  46.822  0.00  0.00    +0.000 OA
ATOM     14  O   UNL     1      -8.078  55.163  45.345  0.00  0.00    +0.000 OA
ATOM     15  N   UNL     1      -9.734  54.463  47.042  0.00  0.00    +0.000 N 
ATOM     16  C   UNL     1      -9.243  52.931  44.849  0.00  0.00    +0.000 A 
ATOM     17  C   UNL     1     -10.923  53.927  47.006  0.00  0.00    +0.000 C 
ATOM     18  C   UNL     1     -10.561  52.529  45.017  0.00  0.00    +0.000 A 
ATOM     19  C   UNL     1      -8.456  52.515  43.772  0.00  0.00    +0.000 A 
ATOM     20  N   UNL     1     -11.332  52.985  46.084  0.00  0.00    +0.000 N 
ATOM     21  C   UNL     1     -11.098  51.660  44.062  0.00  0.00    +0.000 A 
ATOM     22  C   UNL     1      -9.007  51.658  42.826  0.00  0.00    +0.000 A 
ATOM     23  C   UNL     1     -10.327  51.229  42.974  0.00  0.00    +0.000 A 
ATOM     24  H   UNL     1      -9.556  55.180  47.693  0.00  0.00    +0.000 HD
ATOM     25  H   UNL     1     -12.234  52.608  46.189  0.00  0.00    +0.000 HD
ENDBRANCH   1  17
BRANCH   3  26
ATOM     26  O   UNL     1     -12.505  56.398  46.938  0.00  0.00    +0.000 OA
ATOM     27  H   UNL     1     -11.708  56.526  46.462  0.00  0.00    +0.000 HD
ENDBRANCH   3  26
BRANCH   5  28
ATOM     28  N   UNL     1     -12.376  53.576  51.769  0.00  0.00    +0.000 N 
ATOM     29  H   UNL     1     -13.163  53.237  52.253  0.00  0.00    +0.000 HD
BRANCH  28  30
ATOM     30  C   UNL     1     -11.006  53.478  52.312  0.00  0.00    +0.000 C 
BRANCH  30  31
ATOM     31  C   UNL     1     -10.413  54.843  52.737  0.00  0.00    +0.000 C 
ATOM     32  C   UNL     1      -9.340  55.408  51.815  0.00  0.00    +0.000 C 
ENDBRANCH  30  31
BRANCH  30  33
ATOM     33  C   UNL     1     -10.995  52.479  53.489  0.00  0.00    +0.000 C 
ATOM     34  C   UNL     1      -9.594  52.084  53.942  0.00  0.00    +0.000 C 
ENDBRANCH  30  33
ENDBRANCH  28  30
ENDBRANCH   5  28
TORSDOF 6
ENDMDL
MODEL 8
REMARK VINA RESULT:      -7.5      2.867      6.621
REMARK  Name = 
REMARK  8 active torsions:
REMARK  status: ('A' for Active; 'I' for Inactive)
REMARK    1  A    between atoms: C_6  and  C_10
REMARK    2  A    between atoms: C_14  and  O_18
REMARK    3  A    between atoms: N_17  and  N_20
REMARK    4  A    between atoms: N_20  and  C_23
REMARK    5  A    between atoms: C_23  and  C_26
REMARK    6  A    between atoms: C_23  and  C_27
REMARK    7  A    between atoms: C_26  and  C_29
REMARK    8  A    between atoms: C_27  and  C_30
REMARK                            x       y       z     vdW  Elec       q    Type
REMARK                         _______ _______ _______ _____ _____    ______ ____
ROOT
ATOM      1  C   UNL     1     -11.567  54.800  50.506  0.00  0.00    +0.000 A 
ATOM      2  C   UNL     1     -11.544  54.118  49.174  0.00  0.00    +0.000 A 
ATOM      3  C   UNL     1     -10.663  54.439  51.442  0.00  0.00    +0.000 A 
ATOM      4  O   UNL     1     -12.535  54.208  48.441  0.00  0.00    +0.000 OA
ATOM      5  N   UNL     1     -10.353  53.473  48.822  0.00  0.00    +0.000 N 
ATOM      6  C   UNL     1      -9.585  53.491  51.129  0.00  0.00    +0.000 A 
ATOM      7  C   UNL     1      -9.406  53.071  49.805  0.00  0.00    +0.000 A 
ATOM      8  C   UNL     1      -8.668  53.082  52.111  0.00  0.00    +0.000 A 
ATOM      9  C   UNL     1      -8.309  52.253  49.486  0.00  0.00    +0.000 A 
ATOM     10  C   UNL     1      -7.574  52.284  51.781  0.00  0.00    +0.000 A 
ATOM     11  C   UNL     1      -7.393  51.872  50.466  0.00  0.00    +0.000 A 
ENDROOT
BRANCH   1  17
ATOM     12  S   UNL     1     -14.267  56.983  52.333  0.00  0.00    +0.000 S 
ATOM     13  O   UNL     1     -13.655  57.610  53.486  0.00  0.00    +0.000 OA
ATOM     14  O   UNL     1     -15.607  56.429  52.419  0.00  0.00    +0.000 OA
ATOM     15  N   UNL     1     -13.291  55.807  51.818  0.00  0.00    +0.000 N 
ATOM     16  C   UNL     1     -14.330  58.211  51.086  0.00  0.00    +0.000 A 
ATOM     17  C   UNL     1     -12.547  55.935  50.754  0.00  0.00    +0.000 C 
ATOM     18  C   UNL     1     -13.451  58.099  50.018  0.00  0.00    +0.000 A 
ATOM     19  C   UNL     1     -15.242  59.262  51.209  0.00  0.00    +0.000 A 
ATOM     20  N   UNL     1     -12.574  57.022  49.905  0.00  0.00    +0.000 N 
ATOM     21  C   UNL     1     -13.488  59.102  49.043  0.00  0.00    +0.000 A 
ATOM     22  C   UNL     1     -15.272  60.247  50.227  0.00  0.00    +0.000 A 
ATOM     23  C   UNL     1     -14.393  60.167  49.147  0.00  0.00    +0.000 A 
ATOM     24  H   UNL     1     -13.254  54.963  52.325  0.00  0.00    +0.000 HD
ATOM     25  H   UNL     1     -11.926  57.037  49.165  0.00  0.00    +0.000 HD
ENDBRANCH   1  17
BRANCH   3  26
ATOM     26  O   UNL     1     -10.594  54.966  52.718  0.00  0.00    +0.000 OA
ATOM     27  H   UNL     1     -11.297  55.489  53.048  0.00  0.00    +0.000 HD
ENDBRANCH   3  26
BRANCH   5  28
ATOM     28  N   UNL     1     -10.127  53.043  47.484  0.00  0.00    +0.000 N 
ATOM     29  H   UNL     1     -10.091  52.093  47.229  0.00  0.00    +0.000 HD
BRANCH  28  30
ATOM     30  C   UNL     1      -9.952  54.135  46.504  0.00  0.00    +0.000 C 
BRANCH  30  31
ATOM     31  C   UNL     1      -8.792  55.097  46.856  0.00  0.00    +0.000 C 
ATOM     32  C   UNL     1      -7.391  54.549  46.621  0.00  0.00    +0.000 C 
ENDBRANCH  30  31
BRANCH  30  33
ATOM     33  C   UNL     1      -9.762  53.530  45.096  0.00  0.00    +0.000 C 
ATOM     34  C   UNL     1     -11.074  53.200  44.391  0.00  0.00    +0.000 C 
ENDBRANCH  30  33
ENDBRANCH  28  30
ENDBRANCH   5  28
TORSDOF 6
ENDMDL
MODEL 9
REMARK VINA RESULT:      -7.5      1.490      4.243
REMARK  Name = 
REMARK  8 active torsions:
REMARK  status: ('A' for Active; 'I' for Inactive)
REMARK    1  A    between atoms: C_6  and  C_10
REMARK    2  A    between atoms: C_14  and  O_18
REMARK    3  A    between atoms: N_17  and  N_20
REMARK    4  A    between atoms: N_20  and  C_23
REMARK    5  A    between atoms: C_23  and  C_26
REMARK    6  A    between atoms: C_23  and  C_27
REMARK    7  A    between atoms: C_26  and  C_29
REMARK    8  A    between atoms: C_27  and  C_30
REMARK                            x       y       z     vdW  Elec       q    Type
REMARK                         _______ _______ _______ _____ _____    ______ ____
ROOT
ATOM      1  C   UNL     1     -10.161  54.475  50.790  0.00  0.00    +0.000 A 
ATOM      2  C   UNL     1     -11.373  55.232  51.234  0.00  0.00    +0.000 A 
ATOM      3  C   UNL     1      -9.985  54.236  49.473  0.00  0.00    +0.000 A 
ATOM      4  O   UNL     1     -11.702  55.184  52.425  0.00  0.00    +0.000 OA
ATOM      5  N   UNL     1     -12.017  56.008  50.263  0.00  0.00    +0.000 N 
ATOM      6  C   UNL     1     -10.888  54.816  48.470  0.00  0.00    +0.000 A 
ATOM      7  C   UNL     1     -11.853  55.747  48.874  0.00  0.00    +0.000 A 
ATOM      8  C   UNL     1     -10.733  54.536  47.102  0.00  0.00    +0.000 A 
ATOM      9  C   UNL     1     -12.642  56.386  47.903  0.00  0.00    +0.000 A 
ATOM     10  C   UNL     1     -11.509  55.188  46.145  0.00  0.00    +0.000 A 
ATOM     11  C   UNL     1     -12.463  56.115  46.547  0.00  0.00    +0.000 A 
ENDROOT
BRANCH   1  17
ATOM     12  S   UNL     1      -6.873  54.588  52.929  0.00  0.00    +0.000 S 
ATOM     13  O   UNL     1      -6.961  55.696  53.858  0.00  0.00    +0.000 OA
ATOM     14  O   UNL     1      -5.630  54.306  52.232  0.00  0.00    +0.000 OA
ATOM     15  N   UNL     1      -8.021  54.772  51.810  0.00  0.00    +0.000 N 
ATOM     16  C   UNL     1      -7.250  53.147  53.851  0.00  0.00    +0.000 A 
ATOM     17  C   UNL     1      -9.114  54.061  51.812  0.00  0.00    +0.000 C 
ATOM     18  C   UNL     1      -8.479  52.541  53.637  0.00  0.00    +0.000 A 
ATOM     19  C   UNL     1      -6.318  52.666  54.774  0.00  0.00    +0.000 A 
ATOM     20  N   UNL     1      -9.375  53.024  52.685  0.00  0.00    +0.000 N 
ATOM     21  C   UNL     1      -8.782  51.409  54.400  0.00  0.00    +0.000 A 
ATOM     22  C   UNL     1      -6.631  51.535  55.520  0.00  0.00    +0.000 A 
ATOM     23  C   UNL     1      -7.865  50.910  55.334  0.00  0.00    +0.000 A 
ATOM     24  H   UNL     1      -7.893  55.445  51.103  0.00  0.00    +0.000 HD
ATOM     25  H   UNL     1     -10.259  52.595  52.632  0.00  0.00    +0.000 HD
ENDBRANCH   1  17
BRANCH   3  26
ATOM     26  O   UNL     1      -8.929  53.526  48.933  0.00  0.00    +0.000 OA
ATOM     27  H   UNL     1      -8.778  53.541  48.008  0.00  0.00    +0.000 HD
ENDBRANCH   3  26
BRANCH   5  28
ATOM     28  N   UNL     1     -12.993  56.974  50.636  0.00  0.00    +0.000 N 
ATOM     29  H   UNL     1     -12.846  57.943  50.539  0.00  0.00    +0.000 HD
BRANCH  28  30
ATOM     30  C   UNL     1     -14.246  56.411  51.181  0.00  0.00    +0.000 C 
BRANCH  30  31
ATOM     31  C   UNL     1     -14.723  57.111  52.476  0.00  0.00    +0.000 C 
ATOM     32  C   UNL     1     -14.441  58.605  52.557  0.00  0.00    +0.000 C 
ENDBRANCH  30  31
BRANCH  30  33
ATOM     33  C   UNL     1     -15.340  56.455  50.092  0.00  0.00    +0.000 C 
ATOM     34  C   UNL     1     -16.744  56.198  50.627  0.00  0.00    +0.000 C 
ENDBRANCH  30  33
ENDBRANCH  28  30
ENDBRANCH   5  28
TORSDOF 6
ENDMDL
