MODEL 1
REMARK VINA RESULT:      -8.4      0.000      0.000
REMARK  Name = 
REMARK  6 active torsions:
REMARK  status: ('A' for Active; 'I' for Inactive)
REMARK    1  A    between atoms: C_6  and  C_10
REMARK    2  A    between atoms: C_14  and  O_18
REMARK    3  A    between atoms: N_17  and  N_20
REMARK    4  A    between atoms: N_20  and  C_23
REMARK    5  A    between atoms: C_23  and  C_26
REMARK    6  A    between atoms: C_29  and  C_32
REMARK                            x       y       z     vdW  Elec       q    Type
REMARK                         _______ _______ _______ _____ _____    ______ ____
ROOT
ATOM      1  C   UNL     1     -11.155  54.631  50.898  0.00  0.00    +0.000 A 
ATOM      2  C   UNL     1      -9.760  55.064  50.615  0.00  0.00    +0.000 A 
ATOM      3  C   UNL     1     -11.433  53.383  51.313  0.00  0.00    +0.000 A 
ATOM      4  O   UNL     1      -9.606  56.274  50.355  0.00  0.00    +0.000 OA
ATOM      5  N   UNL     1      -8.744  54.109  50.708  0.00  0.00    +0.000 N 
ATOM      6  C   UNL     1     -10.347  52.419  51.493  0.00  0.00    +0.000 A 
ATOM      7  C   UNL     1      -9.021  52.784  51.198  0.00  0.00    +0.000 A 
ATOM      8  C   UNL     1     -10.627  51.128  51.974  0.00  0.00    +0.000 A 
ATOM      9  C   UNL     1      -8.002  51.849  51.436  0.00  0.00    +0.000 A 
ATOM     10  C   UNL     1      -9.598  50.231  52.241  0.00  0.00    +0.000 A 
ATOM     11  C   UNL     1      -8.285  50.598  51.988  0.00  0.00    +0.000 A 
ENDROOT
BRANCH   1  17
ATOM     12  S   UNL     1     -13.602  57.246  49.362  0.00  0.00    +0.000 S 
ATOM     13  O   UNL     1     -14.735  56.605  48.728  0.00  0.00    +0.000 OA
ATOM     14  O   UNL     1     -12.961  58.389  48.737  0.00  0.00    +0.000 OA
ATOM     15  N   UNL     1     -12.474  56.127  49.613  0.00  0.00    +0.000 N 
ATOM     16  C   UNL     1     -14.168  57.795  50.927  0.00  0.00    +0.000 A 
ATOM     17  C   UNL     1     -12.253  55.647  50.802  0.00  0.00    +0.000 C 
ATOM     18  C   UNL     1     -13.745  57.104  52.055  0.00  0.00    +0.000 A 
ATOM     19  C   UNL     1     -15.026  58.886  51.000  0.00  0.00    +0.000 A 
ATOM     20  N   UNL     1     -12.918  55.995  51.954  0.00  0.00    +0.000 N 
ATOM     21  C   UNL     1     -14.241  57.508  53.292  0.00  0.00    +0.000 A 
ATOM     22  C   UNL     1     -15.496  59.289  52.244  0.00  0.00    +0.000 A 
ATOM     23  C   UNL     1     -15.106  58.598  53.391  0.00  0.00    +0.000 A 
ATOM     24  H   UNL     1     -11.941  55.799  48.852  0.00  0.00    +0.000 HD
ATOM     25  H   UNL     1     -12.802  55.427  52.749  0.00  0.00    +0.000 HD
ENDBRANCH   1  17
BRANCH   3  26
ATOM     26  O   UNL     1     -12.701  52.930  51.654  0.00  0.00    +0.000 OA
ATOM     27  H   UNL     1     -12.815  52.057  51.975  0.00  0.00    +0.000 HD
ENDBRANCH   3  26
BRANCH   5  28
ATOM     28  N   UNL     1      -7.404  54.393  50.221  0.00  0.00    +0.000 N 
ATOM     29  H   UNL     1      -7.041  53.972  49.408  0.00  0.00    +0.000 HD
BRANCH  28  30
ATOM     30  C   UNL     1      -6.627  55.349  51.024  0.00  0.00    +0.000 C 
BRANCH  30  31
ATOM     31  C   UNL     1      -6.041  54.719  52.256  0.00  0.00    +0.000 A 
ATOM     32  S   UNL     1      -4.578  53.823  52.129  0.00  0.00    +0.000 S 
ATOM     33  C   UNL     1      -6.568  54.671  53.536  0.00  0.00    +0.000 A 
ATOM     34  C   UNL     1      -4.606  53.415  53.784  0.00  0.00    +0.000 A 
ATOM     35  C   UNL     1      -5.717  53.924  54.416  0.00  0.00    +0.000 A 
ATOM     36  C   UNL     1      -7.856  55.292  53.970  0.00  0.00    +0.000 C 
ENDBRANCH  30  31
ENDBRANCH  28  30
ENDBRANCH   5  28
TORSDOF 5
ENDMDL
MODEL 2
REMARK VINA RESULT:      -8.4      2.594      3.381
REMARK  Name = 
REMARK  6 active torsions:
REMARK  status: ('A' for Active; 'I' for Inactive)
REMARK    1  A    between atoms: C_6  and  C_10
REMARK    2  A    between atoms: C_14  and  O_18
REMARK    3  A    between atoms: N_17  and  N_20
REMARK    4  A    between atoms: N_20  and  C_23
REMARK    5  A    between atoms: C_23  and  C_26
REMARK    6  A    between atoms: C_29  and  C_32
REMARK                            x       y       z     vdW  Elec       q    Type
REMARK                         _______ _______ _______ _____ _____    ______ ____
ROOT
ATOM      1  C   UNL     1     -11.663  55.733  48.809  0.00  0.00    +0.000 A 
ATOM      2  C   UNL     1     -10.775  54.943  49.704  0.00  0.00    +0.000 A 
ATOM      3  C   UNL     1     -11.716  55.498  47.487  0.00  0.00    +0.000 A 
ATOM      4  O   UNL     1     -10.895  55.163  50.926  0.00  0.00    +0.000 OA
ATOM      5  N   UNL     1      -9.925  53.999  49.120  0.00  0.00    +0.000 N 
ATOM      6  C   UNL     1     -10.888  54.444  46.902  0.00  0.00    +0.000 A 
ATOM      7  C   UNL     1     -10.009  53.703  47.714  0.00  0.00    +0.000 A 
ATOM      8  C   UNL     1     -10.977  54.161  45.528  0.00  0.00    +0.000 A 
ATOM      9  C   UNL     1      -9.272  52.664  47.125  0.00  0.00    +0.000 A 
ATOM     10  C   UNL     1     -10.268  53.102  44.973  0.00  0.00    +0.000 A 
ATOM     11  C   UNL     1      -9.428  52.343  45.775  0.00  0.00    +0.000 A 
ENDROOT
BRANCH   1  17
ATOM     12  S   UNL     1     -13.483  59.121  49.438  0.00  0.00    +0.000 S 
ATOM     13  O   UNL     1     -14.607  59.294  48.542  0.00  0.00    +0.000 OA
ATOM     14  O   UNL     1     -12.606  60.238  49.741  0.00  0.00    +0.000 OA
ATOM     15  N   UNL     1     -12.572  57.924  48.868  0.00  0.00    +0.000 N 
ATOM     16  C   UNL     1     -14.158  58.597  50.968  0.00  0.00    +0.000 A 
ATOM     17  C   UNL     1     -12.578  56.748  49.425  0.00  0.00    +0.000 C 
ATOM     18  C   UNL     1     -13.988  57.269  51.338  0.00  0.00    +0.000 A 
ATOM     19  C   UNL     1     -14.849  59.508  51.758  0.00  0.00    +0.000 A 
ATOM     20  N   UNL     1     -13.327  56.371  50.514  0.00  0.00    +0.000 N 
ATOM     21  C   UNL     1     -14.574  56.843  52.527  0.00  0.00    +0.000 A 
ATOM     22  C   UNL     1     -15.410  59.072  52.952  0.00  0.00    +0.000 A 
ATOM     23  C   UNL     1     -15.275  57.738  53.336  0.00  0.00    +0.000 A 
ATOM     24  H   UNL     1     -12.000  58.084  48.082  0.00  0.00    +0.000 HD
ATOM     25  H   UNL     1     -13.398  55.411  50.722  0.00  0.00    +0.000 HD
ENDBRANCH   1  17
BRANCH   3  26
ATOM     26  O   UNL     1     -12.566  56.154  46.604  0.00  0.00    +0.000 OA
ATOM     27  H   UNL     1     -13.322  55.714  46.270  0.00  0.00    +0.000 HD
ENDBRANCH   3  26
BRANCH   5  28
ATOM     28  N   UNL     1      -8.871  53.363  49.892  0.00  0.00    +0.000 N 
ATOM     29  H   UNL     1      -8.994  52.486  50.325  0.00  0.00    +0.000 HD
BRANCH  28  30
ATOM     30  C   UNL     1      -7.610  54.114  49.983  0.00  0.00    +0.000 C 
BRANCH  30  31
ATOM     31  C   UNL     1      -7.371  54.665  51.360  0.00  0.00    +0.000 A 
ATOM     32  S   UNL     1      -7.109  53.579  52.668  0.00  0.00    +0.000 S 
ATOM     33  C   UNL     1      -7.414  55.983  51.783  0.00  0.00    +0.000 A 
ATOM     34  C   UNL     1      -6.995  54.855  53.792  0.00  0.00    +0.000 A 
ATOM     35  C   UNL     1      -7.179  56.081  53.194  0.00  0.00    +0.000 A 
ATOM     36  C   UNL     1      -7.682  57.168  50.912  0.00  0.00    +0.000 C 
ENDBRANCH  30  31
ENDBRANCH  28  30
ENDBRANCH   5  28
TORSDOF 5
ENDMDL
MODEL 3
REMARK VINA RESULT:      -8.4      1.975      2.479
REMARK  Name = 
REMARK  6 active torsions:
REMARK  status: ('A' for Active; 'I' for Inactive)
REMARK    1  A    between atoms: C_6  and  C_10
REMARK    2  A    between atoms: C_14  and  O_18
REMARK    3  A    between atoms: N_17  and  N_20
REMARK    4  A    between atoms: N_20  and  C_23
REMARK    5  A    between atoms: C_23  and  C_26
REMARK    6  A    between atoms: C_29  and  C_32
REMARK                            x       y       z     vdW  Elec       q    Type
REMARK                         _______ _______ _______ _____ _____    ______ ____
ROOT
ATOM      1  C   UNL     1     -10.091  54.464  52.261  0.00  0.00    +0.000 A 
ATOM      2  C   UNL     1      -8.733  55.063  52.153  0.00  0.00    +0.000 A 
ATOM      3  C   UNL     1     -10.310  53.345  52.973  0.00  0.00    +0.000 A 
ATOM      4  O   UNL     1      -8.666  56.164  51.571  0.00  0.00    +0.000 OA
ATOM      5  N   UNL     1      -7.665  54.381  52.743  0.00  0.00    +0.000 N 
ATOM      6  C   UNL     1      -9.197  52.692  53.661  0.00  0.00    +0.000 A 
ATOM      7  C   UNL     1      -7.893  53.211  53.548  0.00  0.00    +0.000 A 
ATOM      8  C   UNL     1      -9.429  51.550  54.447  0.00  0.00    +0.000 A 
ATOM      9  C   UNL     1      -6.862  52.587  54.268  0.00  0.00    +0.000 A 
ATOM     10  C   UNL     1      -8.401  50.972  55.183  0.00  0.00    +0.000 A 
ATOM     11  C   UNL     1      -7.121  51.501  55.107  0.00  0.00    +0.000 A 
ENDROOT
BRANCH   1  17
ATOM     12  S   UNL     1     -12.418  55.964  49.518  0.00  0.00    +0.000 S 
ATOM     13  O   UNL     1     -13.319  54.964  48.982  0.00  0.00    +0.000 OA
ATOM     14  O   UNL     1     -11.782  56.928  48.638  0.00  0.00    +0.000 OA
ATOM     15  N   UNL     1     -11.257  55.202  50.331  0.00  0.00    +0.000 N 
ATOM     16  C   UNL     1     -13.355  56.894  50.671  0.00  0.00    +0.000 A 
ATOM     17  C   UNL     1     -11.243  55.187  51.633  0.00  0.00    +0.000 C 
ATOM     18  C   UNL     1     -13.109  56.698  52.024  0.00  0.00    +0.000 A 
ATOM     19  C   UNL     1     -14.318  57.783  50.209  0.00  0.00    +0.000 A 
ATOM     20  N   UNL     1     -12.168  55.777  52.460  0.00  0.00    +0.000 N 
ATOM     21  C   UNL     1     -13.895  57.397  52.937  0.00  0.00    +0.000 A 
ATOM     22  C   UNL     1     -15.079  58.488  51.134  0.00  0.00    +0.000 A 
ATOM     23  C   UNL     1     -14.869  58.294  52.499  0.00  0.00    +0.000 A 
ATOM     24  H   UNL     1     -10.545  54.737  49.835  0.00  0.00    +0.000 HD
ATOM     25  H   UNL     1     -12.164  55.533  53.414  0.00  0.00    +0.000 HD
ENDBRANCH   1  17
BRANCH   3  26
ATOM     26  O   UNL     1     -11.558  52.767  53.167  0.00  0.00    +0.000 OA
ATOM     27  H   UNL     1     -11.800  52.003  52.682  0.00  0.00    +0.000 HD
ENDBRANCH   3  26
BRANCH   5  28
ATOM     28  N   UNL     1      -6.290  54.773  52.480  0.00  0.00    +0.000 N 
ATOM     29  H   UNL     1      -5.744  55.251  53.147  0.00  0.00    +0.000 HD
BRANCH  28  30
ATOM     30  C   UNL     1      -5.769  54.411  51.153  0.00  0.00    +0.000 C 
BRANCH  30  31
ATOM     31  C   UNL     1      -5.303  52.984  51.092  0.00  0.00    +0.000 A 
ATOM     32  S   UNL     1      -3.679  52.608  51.517  0.00  0.00    +0.000 S 
ATOM     33  C   UNL     1      -5.991  51.869  50.640  0.00  0.00    +0.000 A 
ATOM     34  C   UNL     1      -3.897  50.956  51.159  0.00  0.00    +0.000 A 
ATOM     35  C   UNL     1      -5.168  50.696  50.699  0.00  0.00    +0.000 A 
ATOM     36  C   UNL     1      -7.398  51.860  50.139  0.00  0.00    +0.000 C 
ENDBRANCH  30  31
ENDBRANCH  28  30
ENDBRANCH   5  28
TORSDOF 5
ENDMDL
MODEL 4
REMARK VINA RESULT:      -8.3      2.726      7.665
REMARK  Name = 
REMARK  6 active torsions:
REMARK  status: ('A' for Active; 'I' for Inactive)
REMARK    1  A    between atoms: C_6  and  C_10
REMARK    2  A    between atoms: C_14  and  O_18
REMARK    3  A    between atoms: N_17  and  N_20
REMARK    4  A    between atoms: N_20  and  C_23
REMARK    5  A    between atoms: C_23  and  C_26
REMARK    6  A    between atoms: C_29  and  C_32
REMARK                            x       y       z     vdW  Elec       q    Type
REMARK                         _______ _______ _______ _____ _____    ______ ____
ROOT
ATOM      1  C   UNL     1      -9.688  54.221  50.323  0.00  0.00    +0.000 A 
ATOM      2  C   UNL     1     -10.933  55.018  50.487  0.00  0.00    +0.000 A 
ATOM      3  C   UNL     1      -9.297  53.768  49.119  0.00  0.00    +0.000 A 
ATOM      4  O   UNL     1     -11.135  55.488  51.625  0.00  0.00    +0.000 OA
ATOM      5  N   UNL     1     -11.741  55.215  49.363  0.00  0.00    +0.000 N 
ATOM      6  C   UNL     1     -10.106  54.060  47.936  0.00  0.00    +0.000 A 
ATOM      7  C   UNL     1     -11.309  54.780  48.061  0.00  0.00    +0.000 A 
ATOM      8  C   UNL     1      -9.676  53.633  46.668  0.00  0.00    +0.000 A 
ATOM      9  C   UNL     1     -12.029  55.086  46.896  0.00  0.00    +0.000 A 
ATOM     10  C   UNL     1     -10.383  53.982  45.522  0.00  0.00    +0.000 A 
ATOM     11  C   UNL     1     -11.550  54.723  45.636  0.00  0.00    +0.000 A 
ENDROOT
BRANCH   1  17
ATOM     12  S   UNL     1      -6.709  54.615  52.805  0.00  0.00    +0.000 S 
ATOM     13  O   UNL     1      -6.907  55.740  53.696  0.00  0.00    +0.000 OA
ATOM     14  O   UNL     1      -5.401  54.350  52.235  0.00  0.00    +0.000 OA
ATOM     15  N   UNL     1      -7.754  54.755  51.590  0.00  0.00    +0.000 N 
ATOM     16  C   UNL     1      -7.145  53.187  53.722  0.00  0.00    +0.000 A 
ATOM     17  C   UNL     1      -8.815  54.004  51.522  0.00  0.00    +0.000 C 
ATOM     18  C   UNL     1      -8.342  52.552  53.415  0.00  0.00    +0.000 A 
ATOM     19  C   UNL     1      -6.300  52.738  54.729  0.00  0.00    +0.000 A 
ATOM     20  N   UNL     1      -9.186  53.041  52.430  0.00  0.00    +0.000 N 
ATOM     21  C   UNL     1      -8.711  51.450  54.184  0.00  0.00    +0.000 A 
ATOM     22  C   UNL     1      -6.674  51.625  55.473  0.00  0.00    +0.000 A 
ATOM     23  C   UNL     1      -7.881  50.982  55.202  0.00  0.00    +0.000 A 
ATOM     24  H   UNL     1      -7.588  55.423  50.884  0.00  0.00    +0.000 HD
ATOM     25  H   UNL     1     -10.100  52.680  52.379  0.00  0.00    +0.000 HD
ENDBRANCH   1  17
BRANCH   3  26
ATOM     26  O   UNL     1      -8.118  53.073  48.884  0.00  0.00    +0.000 OA
ATOM     27  H   UNL     1      -7.512  53.385  48.240  0.00  0.00    +0.000 HD
ENDBRANCH   3  26
BRANCH   5  28
ATOM     28  N   UNL     1     -13.077  55.773  49.491  0.00  0.00    +0.000 N 
ATOM     29  H   UNL     1     -13.874  55.205  49.603  0.00  0.00    +0.000 HD
BRANCH  28  30
ATOM     30  C   UNL     1     -13.159  57.241  49.440  0.00  0.00    +0.000 C 
BRANCH  30  31
ATOM     31  C   UNL     1     -13.895  57.813  50.618  0.00  0.00    +0.000 A 
ATOM     32  S   UNL     1     -14.374  56.771  51.900  0.00  0.00    +0.000 S 
ATOM     33  C   UNL     1     -14.350  59.108  50.806  0.00  0.00    +0.000 A 
ATOM     34  C   UNL     1     -15.136  58.044  52.739  0.00  0.00    +0.000 A 
ATOM     35  C   UNL     1     -15.055  59.232  52.048  0.00  0.00    +0.000 A 
ATOM     36  C   UNL     1     -14.159  60.244  49.854  0.00  0.00    +0.000 C 
ENDBRANCH  30  31
ENDBRANCH  28  30
ENDBRANCH   5  28
TORSDOF 5
ENDMDL
MODEL 5
REMARK VINA RESULT:      -8.2      1.685      2.271
REMARK  Name = 
REMARK  6 active torsions:
REMARK  status: ('A' for Active; 'I' for Inactive)
REMARK    1  A    between atoms: C_6  and  C_10
REMARK    2  A    between atoms: C_14  and  O_18
REMARK    3  A    between atoms: N_17  and  N_20
REMARK    4  A    between atoms: N_20  and  C_23
REMARK    5  A    between atoms: C_23  and  C_26
REMARK    6  A    between atoms: C_29  and  C_32
REMARK                            x       y       z     vdW  Elec       q    Type
REMARK                         _______ _______ _______ _____ _____    ______ ____
ROOT
ATOM      1  C   UNL     1     -11.379  53.881  51.560  0.00  0.00    +0.000 A 
ATOM      2  C   UNL     1     -10.483  54.026  52.739  0.00  0.00    +0.000 A 
ATOM      3  C   UNL     1     -11.504  52.708  50.914  0.00  0.00    +0.000 A 
ATOM      4  O   UNL     1     -10.536  55.121  53.333  0.00  0.00    +0.000 OA
ATOM      5  N   UNL     1      -9.702  52.928  53.110  0.00  0.00    +0.000 N 
ATOM      6  C   UNL     1     -10.748  51.542  51.371  0.00  0.00    +0.000 A 
ATOM      7  C   UNL     1      -9.863  51.655  52.459  0.00  0.00    +0.000 A 
ATOM      8  C   UNL     1     -10.914  50.303  50.730  0.00  0.00    +0.000 A 
ATOM      9  C   UNL     1      -9.198  50.501  52.901  0.00  0.00    +0.000 A 
ATOM     10  C   UNL     1     -10.276  49.164  51.209  0.00  0.00    +0.000 A 
ATOM     11  C   UNL     1      -9.431  49.260  52.305  0.00  0.00    +0.000 A 
ENDROOT
BRANCH   1  17
ATOM     12  S   UNL     1     -12.849  56.752  49.375  0.00  0.00    +0.000 S 
ATOM     13  O   UNL     1     -13.868  56.262  48.469  0.00  0.00    +0.000 OA
ATOM     14  O   UNL     1     -11.880  57.737  48.927  0.00  0.00    +0.000 OA
ATOM     15  N   UNL     1     -12.036  55.485  49.941  0.00  0.00    +0.000 N 
ATOM     16  C   UNL     1     -13.705  57.481  50.719  0.00  0.00    +0.000 A 
ATOM     17  C   UNL     1     -12.222  55.051  51.154  0.00  0.00    +0.000 C 
ATOM     18  C   UNL     1     -13.719  56.804  51.931  0.00  0.00    +0.000 A 
ATOM     19  C   UNL     1     -14.352  58.698  50.538  0.00  0.00    +0.000 A 
ATOM     20  N   UNL     1     -13.097  55.573  52.076  0.00  0.00    +0.000 N 
ATOM     21  C   UNL     1     -14.447  57.359  52.980  0.00  0.00    +0.000 A 
ATOM     22  C   UNL     1     -15.057  59.248  51.601  0.00  0.00    +0.000 A 
ATOM     23  C   UNL     1     -15.108  58.577  52.823  0.00  0.00    +0.000 A 
ATOM     24  H   UNL     1     -11.385  55.029  49.358  0.00  0.00    +0.000 HD
ATOM     25  H   UNL     1     -13.294  55.044  52.883  0.00  0.00    +0.000 HD
ENDBRANCH   1  17
BRANCH   3  26
ATOM     26  O   UNL     1     -12.367  52.485  49.848  0.00  0.00    +0.000 OA
ATOM     27  H   UNL     1     -13.294  52.493  49.987  0.00  0.00    +0.000 HD
ENDBRANCH   3  26
BRANCH   5  28
ATOM     28  N   UNL     1      -8.639  53.065  54.092  0.00  0.00    +0.000 N 
ATOM     29  H   UNL     1      -8.814  53.045  55.062  0.00  0.00    +0.000 HD
BRANCH  28  30
ATOM     30  C   UNL     1      -7.285  53.235  53.543  0.00  0.00    +0.000 C 
BRANCH  30  31
ATOM     31  C   UNL     1      -7.205  54.371  52.563  0.00  0.00    +0.000 A 
ATOM     32  S   UNL     1      -7.199  55.989  53.147  0.00  0.00    +0.000 S 
ATOM     33  C   UNL     1      -7.221  54.321  51.179  0.00  0.00    +0.000 A 
ATOM     34  C   UNL     1      -7.159  56.630  51.568  0.00  0.00    +0.000 A 
ATOM     35  C   UNL     1      -7.179  55.638  50.614  0.00  0.00    +0.000 A 
ATOM     36  C   UNL     1      -7.288  53.076  50.354  0.00  0.00    +0.000 C 
ENDBRANCH  30  31
ENDBRANCH  28  30
ENDBRANCH   5  28
TORSDOF 5
ENDMDL
MODEL 6
REMARK VINA RESULT:      -8.2      2.754      7.924
REMARK  Name = 
REMARK  6 active torsions:
REMARK  status: ('A' for Active; 'I' for Inactive)
REMARK    1  A    between atoms: C_6  and  C_10
REMARK    2  A    between atoms: C_14  and  O_18
REMARK    3  A    between atoms: N_17  and  N_20
REMARK    4  A    between atoms: N_20  and  C_23
REMARK    5  A    between atoms: C_23  and  C_26
REMARK    6  A    between atoms: C_29  and  C_32
REMARK                            x       y       z     vdW  Elec       q    Type
REMARK                         _______ _______ _______ _____ _____    ______ ____
ROOT
ATOM      1  C   UNL     1      -9.086  54.260  49.896  0.00  0.00    +0.000 A 
ATOM      2  C   UNL     1      -9.959  55.465  49.910  0.00  0.00    +0.000 A 
ATOM      3  C   UNL     1      -9.098  53.397  48.865  0.00  0.00    +0.000 A 
ATOM      4  O   UNL     1      -9.780  56.258  50.855  0.00  0.00    +0.000 OA
ATOM      5  N   UNL     1     -10.863  55.634  48.857  0.00  0.00    +0.000 N 
ATOM      6  C   UNL     1      -9.984  53.636  47.727  0.00  0.00    +0.000 A 
ATOM      7  C   UNL     1     -10.850  54.745  47.725  0.00  0.00    +0.000 A 
ATOM      8  C   UNL     1      -9.963  52.764  46.625  0.00  0.00    +0.000 A 
ATOM      9  C   UNL     1     -11.645  54.970  46.591  0.00  0.00    +0.000 A 
ATOM     10  C   UNL     1     -10.729  53.028  45.495  0.00  0.00    +0.000 A 
ATOM     11  C   UNL     1     -11.557  54.141  45.472  0.00  0.00    +0.000 A 
ENDROOT
BRANCH   1  17
ATOM     12  S   UNL     1      -7.689  53.973  53.522  0.00  0.00    +0.000 S 
ATOM     13  O   UNL     1      -7.918  52.655  54.077  0.00  0.00    +0.000 OA
ATOM     14  O   UNL     1      -7.871  55.157  54.342  0.00  0.00    +0.000 OA
ATOM     15  N   UNL     1      -8.617  54.132  52.218  0.00  0.00    +0.000 N 
ATOM     16  C   UNL     1      -6.018  53.994  52.994  0.00  0.00    +0.000 A 
ATOM     17  C   UNL     1      -8.114  54.069  51.020  0.00  0.00    +0.000 C 
ATOM     18  C   UNL     1      -5.762  53.946  51.630  0.00  0.00    +0.000 A 
ATOM     19  C   UNL     1      -5.002  54.044  53.941  0.00  0.00    +0.000 A 
ATOM     20  N   UNL     1      -6.792  53.858  50.706  0.00  0.00    +0.000 N 
ATOM     21  C   UNL     1      -4.432  53.905  51.217  0.00  0.00    +0.000 A 
ATOM     22  C   UNL     1      -3.681  54.024  53.511  0.00  0.00    +0.000 A 
ATOM     23  C   UNL     1      -3.395  53.952  52.149  0.00  0.00    +0.000 A 
ATOM     24  H   UNL     1      -9.585  54.280  52.329  0.00  0.00    +0.000 HD
ATOM     25  H   UNL     1      -6.564  53.633  49.775  0.00  0.00    +0.000 HD
ENDBRANCH   1  17
BRANCH   3  26
ATOM     26  O   UNL     1      -8.267  52.289  48.757  0.00  0.00    +0.000 OA
ATOM     27  H   UNL     1      -7.763  52.008  49.496  0.00  0.00    +0.000 HD
ENDBRANCH   3  26
BRANCH   5  28
ATOM     28  N   UNL     1     -11.903  56.647  48.920  0.00  0.00    +0.000 N 
ATOM     29  H   UNL     1     -11.867  57.471  48.381  0.00  0.00    +0.000 HD
BRANCH  28  30
ATOM     30  C   UNL     1     -13.013  56.362  49.843  0.00  0.00    +0.000 C 
BRANCH  30  31
ATOM     31  C   UNL     1     -13.791  57.596  50.200  0.00  0.00    +0.000 A 
ATOM     32  S   UNL     1     -13.674  58.987  49.195  0.00  0.00    +0.000 S 
ATOM     33  C   UNL     1     -14.567  57.834  51.323  0.00  0.00    +0.000 A 
ATOM     34  C   UNL     1     -14.697  59.892  50.214  0.00  0.00    +0.000 A 
ATOM     35  C   UNL     1     -15.099  59.164  51.311  0.00  0.00    +0.000 A 
ATOM     36  C   UNL     1     -14.822  56.858  52.426  0.00  0.00    +0.000 C 
ENDBRANCH  30  31
ENDBRANCH  28  30
ENDBRANCH   5  28
TORSDOF 5
ENDMDL
MODEL 7
REMARK VINA RESULT:      -8.0      4.260      6.899
REMARK  Name = 
REMARK  6 active torsions:
REMARK  status: ('A' for Active; 'I' for Inactive)
REMARK    1  A    between atoms: C_6  and  C_10
REMARK    2  A    between atoms: C_14  and  O_18
REMARK    3  A    between atoms: N_17  and  N_20
REMARK    4  A    between atoms: N_20  and  C_23
REMARK    5  A    between atoms: C_23  and  C_26
REMARK    6  A    between atoms: C_29  and  C_32
REMARK                            x       y       z     vdW  Elec       q    Type
REMARK                         _______ _______ _______ _____ _____    ______ ____
ROOT
ATOM      1  C   UNL     1     -11.148  54.580  48.381  0.00  0.00    +0.000 A 
ATOM      2  C   UNL     1     -10.785  54.202  49.773  0.00  0.00    +0.000 A 
ATOM      3  C   UNL     1     -12.121  55.472  48.127  0.00  0.00    +0.000 A 
ATOM      4  O   UNL     1      -9.790  53.460  49.896  0.00  0.00    +0.000 OA
ATOM      5  N   UNL     1     -11.544  54.736  50.819  0.00  0.00    +0.000 N 
ATOM      6  C   UNL     1     -12.846  56.092  49.236  0.00  0.00    +0.000 A 
ATOM      7  C   UNL     1     -12.553  55.729  50.563  0.00  0.00    +0.000 A 
ATOM      8  C   UNL     1     -13.829  57.062  48.977  0.00  0.00    +0.000 A 
ATOM      9  C   UNL     1     -13.233  56.387  51.601  0.00  0.00    +0.000 A 
ATOM     10  C   UNL     1     -14.461  57.730  50.020  0.00  0.00    +0.000 A 
ATOM     11  C   UNL     1     -14.150  57.404  51.332  0.00  0.00    +0.000 A 
ENDROOT
BRANCH   1  17
ATOM     12  S   UNL     1      -8.158  53.985  45.953  0.00  0.00    +0.000 S 
ATOM     13  O   UNL     1      -7.180  53.084  46.528  0.00  0.00    +0.000 OA
ATOM     14  O   UNL     1      -7.732  55.157  45.211  0.00  0.00    +0.000 OA
ATOM     15  N   UNL     1      -9.132  54.479  47.135  0.00  0.00    +0.000 N 
ATOM     16  C   UNL     1      -9.113  53.021  44.844  0.00  0.00    +0.000 A 
ATOM     17  C   UNL     1     -10.341  54.013  47.253  0.00  0.00    +0.000 C 
ATOM     18  C   UNL     1     -10.408  52.684  45.216  0.00  0.00    +0.000 A 
ATOM     19  C   UNL     1      -8.553  52.610  43.640  0.00  0.00    +0.000 A 
ATOM     20  N   UNL     1     -10.931  53.075  46.439  0.00  0.00    +0.000 N 
ATOM     21  C   UNL     1     -11.143  51.871  44.357  0.00  0.00    +0.000 A 
ATOM     22  C   UNL     1      -9.308  51.816  42.785  0.00  0.00    +0.000 A 
ATOM     23  C   UNL     1     -10.602  51.444  43.144  0.00  0.00    +0.000 A 
ATOM     24  H   UNL     1      -8.806  55.147  47.782  0.00  0.00    +0.000 HD
ATOM     25  H   UNL     1     -11.770  52.657  46.741  0.00  0.00    +0.000 HD
ENDBRANCH   1  17
BRANCH   3  26
ATOM     26  O   UNL     1     -12.470  55.917  46.858  0.00  0.00    +0.000 OA
ATOM     27  H   UNL     1     -11.857  55.845  46.152  0.00  0.00    +0.000 HD
ENDBRANCH   3  26
BRANCH   5  28
ATOM     28  N   UNL     1     -11.405  54.235  52.176  0.00  0.00    +0.000 N 
ATOM     29  H   UNL     1     -11.975  53.514  52.530  0.00  0.00    +0.000 HD
BRANCH  28  30
ATOM     30  C   UNL     1     -10.355  54.875  52.984  0.00  0.00    +0.000 C 
BRANCH  30  31
ATOM     31  C   UNL     1      -9.253  53.921  53.349  0.00  0.00    +0.000 A 
ATOM     32  S   UNL     1      -9.563  52.230  53.337  0.00  0.00    +0.000 S 
ATOM     33  C   UNL     1      -7.975  54.210  53.800  0.00  0.00    +0.000 A 
ATOM     34  C   UNL     1      -7.987  51.869  53.876  0.00  0.00    +0.000 A 
ATOM     35  C   UNL     1      -7.246  53.010  54.088  0.00  0.00    +0.000 A 
ATOM     36  C   UNL     1      -7.408  55.580  53.988  0.00  0.00    +0.000 C 
ENDBRANCH  30  31
ENDBRANCH  28  30
ENDBRANCH   5  28
TORSDOF 5
ENDMDL
MODEL 8
REMARK VINA RESULT:      -8.0      3.227      4.659
REMARK  Name = 
REMARK  6 active torsions:
REMARK  status: ('A' for Active; 'I' for Inactive)
REMARK    1  A    between atoms: C_6  and  C_10
REMARK    2  A    between atoms: C_14  and  O_18
REMARK    3  A    between atoms: N_17  and  N_20
REMARK    4  A    between atoms: N_20  and  C_23
REMARK    5  A    between atoms: C_23  and  C_26
REMARK    6  A    between atoms: C_29  and  C_32
REMARK                            x       y       z     vdW  Elec       q    Type
REMARK                         _______ _______ _______ _____ _____    ______ ____
ROOT
ATOM      1  C   UNL     1     -11.590  55.012  50.260  0.00  0.00    +0.000 A 
ATOM      2  C   UNL     1     -10.341  55.345  49.524  0.00  0.00    +0.000 A 
ATOM      3  C   UNL     1     -11.883  53.747  50.609  0.00  0.00    +0.000 A 
ATOM      4  O   UNL     1     -10.112  56.559  49.358  0.00  0.00    +0.000 OA
ATOM      5  N   UNL     1      -9.513  54.292  49.124  0.00  0.00    +0.000 N 
ATOM      6  C   UNL     1     -10.961  52.666  50.263  0.00  0.00    +0.000 A 
ATOM      7  C   UNL     1      -9.789  52.941  49.534  0.00  0.00    +0.000 A 
ATOM      8  C   UNL     1     -11.239  51.349  50.670  0.00  0.00    +0.000 A 
ATOM      9  C   UNL     1      -8.904  51.884  49.270  0.00  0.00    +0.000 A 
ATOM     10  C   UNL     1     -10.329  50.325  50.432  0.00  0.00    +0.000 A 
ATOM     11  C   UNL     1      -9.153  50.597  49.747  0.00  0.00    +0.000 A 
ENDROOT
BRANCH   1  17
ATOM     12  S   UNL     1     -14.194  57.022  52.350  0.00  0.00    +0.000 S 
ATOM     13  O   UNL     1     -13.579  57.648  53.502  0.00  0.00    +0.000 OA
ATOM     14  O   UNL     1     -15.500  56.398  52.461  0.00  0.00    +0.000 OA
ATOM     15  N   UNL     1     -13.171  55.919  51.779  0.00  0.00    +0.000 N 
ATOM     16  C   UNL     1     -14.352  58.280  51.141  0.00  0.00    +0.000 A 
ATOM     17  C   UNL     1     -12.485  56.133  50.693  0.00  0.00    +0.000 C 
ATOM     18  C   UNL     1     -13.495  58.250  50.048  0.00  0.00    +0.000 A 
ATOM     19  C   UNL     1     -15.310  59.273  51.308  0.00  0.00    +0.000 A 
ATOM     20  N   UNL     1     -12.522  57.270  49.922  0.00  0.00    +0.000 N 
ATOM     21  C   UNL     1     -13.586  59.283  49.119  0.00  0.00    +0.000 A 
ATOM     22  C   UNL     1     -15.402  60.285  50.361  0.00  0.00    +0.000 A 
ATOM     23  C   UNL     1     -14.538  60.292  49.266  0.00  0.00    +0.000 A 
ATOM     24  H   UNL     1     -13.060  55.067  52.261  0.00  0.00    +0.000 HD
ATOM     25  H   UNL     1     -11.819  57.396  49.244  0.00  0.00    +0.000 HD
ENDBRANCH   1  17
BRANCH   3  26
ATOM     26  O   UNL     1     -12.998  53.373  51.349  0.00  0.00    +0.000 OA
ATOM     27  H   UNL     1     -13.305  52.488  51.317  0.00  0.00    +0.000 HD
ENDBRANCH   3  26
BRANCH   5  28
ATOM     28  N   UNL     1      -8.410  54.516  48.205  0.00  0.00    +0.000 N 
ATOM     29  H   UNL     1      -7.481  54.275  48.430  0.00  0.00    +0.000 HD
BRANCH  28  30
ATOM     30  C   UNL     1      -8.771  55.127  46.916  0.00  0.00    +0.000 C 
BRANCH  30  31
ATOM     31  C   UNL     1      -9.649  54.234  46.086  0.00  0.00    +0.000 A 
ATOM     32  S   UNL     1      -8.940  52.944  45.197  0.00  0.00    +0.000 S 
ATOM     33  C   UNL     1     -11.009  54.344  45.843  0.00  0.00    +0.000 A 
ATOM     34  C   UNL     1     -10.441  52.490  44.530  0.00  0.00    +0.000 A 
ATOM     35  C   UNL     1     -11.458  53.316  44.950  0.00  0.00    +0.000 A 
ATOM     36  C   UNL     1     -11.912  55.392  46.409  0.00  0.00    +0.000 C 
ENDBRANCH  30  31
ENDBRANCH  28  30
ENDBRANCH   5  28
TORSDOF 5
ENDMDL
MODEL 9
REMARK VINA RESULT:      -8.0      3.346      4.464
REMARK  Name = 
REMARK  6 active torsions:
REMARK  status: ('A' for Active; 'I' for Inactive)
REMARK    1  A    between atoms: C_6  and  C_10
REMARK    2  A    between atoms: C_14  and  O_18
REMARK    3  A    between atoms: N_17  and  N_20
REMARK    4  A    between atoms: N_20  and  C_23
REMARK    5  A    between atoms: C_23  and  C_26
REMARK    6  A    between atoms: C_29  and  C_32
REMARK                            x       y       z     vdW  Elec       q    Type
REMARK                         _______ _______ _______ _____ _____    ______ ____
ROOT
ATOM      1  C   UNL     1     -11.916  54.751  48.615  0.00  0.00    +0.000 A 
ATOM      2  C   UNL     1     -11.250  53.673  49.395  0.00  0.00    +0.000 A 
ATOM      3  C   UNL     1     -11.824  54.807  47.275  0.00  0.00    +0.000 A 
ATOM      4  O   UNL     1     -11.501  53.647  50.616  0.00  0.00    +0.000 OA
ATOM      5  N   UNL     1     -10.448  52.760  48.703  0.00  0.00    +0.000 N 
ATOM      6  C   UNL     1     -11.055  53.791  46.556  0.00  0.00    +0.000 A 
ATOM      7  C   UNL     1     -10.382  52.780  47.266  0.00  0.00    +0.000 A 
ATOM      8  C   UNL     1     -10.998  53.817  45.152  0.00  0.00    +0.000 A 
ATOM      9  C   UNL     1      -9.701  51.793  46.537  0.00  0.00    +0.000 A 
ATOM     10  C   UNL     1     -10.351  52.807  44.449  0.00  0.00    +0.000 A 
ATOM     11  C   UNL     1      -9.717  51.786  45.141  0.00  0.00    +0.000 A 
ENDROOT
BRANCH   1  17
ATOM     12  S   UNL     1     -14.779  56.156  50.854  0.00  0.00    +0.000 S 
ATOM     13  O   UNL     1     -14.446  56.066  52.261  0.00  0.00    +0.000 OA
ATOM     14  O   UNL     1     -16.121  55.847  50.395  0.00  0.00    +0.000 OA
ATOM     15  N   UNL     1     -13.754  55.222  50.040  0.00  0.00    +0.000 N 
ATOM     16  C   UNL     1     -14.471  57.818  50.389  0.00  0.00    +0.000 A 
ATOM     17  C   UNL     1     -12.778  55.734  49.347  0.00  0.00    +0.000 C 
ATOM     18  C   UNL     1     -13.354  58.083  49.608  0.00  0.00    +0.000 A 
ATOM     19  C   UNL     1     -15.335  58.819  50.819  0.00  0.00    +0.000 A 
ATOM     20  N   UNL     1     -12.488  57.072  49.223  0.00  0.00    +0.000 N 
ATOM     21  C   UNL     1     -13.082  59.411  49.288  0.00  0.00    +0.000 A 
ATOM     22  C   UNL     1     -15.060  60.136  50.473  0.00  0.00    +0.000 A 
ATOM     23  C   UNL     1     -13.932  60.434  49.710  0.00  0.00    +0.000 A 
ATOM     24  H   UNL     1     -13.867  54.243  50.066  0.00  0.00    +0.000 HD
ATOM     25  H   UNL     1     -11.617  57.326  48.840  0.00  0.00    +0.000 HD
ENDBRANCH   1  17
BRANCH   3  26
ATOM     26  O   UNL     1     -12.469  55.747  46.481  0.00  0.00    +0.000 OA
ATOM     27  H   UNL     1     -12.771  55.508  45.626  0.00  0.00    +0.000 HD
ENDBRANCH   3  26
BRANCH   5  28
ATOM     28  N   UNL     1      -9.584  51.834  49.416  0.00  0.00    +0.000 N 
ATOM     29  H   UNL     1      -9.792  50.873  49.490  0.00  0.00    +0.000 HD
BRANCH  28  30
ATOM     30  C   UNL     1      -8.380  52.425  50.019  0.00  0.00    +0.000 C 
BRANCH  30  31
ATOM     31  C   UNL     1      -7.277  52.622  49.018  0.00  0.00    +0.000 A 
ATOM     32  S   UNL     1      -6.143  51.356  48.754  0.00  0.00    +0.000 S 
ATOM     33  C   UNL     1      -6.960  53.759  48.294  0.00  0.00    +0.000 A 
ATOM     34  C   UNL     1      -5.260  52.290  47.634  0.00  0.00    +0.000 A 
ATOM     35  C   UNL     1      -5.797  53.548  47.483  0.00  0.00    +0.000 A 
ATOM     36  C   UNL     1      -7.704  55.055  48.340  0.00  0.00    +0.000 C 
ENDBRANCH  30  31
ENDBRANCH  28  30
ENDBRANCH   5  28
TORSDOF 5
ENDMDL
