MODEL 1
REMARK VINA RESULT:      -8.2      0.000      0.000
REMARK  Name = 
REMARK  7 active torsions:
REMARK  status: ('A' for Active; 'I' for Inactive)
REMARK    1  A    between atoms: C_6  and  C_10
REMARK    2  A    between atoms: C_14  and  O_18
REMARK    3  A    between atoms: N_17  and  N_20
REMARK    4  A    between atoms: N_20  and  C_23
REMARK    5  A    between atoms: C_23  and  C_26
REMARK    6  A    between atoms: C_26  and  C_28
REMARK    7  A    between atoms: C_28  and  C_29
REMARK                            x       y       z     vdW  Elec       q    Type
REMARK                         _______ _______ _______ _____ _____    ______ ____
ROOT
ATOM      1  C   UNL     1     -10.171  54.466  52.297  0.00  0.00    +0.000 A 
ATOM      2  C   UNL     1      -8.782  54.999  52.171  0.00  0.00    +0.000 A 
ATOM      3  C   UNL     1     -10.410  53.354  53.011  0.00  0.00    +0.000 A 
ATOM      4  O   UNL     1      -8.628  56.003  51.467  0.00  0.00    +0.000 OA
ATOM      5  N   UNL     1      -7.758  54.349  52.866  0.00  0.00    +0.000 N 
ATOM      6  C   UNL     1      -9.317  52.666  53.713  0.00  0.00    +0.000 A 
ATOM      7  C   UNL     1      -8.006  53.169  53.632  0.00  0.00    +0.000 A 
ATOM      8  C   UNL     1      -9.569  51.515  54.480  0.00  0.00    +0.000 A 
ATOM      9  C   UNL     1      -6.973  52.498  54.310  0.00  0.00    +0.000 A 
ATOM     10  C   UNL     1      -8.540  50.868  55.159  0.00  0.00    +0.000 A 
ATOM     11  C   UNL     1      -7.242  51.356  55.071  0.00  0.00    +0.000 A 
ENDROOT
BRANCH   1  17
ATOM     12  S   UNL     1     -12.426  56.123  49.539  0.00  0.00    +0.000 S 
ATOM     13  O   UNL     1     -13.314  55.171  48.900  0.00  0.00    +0.000 OA
ATOM     14  O   UNL     1     -11.746  57.133  48.754  0.00  0.00    +0.000 OA
ATOM     15  N   UNL     1     -11.303  55.279  50.347  0.00  0.00    +0.000 N 
ATOM     16  C   UNL     1     -13.409  56.998  50.703  0.00  0.00    +0.000 A 
ATOM     17  C   UNL     1     -11.301  55.239  51.647  0.00  0.00    +0.000 C 
ATOM     18  C   UNL     1     -13.181  56.760  52.048  0.00  0.00    +0.000 A 
ATOM     19  C   UNL     1     -14.372  57.905  50.263  0.00  0.00    +0.000 A 
ATOM     20  N   UNL     1     -12.228  55.839  52.474  0.00  0.00    +0.000 N 
ATOM     21  C   UNL     1     -14.002  57.406  52.981  0.00  0.00    +0.000 A 
ATOM     22  C   UNL     1     -15.158  58.570  51.201  0.00  0.00    +0.000 A 
ATOM     23  C   UNL     1     -14.978  58.314  52.560  0.00  0.00    +0.000 A 
ATOM     24  H   UNL     1     -10.613  54.788  49.846  0.00  0.00    +0.000 HD
ATOM     25  H   UNL     1     -12.215  55.599  53.428  0.00  0.00    +0.000 HD
ENDBRANCH   1  17
BRANCH   3  26
ATOM     26  O   UNL     1     -11.662  52.786  53.172  0.00  0.00    +0.000 OA
ATOM     27  H   UNL     1     -12.364  53.293  53.529  0.00  0.00    +0.000 HD
ENDBRANCH   3  26
BRANCH   5  28
ATOM     28  N   UNL     1      -6.391  54.795  52.740  0.00  0.00    +0.000 N 
ATOM     29  H   UNL     1      -5.845  54.624  51.938  0.00  0.00    +0.000 HD
BRANCH  28  30
ATOM     30  C   UNL     1      -5.885  55.528  53.909  0.00  0.00    +0.000 C 
BRANCH  30  31
ATOM     31  C   UNL     1      -4.464  55.097  54.277  0.00  0.00    +0.000 C 
BRANCH  31  32
ATOM     32  C   UNL     1      -3.818  54.366  53.093  0.00  0.00    +0.000 C 
ATOM     33  C   UNL     1      -3.300  52.992  53.484  0.00  0.00    +0.000 C 
ENDBRANCH  31  32
ENDBRANCH  30  31
ENDBRANCH  28  30
ENDBRANCH   5  28
TORSDOF 6
ENDMDL
MODEL 2
REMARK VINA RESULT:      -8.1      1.859      2.490
REMARK  Name = 
REMARK  7 active torsions:
REMARK  status: ('A' for Active; 'I' for Inactive)
REMARK    1  A    between atoms: C_6  and  C_10
REMARK    2  A    between atoms: C_14  and  O_18
REMARK    3  A    between atoms: N_17  and  N_20
REMARK    4  A    between atoms: N_20  and  C_23
REMARK    5  A    between atoms: C_23  and  C_26
REMARK    6  A    between atoms: C_26  and  C_28
REMARK    7  A    between atoms: C_28  and  C_29
REMARK                            x       y       z     vdW  Elec       q    Type
REMARK                         _______ _______ _______ _____ _____    ______ ____
ROOT
ATOM      1  C   UNL     1     -11.387  53.949  51.581  0.00  0.00    +0.000 A 
ATOM      2  C   UNL     1     -10.433  54.125  52.715  0.00  0.00    +0.000 A 
ATOM      3  C   UNL     1     -11.513  52.755  50.978  0.00  0.00    +0.000 A 
ATOM      4  O   UNL     1     -10.339  55.259  53.197  0.00  0.00    +0.000 OA
ATOM      5  N   UNL     1      -9.730  53.006  53.169  0.00  0.00    +0.000 N 
ATOM      6  C   UNL     1     -10.745  51.593  51.450  0.00  0.00    +0.000 A 
ATOM      7  C   UNL     1      -9.863  51.732  52.537  0.00  0.00    +0.000 A 
ATOM      8  C   UNL     1     -10.892  50.338  50.835  0.00  0.00    +0.000 A 
ATOM      9  C   UNL     1      -9.137  50.611  52.974  0.00  0.00    +0.000 A 
ATOM     10  C   UNL     1     -10.178  49.231  51.288  0.00  0.00    +0.000 A 
ATOM     11  C   UNL     1      -9.298  49.369  52.354  0.00  0.00    +0.000 A 
ENDROOT
BRANCH   1  17
ATOM     12  S   UNL     1     -12.955  56.804  49.384  0.00  0.00    +0.000 S 
ATOM     13  O   UNL     1     -13.999  56.318  48.501  0.00  0.00    +0.000 OA
ATOM     14  O   UNL     1     -11.992  57.778  48.914  0.00  0.00    +0.000 OA
ATOM     15  N   UNL     1     -12.137  55.517  49.930  0.00  0.00    +0.000 N 
ATOM     16  C   UNL     1     -13.779  57.556  50.741  0.00  0.00    +0.000 A 
ATOM     17  C   UNL     1     -12.242  55.130  51.167  0.00  0.00    +0.000 C 
ATOM     18  C   UNL     1     -13.718  56.916  51.968  0.00  0.00    +0.000 A 
ATOM     19  C   UNL     1     -14.455  58.763  50.567  0.00  0.00    +0.000 A 
ATOM     20  N   UNL     1     -13.053  55.702  52.124  0.00  0.00    +0.000 N 
ATOM     21  C   UNL     1     -14.424  57.476  53.040  0.00  0.00    +0.000 A 
ATOM     22  C   UNL     1     -15.122  59.330  51.650  0.00  0.00    +0.000 A 
ATOM     23  C   UNL     1     -15.114  58.681  52.884  0.00  0.00    +0.000 A 
ATOM     24  H   UNL     1     -11.552  55.018  49.314  0.00  0.00    +0.000 HD
ATOM     25  H   UNL     1     -13.171  55.221  52.974  0.00  0.00    +0.000 HD
ENDBRANCH   1  17
BRANCH   3  26
ATOM     26  O   UNL     1     -12.363  52.505  49.915  0.00  0.00    +0.000 OA
ATOM     27  H   UNL     1     -12.803  51.680  49.850  0.00  0.00    +0.000 HD
ENDBRANCH   3  26
BRANCH   5  28
ATOM     28  N   UNL     1      -8.760  53.133  54.231  0.00  0.00    +0.000 N 
ATOM     29  H   UNL     1      -8.972  52.940  55.174  0.00  0.00    +0.000 HD
BRANCH  28  30
ATOM     30  C   UNL     1      -7.432  53.574  53.785  0.00  0.00    +0.000 C 
BRANCH  30  31
ATOM     31  C   UNL     1      -6.991  54.854  54.498  0.00  0.00    +0.000 C 
BRANCH  31  32
ATOM     32  C   UNL     1      -6.942  56.017  53.499  0.00  0.00    +0.000 C 
ATOM     33  C   UNL     1      -7.028  55.538  52.060  0.00  0.00    +0.000 C 
ENDBRANCH  31  32
ENDBRANCH  30  31
ENDBRANCH  28  30
ENDBRANCH   5  28
TORSDOF 6
ENDMDL
MODEL 3
REMARK VINA RESULT:      -8.0      2.584      8.055
REMARK  Name = 
REMARK  7 active torsions:
REMARK  status: ('A' for Active; 'I' for Inactive)
REMARK    1  A    between atoms: C_6  and  C_10
REMARK    2  A    between atoms: C_14  and  O_18
REMARK    3  A    between atoms: N_17  and  N_20
REMARK    4  A    between atoms: N_20  and  C_23
REMARK    5  A    between atoms: C_23  and  C_26
REMARK    6  A    between atoms: C_26  and  C_28
REMARK    7  A    between atoms: C_28  and  C_29
REMARK                            x       y       z     vdW  Elec       q    Type
REMARK                         _______ _______ _______ _____ _____    ______ ____
ROOT
ATOM      1  C   UNL     1     -10.237  55.171  50.457  0.00  0.00    +0.000 A 
ATOM      2  C   UNL     1     -11.307  55.313  51.487  0.00  0.00    +0.000 A 
ATOM      3  C   UNL     1     -10.484  55.480  49.173  0.00  0.00    +0.000 A 
ATOM      4  O   UNL     1     -11.024  54.974  52.642  0.00  0.00    +0.000 OA
ATOM      5  N   UNL     1     -12.543  55.833  51.091  0.00  0.00    +0.000 N 
ATOM      6  C   UNL     1     -11.798  55.999  48.768  0.00  0.00    +0.000 A 
ATOM      7  C   UNL     1     -12.811  56.168  49.729  0.00  0.00    +0.000 A 
ATOM      8  C   UNL     1     -12.051  56.344  47.429  0.00  0.00    +0.000 A 
ATOM      9  C   UNL     1     -14.062  56.666  49.323  0.00  0.00    +0.000 A 
ATOM     10  C   UNL     1     -13.290  56.850  47.042  0.00  0.00    +0.000 A 
ATOM     11  C   UNL     1     -14.295  57.007  47.987  0.00  0.00    +0.000 A 
ENDROOT
BRANCH   1  17
ATOM     12  S   UNL     1      -6.857  53.175  50.628  0.00  0.00    +0.000 S 
ATOM     13  O   UNL     1      -5.894  53.624  49.641  0.00  0.00    +0.000 OA
ATOM     14  O   UNL     1      -7.024  51.762  50.900  0.00  0.00    +0.000 OA
ATOM     15  N   UNL     1      -8.302  53.777  50.212  0.00  0.00    +0.000 N 
ATOM     16  C   UNL     1      -6.368  53.905  52.150  0.00  0.00    +0.000 A 
ATOM     17  C   UNL     1      -8.859  54.726  50.906  0.00  0.00    +0.000 C 
ATOM     18  C   UNL     1      -7.169  54.908  52.671  0.00  0.00    +0.000 A 
ATOM     19  C   UNL     1      -5.214  53.464  52.797  0.00  0.00    +0.000 A 
ATOM     20  N   UNL     1      -8.309  55.350  52.006  0.00  0.00    +0.000 N 
ATOM     21  C   UNL     1      -6.753  55.538  53.851  0.00  0.00    +0.000 A 
ATOM     22  C   UNL     1      -4.831  54.073  53.990  0.00  0.00    +0.000 A 
ATOM     23  C   UNL     1      -5.596  55.116  54.512  0.00  0.00    +0.000 A 
ATOM     24  H   UNL     1      -8.766  53.419  49.421  0.00  0.00    +0.000 HD
ATOM     25  H   UNL     1      -8.751  56.162  52.342  0.00  0.00    +0.000 HD
ENDBRANCH   1  17
BRANCH   3  26
ATOM     26  O   UNL     1      -9.555  55.369  48.153  0.00  0.00    +0.000 OA
ATOM     27  H   UNL     1      -8.880  56.012  48.062  0.00  0.00    +0.000 HD
ENDBRANCH   3  26
BRANCH   5  28
ATOM     28  N   UNL     1     -13.627  55.945  52.038  0.00  0.00    +0.000 N 
ATOM     29  H   UNL     1     -14.294  55.233  52.174  0.00  0.00    +0.000 HD
BRANCH  28  30
ATOM     30  C   UNL     1     -13.648  57.212  52.783  0.00  0.00    +0.000 C 
BRANCH  30  31
ATOM     31  C   UNL     1     -15.074  57.728  52.982  0.00  0.00    +0.000 C 
BRANCH  31  32
ATOM     32  C   UNL     1     -15.153  59.208  52.585  0.00  0.00    +0.000 C 
ATOM     33  C   UNL     1     -14.689  59.441  51.157  0.00  0.00    +0.000 C 
ENDBRANCH  31  32
ENDBRANCH  30  31
ENDBRANCH  28  30
ENDBRANCH   5  28
TORSDOF 6
ENDMDL
MODEL 4
REMARK VINA RESULT:      -8.0      2.661      7.987
REMARK  Name = 
REMARK  7 active torsions:
REMARK  status: ('A' for Active; 'I' for Inactive)
REMARK    1  A    between atoms: C_6  and  C_10
REMARK    2  A    between atoms: C_14  and  O_18
REMARK    3  A    between atoms: N_17  and  N_20
REMARK    4  A    between atoms: N_20  and  C_23
REMARK    5  A    between atoms: C_23  and  C_26
REMARK    6  A    between atoms: C_26  and  C_28
REMARK    7  A    between atoms: C_28  and  C_29
REMARK                            x       y       z     vdW  Elec       q    Type
REMARK                         _______ _______ _______ _____ _____    ______ ____
ROOT
ATOM      1  C   UNL     1     -10.203  54.809  50.944  0.00  0.00    +0.000 A 
ATOM      2  C   UNL     1     -11.394  55.602  51.368  0.00  0.00    +0.000 A 
ATOM      3  C   UNL     1      -9.971  54.576  49.641  0.00  0.00    +0.000 A 
ATOM      4  O   UNL     1     -11.569  55.746  52.583  0.00  0.00    +0.000 OA
ATOM      5  N   UNL     1     -12.216  56.146  50.377  0.00  0.00    +0.000 N 
ATOM      6  C   UNL     1     -10.861  55.131  48.611  0.00  0.00    +0.000 A 
ATOM      7  C   UNL     1     -11.971  55.907  48.990  0.00  0.00    +0.000 A 
ATOM      8  C   UNL     1     -10.606  54.908  47.247  0.00  0.00    +0.000 A 
ATOM      9  C   UNL     1     -12.811  56.430  47.991  0.00  0.00    +0.000 A 
ATOM     10  C   UNL     1     -11.438  55.444  46.267  0.00  0.00    +0.000 A 
ATOM     11  C   UNL     1     -12.541  56.201  46.639  0.00  0.00    +0.000 A 
ENDROOT
BRANCH   1  17
ATOM     12  S   UNL     1      -6.963  54.467  53.139  0.00  0.00    +0.000 S 
ATOM     13  O   UNL     1      -6.874  55.489  54.165  0.00  0.00    +0.000 OA
ATOM     14  O   UNL     1      -5.786  54.075  52.391  0.00  0.00    +0.000 OA
ATOM     15  N   UNL     1      -8.096  54.934  52.079  0.00  0.00    +0.000 N 
ATOM     16  C   UNL     1      -7.525  53.013  53.950  0.00  0.00    +0.000 A 
ATOM     17  C   UNL     1      -9.243  54.324  52.011  0.00  0.00    +0.000 C 
ATOM     18  C   UNL     1      -8.812  52.580  53.679  0.00  0.00    +0.000 A 
ATOM     19  C   UNL     1      -6.680  52.330  54.824  0.00  0.00    +0.000 A 
ATOM     20  N   UNL     1      -9.650  53.281  52.816  0.00  0.00    +0.000 N 
ATOM     21  C   UNL     1      -9.289  51.457  54.368  0.00  0.00    +0.000 A 
ATOM     22  C   UNL     1      -7.153  51.193  55.476  0.00  0.00    +0.000 A 
ATOM     23  C   UNL     1      -8.461  50.763  55.254  0.00  0.00    +0.000 A 
ATOM     24  H   UNL     1      -7.914  55.692  51.478  0.00  0.00    +0.000 HD
ATOM     25  H   UNL     1     -10.597  53.015  52.779  0.00  0.00    +0.000 HD
ENDBRANCH   1  17
BRANCH   3  26
ATOM     26  O   UNL     1      -8.900  53.843  49.161  0.00  0.00    +0.000 OA
ATOM     27  H   UNL     1      -8.024  54.101  49.370  0.00  0.00    +0.000 HD
ENDBRANCH   3  26
BRANCH   5  28
ATOM     28  N   UNL     1     -13.405  56.881  50.734  0.00  0.00    +0.000 N 
ATOM     29  H   UNL     1     -13.464  57.863  50.679  0.00  0.00    +0.000 HD
BRANCH  28  30
ATOM     30  C   UNL     1     -14.521  56.039  51.186  0.00  0.00    +0.000 C 
BRANCH  30  31
ATOM     31  C   UNL     1     -15.498  56.818  52.070  0.00  0.00    +0.000 C 
BRANCH  31  32
ATOM     32  C   UNL     1     -14.722  57.739  53.019  0.00  0.00    +0.000 C 
ATOM     33  C   UNL     1     -15.165  59.187  52.898  0.00  0.00    +0.000 C 
ENDBRANCH  31  32
ENDBRANCH  30  31
ENDBRANCH  28  30
ENDBRANCH   5  28
TORSDOF 6
ENDMDL
MODEL 5
REMARK VINA RESULT:      -7.8      4.092      5.510
REMARK  Name = 
REMARK  7 active torsions:
REMARK  status: ('A' for Active; 'I' for Inactive)
REMARK    1  A    between atoms: C_6  and  C_10
REMARK    2  A    between atoms: C_14  and  O_18
REMARK    3  A    between atoms: N_17  and  N_20
REMARK    4  A    between atoms: N_20  and  C_23
REMARK    5  A    between atoms: C_23  and  C_26
REMARK    6  A    between atoms: C_26  and  C_28
REMARK    7  A    between atoms: C_28  and  C_29
REMARK                            x       y       z     vdW  Elec       q    Type
REMARK                         _______ _______ _______ _____ _____    ______ ____
ROOT
ATOM      1  C   UNL     1     -10.686  55.602  48.125  0.00  0.00    +0.000 A 
ATOM      2  C   UNL     1      -9.219  55.697  48.378  0.00  0.00    +0.000 A 
ATOM      3  C   UNL     1     -11.149  54.959  47.039  0.00  0.00    +0.000 A 
ATOM      4  O   UNL     1      -8.861  56.336  49.373  0.00  0.00    +0.000 OA
ATOM      5  N   UNL     1      -8.351  55.047  47.495  0.00  0.00    +0.000 N 
ATOM      6  C   UNL     1     -10.221  54.304  46.105  0.00  0.00    +0.000 A 
ATOM      7  C   UNL     1      -8.836  54.357  46.342  0.00  0.00    +0.000 A 
ATOM      8  C   UNL     1     -10.705  53.612  44.982  0.00  0.00    +0.000 A 
ATOM      9  C   UNL     1      -7.964  53.725  45.438  0.00  0.00    +0.000 A 
ATOM     10  C   UNL     1      -9.831  52.977  44.102  0.00  0.00    +0.000 A 
ATOM     11  C   UNL     1      -8.462  53.037  44.328  0.00  0.00    +0.000 A 
ENDROOT
BRANCH   1  17
ATOM     12  S   UNL     1     -13.015  55.939  51.272  0.00  0.00    +0.000 S 
ATOM     13  O   UNL     1     -12.269  56.179  52.493  0.00  0.00    +0.000 OA
ATOM     14  O   UNL     1     -14.142  55.031  51.267  0.00  0.00    +0.000 OA
ATOM     15  N   UNL     1     -11.963  55.436  50.147  0.00  0.00    +0.000 N 
ATOM     16  C   UNL     1     -13.651  57.501  50.778  0.00  0.00    +0.000 A 
ATOM     17  C   UNL     1     -11.634  56.198  49.146  0.00  0.00    +0.000 C 
ATOM     18  C   UNL     1     -13.110  58.090  49.648  0.00  0.00    +0.000 A 
ATOM     19  C   UNL     1     -14.676  58.100  51.509  0.00  0.00    +0.000 A 
ATOM     20  N   UNL     1     -12.076  57.488  48.936  0.00  0.00    +0.000 N 
ATOM     21  C   UNL     1     -13.568  59.362  49.283  0.00  0.00    +0.000 A 
ATOM     22  C   UNL     1     -15.150  59.350  51.115  0.00  0.00    +0.000 A 
ATOM     23  C   UNL     1     -14.589  59.984  50.007  0.00  0.00    +0.000 A 
ATOM     24  H   UNL     1     -11.565  54.538  50.223  0.00  0.00    +0.000 HD
ATOM     25  H   UNL     1     -11.630  58.018  48.237  0.00  0.00    +0.000 HD
ENDBRANCH   1  17
BRANCH   3  26
ATOM     26  O   UNL     1     -12.490  54.832  46.723  0.00  0.00    +0.000 OA
ATOM     27  H   UNL     1     -13.135  54.834  47.403  0.00  0.00    +0.000 HD
ENDBRANCH   3  26
BRANCH   5  28
ATOM     28  N   UNL     1      -6.921  55.148  47.668  0.00  0.00    +0.000 N 
ATOM     29  H   UNL     1      -6.358  55.745  47.124  0.00  0.00    +0.000 HD
BRANCH  28  30
ATOM     30  C   UNL     1      -6.379  54.283  48.725  0.00  0.00    +0.000 C 
BRANCH  30  31
ATOM     31  C   UNL     1      -5.496  55.064  49.699  0.00  0.00    +0.000 C 
BRANCH  31  32
ATOM     32  C   UNL     1      -5.436  54.338  51.048  0.00  0.00    +0.000 C 
ATOM     33  C   UNL     1      -4.140  53.566  51.225  0.00  0.00    +0.000 C 
ENDBRANCH  31  32
ENDBRANCH  30  31
ENDBRANCH  28  30
ENDBRANCH   5  28
TORSDOF 6
ENDMDL
MODEL 6
REMARK VINA RESULT:      -7.8      2.766      8.296
REMARK  Name = 
REMARK  7 active torsions:
REMARK  status: ('A' for Active; 'I' for Inactive)
REMARK    1  A    between atoms: C_6  and  C_10
REMARK    2  A    between atoms: C_14  and  O_18
REMARK    3  A    between atoms: N_17  and  N_20
REMARK    4  A    between atoms: N_20  and  C_23
REMARK    5  A    between atoms: C_23  and  C_26
REMARK    6  A    between atoms: C_26  and  C_28
REMARK    7  A    between atoms: C_28  and  C_29
REMARK                            x       y       z     vdW  Elec       q    Type
REMARK                         _______ _______ _______ _____ _____    ______ ____
ROOT
ATOM      1  C   UNL     1      -9.706  55.155  50.909  0.00  0.00    +0.000 A 
ATOM      2  C   UNL     1     -10.923  55.315  51.758  0.00  0.00    +0.000 A 
ATOM      3  C   UNL     1      -9.783  55.303  49.576  0.00  0.00    +0.000 A 
ATOM      4  O   UNL     1     -10.790  55.126  52.972  0.00  0.00    +0.000 OA
ATOM      5  N   UNL     1     -12.120  55.685  51.137  0.00  0.00    +0.000 N 
ATOM      6  C   UNL     1     -11.056  55.665  48.935  0.00  0.00    +0.000 A 
ATOM      7  C   UNL     1     -12.208  55.850  49.721  0.00  0.00    +0.000 A 
ATOM      8  C   UNL     1     -11.133  55.844  47.543  0.00  0.00    +0.000 A 
ATOM      9  C   UNL     1     -13.416  56.196  49.091  0.00  0.00    +0.000 A 
ATOM     10  C   UNL     1     -12.333  56.201  46.933  0.00  0.00    +0.000 A 
ATOM     11  C   UNL     1     -13.475  56.373  47.706  0.00  0.00    +0.000 A 
ENDROOT
BRANCH   1  17
ATOM     12  S   UNL     1      -6.771  55.317  53.515  0.00  0.00    +0.000 S 
ATOM     13  O   UNL     1      -7.033  54.521  54.699  0.00  0.00    +0.000 OA
ATOM     14  O   UNL     1      -6.161  56.625  53.631  0.00  0.00    +0.000 OA
ATOM     15  N   UNL     1      -8.172  55.488  52.720  0.00  0.00    +0.000 N 
ATOM     16  C   UNL     1      -5.680  54.362  52.521  0.00  0.00    +0.000 A 
ATOM     17  C   UNL     1      -8.382  54.876  51.592  0.00  0.00    +0.000 C 
ATOM     18  C   UNL     1      -6.181  53.828  51.346  0.00  0.00    +0.000 A 
ATOM     19  C   UNL     1      -4.357  54.175  52.918  0.00  0.00    +0.000 A 
ATOM     20  N   UNL     1      -7.509  54.009  50.969  0.00  0.00    +0.000 N 
ATOM     21  C   UNL     1      -5.336  53.014  50.579  0.00  0.00    +0.000 A 
ATOM     22  C   UNL     1      -3.516  53.394  52.129  0.00  0.00    +0.000 A 
ATOM     23  C   UNL     1      -4.008  52.807  50.964  0.00  0.00    +0.000 A 
ATOM     24  H   UNL     1      -8.876  56.063  53.098  0.00  0.00    +0.000 HD
ATOM     25  H   UNL     1      -7.846  53.484  50.209  0.00  0.00    +0.000 HD
ENDBRANCH   1  17
BRANCH   3  26
ATOM     26  O   UNL     1      -8.710  55.163  48.714  0.00  0.00    +0.000 OA
ATOM     27  H   UNL     1      -8.226  55.917  48.440  0.00  0.00    +0.000 HD
ENDBRANCH   3  26
BRANCH   5  28
ATOM     28  N   UNL     1     -13.336  55.806  51.906  0.00  0.00    +0.000 N 
ATOM     29  H   UNL     1     -14.006  55.087  51.963  0.00  0.00    +0.000 HD
BRANCH  28  30
ATOM     30  C   UNL     1     -13.486  57.094  52.598  0.00  0.00    +0.000 C 
BRANCH  30  31
ATOM     31  C   UNL     1     -14.957  57.457  52.807  0.00  0.00    +0.000 C 
BRANCH  31  32
ATOM     32  C   UNL     1     -15.172  58.949  52.527  0.00  0.00    +0.000 C 
ATOM     33  C   UNL     1     -14.712  59.341  51.133  0.00  0.00    +0.000 C 
ENDBRANCH  31  32
ENDBRANCH  30  31
ENDBRANCH  28  30
ENDBRANCH   5  28
TORSDOF 6
ENDMDL
MODEL 7
REMARK VINA RESULT:      -7.6      3.419      7.783
REMARK  Name = 
REMARK  7 active torsions:
REMARK  status: ('A' for Active; 'I' for Inactive)
REMARK    1  A    between atoms: C_6  and  C_10
REMARK    2  A    between atoms: C_14  and  O_18
REMARK    3  A    between atoms: N_17  and  N_20
REMARK    4  A    between atoms: N_20  and  C_23
REMARK    5  A    between atoms: C_23  and  C_26
REMARK    6  A    between atoms: C_26  and  C_28
REMARK    7  A    between atoms: C_28  and  C_29
REMARK                            x       y       z     vdW  Elec       q    Type
REMARK                         _______ _______ _______ _____ _____    ______ ____
ROOT
ATOM      1  C   UNL     1     -10.201  55.203  50.772  0.00  0.00    +0.000 A 
ATOM      2  C   UNL     1      -9.776  55.111  49.345  0.00  0.00    +0.000 A 
ATOM      3  C   UNL     1     -11.408  55.699  51.091  0.00  0.00    +0.000 A 
ATOM      4  O   UNL     1      -8.638  54.682  49.125  0.00  0.00    +0.000 OA
ATOM      5  N   UNL     1     -10.687  55.492  48.356  0.00  0.00    +0.000 N 
ATOM      6  C   UNL     1     -12.345  56.122  50.040  0.00  0.00    +0.000 A 
ATOM      7  C   UNL     1     -11.974  56.015  48.688  0.00  0.00    +0.000 A 
ATOM      8  C   UNL     1     -13.617  56.620  50.371  0.00  0.00    +0.000 A 
ATOM      9  C   UNL     1     -12.883  56.425  47.696  0.00  0.00    +0.000 A 
ATOM     10  C   UNL     1     -14.514  57.008  49.379  0.00  0.00    +0.000 A 
ATOM     11  C   UNL     1     -14.146  56.914  48.043  0.00  0.00    +0.000 A 
ENDROOT
BRANCH   1  17
ATOM     12  S   UNL     1      -7.014  54.780  53.030  0.00  0.00    +0.000 S 
ATOM     13  O   UNL     1      -6.959  55.754  54.104  0.00  0.00    +0.000 OA
ATOM     14  O   UNL     1      -5.816  54.431  52.294  0.00  0.00    +0.000 OA
ATOM     15  N   UNL     1      -8.124  55.288  51.965  0.00  0.00    +0.000 N 
ATOM     16  C   UNL     1      -7.585  53.287  53.759  0.00  0.00    +0.000 A 
ATOM     17  C   UNL     1      -9.264  54.675  51.840  0.00  0.00    +0.000 C 
ATOM     18  C   UNL     1      -8.861  52.858  53.435  0.00  0.00    +0.000 A 
ATOM     19  C   UNL     1      -6.757  52.569  54.621  0.00  0.00    +0.000 A 
ATOM     20  N   UNL     1      -9.683  53.593  52.585  0.00  0.00    +0.000 N 
ATOM     21  C   UNL     1      -9.347  51.702  54.059  0.00  0.00    +0.000 A 
ATOM     22  C   UNL     1      -7.237  51.400  55.207  0.00  0.00    +0.000 A 
ATOM     23  C   UNL     1      -8.536  50.972  54.933  0.00  0.00    +0.000 A 
ATOM     24  H   UNL     1      -7.932  56.075  51.404  0.00  0.00    +0.000 HD
ATOM     25  H   UNL     1     -10.626  53.323  52.512  0.00  0.00    +0.000 HD
ENDBRANCH   1  17
BRANCH   3  26
ATOM     26  O   UNL     1     -11.879  55.830  52.386  0.00  0.00    +0.000 OA
ATOM     27  H   UNL     1     -12.754  56.127  52.539  0.00  0.00    +0.000 HD
ENDBRANCH   3  26
BRANCH   5  28
ATOM     28  N   UNL     1     -10.308  55.468  46.963  0.00  0.00    +0.000 N 
ATOM     29  H   UNL     1     -10.065  56.279  46.461  0.00  0.00    +0.000 HD
BRANCH  28  30
ATOM     30  C   UNL     1     -10.316  54.128  46.360  0.00  0.00    +0.000 C 
BRANCH  30  31
ATOM     31  C   UNL     1     -11.440  53.975  45.333  0.00  0.00    +0.000 C 
BRANCH  31  32
ATOM     32  C   UNL     1     -10.998  53.025  44.213  0.00  0.00    +0.000 C 
ATOM     33  C   UNL     1     -11.332  51.577  44.528  0.00  0.00    +0.000 C 
ENDBRANCH  31  32
ENDBRANCH  30  31
ENDBRANCH  28  30
ENDBRANCH   5  28
TORSDOF 6
ENDMDL
MODEL 8
REMARK VINA RESULT:      -7.6      3.400      5.113
REMARK  Name = 
REMARK  7 active torsions:
REMARK  status: ('A' for Active; 'I' for Inactive)
REMARK    1  A    between atoms: C_6  and  C_10
REMARK    2  A    between atoms: C_14  and  O_18
REMARK    3  A    between atoms: N_17  and  N_20
REMARK    4  A    between atoms: N_20  and  C_23
REMARK    5  A    between atoms: C_23  and  C_26
REMARK    6  A    between atoms: C_26  and  C_28
REMARK    7  A    between atoms: C_28  and  C_29
REMARK                            x       y       z     vdW  Elec       q    Type
REMARK                         _______ _______ _______ _____ _____    ______ ____
ROOT
ATOM      1  C   UNL     1     -11.616  55.858  48.839  0.00  0.00    +0.000 A 
ATOM      2  C   UNL     1     -10.638  55.165  49.728  0.00  0.00    +0.000 A 
ATOM      3  C   UNL     1     -11.683  55.552  47.532  0.00  0.00    +0.000 A 
ATOM      4  O   UNL     1     -10.602  55.522  50.910  0.00  0.00    +0.000 OA
ATOM      5  N   UNL     1      -9.846  54.151  49.179  0.00  0.00    +0.000 N 
ATOM      6  C   UNL     1     -10.824  54.502  46.965  0.00  0.00    +0.000 A 
ATOM      7  C   UNL     1      -9.917  53.817  47.792  0.00  0.00    +0.000 A 
ATOM      8  C   UNL     1     -10.909  54.165  45.603  0.00  0.00    +0.000 A 
ATOM      9  C   UNL     1      -9.103  52.817  47.231  0.00  0.00    +0.000 A 
ATOM     10  C   UNL     1     -10.108  53.162  45.063  0.00  0.00    +0.000 A 
ATOM     11  C   UNL     1      -9.203  52.491  45.875  0.00  0.00    +0.000 A 
ENDROOT
BRANCH   1  17
ATOM     12  S   UNL     1     -13.569  59.208  49.468  0.00  0.00    +0.000 S 
ATOM     13  O   UNL     1     -14.705  59.366  48.580  0.00  0.00    +0.000 OA
ATOM     14  O   UNL     1     -12.715  60.337  49.773  0.00  0.00    +0.000 OA
ATOM     15  N   UNL     1     -12.639  58.025  48.868  0.00  0.00    +0.000 N 
ATOM     16  C   UNL     1     -14.228  58.672  51.006  0.00  0.00    +0.000 A 
ATOM     17  C   UNL     1     -12.561  56.868  49.457  0.00  0.00    +0.000 C 
ATOM     18  C   UNL     1     -13.978  57.366  51.395  0.00  0.00    +0.000 A 
ATOM     19  C   UNL     1     -14.964  59.554  51.796  0.00  0.00    +0.000 A 
ATOM     20  N   UNL     1     -13.255  56.491  50.588  0.00  0.00    +0.000 N 
ATOM     21  C   UNL     1     -14.551  56.913  52.589  0.00  0.00    +0.000 A 
ATOM     22  C   UNL     1     -15.498  59.102  53.001  0.00  0.00    +0.000 A 
ATOM     23  C   UNL     1     -15.299  57.778  53.392  0.00  0.00    +0.000 A 
ATOM     24  H   UNL     1     -12.125  58.185  48.043  0.00  0.00    +0.000 HD
ATOM     25  H   UNL     1     -13.239  55.541  50.841  0.00  0.00    +0.000 HD
ENDBRANCH   1  17
BRANCH   3  26
ATOM     26  O   UNL     1     -12.551  56.151  46.637  0.00  0.00    +0.000 OA
ATOM     27  H   UNL     1     -12.584  57.085  46.568  0.00  0.00    +0.000 HD
ENDBRANCH   3  26
BRANCH   5  28
ATOM     28  N   UNL     1      -8.852  53.483  49.983  0.00  0.00    +0.000 N 
ATOM     29  H   UNL     1      -8.999  52.598  50.389  0.00  0.00    +0.000 HD
BRANCH  28  30
ATOM     30  C   UNL     1      -7.601  54.237  50.144  0.00  0.00    +0.000 C 
BRANCH  30  31
ATOM     31  C   UNL     1      -7.213  54.384  51.617  0.00  0.00    +0.000 C 
BRANCH  31  32
ATOM     32  C   UNL     1      -7.369  55.846  52.054  0.00  0.00    +0.000 C 
ATOM     33  C   UNL     1      -7.459  56.790  50.867  0.00  0.00    +0.000 C 
ENDBRANCH  31  32
ENDBRANCH  30  31
ENDBRANCH  28  30
ENDBRANCH   5  28
TORSDOF 6
ENDMDL
MODEL 9
REMARK VINA RESULT:      -7.5      4.169      5.584
REMARK  Name = 
REMARK  7 active torsions:
REMARK  status: ('A' for Active; 'I' for Inactive)
REMARK    1  A    between atoms: C_6  and  C_10
REMARK    2  A    between atoms: C_14  and  O_18
REMARK    3  A    between atoms: N_17  and  N_20
REMARK    4  A    between atoms: N_20  and  C_23
REMARK    5  A    between atoms: C_23  and  C_26
REMARK    6  A    between atoms: C_26  and  C_28
REMARK    7  A    between atoms: C_28  and  C_29
REMARK                            x       y       z     vdW  Elec       q    Type
REMARK                         _______ _______ _______ _____ _____    ______ ____
ROOT
ATOM      1  C   UNL     1     -12.327  54.116  49.920  0.00  0.00    +0.000 A 
ATOM      2  C   UNL     1     -11.915  53.899  48.503  0.00  0.00    +0.000 A 
ATOM      3  C   UNL     1     -11.946  53.254  50.879  0.00  0.00    +0.000 A 
ATOM      4  O   UNL     1     -12.333  54.707  47.666  0.00  0.00    +0.000 OA
ATOM      5  N   UNL     1     -11.073  52.820  48.215  0.00  0.00    +0.000 N 
ATOM      6  C   UNL     1     -11.084  52.109  50.555  0.00  0.00    +0.000 A 
ATOM      7  C   UNL     1     -10.659  51.904  49.230  0.00  0.00    +0.000 A 
ATOM      8  C   UNL     1     -10.665  51.220  51.560  0.00  0.00    +0.000 A 
ATOM      9  C   UNL     1      -9.835  50.803  48.939  0.00  0.00    +0.000 A 
ATOM     10  C   UNL     1      -9.836  50.141  51.262  0.00  0.00    +0.000 A 
ATOM     11  C   UNL     1      -9.425  49.930  49.952  0.00  0.00    +0.000 A 
ENDROOT
BRANCH   1  17
ATOM     12  S   UNL     1     -15.269  56.396  51.180  0.00  0.00    +0.000 S 
ATOM     13  O   UNL     1     -15.269  56.559  52.622  0.00  0.00    +0.000 OA
ATOM     14  O   UNL     1     -16.512  56.198  50.465  0.00  0.00    +0.000 OA
ATOM     15  N   UNL     1     -14.287  55.156  50.828  0.00  0.00    +0.000 N 
ATOM     16  C   UNL     1     -14.563  57.867  50.527  0.00  0.00    +0.000 A 
ATOM     17  C   UNL     1     -13.136  55.353  50.255  0.00  0.00    +0.000 C 
ATOM     18  C   UNL     1     -13.304  57.780  49.957  0.00  0.00    +0.000 A 
ATOM     19  C   UNL     1     -15.274  59.065  50.581  0.00  0.00    +0.000 A 
ATOM     20  N   UNL     1     -12.599  56.580  49.925  0.00  0.00    +0.000 N 
ATOM     21  C   UNL     1     -12.709  58.959  49.490  0.00  0.00    +0.000 A 
ATOM     22  C   UNL     1     -14.687  60.225  50.079  0.00  0.00    +0.000 A 
ATOM     23  C   UNL     1     -13.401  60.173  49.541  0.00  0.00    +0.000 A 
ATOM     24  H   UNL     1     -14.566  54.239  51.052  0.00  0.00    +0.000 HD
ATOM     25  H   UNL     1     -11.656  56.609  49.649  0.00  0.00    +0.000 HD
ENDBRANCH   1  17
BRANCH   3  26
ATOM     26  O   UNL     1     -12.291  53.373  52.214  0.00  0.00    +0.000 OA
ATOM     27  H   UNL     1     -11.889  54.032  52.745  0.00  0.00    +0.000 HD
ENDBRANCH   3  26
BRANCH   5  28
ATOM     28  N   UNL     1     -10.684  52.539  46.854  0.00  0.00    +0.000 N 
ATOM     29  H   UNL     1     -11.200  51.944  46.263  0.00  0.00    +0.000 HD
BRANCH  28  30
ATOM     30  C   UNL     1      -9.453  53.217  46.426  0.00  0.00    +0.000 C 
BRANCH  30  31
ATOM     31  C   UNL     1      -9.536  53.676  44.969  0.00  0.00    +0.000 C 
BRANCH  31  32
ATOM     32  C   UNL     1     -10.629  52.890  44.235  0.00  0.00    +0.000 C 
ATOM     33  C   UNL     1     -10.093  52.183  43.002  0.00  0.00    +0.000 C 
ENDBRANCH  31  32
ENDBRANCH  30  31
ENDBRANCH  28  30
ENDBRANCH   5  28
TORSDOF 6
ENDMDL
