MODEL 1
REMARK VINA RESULT:      -8.4      0.000      0.000
REMARK  Name = 
REMARK  5 active torsions:
REMARK  status: ('A' for Active; 'I' for Inactive)
REMARK    1  A    between atoms: C_6  and  C_10
REMARK    2  A    between atoms: C_14  and  O_18
REMARK    3  A    between atoms: N_17  and  N_20
REMARK    4  A    between atoms: N_20  and  C_23
REMARK    5  A    between atoms: C_23  and  C_26
REMARK                            x       y       z     vdW  Elec       q    Type
REMARK                         _______ _______ _______ _____ _____    ______ ____
ROOT
ATOM      1  C   UNL     1     -10.113  54.562  52.198  0.00  0.00    +0.000 A 
ATOM      2  C   UNL     1      -8.746  55.131  52.004  0.00  0.00    +0.000 A 
ATOM      3  C   UNL     1     -10.290  53.458  52.944  0.00  0.00    +0.000 A 
ATOM      4  O   UNL     1      -8.647  56.142  51.301  0.00  0.00    +0.000 OA
ATOM      5  N   UNL     1      -7.674  54.512  52.649  0.00  0.00    +0.000 N 
ATOM      6  C   UNL     1      -9.147  52.815  53.609  0.00  0.00    +0.000 A 
ATOM      7  C   UNL     1      -7.854  53.346  53.450  0.00  0.00    +0.000 A 
ATOM      8  C   UNL     1      -9.337  51.683  54.421  0.00  0.00    +0.000 A 
ATOM      9  C   UNL     1      -6.774  52.719  54.096  0.00  0.00    +0.000 A 
ATOM     10  C   UNL     1      -8.259  51.085  55.068  0.00  0.00    +0.000 A 
ATOM     11  C   UNL     1      -6.980  51.599  54.905  0.00  0.00    +0.000 A 
ENDROOT
BRANCH   1  17
ATOM     12  S   UNL     1     -12.561  56.081  49.530  0.00  0.00    +0.000 S 
ATOM     13  O   UNL     1     -13.458  55.087  48.977  0.00  0.00    +0.000 OA
ATOM     14  O   UNL     1     -11.955  57.080  48.671  0.00  0.00    +0.000 OA
ATOM     15  N   UNL     1     -11.369  55.295  50.296  0.00  0.00    +0.000 N 
ATOM     16  C   UNL     1     -13.493  56.971  50.723  0.00  0.00    +0.000 A 
ATOM     17  C   UNL     1     -11.294  55.293  51.592  0.00  0.00    +0.000 C 
ATOM     18  C   UNL     1     -13.183  56.780  52.058  0.00  0.00    +0.000 A 
ATOM     19  C   UNL     1     -14.500  57.846  50.312  0.00  0.00    +0.000 A 
ATOM     20  N   UNL     1     -12.188  55.893  52.454  0.00  0.00    +0.000 N 
ATOM     21  C   UNL     1     -13.961  57.440  53.018  0.00  0.00    +0.000 A 
ATOM     22  C   UNL     1     -15.241  58.524  51.275  0.00  0.00    +0.000 A 
ATOM     23  C   UNL     1     -14.979  58.313  52.630  0.00  0.00    +0.000 A 
ATOM     24  H   UNL     1     -10.691  54.813  49.769  0.00  0.00    +0.000 HD
ATOM     25  H   UNL     1     -12.115  55.680  53.412  0.00  0.00    +0.000 HD
ENDBRANCH   1  17
BRANCH   3  26
ATOM     26  O   UNL     1     -11.517  52.865  53.181  0.00  0.00    +0.000 OA
ATOM     27  H   UNL     1     -12.204  52.942  52.549  0.00  0.00    +0.000 HD
ENDBRANCH   3  26
BRANCH   5  28
ATOM     28  N   UNL     1      -6.330  54.984  52.445  0.00  0.00    +0.000 N 
ATOM     29  H   UNL     1      -5.826  55.461  53.142  0.00  0.00    +0.000 HD
BRANCH  28  30
ATOM     30  C   UNL     1      -5.768  54.700  51.117  0.00  0.00    +0.000 C 
BRANCH  30  31
ATOM     31  C   UNL     1      -4.991  53.417  51.134  0.00  0.00    +0.000 A 
ATOM     32  S   UNL     1      -5.642  52.009  50.397  0.00  0.00    +0.000 S 
ATOM     33  C   UNL     1      -3.733  53.182  51.652  0.00  0.00    +0.000 A 
ATOM     34  C   UNL     1      -4.242  51.098  50.760  0.00  0.00    +0.000 A 
ATOM     35  C   UNL     1      -3.301  51.842  51.434  0.00  0.00    +0.000 A 
ENDBRANCH  30  31
ENDBRANCH  28  30
ENDBRANCH   5  28
TORSDOF 5
ENDMDL
MODEL 2
REMARK VINA RESULT:      -8.3      2.156      2.446
REMARK  Name = 
REMARK  5 active torsions:
REMARK  status: ('A' for Active; 'I' for Inactive)
REMARK    1  A    between atoms: C_6  and  C_10
REMARK    2  A    between atoms: C_14  and  O_18
REMARK    3  A    between atoms: N_17  and  N_20
REMARK    4  A    between atoms: N_20  and  C_23
REMARK    5  A    between atoms: C_23  and  C_26
REMARK                            x       y       z     vdW  Elec       q    Type
REMARK                         _______ _______ _______ _____ _____    ______ ____
ROOT
ATOM      1  C   UNL     1     -11.155  54.632  50.873  0.00  0.00    +0.000 A 
ATOM      2  C   UNL     1      -9.761  55.027  50.510  0.00  0.00    +0.000 A 
ATOM      3  C   UNL     1     -11.414  53.397  51.332  0.00  0.00    +0.000 A 
ATOM      4  O   UNL     1      -9.588  56.174  50.086  0.00  0.00    +0.000 OA
ATOM      5  N   UNL     1      -8.740  54.094  50.699  0.00  0.00    +0.000 N 
ATOM      6  C   UNL     1     -10.326  52.425  51.518  0.00  0.00    +0.000 A 
ATOM      7  C   UNL     1      -9.005  52.783  51.195  0.00  0.00    +0.000 A 
ATOM      8  C   UNL     1     -10.591  51.144  52.035  0.00  0.00    +0.000 A 
ATOM      9  C   UNL     1      -7.976  51.843  51.382  0.00  0.00    +0.000 A 
ATOM     10  C   UNL     1      -9.559  50.231  52.231  0.00  0.00    +0.000 A 
ATOM     11  C   UNL     1      -8.255  50.576  51.903  0.00  0.00    +0.000 A 
ENDROOT
BRANCH   1  17
ATOM     12  S   UNL     1     -13.630  57.279  49.359  0.00  0.00    +0.000 S 
ATOM     13  O   UNL     1     -14.770  56.659  48.714  0.00  0.00    +0.000 OA
ATOM     14  O   UNL     1     -12.977  58.422  48.752  0.00  0.00    +0.000 OA
ATOM     15  N   UNL     1     -12.511  56.129  49.586  0.00  0.00    +0.000 N 
ATOM     16  C   UNL     1     -14.193  57.822  50.931  0.00  0.00    +0.000 A 
ATOM     17  C   UNL     1     -12.251  55.675  50.775  0.00  0.00    +0.000 C 
ATOM     18  C   UNL     1     -13.735  57.148  52.049  0.00  0.00    +0.000 A 
ATOM     19  C   UNL     1     -15.064  58.909  51.024  0.00  0.00    +0.000 A 
ATOM     20  N   UNL     1     -12.880  56.057  51.941  0.00  0.00    +0.000 N 
ATOM     21  C   UNL     1     -14.225  57.537  53.302  0.00  0.00    +0.000 A 
ATOM     22  C   UNL     1     -15.515  59.309  52.278  0.00  0.00    +0.000 A 
ATOM     23  C   UNL     1     -15.104  58.616  53.418  0.00  0.00    +0.000 A 
ATOM     24  H   UNL     1     -12.021  55.771  48.811  0.00  0.00    +0.000 HD
ATOM     25  H   UNL     1     -12.711  55.522  52.750  0.00  0.00    +0.000 HD
ENDBRANCH   1  17
BRANCH   3  26
ATOM     26  O   UNL     1     -12.671  52.947  51.696  0.00  0.00    +0.000 OA
ATOM     27  H   UNL     1     -13.404  53.530  51.667  0.00  0.00    +0.000 HD
ENDBRANCH   3  26
BRANCH   5  28
ATOM     28  N   UNL     1      -7.390  54.402  50.307  0.00  0.00    +0.000 N 
ATOM     29  H   UNL     1      -6.935  53.937  49.569  0.00  0.00    +0.000 HD
BRANCH  28  30
ATOM     30  C   UNL     1      -6.742  55.462  51.092  0.00  0.00    +0.000 C 
BRANCH  30  31
ATOM     31  C   UNL     1      -6.348  54.951  52.446  0.00  0.00    +0.000 A 
ATOM     32  S   UNL     1      -7.239  55.425  53.836  0.00  0.00    +0.000 S 
ATOM     33  C   UNL     1      -5.335  54.071  52.771  0.00  0.00    +0.000 A 
ATOM     34  C   UNL     1      -6.280  54.448  54.860  0.00  0.00    +0.000 A 
ATOM     35  C   UNL     1      -5.297  53.780  54.165  0.00  0.00    +0.000 A 
ENDBRANCH  30  31
ENDBRANCH  28  30
ENDBRANCH   5  28
TORSDOF 5
ENDMDL
MODEL 3
REMARK VINA RESULT:      -8.3      3.129      8.376
REMARK  Name = 
REMARK  5 active torsions:
REMARK  status: ('A' for Active; 'I' for Inactive)
REMARK    1  A    between atoms: C_6  and  C_10
REMARK    2  A    between atoms: C_14  and  O_18
REMARK    3  A    between atoms: N_17  and  N_20
REMARK    4  A    between atoms: N_20  and  C_23
REMARK    5  A    between atoms: C_23  and  C_26
REMARK                            x       y       z     vdW  Elec       q    Type
REMARK                         _______ _______ _______ _____ _____    ______ ____
ROOT
ATOM      1  C   UNL     1      -9.116  54.358  49.907  0.00  0.00    +0.000 A 
ATOM      2  C   UNL     1     -10.164  55.417  50.009  0.00  0.00    +0.000 A 
ATOM      3  C   UNL     1      -9.009  53.612  48.794  0.00  0.00    +0.000 A 
ATOM      4  O   UNL     1     -10.218  56.062  51.061  0.00  0.00    +0.000 OA
ATOM      5  N   UNL     1     -10.994  55.634  48.908  0.00  0.00    +0.000 N 
ATOM      6  C   UNL     1      -9.897  53.851  47.647  0.00  0.00    +0.000 A 
ATOM      7  C   UNL     1     -10.880  54.854  47.719  0.00  0.00    +0.000 A 
ATOM      8  C   UNL     1      -9.759  53.098  46.467  0.00  0.00    +0.000 A 
ATOM      9  C   UNL     1     -11.719  55.071  46.611  0.00  0.00    +0.000 A 
ATOM     10  C   UNL     1     -10.586  53.337  45.373  0.00  0.00    +0.000 A 
ATOM     11  C   UNL     1     -11.565  54.318  45.443  0.00  0.00    +0.000 A 
ENDROOT
BRANCH   1  17
ATOM     12  S   UNL     1      -7.702  54.091  53.561  0.00  0.00    +0.000 S 
ATOM     13  O   UNL     1      -7.928  52.785  54.145  0.00  0.00    +0.000 OA
ATOM     14  O   UNL     1      -7.885  55.291  54.356  0.00  0.00    +0.000 OA
ATOM     15  N   UNL     1      -8.648  54.215  52.251  0.00  0.00    +0.000 N 
ATOM     16  C   UNL     1      -6.026  54.110  53.037  0.00  0.00    +0.000 A 
ATOM     17  C   UNL     1      -8.141  54.191  51.055  0.00  0.00    +0.000 C 
ATOM     18  C   UNL     1      -5.775  54.091  51.676  0.00  0.00    +0.000 A 
ATOM     19  C   UNL     1      -4.999  54.155  53.982  0.00  0.00    +0.000 A 
ATOM     20  N   UNL     1      -6.807  54.030  50.746  0.00  0.00    +0.000 N 
ATOM     21  C   UNL     1      -4.441  54.044  51.251  0.00  0.00    +0.000 A 
ATOM     22  C   UNL     1      -3.678  54.146  53.545  0.00  0.00    +0.000 A 
ATOM     23  C   UNL     1      -3.397  54.080  52.179  0.00  0.00    +0.000 A 
ATOM     24  H   UNL     1      -9.621  54.309  52.365  0.00  0.00    +0.000 HD
ATOM     25  H   UNL     1      -6.571  53.862  49.806  0.00  0.00    +0.000 HD
ENDBRANCH   1  17
BRANCH   3  26
ATOM     26  O   UNL     1      -8.068  52.615  48.610  0.00  0.00    +0.000 OA
ATOM     27  H   UNL     1      -7.372  52.507  49.229  0.00  0.00    +0.000 HD
ENDBRANCH   3  26
BRANCH   5  28
ATOM     28  N   UNL     1     -12.059  56.599  48.977  0.00  0.00    +0.000 N 
ATOM     29  H   UNL     1     -11.969  57.512  48.621  0.00  0.00    +0.000 HD
BRANCH  28  30
ATOM     30  C   UNL     1     -13.289  56.120  49.621  0.00  0.00    +0.000 C 
BRANCH  30  31
ATOM     31  C   UNL     1     -13.654  56.994  50.784  0.00  0.00    +0.000 A 
ATOM     32  S   UNL     1     -14.271  58.573  50.512  0.00  0.00    +0.000 S 
ATOM     33  C   UNL     1     -13.602  56.697  52.131  0.00  0.00    +0.000 A 
ATOM     34  C   UNL     1     -14.478  58.848  52.186  0.00  0.00    +0.000 A 
ATOM     35  C   UNL     1     -14.080  57.767  52.940  0.00  0.00    +0.000 A 
ENDBRANCH  30  31
ENDBRANCH  28  30
ENDBRANCH   5  28
TORSDOF 5
ENDMDL
MODEL 4
REMARK VINA RESULT:      -8.2      4.282      5.223
REMARK  Name = 
REMARK  5 active torsions:
REMARK  status: ('A' for Active; 'I' for Inactive)
REMARK    1  A    between atoms: C_6  and  C_10
REMARK    2  A    between atoms: C_14  and  O_18
REMARK    3  A    between atoms: N_17  and  N_20
REMARK    4  A    between atoms: N_20  and  C_23
REMARK    5  A    between atoms: C_23  and  C_26
REMARK                            x       y       z     vdW  Elec       q    Type
REMARK                         _______ _______ _______ _____ _____    ______ ____
ROOT
ATOM      1  C   UNL     1     -12.269  54.283  50.117  0.00  0.00    +0.000 A 
ATOM      2  C   UNL     1     -11.964  53.962  48.691  0.00  0.00    +0.000 A 
ATOM      3  C   UNL     1     -11.744  53.543  51.108  0.00  0.00    +0.000 A 
ATOM      4  O   UNL     1     -12.484  54.674  47.825  0.00  0.00    +0.000 OA
ATOM      5  N   UNL     1     -11.091  52.907  48.423  0.00  0.00    +0.000 N 
ATOM      6  C   UNL     1     -10.832  52.429  50.806  0.00  0.00    +0.000 A 
ATOM      7  C   UNL     1     -10.521  52.122  49.469  0.00  0.00    +0.000 A 
ATOM      8  C   UNL     1     -10.251  51.679  51.843  0.00  0.00    +0.000 A 
ATOM      9  C   UNL     1      -9.645  51.056  49.199  0.00  0.00    +0.000 A 
ATOM     10  C   UNL     1      -9.371  50.638  51.559  0.00  0.00    +0.000 A 
ATOM     11  C   UNL     1      -9.070  50.324  50.241  0.00  0.00    +0.000 A 
ENDROOT
BRANCH   1  17
ATOM     12  S   UNL     1     -15.283  56.479  51.349  0.00  0.00    +0.000 S 
ATOM     13  O   UNL     1     -15.262  56.687  52.782  0.00  0.00    +0.000 OA
ATOM     14  O   UNL     1     -16.533  56.206  50.666  0.00  0.00    +0.000 OA
ATOM     15  N   UNL     1     -14.259  55.269  51.013  0.00  0.00    +0.000 N 
ATOM     16  C   UNL     1     -14.652  57.952  50.630  0.00  0.00    +0.000 A 
ATOM     17  C   UNL     1     -13.127  55.495  50.419  0.00  0.00    +0.000 C 
ATOM     18  C   UNL     1     -13.400  57.900  50.043  0.00  0.00    +0.000 A 
ATOM     19  C   UNL     1     -15.414  59.122  50.653  0.00  0.00    +0.000 A 
ATOM     20  N   UNL     1     -12.646  56.731  50.042  0.00  0.00    +0.000 N 
ATOM     21  C   UNL     1     -12.865  59.084  49.522  0.00  0.00    +0.000 A 
ATOM     22  C   UNL     1     -14.885  60.284  50.098  0.00  0.00    +0.000 A 
ATOM     23  C   UNL     1     -13.605  60.268  49.542  0.00  0.00    +0.000 A 
ATOM     24  H   UNL     1     -14.500  54.348  51.265  0.00  0.00    +0.000 HD
ATOM     25  H   UNL     1     -11.707  56.790  49.753  0.00  0.00    +0.000 HD
ENDBRANCH   1  17
BRANCH   3  26
ATOM     26  O   UNL     1     -11.968  53.768  52.454  0.00  0.00    +0.000 OA
ATOM     27  H   UNL     1     -12.638  54.366  52.724  0.00  0.00    +0.000 HD
ENDBRANCH   3  26
BRANCH   5  28
ATOM     28  N   UNL     1     -10.813  52.518  47.066  0.00  0.00    +0.000 N 
ATOM     29  H   UNL     1     -11.333  51.826  46.597  0.00  0.00    +0.000 HD
BRANCH  28  30
ATOM     30  C   UNL     1      -9.693  53.229  46.434  0.00  0.00    +0.000 C 
BRANCH  30  31
ATOM     31  C   UNL     1      -9.570  52.844  44.989  0.00  0.00    +0.000 A 
ATOM     32  S   UNL     1     -10.677  51.729  44.299  0.00  0.00    +0.000 S 
ATOM     33  C   UNL     1      -8.665  53.304  44.053  0.00  0.00    +0.000 A 
ATOM     34  C   UNL     1      -9.957  51.873  42.755  0.00  0.00    +0.000 A 
ATOM     35  C   UNL     1      -8.891  52.745  42.762  0.00  0.00    +0.000 A 
ENDBRANCH  30  31
ENDBRANCH  28  30
ENDBRANCH   5  28
TORSDOF 5
ENDMDL
MODEL 5
REMARK VINA RESULT:      -8.1      3.368      5.000
REMARK  Name = 
REMARK  5 active torsions:
REMARK  status: ('A' for Active; 'I' for Inactive)
REMARK    1  A    between atoms: C_6  and  C_10
REMARK    2  A    between atoms: C_14  and  O_18
REMARK    3  A    between atoms: N_17  and  N_20
REMARK    4  A    between atoms: N_20  and  C_23
REMARK    5  A    between atoms: C_23  and  C_26
REMARK                            x       y       z     vdW  Elec       q    Type
REMARK                         _______ _______ _______ _____ _____    ______ ____
ROOT
ATOM      1  C   UNL     1     -11.678  55.857  48.810  0.00  0.00    +0.000 A 
ATOM      2  C   UNL     1     -10.708  55.131  49.684  0.00  0.00    +0.000 A 
ATOM      3  C   UNL     1     -11.767  55.563  47.502  0.00  0.00    +0.000 A 
ATOM      4  O   UNL     1     -10.668  55.452  50.876  0.00  0.00    +0.000 OA
ATOM      5  N   UNL     1      -9.935  54.118  49.114  0.00  0.00    +0.000 N 
ATOM      6  C   UNL     1     -10.937  54.498  46.918  0.00  0.00    +0.000 A 
ATOM      7  C   UNL     1     -10.029  53.793  47.729  0.00  0.00    +0.000 A 
ATOM      8  C   UNL     1     -11.058  54.163  45.558  0.00  0.00    +0.000 A 
ATOM      9  C   UNL     1      -9.247  52.776  47.154  0.00  0.00    +0.000 A 
ATOM     10  C   UNL     1     -10.288  53.142  45.008  0.00  0.00    +0.000 A 
ATOM     11  C   UNL     1      -9.382  52.451  45.801  0.00  0.00    +0.000 A 
ENDROOT
BRANCH   1  17
ATOM     12  S   UNL     1     -13.572  59.232  49.478  0.00  0.00    +0.000 S 
ATOM     13  O   UNL     1     -14.708  59.409  48.596  0.00  0.00    +0.000 OA
ATOM     14  O   UNL     1     -12.701  60.349  49.785  0.00  0.00    +0.000 OA
ATOM     15  N   UNL     1     -12.657  58.041  48.868  0.00  0.00    +0.000 N 
ATOM     16  C   UNL     1     -14.226  58.693  51.016  0.00  0.00    +0.000 A 
ATOM     17  C   UNL     1     -12.599  56.879  49.445  0.00  0.00    +0.000 C 
ATOM     18  C   UNL     1     -13.996  57.381  51.393  0.00  0.00    +0.000 A 
ATOM     19  C   UNL     1     -14.942  59.582  51.821  0.00  0.00    +0.000 A 
ATOM     20  N   UNL     1     -13.295  56.502  50.574  0.00  0.00    +0.000 N 
ATOM     21  C   UNL     1     -14.565  56.928  52.589  0.00  0.00    +0.000 A 
ATOM     22  C   UNL     1     -15.471  59.128  53.025  0.00  0.00    +0.000 A 
ATOM     23  C   UNL     1     -15.292  57.797  53.406  0.00  0.00    +0.000 A 
ATOM     24  H   UNL     1     -12.138  58.202  48.047  0.00  0.00    +0.000 HD
ATOM     25  H   UNL     1     -13.295  55.548  50.817  0.00  0.00    +0.000 HD
ENDBRANCH   1  17
BRANCH   3  26
ATOM     26  O   UNL     1     -12.636  56.180  46.621  0.00  0.00    +0.000 OA
ATOM     27  H   UNL     1     -12.301  56.721  45.934  0.00  0.00    +0.000 HD
ENDBRANCH   3  26
BRANCH   5  28
ATOM     28  N   UNL     1      -8.942  53.431  49.898  0.00  0.00    +0.000 N 
ATOM     29  H   UNL     1      -9.078  52.518  50.240  0.00  0.00    +0.000 HD
BRANCH  28  30
ATOM     30  C   UNL     1      -7.713  54.195  50.150  0.00  0.00    +0.000 C 
BRANCH  30  31
ATOM     31  C   UNL     1      -7.451  54.305  51.623  0.00  0.00    +0.000 A 
ATOM     32  S   UNL     1      -7.375  55.849  52.370  0.00  0.00    +0.000 S 
ATOM     33  C   UNL     1      -7.286  53.289  52.543  0.00  0.00    +0.000 A 
ATOM     34  C   UNL     1      -7.135  55.159  53.915  0.00  0.00    +0.000 A 
ATOM     35  C   UNL     1      -7.105  53.783  53.867  0.00  0.00    +0.000 A 
ENDBRANCH  30  31
ENDBRANCH  28  30
ENDBRANCH   5  28
TORSDOF 5
ENDMDL
MODEL 6
REMARK VINA RESULT:      -8.1      3.618      7.385
REMARK  Name = 
REMARK  5 active torsions:
REMARK  status: ('A' for Active; 'I' for Inactive)
REMARK    1  A    between atoms: C_6  and  C_10
REMARK    2  A    between atoms: C_14  and  O_18
REMARK    3  A    between atoms: N_17  and  N_20
REMARK    4  A    between atoms: N_20  and  C_23
REMARK    5  A    between atoms: C_23  and  C_26
REMARK                            x       y       z     vdW  Elec       q    Type
REMARK                         _______ _______ _______ _____ _____    ______ ____
ROOT
ATOM      1  C   UNL     1     -10.397  55.177  50.912  0.00  0.00    +0.000 A 
ATOM      2  C   UNL     1     -10.069  55.050  49.461  0.00  0.00    +0.000 A 
ATOM      3  C   UNL     1     -11.565  55.715  51.301  0.00  0.00    +0.000 A 
ATOM      4  O   UNL     1      -8.976  54.555  49.167  0.00  0.00    +0.000 OA
ATOM      5  N   UNL     1     -11.022  55.465  48.530  0.00  0.00    +0.000 N 
ATOM      6  C   UNL     1     -12.554  56.154  50.305  0.00  0.00    +0.000 A 
ATOM      7  C   UNL     1     -12.269  56.028  48.933  0.00  0.00    +0.000 A 
ATOM      8  C   UNL     1     -13.793  56.681  50.711  0.00  0.00    +0.000 A 
ATOM      9  C   UNL     1     -13.227  56.450  47.995  0.00  0.00    +0.000 A 
ATOM     10  C   UNL     1     -14.738  57.077  49.769  0.00  0.00    +0.000 A 
ATOM     11  C   UNL     1     -14.457  56.966  48.414  0.00  0.00    +0.000 A 
ENDROOT
BRANCH   1  17
ATOM     12  S   UNL     1      -7.102  54.678  52.991  0.00  0.00    +0.000 S 
ATOM     13  O   UNL     1      -6.964  55.659  54.047  0.00  0.00    +0.000 OA
ATOM     14  O   UNL     1      -5.953  54.291  52.195  0.00  0.00    +0.000 OA
ATOM     15  N   UNL     1      -8.252  55.204  51.978  0.00  0.00    +0.000 N 
ATOM     16  C   UNL     1      -7.674  53.207  53.760  0.00  0.00    +0.000 A 
ATOM     17  C   UNL     1      -9.415  54.627  51.927  0.00  0.00    +0.000 C 
ATOM     18  C   UNL     1      -8.978  52.813  53.514  0.00  0.00    +0.000 A 
ATOM     19  C   UNL     1      -6.818  52.469  54.580  0.00  0.00    +0.000 A 
ATOM     20  N   UNL     1      -9.825  53.567  52.708  0.00  0.00    +0.000 N 
ATOM     21  C   UNL     1      -9.460  51.675  54.172  0.00  0.00    +0.000 A 
ATOM     22  C   UNL     1      -7.299  51.318  55.198  0.00  0.00    +0.000 A 
ATOM     23  C   UNL     1      -8.624  50.926  55.003  0.00  0.00    +0.000 A 
ATOM     24  H   UNL     1      -8.067  55.974  51.393  0.00  0.00    +0.000 HD
ATOM     25  H   UNL     1     -10.779  53.327  52.692  0.00  0.00    +0.000 HD
ENDBRANCH   1  17
BRANCH   3  26
ATOM     26  O   UNL     1     -11.953  55.868  52.620  0.00  0.00    +0.000 OA
ATOM     27  H   UNL     1     -11.306  55.932  53.295  0.00  0.00    +0.000 HD
ENDBRANCH   3  26
BRANCH   5  28
ATOM     28  N   UNL     1     -10.731  55.422  47.121  0.00  0.00    +0.000 N 
ATOM     29  H   UNL     1     -10.145  56.079  46.682  0.00  0.00    +0.000 HD
BRANCH  28  30
ATOM     30  C   UNL     1     -11.377  54.325  46.387  0.00  0.00    +0.000 C 
BRANCH  30  31
ATOM     31  C   UNL     1     -10.459  53.780  45.334  0.00  0.00    +0.000 A 
ATOM     32  S   UNL     1      -8.763  54.009  45.470  0.00  0.00    +0.000 S 
ATOM     33  C   UNL     1     -10.781  53.040  44.213  0.00  0.00    +0.000 A 
ATOM     34  C   UNL     1      -8.465  53.113  44.045  0.00  0.00    +0.000 A 
ATOM     35  C   UNL     1      -9.629  52.654  43.470  0.00  0.00    +0.000 A 
ENDBRANCH  30  31
ENDBRANCH  28  30
ENDBRANCH   5  28
TORSDOF 5
ENDMDL
MODEL 7
REMARK VINA RESULT:      -8.1      4.121      5.535
REMARK  Name = 
REMARK  5 active torsions:
REMARK  status: ('A' for Active; 'I' for Inactive)
REMARK    1  A    between atoms: C_6  and  C_10
REMARK    2  A    between atoms: C_14  and  O_18
REMARK    3  A    between atoms: N_17  and  N_20
REMARK    4  A    between atoms: N_20  and  C_23
REMARK    5  A    between atoms: C_23  and  C_26
REMARK                            x       y       z     vdW  Elec       q    Type
REMARK                         _______ _______ _______ _____ _____    ______ ____
ROOT
ATOM      1  C   UNL     1     -10.350  54.901  47.794  0.00  0.00    +0.000 A 
ATOM      2  C   UNL     1      -8.859  54.985  47.795  0.00  0.00    +0.000 A 
ATOM      3  C   UNL     1     -11.001  54.377  46.741  0.00  0.00    +0.000 A 
ATOM      4  O   UNL     1      -8.320  55.485  48.788  0.00  0.00    +0.000 OA
ATOM      5  N   UNL     1      -8.167  54.470  46.698  0.00  0.00    +0.000 N 
ATOM      6  C   UNL     1     -10.254  53.846  45.591  0.00  0.00    +0.000 A 
ATOM      7  C   UNL     1      -8.849  53.903  45.581  0.00  0.00    +0.000 A 
ATOM      8  C   UNL     1     -10.932  53.262  44.506  0.00  0.00    +0.000 A 
ATOM      9  C   UNL     1      -8.151  53.388  44.474  0.00  0.00    +0.000 A 
ATOM     10  C   UNL     1     -10.226  52.740  43.426  0.00  0.00    +0.000 A 
ATOM     11  C   UNL     1      -8.839  52.805  43.406  0.00  0.00    +0.000 A 
ENDROOT
BRANCH   1  17
ATOM     12  S   UNL     1     -11.771  54.971  51.454  0.00  0.00    +0.000 S 
ATOM     13  O   UNL     1     -10.795  55.445  52.414  0.00  0.00    +0.000 OA
ATOM     14  O   UNL     1     -12.632  53.850  51.777  0.00  0.00    +0.000 OA
ATOM     15  N   UNL     1     -10.980  54.613  50.086  0.00  0.00    +0.000 N 
ATOM     16  C   UNL     1     -12.842  56.326  51.135  0.00  0.00    +0.000 A 
ATOM     17  C   UNL     1     -11.102  55.356  49.028  0.00  0.00    +0.000 C 
ATOM     18  C   UNL     1     -12.763  56.934  49.895  0.00  0.00    +0.000 A 
ATOM     19  C   UNL     1     -13.743  56.749  52.114  0.00  0.00    +0.000 A 
ATOM     20  N   UNL     1     -11.849  56.512  48.935  0.00  0.00    +0.000 N 
ATOM     21  C   UNL     1     -13.570  58.052  49.654  0.00  0.00    +0.000 A 
ATOM     22  C   UNL     1     -14.567  57.839  51.849  0.00  0.00    +0.000 A 
ATOM     23  C   UNL     1     -14.473  58.499  50.622  0.00  0.00    +0.000 A 
ATOM     24  H   UNL     1     -10.399  53.818  50.057  0.00  0.00    +0.000 HD
ATOM     25  H   UNL     1     -11.728  57.073  48.136  0.00  0.00    +0.000 HD
ENDBRANCH   1  17
BRANCH   3  26
ATOM     26  O   UNL     1     -12.376  54.255  46.655  0.00  0.00    +0.000 OA
ATOM     27  H   UNL     1     -12.900  54.310  47.430  0.00  0.00    +0.000 HD
ENDBRANCH   3  26
BRANCH   5  28
ATOM     28  N   UNL     1      -6.734  54.583  46.622  0.00  0.00    +0.000 N 
ATOM     29  H   UNL     1      -6.285  55.390  46.283  0.00  0.00    +0.000 HD
BRANCH  28  30
ATOM     30  C   UNL     1      -5.994  53.402  47.087  0.00  0.00    +0.000 C 
BRANCH  30  31
ATOM     31  C   UNL     1      -5.647  53.533  48.540  0.00  0.00    +0.000 A 
ATOM     32  S   UNL     1      -6.141  52.324  49.654  0.00  0.00    +0.000 S 
ATOM     33  C   UNL     1      -4.911  54.522  49.162  0.00  0.00    +0.000 A 
ATOM     34  C   UNL     1      -5.363  53.115  50.954  0.00  0.00    +0.000 A 
ATOM     35  C   UNL     1      -4.746  54.279  50.556  0.00  0.00    +0.000 A 
ENDBRANCH  30  31
ENDBRANCH  28  30
ENDBRANCH   5  28
TORSDOF 5
ENDMDL
MODEL 8
REMARK VINA RESULT:      -8.1      2.794      8.297
REMARK  Name = 
REMARK  5 active torsions:
REMARK  status: ('A' for Active; 'I' for Inactive)
REMARK    1  A    between atoms: C_6  and  C_10
REMARK    2  A    between atoms: C_14  and  O_18
REMARK    3  A    between atoms: N_17  and  N_20
REMARK    4  A    between atoms: N_20  and  C_23
REMARK    5  A    between atoms: C_23  and  C_26
REMARK                            x       y       z     vdW  Elec       q    Type
REMARK                         _______ _______ _______ _____ _____    ______ ____
ROOT
ATOM      1  C   UNL     1      -9.800  53.991  50.635  0.00  0.00    +0.000 A 
ATOM      2  C   UNL     1     -11.099  54.684  50.886  0.00  0.00    +0.000 A 
ATOM      3  C   UNL     1      -9.396  53.737  49.379  0.00  0.00    +0.000 A 
ATOM      4  O   UNL     1     -11.419  54.882  52.063  0.00  0.00    +0.000 OA
ATOM      5  N   UNL     1     -11.853  55.093  49.785  0.00  0.00    +0.000 N 
ATOM      6  C   UNL     1     -10.208  54.168  48.232  0.00  0.00    +0.000 A 
ATOM      7  C   UNL     1     -11.427  54.836  48.448  0.00  0.00    +0.000 A 
ATOM      8  C   UNL     1      -9.767  53.937  46.917  0.00  0.00    +0.000 A 
ATOM      9  C   UNL     1     -12.189  55.244  47.339  0.00  0.00    +0.000 A 
ATOM     10  C   UNL     1     -10.525  54.364  45.829  0.00  0.00    +0.000 A 
ATOM     11  C   UNL     1     -11.735  55.013  46.038  0.00  0.00    +0.000 A 
ENDROOT
BRANCH   1  17
ATOM     12  S   UNL     1      -6.725  53.912  53.077  0.00  0.00    +0.000 S 
ATOM     13  O   UNL     1      -6.683  55.070  53.946  0.00  0.00    +0.000 OA
ATOM     14  O   UNL     1      -5.507  53.400  52.480  0.00  0.00    +0.000 OA
ATOM     15  N   UNL     1      -7.768  54.234  51.880  0.00  0.00    +0.000 N 
ATOM     16  C   UNL     1      -7.379  52.599  54.042  0.00  0.00    +0.000 A 
ATOM     17  C   UNL     1      -8.924  53.644  51.822  0.00  0.00    +0.000 C 
ATOM     18  C   UNL     1      -8.656  52.154  53.747  0.00  0.00    +0.000 A 
ATOM     19  C   UNL     1      -6.611  52.031  55.061  0.00  0.00    +0.000 A 
ATOM     20  N   UNL     1      -9.415  52.739  52.740  0.00  0.00    +0.000 N 
ATOM     21  C   UNL     1      -9.207  51.148  54.551  0.00  0.00    +0.000 A 
ATOM     22  C   UNL     1      -7.158  51.007  55.828  0.00  0.00    +0.000 A 
ATOM     23  C   UNL     1      -8.461  50.572  55.581  0.00  0.00    +0.000 A 
ATOM     24  H   UNL     1      -7.521  54.887  51.186  0.00  0.00    +0.000 HD
ATOM     25  H   UNL     1     -10.365  52.491  52.676  0.00  0.00    +0.000 HD
ENDBRANCH   1  17
BRANCH   3  26
ATOM     26  O   UNL     1      -8.209  53.105  49.054  0.00  0.00    +0.000 OA
ATOM     27  H   UNL     1      -7.835  52.480  49.643  0.00  0.00    +0.000 HD
ENDBRANCH   3  26
BRANCH   5  28
ATOM     28  N   UNL     1     -13.140  55.709  49.971  0.00  0.00    +0.000 N 
ATOM     29  H   UNL     1     -13.965  55.184  50.087  0.00  0.00    +0.000 HD
BRANCH  28  30
ATOM     30  C   UNL     1     -13.131  57.177  49.974  0.00  0.00    +0.000 C 
BRANCH  30  31
ATOM     31  C   UNL     1     -13.885  57.710  51.156  0.00  0.00    +0.000 A 
ATOM     32  S   UNL     1     -14.534  59.299  51.117  0.00  0.00    +0.000 S 
ATOM     33  C   UNL     1     -14.192  57.067  52.339  0.00  0.00    +0.000 A 
ATOM     34  C   UNL     1     -15.231  59.120  52.668  0.00  0.00    +0.000 A 
ATOM     35  C   UNL     1     -14.970  57.881  53.211  0.00  0.00    +0.000 A 
ENDBRANCH  30  31
ENDBRANCH  28  30
ENDBRANCH   5  28
TORSDOF 5
ENDMDL
MODEL 9
REMARK VINA RESULT:      -7.9      3.891      7.491
REMARK  Name = 
REMARK  5 active torsions:
REMARK  status: ('A' for Active; 'I' for Inactive)
REMARK    1  A    between atoms: C_6  and  C_10
REMARK    2  A    between atoms: C_14  and  O_18
REMARK    3  A    between atoms: N_17  and  N_20
REMARK    4  A    between atoms: N_20  and  C_23
REMARK    5  A    between atoms: C_23  and  C_26
REMARK                            x       y       z     vdW  Elec       q    Type
REMARK                         _______ _______ _______ _____ _____    ______ ____
ROOT
ATOM      1  C   UNL     1     -10.444  54.909  50.498  0.00  0.00    +0.000 A 
ATOM      2  C   UNL     1     -10.169  54.743  49.039  0.00  0.00    +0.000 A 
ATOM      3  C   UNL     1     -11.508  55.616  50.914  0.00  0.00    +0.000 A 
ATOM      4  O   UNL     1      -9.171  54.089  48.721  0.00  0.00    +0.000 OA
ATOM      5  N   UNL     1     -11.066  55.306  48.130  0.00  0.00    +0.000 N 
ATOM      6  C   UNL     1     -12.438  56.208  49.940  0.00  0.00    +0.000 A 
ATOM      7  C   UNL     1     -12.204  56.050  48.562  0.00  0.00    +0.000 A 
ATOM      8  C   UNL     1     -13.574  56.915  50.374  0.00  0.00    +0.000 A 
ATOM      9  C   UNL     1     -13.105  56.620  47.646  0.00  0.00    +0.000 A 
ATOM     10  C   UNL     1     -14.466  57.458  49.454  0.00  0.00    +0.000 A 
ATOM     11  C   UNL     1     -14.232  57.314  48.093  0.00  0.00    +0.000 A 
ENDROOT
BRANCH   1  17
ATOM     12  S   UNL     1      -9.076  52.223  53.016  0.00  0.00    +0.000 S 
ATOM     13  O   UNL     1      -8.478  51.090  52.340  0.00  0.00    +0.000 OA
ATOM     14  O   UNL     1      -9.916  52.022  54.181  0.00  0.00    +0.000 OA
ATOM     15  N   UNL     1      -9.938  53.049  51.920  0.00  0.00    +0.000 N 
ATOM     16  C   UNL     1      -7.744  53.234  53.550  0.00  0.00    +0.000 A 
ATOM     17  C   UNL     1      -9.537  54.208  51.489  0.00  0.00    +0.000 C 
ATOM     18  C   UNL     1      -7.555  54.446  52.908  0.00  0.00    +0.000 A 
ATOM     19  C   UNL     1      -6.923  52.813  54.598  0.00  0.00    +0.000 A 
ATOM     20  N   UNL     1      -8.370  54.846  51.854  0.00  0.00    +0.000 N 
ATOM     21  C   UNL     1      -6.459  55.230  53.286  0.00  0.00    +0.000 A 
ATOM     22  C   UNL     1      -5.859  53.620  54.989  0.00  0.00    +0.000 A 
ATOM     23  C   UNL     1      -5.619  54.825  54.326  0.00  0.00    +0.000 A 
ATOM     24  H   UNL     1     -10.777  52.667  51.576  0.00  0.00    +0.000 HD
ATOM     25  H   UNL     1      -8.098  55.637  51.336  0.00  0.00    +0.000 HD
ENDBRANCH   1  17
BRANCH   3  26
ATOM     26  O   UNL     1     -11.842  55.817  52.241  0.00  0.00    +0.000 OA
ATOM     27  H   UNL     1     -11.409  56.484  52.737  0.00  0.00    +0.000 HD
ENDBRANCH   3  26
BRANCH   5  28
ATOM     28  N   UNL     1     -10.814  55.229  46.715  0.00  0.00    +0.000 N 
ATOM     29  H   UNL     1     -10.280  55.903  46.236  0.00  0.00    +0.000 HD
BRANCH  28  30
ATOM     30  C   UNL     1     -11.413  54.070  46.041  0.00  0.00    +0.000 C 
BRANCH  30  31
ATOM     31  C   UNL     1     -10.485  53.527  44.995  0.00  0.00    +0.000 A 
ATOM     32  S   UNL     1      -8.792  53.781  45.132  0.00  0.00    +0.000 S 
ATOM     33  C   UNL     1     -10.794  52.772  43.881  0.00  0.00    +0.000 A 
ATOM     34  C   UNL     1      -8.478  52.876  43.717  0.00  0.00    +0.000 A 
ATOM     35  C   UNL     1      -9.634  52.395  43.144  0.00  0.00    +0.000 A 
ENDBRANCH  30  31
ENDBRANCH  28  30
ENDBRANCH   5  28
TORSDOF 5
ENDMDL
