MODEL 1
REMARK VINA RESULT:      -8.4      0.000      0.000
REMARK  Name = 
REMARK  5 active torsions:
REMARK  status: ('A' for Active; 'I' for Inactive)
REMARK    1  A    between atoms: C_6  and  C_10
REMARK    2  A    between atoms: C_14  and  O_18
REMARK    3  A    between atoms: N_17  and  N_20
REMARK    4  A    between atoms: N_20  and  C_23
REMARK    5  A    between atoms: C_23  and  C_26
REMARK                            x       y       z     vdW  Elec       q    Type
REMARK                         _______ _______ _______ _____ _____    ______ ____
ROOT
ATOM      1  C   UNL     1     -11.465  56.060  48.844  0.00  0.00    +0.000 A 
ATOM      2  C   UNL     1     -10.396  55.472  49.706  0.00  0.00    +0.000 A 
ATOM      3  C   UNL     1     -11.579  55.686  47.558  0.00  0.00    +0.000 A 
ATOM      4  O   UNL     1     -10.332  55.857  50.879  0.00  0.00    +0.000 OA
ATOM      5  N   UNL     1      -9.562  54.495  49.156  0.00  0.00    +0.000 N 
ATOM      6  C   UNL     1     -10.675  54.677  46.987  0.00  0.00    +0.000 A 
ATOM      7  C   UNL     1      -9.674  54.100  47.789  0.00  0.00    +0.000 A 
ATOM      8  C   UNL     1     -10.811  54.267  45.649  0.00  0.00    +0.000 A 
ATOM      9  C   UNL     1      -8.816  53.140  47.226  0.00  0.00    +0.000 A 
ATOM     10  C   UNL     1      -9.966  53.299  45.108  0.00  0.00    +0.000 A 
ATOM     11  C   UNL     1      -8.965  52.742  45.894  0.00  0.00    +0.000 A 
ENDROOT
BRANCH   1  17
ATOM     12  S   UNL     1     -13.577  59.309  49.491  0.00  0.00    +0.000 S 
ATOM     13  O   UNL     1     -14.712  59.421  48.594  0.00  0.00    +0.000 OA
ATOM     14  O   UNL     1     -12.780  60.475  49.810  0.00  0.00    +0.000 OA
ATOM     15  N   UNL     1     -12.588  58.177  48.888  0.00  0.00    +0.000 N 
ATOM     16  C   UNL     1     -14.223  58.730  51.017  0.00  0.00    +0.000 A 
ATOM     17  C   UNL     1     -12.454  57.022  49.470  0.00  0.00    +0.000 C 
ATOM     18  C   UNL     1     -13.911  57.438  51.402  0.00  0.00    +0.000 A 
ATOM     19  C   UNL     1     -15.015  59.567  51.808  0.00  0.00    +0.000 A 
ATOM     20  N   UNL     1     -13.132  56.606  50.598  0.00  0.00    +0.000 N 
ATOM     21  C   UNL     1     -14.472  56.944  52.584  0.00  0.00    +0.000 A 
ATOM     22  C   UNL     1     -15.534  59.077  53.002  0.00  0.00    +0.000 A 
ATOM     23  C   UNL     1     -15.273  57.761  53.386  0.00  0.00    +0.000 A 
ATOM     24  H   UNL     1     -12.079  58.366  48.067  0.00  0.00    +0.000 HD
ATOM     25  H   UNL     1     -13.062  55.658  50.853  0.00  0.00    +0.000 HD
ENDBRANCH   1  17
BRANCH   3  26
ATOM     26  O   UNL     1     -12.541  56.171  46.689  0.00  0.00    +0.000 OA
ATOM     27  H   UNL     1     -12.930  57.009  46.841  0.00  0.00    +0.000 HD
ENDBRANCH   3  26
BRANCH   5  28
ATOM     28  N   UNL     1      -8.519  53.897  49.948  0.00  0.00    +0.000 N 
ATOM     29  H   UNL     1      -8.606  53.007  50.361  0.00  0.00    +0.000 HD
BRANCH  28  30
ATOM     30  C   UNL     1      -7.307  54.728  50.090  0.00  0.00    +0.000 C 
BRANCH  30  31
ATOM     31  C   UNL     1      -6.979  55.013  51.531  0.00  0.00    +0.000 A 
ATOM     32  S   UNL     1      -6.249  53.797  52.509  0.00  0.00    +0.000 S 
ATOM     33  N   UNL     1      -7.304  56.126  52.164  0.00  0.00    +0.000 NA
ATOM     34  C   UNL     1      -6.395  54.820  53.873  0.00  0.00    +0.000 A 
ATOM     35  C   UNL     1      -6.973  56.014  53.500  0.00  0.00    +0.000 A 
ENDBRANCH  30  31
ENDBRANCH  28  30
ENDBRANCH   5  28
TORSDOF 5
ENDMDL
MODEL 2
REMARK VINA RESULT:      -8.3      3.285      4.913
REMARK  Name = 
REMARK  5 active torsions:
REMARK  status: ('A' for Active; 'I' for Inactive)
REMARK    1  A    between atoms: C_6  and  C_10
REMARK    2  A    between atoms: C_14  and  O_18
REMARK    3  A    between atoms: N_17  and  N_20
REMARK    4  A    between atoms: N_20  and  C_23
REMARK    5  A    between atoms: C_23  and  C_26
REMARK                            x       y       z     vdW  Elec       q    Type
REMARK                         _______ _______ _______ _____ _____    ______ ____
ROOT
ATOM      1  C   UNL     1     -10.115  54.541  52.210  0.00  0.00    +0.000 A 
ATOM      2  C   UNL     1      -8.743  55.095  52.008  0.00  0.00    +0.000 A 
ATOM      3  C   UNL     1     -10.298  53.446  52.967  0.00  0.00    +0.000 A 
ATOM      4  O   UNL     1      -8.632  56.100  51.296  0.00  0.00    +0.000 OA
ATOM      5  N   UNL     1      -7.675  54.479  52.666  0.00  0.00    +0.000 N 
ATOM      6  C   UNL     1      -9.160  52.793  53.630  0.00  0.00    +0.000 A 
ATOM      7  C   UNL     1      -7.863  53.312  53.465  0.00  0.00    +0.000 A 
ATOM      8  C   UNL     1      -9.355  51.663  54.444  0.00  0.00    +0.000 A 
ATOM      9  C   UNL     1      -6.786  52.672  54.102  0.00  0.00    +0.000 A 
ATOM     10  C   UNL     1      -8.281  51.050  55.086  0.00  0.00    +0.000 A 
ATOM     11  C   UNL     1      -6.996  51.551  54.910  0.00  0.00    +0.000 A 
ENDROOT
BRANCH   1  17
ATOM     12  S   UNL     1     -12.557  56.083  49.545  0.00  0.00    +0.000 S 
ATOM     13  O   UNL     1     -13.456  55.095  48.979  0.00  0.00    +0.000 OA
ATOM     14  O   UNL     1     -11.945  57.085  48.697  0.00  0.00    +0.000 OA
ATOM     15  N   UNL     1     -11.373  55.284  50.308  0.00  0.00    +0.000 N 
ATOM     16  C   UNL     1     -13.496  56.963  50.738  0.00  0.00    +0.000 A 
ATOM     17  C   UNL     1     -11.292  55.280  51.606  0.00  0.00    +0.000 C 
ATOM     18  C   UNL     1     -13.187  56.771  52.074  0.00  0.00    +0.000 A 
ATOM     19  C   UNL     1     -14.510  57.833  50.331  0.00  0.00    +0.000 A 
ATOM     20  N   UNL     1     -12.182  55.889  52.469  0.00  0.00    +0.000 N 
ATOM     21  C   UNL     1     -13.969  57.417  53.035  0.00  0.00    +0.000 A 
ATOM     22  C   UNL     1     -15.257  58.501  51.297  0.00  0.00    +0.000 A 
ATOM     23  C   UNL     1     -14.994  58.285  52.650  0.00  0.00    +0.000 A 
ATOM     24  H   UNL     1     -10.702  54.793  49.782  0.00  0.00    +0.000 HD
ATOM     25  H   UNL     1     -12.102  55.686  53.429  0.00  0.00    +0.000 HD
ENDBRANCH   1  17
BRANCH   3  26
ATOM     26  O   UNL     1     -11.531  52.868  53.215  0.00  0.00    +0.000 OA
ATOM     27  H   UNL     1     -11.821  52.142  52.698  0.00  0.00    +0.000 HD
ENDBRANCH   3  26
BRANCH   5  28
ATOM     28  N   UNL     1      -6.334  54.979  52.505  0.00  0.00    +0.000 N 
ATOM     29  H   UNL     1      -5.854  55.458  53.219  0.00  0.00    +0.000 HD
BRANCH  28  30
ATOM     30  C   UNL     1      -5.738  54.712  51.181  0.00  0.00    +0.000 C 
BRANCH  30  31
ATOM     31  C   UNL     1      -4.904  53.459  51.176  0.00  0.00    +0.000 A 
ATOM     32  S   UNL     1      -5.516  52.016  50.461  0.00  0.00    +0.000 S 
ATOM     33  N   UNL     1      -3.737  53.338  51.781  0.00  0.00    +0.000 NA
ATOM     34  C   UNL     1      -4.136  51.168  51.015  0.00  0.00    +0.000 A 
ATOM     35  C   UNL     1      -3.300  52.031  51.691  0.00  0.00    +0.000 A 
ENDBRANCH  30  31
ENDBRANCH  28  30
ENDBRANCH   5  28
TORSDOF 5
ENDMDL
MODEL 3
REMARK VINA RESULT:      -8.2      2.498      3.278
REMARK  Name = 
REMARK  5 active torsions:
REMARK  status: ('A' for Active; 'I' for Inactive)
REMARK    1  A    between atoms: C_6  and  C_10
REMARK    2  A    between atoms: C_14  and  O_18
REMARK    3  A    between atoms: N_17  and  N_20
REMARK    4  A    between atoms: N_20  and  C_23
REMARK    5  A    between atoms: C_23  and  C_26
REMARK                            x       y       z     vdW  Elec       q    Type
REMARK                         _______ _______ _______ _____ _____    ______ ____
ROOT
ATOM      1  C   UNL     1     -11.150  54.594  50.819  0.00  0.00    +0.000 A 
ATOM      2  C   UNL     1      -9.755  54.974  50.449  0.00  0.00    +0.000 A 
ATOM      3  C   UNL     1     -11.416  53.359  51.278  0.00  0.00    +0.000 A 
ATOM      4  O   UNL     1      -9.569  56.121  50.025  0.00  0.00    +0.000 OA
ATOM      5  N   UNL     1      -8.737  54.036  50.642  0.00  0.00    +0.000 N 
ATOM      6  C   UNL     1     -10.337  52.374  51.450  0.00  0.00    +0.000 A 
ATOM      7  C   UNL     1      -9.014  52.721  51.123  0.00  0.00    +0.000 A 
ATOM      8  C   UNL     1     -10.611  51.091  51.955  0.00  0.00    +0.000 A 
ATOM      9  C   UNL     1      -7.997  51.766  51.289  0.00  0.00    +0.000 A 
ATOM     10  C   UNL     1      -9.590  50.160  52.134  0.00  0.00    +0.000 A 
ATOM     11  C   UNL     1      -8.285  50.495  51.794  0.00  0.00    +0.000 A 
ENDROOT
BRANCH   1  17
ATOM     12  S   UNL     1     -13.608  57.279  49.340  0.00  0.00    +0.000 S 
ATOM     13  O   UNL     1     -14.755  56.680  48.684  0.00  0.00    +0.000 OA
ATOM     14  O   UNL     1     -12.944  58.423  48.750  0.00  0.00    +0.000 OA
ATOM     15  N   UNL     1     -12.503  56.113  49.551  0.00  0.00    +0.000 N 
ATOM     16  C   UNL     1     -14.173  57.805  50.916  0.00  0.00    +0.000 A 
ATOM     17  C   UNL     1     -12.237  55.647  50.735  0.00  0.00    +0.000 C 
ATOM     18  C   UNL     1     -13.717  57.120  52.028  0.00  0.00    +0.000 A 
ATOM     19  C   UNL     1     -15.048  58.890  51.023  0.00  0.00    +0.000 A 
ATOM     20  N   UNL     1     -12.855  56.029  51.909  0.00  0.00    +0.000 N 
ATOM     21  C   UNL     1     -14.209  57.488  53.283  0.00  0.00    +0.000 A 
ATOM     22  C   UNL     1     -15.501  59.272  52.281  0.00  0.00    +0.000 A 
ATOM     23  C   UNL     1     -15.090  58.565  53.412  0.00  0.00    +0.000 A 
ATOM     24  H   UNL     1     -12.025  55.752  48.771  0.00  0.00    +0.000 HD
ATOM     25  H   UNL     1     -12.677  55.496  52.717  0.00  0.00    +0.000 HD
ENDBRANCH   1  17
BRANCH   3  26
ATOM     26  O   UNL     1     -12.675  52.921  51.652  0.00  0.00    +0.000 OA
ATOM     27  H   UNL     1     -12.765  52.164  52.196  0.00  0.00    +0.000 HD
ENDBRANCH   3  26
BRANCH   5  28
ATOM     28  N   UNL     1      -7.375  54.358  50.303  0.00  0.00    +0.000 N 
ATOM     29  H   UNL     1      -6.890  53.920  49.567  0.00  0.00    +0.000 HD
BRANCH  28  30
ATOM     30  C   UNL     1      -6.766  55.400  51.153  0.00  0.00    +0.000 C 
BRANCH  30  31
ATOM     31  C   UNL     1      -6.402  54.880  52.518  0.00  0.00    +0.000 A 
ATOM     32  S   UNL     1      -7.347  55.319  53.890  0.00  0.00    +0.000 S 
ATOM     33  N   UNL     1      -5.322  54.167  52.780  0.00  0.00    +0.000 NA
ATOM     34  C   UNL     1      -6.225  54.517  54.905  0.00  0.00    +0.000 A 
ATOM     35  C   UNL     1      -5.221  53.962  54.142  0.00  0.00    +0.000 A 
ENDBRANCH  30  31
ENDBRANCH  28  30
ENDBRANCH   5  28
TORSDOF 5
ENDMDL
MODEL 4
REMARK VINA RESULT:      -8.2      2.619      3.402
REMARK  Name = 
REMARK  5 active torsions:
REMARK  status: ('A' for Active; 'I' for Inactive)
REMARK    1  A    between atoms: C_6  and  C_10
REMARK    2  A    between atoms: C_14  and  O_18
REMARK    3  A    between atoms: N_17  and  N_20
REMARK    4  A    between atoms: N_20  and  C_23
REMARK    5  A    between atoms: C_23  and  C_26
REMARK                            x       y       z     vdW  Elec       q    Type
REMARK                         _______ _______ _______ _____ _____    ______ ____
ROOT
ATOM      1  C   UNL     1     -10.313  54.885  47.698  0.00  0.00    +0.000 A 
ATOM      2  C   UNL     1      -8.825  55.003  47.675  0.00  0.00    +0.000 A 
ATOM      3  C   UNL     1     -10.964  54.332  46.660  0.00  0.00    +0.000 A 
ATOM      4  O   UNL     1      -8.278  55.527  48.653  0.00  0.00    +0.000 OA
ATOM      5  N   UNL     1      -8.133  54.479  46.579  0.00  0.00    +0.000 N 
ATOM      6  C   UNL     1     -10.223  53.810  45.502  0.00  0.00    +0.000 A 
ATOM      7  C   UNL     1      -8.820  53.897  45.472  0.00  0.00    +0.000 A 
ATOM      8  C   UNL     1     -10.902  53.207  44.428  0.00  0.00    +0.000 A 
ATOM      9  C   UNL     1      -8.128  53.397  44.355  0.00  0.00    +0.000 A 
ATOM     10  C   UNL     1     -10.203  52.697  43.336  0.00  0.00    +0.000 A 
ATOM     11  C   UNL     1      -8.817  52.799  43.296  0.00  0.00    +0.000 A 
ENDROOT
BRANCH   1  17
ATOM     12  S   UNL     1     -11.694  54.946  51.376  0.00  0.00    +0.000 S 
ATOM     13  O   UNL     1     -10.714  55.431  52.329  0.00  0.00    +0.000 OA
ATOM     14  O   UNL     1     -12.537  53.815  51.706  0.00  0.00    +0.000 OA
ATOM     15  N   UNL     1     -10.909  54.599  50.002  0.00  0.00    +0.000 N 
ATOM     16  C   UNL     1     -12.781  56.290  51.073  0.00  0.00    +0.000 A 
ATOM     17  C   UNL     1     -11.058  55.332  48.939  0.00  0.00    +0.000 C 
ATOM     18  C   UNL     1     -12.732  56.894  49.829  0.00  0.00    +0.000 A 
ATOM     19  C   UNL     1     -13.668  56.713  52.067  0.00  0.00    +0.000 A 
ATOM     20  N   UNL     1     -11.832  56.472  48.850  0.00  0.00    +0.000 N 
ATOM     21  C   UNL     1     -13.547  58.005  49.598  0.00  0.00    +0.000 A 
ATOM     22  C   UNL     1     -14.503  57.796  51.811  0.00  0.00    +0.000 A 
ATOM     23  C   UNL     1     -14.436  58.451  50.580  0.00  0.00    +0.000 A 
ATOM     24  H   UNL     1     -10.309  53.820  49.971  0.00  0.00    +0.000 HD
ATOM     25  H   UNL     1     -11.744  57.026  48.041  0.00  0.00    +0.000 HD
ENDBRANCH   1  17
BRANCH   3  26
ATOM     26  O   UNL     1     -12.338  54.174  46.597  0.00  0.00    +0.000 OA
ATOM     27  H   UNL     1     -12.902  54.866  46.878  0.00  0.00    +0.000 HD
ENDBRANCH   3  26
BRANCH   5  28
ATOM     28  N   UNL     1      -6.698  54.566  46.514  0.00  0.00    +0.000 N 
ATOM     29  H   UNL     1      -6.226  55.352  46.154  0.00  0.00    +0.000 HD
BRANCH  28  30
ATOM     30  C   UNL     1      -5.991  53.378  47.032  0.00  0.00    +0.000 C 
BRANCH  30  31
ATOM     31  C   UNL     1      -5.652  53.510  48.493  0.00  0.00    +0.000 A 
ATOM     32  S   UNL     1      -6.412  52.488  49.653  0.00  0.00    +0.000 S 
ATOM     33  N   UNL     1      -4.865  54.444  48.993  0.00  0.00    +0.000 NA
ATOM     34  C   UNL     1      -5.652  53.366  50.910  0.00  0.00    +0.000 A 
ATOM     35  C   UNL     1      -4.867  54.363  50.372  0.00  0.00    +0.000 A 
ENDBRANCH  30  31
ENDBRANCH  28  30
ENDBRANCH   5  28
TORSDOF 5
ENDMDL
MODEL 5
REMARK VINA RESULT:      -8.1      3.054      4.271
REMARK  Name = 
REMARK  5 active torsions:
REMARK  status: ('A' for Active; 'I' for Inactive)
REMARK    1  A    between atoms: C_6  and  C_10
REMARK    2  A    between atoms: C_14  and  O_18
REMARK    3  A    between atoms: N_17  and  N_20
REMARK    4  A    between atoms: N_20  and  C_23
REMARK    5  A    between atoms: C_23  and  C_26
REMARK                            x       y       z     vdW  Elec       q    Type
REMARK                         _______ _______ _______ _____ _____    ______ ____
ROOT
ATOM      1  C   UNL     1     -12.508  54.278  49.587  0.00  0.00    +0.000 A 
ATOM      2  C   UNL     1     -11.987  54.244  48.188  0.00  0.00    +0.000 A 
ATOM      3  C   UNL     1     -12.213  53.285  50.443  0.00  0.00    +0.000 A 
ATOM      4  O   UNL     1     -12.295  55.179  47.440  0.00  0.00    +0.000 OA
ATOM      5  N   UNL     1     -11.150  53.188  47.817  0.00  0.00    +0.000 N 
ATOM      6  C   UNL     1     -11.353  52.167  50.028  0.00  0.00    +0.000 A 
ATOM      7  C   UNL     1     -10.839  52.127  48.720  0.00  0.00    +0.000 A 
ATOM      8  C   UNL     1     -11.023  51.142  50.932  0.00  0.00    +0.000 A 
ATOM      9  C   UNL     1     -10.022  51.049  48.339  0.00  0.00    +0.000 A 
ATOM     10  C   UNL     1     -10.195  50.088  50.548  0.00  0.00    +0.000 A 
ATOM     11  C   UNL     1      -9.701  50.039  49.250  0.00  0.00    +0.000 A 
ENDROOT
BRANCH   1  17
ATOM     12  S   UNL     1     -15.370  56.448  51.179  0.00  0.00    +0.000 S 
ATOM     13  O   UNL     1     -15.257  56.543  52.622  0.00  0.00    +0.000 OA
ATOM     14  O   UNL     1     -16.665  56.261  50.558  0.00  0.00    +0.000 OA
ATOM     15  N   UNL     1     -14.404  55.243  50.692  0.00  0.00    +0.000 N 
ATOM     16  C   UNL     1     -14.742  57.959  50.544  0.00  0.00    +0.000 A 
ATOM     17  C   UNL     1     -13.309  55.484  50.034  0.00  0.00    +0.000 C 
ATOM     18  C   UNL     1     -13.535  57.924  49.868  0.00  0.00    +0.000 A 
ATOM     19  C   UNL     1     -15.458  59.146  50.718  0.00  0.00    +0.000 A 
ATOM     20  N   UNL     1     -12.821  56.735  49.712  0.00  0.00    +0.000 N 
ATOM     21  C   UNL     1     -12.993  59.129  49.413  0.00  0.00    +0.000 A 
ATOM     22  C   UNL     1     -14.927  60.335  50.227  0.00  0.00    +0.000 A 
ATOM     23  C   UNL     1     -13.689  60.330  49.584  0.00  0.00    +0.000 A 
ATOM     24  H   UNL     1     -14.649  54.313  50.897  0.00  0.00    +0.000 HD
ATOM     25  H   UNL     1     -11.908  56.794  49.349  0.00  0.00    +0.000 HD
ENDBRANCH   1  17
BRANCH   3  26
ATOM     26  O   UNL     1     -12.645  53.236  51.757  0.00  0.00    +0.000 OA
ATOM     27  H   UNL     1     -12.021  53.208  52.455  0.00  0.00    +0.000 HD
ENDBRANCH   3  26
BRANCH   5  28
ATOM     28  N   UNL     1     -10.619  53.113  46.480  0.00  0.00    +0.000 N 
ATOM     29  H   UNL     1     -10.850  52.390  45.853  0.00  0.00    +0.000 HD
BRANCH  28  30
ATOM     30  C   UNL     1      -9.699  54.213  46.127  0.00  0.00    +0.000 C 
BRANCH  30  31
ATOM     31  C   UNL     1      -8.357  54.067  46.792  0.00  0.00    +0.000 A 
ATOM     32  S   UNL     1      -7.976  55.004  48.186  0.00  0.00    +0.000 S 
ATOM     33  N   UNL     1      -7.371  53.324  46.324  0.00  0.00    +0.000 NA
ATOM     34  C   UNL     1      -6.379  54.390  48.150  0.00  0.00    +0.000 A 
ATOM     35  C   UNL     1      -6.242  53.511  47.098  0.00  0.00    +0.000 A 
ENDBRANCH  30  31
ENDBRANCH  28  30
ENDBRANCH   5  28
TORSDOF 5
ENDMDL
MODEL 6
REMARK VINA RESULT:      -8.1      3.271      4.029
REMARK  Name = 
REMARK  5 active torsions:
REMARK  status: ('A' for Active; 'I' for Inactive)
REMARK    1  A    between atoms: C_6  and  C_10
REMARK    2  A    between atoms: C_14  and  O_18
REMARK    3  A    between atoms: N_17  and  N_20
REMARK    4  A    between atoms: N_20  and  C_23
REMARK    5  A    between atoms: C_23  and  C_26
REMARK                            x       y       z     vdW  Elec       q    Type
REMARK                         _______ _______ _______ _____ _____    ______ ____
ROOT
ATOM      1  C   UNL     1     -11.315  53.954  51.589  0.00  0.00    +0.000 A 
ATOM      2  C   UNL     1     -10.329  54.143  52.694  0.00  0.00    +0.000 A 
ATOM      3  C   UNL     1     -11.473  52.745  51.022  0.00  0.00    +0.000 A 
ATOM      4  O   UNL     1     -10.219  55.278  53.173  0.00  0.00    +0.000 OA
ATOM      5  N   UNL     1      -9.621  53.028  53.151  0.00  0.00    +0.000 N 
ATOM      6  C   UNL     1     -10.701  51.587  51.497  0.00  0.00    +0.000 A 
ATOM      7  C   UNL     1      -9.780  51.743  52.549  0.00  0.00    +0.000 A 
ATOM      8  C   UNL     1     -10.886  50.317  50.923  0.00  0.00    +0.000 A 
ATOM      9  C   UNL     1      -9.048  50.627  52.987  0.00  0.00    +0.000 A 
ATOM     10  C   UNL     1     -10.168  49.214  51.380  0.00  0.00    +0.000 A 
ATOM     11  C   UNL     1      -9.244  49.371  52.406  0.00  0.00    +0.000 A 
ENDROOT
BRANCH   1  17
ATOM     12  S   UNL     1     -12.925  56.783  49.387  0.00  0.00    +0.000 S 
ATOM     13  O   UNL     1     -13.968  56.280  48.514  0.00  0.00    +0.000 OA
ATOM     14  O   UNL     1     -11.975  57.763  48.903  0.00  0.00    +0.000 OA
ATOM     15  N   UNL     1     -12.090  55.507  49.935  0.00  0.00    +0.000 N 
ATOM     16  C   UNL     1     -13.749  57.534  50.742  0.00  0.00    +0.000 A 
ATOM     17  C   UNL     1     -12.178  55.129  51.176  0.00  0.00    +0.000 C 
ATOM     18  C   UNL     1     -13.671  56.908  51.974  0.00  0.00    +0.000 A 
ATOM     19  C   UNL     1     -14.448  58.731  50.564  0.00  0.00    +0.000 A 
ATOM     20  N   UNL     1     -12.984  55.705  52.138  0.00  0.00    +0.000 N 
ATOM     21  C   UNL     1     -14.377  57.462  53.046  0.00  0.00    +0.000 A 
ATOM     22  C   UNL     1     -15.113  59.294  51.648  0.00  0.00    +0.000 A 
ATOM     23  C   UNL     1     -15.088  58.654  52.888  0.00  0.00    +0.000 A 
ATOM     24  H   UNL     1     -11.507  55.009  49.319  0.00  0.00    +0.000 HD
ATOM     25  H   UNL     1     -13.080  55.236  52.998  0.00  0.00    +0.000 HD
ENDBRANCH   1  17
BRANCH   3  26
ATOM     26  O   UNL     1     -12.367  52.475  50.000  0.00  0.00    +0.000 OA
ATOM     27  H   UNL     1     -12.375  51.630  49.596  0.00  0.00    +0.000 HD
ENDBRANCH   3  26
BRANCH   5  28
ATOM     28  N   UNL     1      -8.662  53.160  54.216  0.00  0.00    +0.000 N 
ATOM     29  H   UNL     1      -8.808  52.787  55.116  0.00  0.00    +0.000 HD
BRANCH  28  30
ATOM     30  C   UNL     1      -7.440  53.901  53.848  0.00  0.00    +0.000 C 
BRANCH  30  31
ATOM     31  C   UNL     1      -6.342  52.987  53.373  0.00  0.00    +0.000 A 
ATOM     32  S   UNL     1      -5.968  52.883  51.695  0.00  0.00    +0.000 S 
ATOM     33  N   UNL     1      -5.679  52.151  54.152  0.00  0.00    +0.000 NA
ATOM     34  C   UNL     1      -4.860  51.623  52.030  0.00  0.00    +0.000 A 
ATOM     35  C   UNL     1      -4.836  51.372  53.385  0.00  0.00    +0.000 A 
ENDBRANCH  30  31
ENDBRANCH  28  30
ENDBRANCH   5  28
TORSDOF 5
ENDMDL
MODEL 7
REMARK VINA RESULT:      -8.1      3.455      5.423
REMARK  Name = 
REMARK  5 active torsions:
REMARK  status: ('A' for Active; 'I' for Inactive)
REMARK    1  A    between atoms: C_6  and  C_10
REMARK    2  A    between atoms: C_14  and  O_18
REMARK    3  A    between atoms: N_17  and  N_20
REMARK    4  A    between atoms: N_20  and  C_23
REMARK    5  A    between atoms: C_23  and  C_26
REMARK                            x       y       z     vdW  Elec       q    Type
REMARK                         _______ _______ _______ _____ _____    ______ ____
ROOT
ATOM      1  C   UNL     1     -12.280  54.255  50.110  0.00  0.00    +0.000 A 
ATOM      2  C   UNL     1     -11.980  53.920  48.686  0.00  0.00    +0.000 A 
ATOM      3  C   UNL     1     -11.749  53.522  51.104  0.00  0.00    +0.000 A 
ATOM      4  O   UNL     1     -12.502  54.623  47.812  0.00  0.00    +0.000 OA
ATOM      5  N   UNL     1     -11.100  52.868  48.422  0.00  0.00    +0.000 N 
ATOM      6  C   UNL     1     -10.846  52.400  50.808  0.00  0.00    +0.000 A 
ATOM      7  C   UNL     1     -10.538  52.082  49.473  0.00  0.00    +0.000 A 
ATOM      8  C   UNL     1     -10.269  51.650  51.849  0.00  0.00    +0.000 A 
ATOM      9  C   UNL     1      -9.677  51.004  49.209  0.00  0.00    +0.000 A 
ATOM     10  C   UNL     1      -9.400  50.596  51.574  0.00  0.00    +0.000 A 
ATOM     11  C   UNL     1      -9.110  50.269  50.255  0.00  0.00    +0.000 A 
ENDROOT
BRANCH   1  17
ATOM     12  S   UNL     1     -15.275  56.480  51.342  0.00  0.00    +0.000 S 
ATOM     13  O   UNL     1     -15.252  56.698  52.776  0.00  0.00    +0.000 OA
ATOM     14  O   UNL     1     -16.526  56.210  50.664  0.00  0.00    +0.000 OA
ATOM     15  N   UNL     1     -14.258  55.263  51.017  0.00  0.00    +0.000 N 
ATOM     16  C   UNL     1     -14.639  57.948  50.620  0.00  0.00    +0.000 A 
ATOM     17  C   UNL     1     -13.129  55.475  50.406  0.00  0.00    +0.000 C 
ATOM     18  C   UNL     1     -13.393  57.886  50.021  0.00  0.00    +0.000 A 
ATOM     19  C   UNL     1     -15.387  59.127  50.650  0.00  0.00    +0.000 A 
ATOM     20  N   UNL     1     -12.648  56.706  50.009  0.00  0.00    +0.000 N 
ATOM     21  C   UNL     1     -12.848  59.062  49.499  0.00  0.00    +0.000 A 
ATOM     22  C   UNL     1     -14.851  60.283  50.092  0.00  0.00    +0.000 A 
ATOM     23  C   UNL     1     -13.576  60.255  49.526  0.00  0.00    +0.000 A 
ATOM     24  H   UNL     1     -14.497  54.347  51.285  0.00  0.00    +0.000 HD
ATOM     25  H   UNL     1     -11.716  56.757  49.696  0.00  0.00    +0.000 HD
ENDBRANCH   1  17
BRANCH   3  26
ATOM     26  O   UNL     1     -11.965  53.763  52.450  0.00  0.00    +0.000 OA
ATOM     27  H   UNL     1     -11.251  53.715  53.054  0.00  0.00    +0.000 HD
ENDBRANCH   3  26
BRANCH   5  28
ATOM     28  N   UNL     1     -10.777  52.509  47.066  0.00  0.00    +0.000 N 
ATOM     29  H   UNL     1     -11.263  51.813  46.567  0.00  0.00    +0.000 HD
BRANCH  28  30
ATOM     30  C   UNL     1      -9.657  53.274  46.483  0.00  0.00    +0.000 C 
BRANCH  30  31
ATOM     31  C   UNL     1      -9.540  53.068  44.997  0.00  0.00    +0.000 A 
ATOM     32  S   UNL     1     -10.688  52.088  44.166  0.00  0.00    +0.000 S 
ATOM     33  N   UNL     1      -8.538  53.511  44.260  0.00  0.00    +0.000 NA
ATOM     34  C   UNL     1      -9.773  52.252  42.729  0.00  0.00    +0.000 A 
ATOM     35  C   UNL     1      -8.670  53.043  42.967  0.00  0.00    +0.000 A 
ENDBRANCH  30  31
ENDBRANCH  28  30
ENDBRANCH   5  28
TORSDOF 5
ENDMDL
MODEL 8
REMARK VINA RESULT:      -8.0      2.949      6.974
REMARK  Name = 
REMARK  5 active torsions:
REMARK  status: ('A' for Active; 'I' for Inactive)
REMARK    1  A    between atoms: C_6  and  C_10
REMARK    2  A    between atoms: C_14  and  O_18
REMARK    3  A    between atoms: N_17  and  N_20
REMARK    4  A    between atoms: N_20  and  C_23
REMARK    5  A    between atoms: C_23  and  C_26
REMARK                            x       y       z     vdW  Elec       q    Type
REMARK                         _______ _______ _______ _____ _____    ______ ____
ROOT
ATOM      1  C   UNL     1     -11.300  54.664  48.337  0.00  0.00    +0.000 A 
ATOM      2  C   UNL     1     -11.117  54.141  49.724  0.00  0.00    +0.000 A 
ATOM      3  C   UNL     1     -12.154  55.674  48.102  0.00  0.00    +0.000 A 
ATOM      4  O   UNL     1     -10.324  53.205  49.882  0.00  0.00    +0.000 OA
ATOM      5  N   UNL     1     -11.814  54.761  50.765  0.00  0.00    +0.000 N 
ATOM      6  C   UNL     1     -12.900  56.298  49.205  0.00  0.00    +0.000 A 
ATOM      7  C   UNL     1     -12.727  55.830  50.520  0.00  0.00    +0.000 A 
ATOM      8  C   UNL     1     -13.774  57.373  48.963  0.00  0.00    +0.000 A 
ATOM      9  C   UNL     1     -13.451  56.435  51.561  0.00  0.00    +0.000 A 
ATOM     10  C   UNL     1     -14.471  57.977  50.007  0.00  0.00    +0.000 A 
ATOM     11  C   UNL     1     -14.315  57.504  51.304  0.00  0.00    +0.000 A 
ENDROOT
BRANCH   1  17
ATOM     12  S   UNL     1      -8.213  53.945  46.014  0.00  0.00    +0.000 S 
ATOM     13  O   UNL     1      -7.270  53.022  46.615  0.00  0.00    +0.000 OA
ATOM     14  O   UNL     1      -7.739  55.107  45.291  0.00  0.00    +0.000 OA
ATOM     15  N   UNL     1      -9.207  54.458  47.186  0.00  0.00    +0.000 N 
ATOM     16  C   UNL     1      -9.146  53.005  44.863  0.00  0.00    +0.000 A 
ATOM     17  C   UNL     1     -10.451  54.083  47.225  0.00  0.00    +0.000 C 
ATOM     18  C   UNL     1     -10.474  52.754  45.159  0.00  0.00    +0.000 A 
ATOM     19  C   UNL     1      -8.550  52.542  43.687  0.00  0.00    +0.000 A 
ATOM     20  N   UNL     1     -11.055  53.207  46.344  0.00  0.00    +0.000 N 
ATOM     21  C   UNL     1     -11.210  51.952  44.282  0.00  0.00    +0.000 A 
ATOM     22  C   UNL     1      -9.304  51.778  42.802  0.00  0.00    +0.000 A 
ATOM     23  C   UNL     1     -10.631  51.472  43.104  0.00  0.00    +0.000 A 
ATOM     24  H   UNL     1      -8.864  55.065  47.881  0.00  0.00    +0.000 HD
ATOM     25  H   UNL     1     -11.957  52.881  46.566  0.00  0.00    +0.000 HD
ENDBRANCH   1  17
BRANCH   3  26
ATOM     26  O   UNL     1     -12.382  56.227  46.854  0.00  0.00    +0.000 OA
ATOM     27  H   UNL     1     -12.422  55.676  46.098  0.00  0.00    +0.000 HD
ENDBRANCH   3  26
BRANCH   5  28
ATOM     28  N   UNL     1     -11.668  54.295  52.119  0.00  0.00    +0.000 N 
ATOM     29  H   UNL     1     -12.339  53.729  52.565  0.00  0.00    +0.000 HD
BRANCH  28  30
ATOM     30  C   UNL     1     -10.426  54.736  52.786  0.00  0.00    +0.000 C 
BRANCH  30  31
ATOM     31  C   UNL     1      -9.682  53.591  53.417  0.00  0.00    +0.000 A 
ATOM     32  S   UNL     1      -7.961  53.611  53.488  0.00  0.00    +0.000 S 
ATOM     33  N   UNL     1     -10.252  52.482  53.852  0.00  0.00    +0.000 NA
ATOM     34  C   UNL     1      -7.978  52.023  54.125  0.00  0.00    +0.000 A 
ATOM     35  C   UNL     1      -9.279  51.587  54.253  0.00  0.00    +0.000 A 
ENDBRANCH  30  31
ENDBRANCH  28  30
ENDBRANCH   5  28
TORSDOF 5
ENDMDL
MODEL 9
REMARK VINA RESULT:      -8.0      3.064      6.964
REMARK  Name = 
REMARK  5 active torsions:
REMARK  status: ('A' for Active; 'I' for Inactive)
REMARK    1  A    between atoms: C_6  and  C_10
REMARK    2  A    between atoms: C_14  and  O_18
REMARK    3  A    between atoms: N_17  and  N_20
REMARK    4  A    between atoms: N_20  and  C_23
REMARK    5  A    between atoms: C_23  and  C_26
REMARK                            x       y       z     vdW  Elec       q    Type
REMARK                         _______ _______ _______ _____ _____    ______ ____
ROOT
ATOM      1  C   UNL     1     -10.212  55.260  50.668  0.00  0.00    +0.000 A 
ATOM      2  C   UNL     1      -9.800  55.178  49.235  0.00  0.00    +0.000 A 
ATOM      3  C   UNL     1     -11.422  55.743  50.998  0.00  0.00    +0.000 A 
ATOM      4  O   UNL     1      -8.673  54.733  48.989  0.00  0.00    +0.000 OA
ATOM      5  N   UNL     1     -10.720  55.564  48.257  0.00  0.00    +0.000 N 
ATOM      6  C   UNL     1     -12.368  56.170  49.957  0.00  0.00    +0.000 A 
ATOM      7  C   UNL     1     -12.004  56.083  48.601  0.00  0.00    +0.000 A 
ATOM      8  C   UNL     1     -13.645  56.650  50.300  0.00  0.00    +0.000 A 
ATOM      9  C   UNL     1     -12.919  56.500  47.620  0.00  0.00    +0.000 A 
ATOM     10  C   UNL     1     -14.550  57.041  49.316  0.00  0.00    +0.000 A 
ATOM     11  C   UNL     1     -14.185  56.973  47.977  0.00  0.00    +0.000 A 
ENDROOT
BRANCH   1  17
ATOM     12  S   UNL     1      -7.015  54.816  52.909  0.00  0.00    +0.000 S 
ATOM     13  O   UNL     1      -6.945  55.794  53.977  0.00  0.00    +0.000 OA
ATOM     14  O   UNL     1      -5.823  54.456  52.168  0.00  0.00    +0.000 OA
ATOM     15  N   UNL     1      -8.126  55.329  51.848  0.00  0.00    +0.000 N 
ATOM     16  C   UNL     1      -7.592  53.332  53.648  0.00  0.00    +0.000 A 
ATOM     17  C   UNL     1      -9.270  54.723  51.726  0.00  0.00    +0.000 C 
ATOM     18  C   UNL     1      -8.871  52.907  53.332  0.00  0.00    +0.000 A 
ATOM     19  C   UNL     1      -6.768  52.614  54.518  0.00  0.00    +0.000 A 
ATOM     20  N   UNL     1      -9.690  53.641  52.474  0.00  0.00    +0.000 N 
ATOM     21  C   UNL     1      -9.365  51.763  53.963  0.00  0.00    +0.000 A 
ATOM     22  C   UNL     1      -7.257  51.454  55.111  0.00  0.00    +0.000 A 
ATOM     23  C   UNL     1      -8.561  51.033  54.843  0.00  0.00    +0.000 A 
ATOM     24  H   UNL     1      -7.933  56.113  51.286  0.00  0.00    +0.000 HD
ATOM     25  H   UNL     1     -10.633  53.368  52.396  0.00  0.00    +0.000 HD
ENDBRANCH   1  17
BRANCH   3  26
ATOM     26  O   UNL     1     -11.891  55.849  52.296  0.00  0.00    +0.000 OA
ATOM     27  H   UNL     1     -12.408  56.588  52.548  0.00  0.00    +0.000 HD
ENDBRANCH   3  26
BRANCH   5  28
ATOM     28  N   UNL     1     -10.370  55.499  46.861  0.00  0.00    +0.000 N 
ATOM     29  H   UNL     1      -9.844  56.198  46.409  0.00  0.00    +0.000 HD
BRANCH  28  30
ATOM     30  C   UNL     1     -10.866  54.296  46.163  0.00  0.00    +0.000 C 
BRANCH  30  31
ATOM     31  C   UNL     1      -9.785  53.269  45.963  0.00  0.00    +0.000 A 
ATOM     32  S   UNL     1      -8.822  53.294  44.535  0.00  0.00    +0.000 S 
ATOM     33  N   UNL     1      -9.566  52.250  46.774  0.00  0.00    +0.000 NA
ATOM     34  C   UNL     1      -8.075  51.834  45.025  0.00  0.00    +0.000 A 
ATOM     35  C   UNL     1      -8.592  51.431  46.237  0.00  0.00    +0.000 A 
ENDBRANCH  30  31
ENDBRANCH  28  30
ENDBRANCH   5  28
TORSDOF 5
ENDMDL
