MODEL 1
REMARK VINA RESULT:      -8.1      0.000      0.000
REMARK  Name = 
REMARK  7 active torsions:
REMARK  status: ('A' for Active; 'I' for Inactive)
REMARK    1  A    between atoms: C_6  and  C_10
REMARK    2  A    between atoms: C_14  and  O_18
REMARK    3  A    between atoms: N_17  and  N_20
REMARK    4  A    between atoms: N_20  and  C_23
REMARK    5  A    between atoms: C_23  and  C_26
REMARK    6  A    between atoms: C_26  and  C_28
REMARK    7  A    between atoms: C_28  and  C_29
REMARK                            x       y       z     vdW  Elec       q    Type
REMARK                         _______ _______ _______ _____ _____    ______ ____
ROOT
ATOM      1  C   UNL     1     -10.135  54.555  52.208  0.00  0.00    +0.000 A 
ATOM      2  C   UNL     1      -8.770  55.124  52.012  0.00  0.00    +0.000 A 
ATOM      3  C   UNL     1     -10.311  53.447  52.948  0.00  0.00    +0.000 A 
ATOM      4  O   UNL     1      -8.673  56.117  51.282  0.00  0.00    +0.000 OA
ATOM      5  N   UNL     1      -7.699  54.519  52.678  0.00  0.00    +0.000 N 
ATOM      6  C   UNL     1      -9.168  52.805  53.615  0.00  0.00    +0.000 A 
ATOM      7  C   UNL     1      -7.878  53.346  53.472  0.00  0.00    +0.000 A 
ATOM      8  C   UNL     1      -9.354  51.661  54.411  0.00  0.00    +0.000 A 
ATOM      9  C   UNL     1      -6.800  52.719  54.118  0.00  0.00    +0.000 A 
ATOM     10  C   UNL     1      -8.278  51.057  55.059  0.00  0.00    +0.000 A 
ATOM     11  C   UNL     1      -7.001  51.584  54.910  0.00  0.00    +0.000 A 
ENDROOT
BRANCH   1  17
ATOM     12  S   UNL     1     -12.573  56.070  49.529  0.00  0.00    +0.000 S 
ATOM     13  O   UNL     1     -13.477  55.079  48.977  0.00  0.00    +0.000 OA
ATOM     14  O   UNL     1     -11.961  57.062  48.662  0.00  0.00    +0.000 OA
ATOM     15  N   UNL     1     -11.390  55.275  50.299  0.00  0.00    +0.000 N 
ATOM     16  C   UNL     1     -13.503  56.977  50.706  0.00  0.00    +0.000 A 
ATOM     17  C   UNL     1     -11.316  55.287  51.597  0.00  0.00    +0.000 C 
ATOM     18  C   UNL     1     -13.202  56.787  52.048  0.00  0.00    +0.000 A 
ATOM     19  C   UNL     1     -14.508  57.850  50.291  0.00  0.00    +0.000 A 
ATOM     20  N   UNL     1     -12.207  55.900  52.452  0.00  0.00    +0.000 N 
ATOM     21  C   UNL     1     -13.982  57.453  53.000  0.00  0.00    +0.000 A 
ATOM     22  C   UNL     1     -15.254  58.534  51.248  0.00  0.00    +0.000 A 
ATOM     23  C   UNL     1     -14.998  58.328  52.603  0.00  0.00    +0.000 A 
ATOM     24  H   UNL     1     -10.720  54.778  49.777  0.00  0.00    +0.000 HD
ATOM     25  H   UNL     1     -12.134  55.698  53.413  0.00  0.00    +0.000 HD
ENDBRANCH   1  17
BRANCH   3  26
ATOM     26  O   UNL     1     -11.536  52.844  53.171  0.00  0.00    +0.000 OA
ATOM     27  H   UNL     1     -12.159  52.775  52.474  0.00  0.00    +0.000 HD
ENDBRANCH   3  26
BRANCH   5  28
ATOM     28  N   UNL     1      -6.353  55.004  52.488  0.00  0.00    +0.000 N 
ATOM     29  H   UNL     1      -5.876  55.537  53.163  0.00  0.00    +0.000 HD
BRANCH  28  30
ATOM     30  C   UNL     1      -5.757  54.632  51.197  0.00  0.00    +0.000 C 
BRANCH  30  31
ATOM     31  C   UNL     1      -4.464  53.834  51.379  0.00  0.00    +0.000 C 
BRANCH  31  32
ATOM     32  C   UNL     1      -3.719  54.321  52.628  0.00  0.00    +0.000 C 
ATOM     33  C   UNL     1      -3.300  53.176  53.531  0.00  0.00    +0.000 C 
ENDBRANCH  31  32
ENDBRANCH  30  31
ENDBRANCH  28  30
ENDBRANCH   5  28
TORSDOF 6
ENDMDL
MODEL 2
REMARK VINA RESULT:      -7.9      2.528      8.044
REMARK  Name = 
REMARK  7 active torsions:
REMARK  status: ('A' for Active; 'I' for Inactive)
REMARK    1  A    between atoms: C_6  and  C_10
REMARK    2  A    between atoms: C_14  and  O_18
REMARK    3  A    between atoms: N_17  and  N_20
REMARK    4  A    between atoms: N_20  and  C_23
REMARK    5  A    between atoms: C_23  and  C_26
REMARK    6  A    between atoms: C_26  and  C_28
REMARK    7  A    between atoms: C_28  and  C_29
REMARK                            x       y       z     vdW  Elec       q    Type
REMARK                         _______ _______ _______ _____ _____    ______ ____
ROOT
ATOM      1  C   UNL     1     -10.665  55.248  50.980  0.00  0.00    +0.000 A 
ATOM      2  C   UNL     1     -11.902  55.864  51.543  0.00  0.00    +0.000 A 
ATOM      3  C   UNL     1     -10.494  55.158  49.651  0.00  0.00    +0.000 A 
ATOM      4  O   UNL     1     -12.017  55.873  52.774  0.00  0.00    +0.000 OA
ATOM      5  N   UNL     1     -12.836  56.406  50.653  0.00  0.00    +0.000 N 
ATOM      6  C   UNL     1     -11.501  55.705  48.729  0.00  0.00    +0.000 A 
ATOM      7  C   UNL     1     -12.658  56.321  49.239  0.00  0.00    +0.000 A 
ATOM      8  C   UNL     1     -11.311  55.635  47.337  0.00  0.00    +0.000 A 
ATOM      9  C   UNL     1     -13.607  56.839  48.343  0.00  0.00    +0.000 A 
ATOM     10  C   UNL     1     -12.254  56.166  46.459  0.00  0.00    +0.000 A 
ATOM     11  C   UNL     1     -13.403  56.765  46.962  0.00  0.00    +0.000 A 
ENDROOT
BRANCH   1  17
ATOM     12  S   UNL     1      -7.253  55.044  52.912  0.00  0.00    +0.000 S 
ATOM     13  O   UNL     1      -7.165  56.013  53.988  0.00  0.00    +0.000 OA
ATOM     14  O   UNL     1      -6.103  54.793  52.061  0.00  0.00    +0.000 OA
ATOM     15  N   UNL     1      -8.494  55.478  51.966  0.00  0.00    +0.000 N 
ATOM     16  C   UNL     1      -7.630  53.508  53.668  0.00  0.00    +0.000 A 
ATOM     17  C   UNL     1      -9.591  54.780  51.945  0.00  0.00    +0.000 C 
ATOM     18  C   UNL     1      -8.903  52.990  53.471  0.00  0.00    +0.000 A 
ATOM     19  C   UNL     1      -6.674  52.847  54.438  0.00  0.00    +0.000 A 
ATOM     20  N   UNL     1      -9.855  53.667  52.714  0.00  0.00    +0.000 N 
ATOM     21  C   UNL     1      -9.238  51.799  54.125  0.00  0.00    +0.000 A 
ATOM     22  C   UNL     1      -7.009  51.643  55.054  0.00  0.00    +0.000 A 
ATOM     23  C   UNL     1      -8.294  51.124  54.907  0.00  0.00    +0.000 A 
ATOM     24  H   UNL     1      -8.416  56.280  51.401  0.00  0.00    +0.000 HD
ATOM     25  H   UNL     1     -10.779  53.327  52.727  0.00  0.00    +0.000 HD
ENDBRANCH   1  17
BRANCH   3  26
ATOM     26  O   UNL     1      -9.387  54.592  49.043  0.00  0.00    +0.000 OA
ATOM     27  H   UNL     1      -9.414  54.373  48.132  0.00  0.00    +0.000 HD
ENDBRANCH   3  26
BRANCH   5  28
ATOM     28  N   UNL     1     -14.069  56.974  51.144  0.00  0.00    +0.000 N 
ATOM     29  H   UNL     1     -14.902  56.457  51.221  0.00  0.00    +0.000 HD
BRANCH  28  30
ATOM     30  C   UNL     1     -13.970  58.391  51.517  0.00  0.00    +0.000 C 
BRANCH  30  31
ATOM     31  C   UNL     1     -15.134  59.208  50.950  0.00  0.00    +0.000 C 
BRANCH  31  32
ATOM     32  C   UNL     1     -14.650  60.064  49.774  0.00  0.00    +0.000 C 
ATOM     33  C   UNL     1     -13.158  60.333  49.835  0.00  0.00    +0.000 C 
ENDBRANCH  31  32
ENDBRANCH  30  31
ENDBRANCH  28  30
ENDBRANCH   5  28
TORSDOF 6
ENDMDL
MODEL 3
REMARK VINA RESULT:      -7.9      2.578      8.107
REMARK  Name = 
REMARK  7 active torsions:
REMARK  status: ('A' for Active; 'I' for Inactive)
REMARK    1  A    between atoms: C_6  and  C_10
REMARK    2  A    between atoms: C_14  and  O_18
REMARK    3  A    between atoms: N_17  and  N_20
REMARK    4  A    between atoms: N_20  and  C_23
REMARK    5  A    between atoms: C_23  and  C_26
REMARK    6  A    between atoms: C_26  and  C_28
REMARK    7  A    between atoms: C_28  and  C_29
REMARK                            x       y       z     vdW  Elec       q    Type
REMARK                         _______ _______ _______ _____ _____    ______ ____
ROOT
ATOM      1  C   UNL     1     -10.158  55.217  50.423  0.00  0.00    +0.000 A 
ATOM      2  C   UNL     1     -11.218  55.330  51.466  0.00  0.00    +0.000 A 
ATOM      3  C   UNL     1     -10.426  55.520  49.142  0.00  0.00    +0.000 A 
ATOM      4  O   UNL     1     -10.917  54.992  52.616  0.00  0.00    +0.000 OA
ATOM      5  N   UNL     1     -12.470  55.827  51.086  0.00  0.00    +0.000 N 
ATOM      6  C   UNL     1     -11.758  56.011  48.754  0.00  0.00    +0.000 A 
ATOM      7  C   UNL     1     -12.762  56.158  49.728  0.00  0.00    +0.000 A 
ATOM      8  C   UNL     1     -12.034  56.354  47.419  0.00  0.00    +0.000 A 
ATOM      9  C   UNL     1     -14.026  56.631  49.338  0.00  0.00    +0.000 A 
ATOM     10  C   UNL     1     -13.288  56.836  47.048  0.00  0.00    +0.000 A 
ATOM     11  C   UNL     1     -14.284  56.971  48.007  0.00  0.00    +0.000 A 
ENDROOT
BRANCH   1  17
ATOM     12  S   UNL     1      -6.714  53.334  50.529  0.00  0.00    +0.000 S 
ATOM     13  O   UNL     1      -5.773  53.841  49.548  0.00  0.00    +0.000 OA
ATOM     14  O   UNL     1      -6.825  51.904  50.762  0.00  0.00    +0.000 OA
ATOM     15  N   UNL     1      -8.180  53.895  50.133  0.00  0.00    +0.000 N 
ATOM     16  C   UNL     1      -6.239  54.030  52.067  0.00  0.00    +0.000 A 
ATOM     17  C   UNL     1      -8.762  54.806  50.857  0.00  0.00    +0.000 C 
ATOM     18  C   UNL     1      -7.066  55.001  52.615  0.00  0.00    +0.000 A 
ATOM     19  C   UNL     1      -5.067  53.614  52.697  0.00  0.00    +0.000 A 
ATOM     20  N   UNL     1      -8.225  55.420  51.968  0.00  0.00    +0.000 N 
ATOM     21  C   UNL     1      -6.662  55.613  53.808  0.00  0.00    +0.000 A 
ATOM     22  C   UNL     1      -4.695  54.207  53.902  0.00  0.00    +0.000 A 
ATOM     23  C   UNL     1      -5.487  55.213  54.453  0.00  0.00    +0.000 A 
ATOM     24  H   UNL     1      -8.636  53.543  49.336  0.00  0.00    +0.000 HD
ATOM     25  H   UNL     1      -8.694  56.207  52.329  0.00  0.00    +0.000 HD
ENDBRANCH   1  17
BRANCH   3  26
ATOM     26  O   UNL     1      -9.509  55.432  48.110  0.00  0.00    +0.000 OA
ATOM     27  H   UNL     1      -9.802  55.457  47.220  0.00  0.00    +0.000 HD
ENDBRANCH   3  26
BRANCH   5  28
ATOM     28  N   UNL     1     -13.543  55.915  52.046  0.00  0.00    +0.000 N 
ATOM     29  H   UNL     1     -14.180  55.182  52.206  0.00  0.00    +0.000 HD
BRANCH  28  30
ATOM     30  C   UNL     1     -13.604  57.196  52.763  0.00  0.00    +0.000 C 
BRANCH  30  31
ATOM     31  C   UNL     1     -15.046  57.674  52.948  0.00  0.00    +0.000 C 
BRANCH  31  32
ATOM     32  C   UNL     1     -15.146  59.171  52.629  0.00  0.00    +0.000 C 
ATOM     33  C   UNL     1     -14.858  59.468  51.169  0.00  0.00    +0.000 C 
ENDBRANCH  31  32
ENDBRANCH  30  31
ENDBRANCH  28  30
ENDBRANCH   5  28
TORSDOF 6
ENDMDL
MODEL 4
REMARK VINA RESULT:      -7.7      2.750      8.003
REMARK  Name = 
REMARK  7 active torsions:
REMARK  status: ('A' for Active; 'I' for Inactive)
REMARK    1  A    between atoms: C_6  and  C_10
REMARK    2  A    between atoms: C_14  and  O_18
REMARK    3  A    between atoms: N_17  and  N_20
REMARK    4  A    between atoms: N_20  and  C_23
REMARK    5  A    between atoms: C_23  and  C_26
REMARK    6  A    between atoms: C_26  and  C_28
REMARK    7  A    between atoms: C_28  and  C_29
REMARK                            x       y       z     vdW  Elec       q    Type
REMARK                         _______ _______ _______ _____ _____    ______ ____
ROOT
ATOM      1  C   UNL     1     -10.053  54.645  50.923  0.00  0.00    +0.000 A 
ATOM      2  C   UNL     1     -11.224  55.472  51.337  0.00  0.00    +0.000 A 
ATOM      3  C   UNL     1      -9.830  54.383  49.624  0.00  0.00    +0.000 A 
ATOM      4  O   UNL     1     -11.397  55.636  52.550  0.00  0.00    +0.000 OA
ATOM      5  N   UNL     1     -12.032  56.023  50.337  0.00  0.00    +0.000 N 
ATOM      6  C   UNL     1     -10.708  54.945  48.587  0.00  0.00    +0.000 A 
ATOM      7  C   UNL     1     -11.797  55.756  48.954  0.00  0.00    +0.000 A 
ATOM      8  C   UNL     1     -10.461  54.693  47.226  0.00  0.00    +0.000 A 
ATOM      9  C   UNL     1     -12.623  56.284  47.949  0.00  0.00    +0.000 A 
ATOM     10  C   UNL     1     -11.280  55.236  46.237  0.00  0.00    +0.000 A 
ATOM     11  C   UNL     1     -12.363  56.028  46.599  0.00  0.00    +0.000 A 
ENDROOT
BRANCH   1  17
ATOM     12  S   UNL     1      -6.801  54.239  53.085  0.00  0.00    +0.000 S 
ATOM     13  O   UNL     1      -6.646  55.302  54.060  0.00  0.00    +0.000 OA
ATOM     14  O   UNL     1      -5.649  53.758  52.341  0.00  0.00    +0.000 OA
ATOM     15  N   UNL     1      -7.924  54.715  52.021  0.00  0.00    +0.000 N 
ATOM     16  C   UNL     1      -7.410  52.851  53.967  0.00  0.00    +0.000 A 
ATOM     17  C   UNL     1      -9.099  54.158  51.998  0.00  0.00    +0.000 C 
ATOM     18  C   UNL     1      -8.726  52.475  53.741  0.00  0.00    +0.000 A 
ATOM     19  C   UNL     1      -6.588  52.167  54.861  0.00  0.00    +0.000 A 
ATOM     20  N   UNL     1      -9.543  53.176  52.857  0.00  0.00    +0.000 N 
ATOM     21  C   UNL     1      -9.245  51.411  54.489  0.00  0.00    +0.000 A 
ATOM     22  C   UNL     1      -7.106  51.088  55.573  0.00  0.00    +0.000 A 
ATOM     23  C   UNL     1      -8.437  50.716  55.395  0.00  0.00    +0.000 A 
ATOM     24  H   UNL     1      -7.716  55.435  51.383  0.00  0.00    +0.000 HD
ATOM     25  H   UNL     1     -10.502  52.954  52.845  0.00  0.00    +0.000 HD
ENDBRANCH   1  17
BRANCH   3  26
ATOM     26  O   UNL     1      -8.779  53.617  49.152  0.00  0.00    +0.000 OA
ATOM     27  H   UNL     1      -8.952  52.832  48.670  0.00  0.00    +0.000 HD
ENDBRANCH   3  26
BRANCH   5  28
ATOM     28  N   UNL     1     -13.201  56.794  50.685  0.00  0.00    +0.000 N 
ATOM     29  H   UNL     1     -13.228  57.777  50.638  0.00  0.00    +0.000 HD
BRANCH  28  30
ATOM     30  C   UNL     1     -14.348  55.984  51.115  0.00  0.00    +0.000 C 
BRANCH  30  31
ATOM     31  C   UNL     1     -15.536  56.857  51.527  0.00  0.00    +0.000 C 
BRANCH  31  32
ATOM     32  C   UNL     1     -15.236  57.556  52.858  0.00  0.00    +0.000 C 
ATOM     33  C   UNL     1     -15.134  59.062  52.706  0.00  0.00    +0.000 C 
ENDBRANCH  31  32
ENDBRANCH  30  31
ENDBRANCH  28  30
ENDBRANCH   5  28
TORSDOF 6
ENDMDL
MODEL 5
REMARK VINA RESULT:      -7.7      3.819      5.332
REMARK  Name = 
REMARK  7 active torsions:
REMARK  status: ('A' for Active; 'I' for Inactive)
REMARK    1  A    between atoms: C_6  and  C_10
REMARK    2  A    between atoms: C_14  and  O_18
REMARK    3  A    between atoms: N_17  and  N_20
REMARK    4  A    between atoms: N_20  and  C_23
REMARK    5  A    between atoms: C_23  and  C_26
REMARK    6  A    between atoms: C_26  and  C_28
REMARK    7  A    between atoms: C_28  and  C_29
REMARK                            x       y       z     vdW  Elec       q    Type
REMARK                         _______ _______ _______ _____ _____    ______ ____
ROOT
ATOM      1  C   UNL     1     -10.670  55.630  48.151  0.00  0.00    +0.000 A 
ATOM      2  C   UNL     1      -9.208  55.723  48.432  0.00  0.00    +0.000 A 
ATOM      3  C   UNL     1     -11.114  54.990  47.055  0.00  0.00    +0.000 A 
ATOM      4  O   UNL     1      -8.866  56.364  49.431  0.00  0.00    +0.000 OA
ATOM      5  N   UNL     1      -8.325  55.065  47.568  0.00  0.00    +0.000 N 
ATOM      6  C   UNL     1     -10.169  54.332  46.141  0.00  0.00    +0.000 A 
ATOM      7  C   UNL     1      -8.789  54.377  46.406  0.00  0.00    +0.000 A 
ATOM      8  C   UNL     1     -10.633  53.639  45.008  0.00  0.00    +0.000 A 
ATOM      9  C   UNL     1      -7.903  53.741  45.522  0.00  0.00    +0.000 A 
ATOM     10  C   UNL     1      -9.744  52.999  44.146  0.00  0.00    +0.000 A 
ATOM     11  C   UNL     1      -8.379  53.053  44.402  0.00  0.00    +0.000 A 
ENDROOT
BRANCH   1  17
ATOM     12  S   UNL     1     -13.044  55.967  51.259  0.00  0.00    +0.000 S 
ATOM     13  O   UNL     1     -12.316  56.205  52.491  0.00  0.00    +0.000 OA
ATOM     14  O   UNL     1     -14.175  55.055  51.245  0.00  0.00    +0.000 OA
ATOM     15  N   UNL     1     -11.976  55.462  50.152  0.00  0.00    +0.000 N 
ATOM     16  C   UNL     1     -13.683  57.522  50.760  0.00  0.00    +0.000 A 
ATOM     17  C   UNL     1     -11.637  56.227  49.157  0.00  0.00    +0.000 C 
ATOM     18  C   UNL     1     -13.118  58.119  49.642  0.00  0.00    +0.000 A 
ATOM     19  C   UNL     1     -14.717  58.123  51.477  0.00  0.00    +0.000 A 
ATOM     20  N   UNL     1     -12.074  57.516  48.944  0.00  0.00    +0.000 N 
ATOM     21  C   UNL     1     -13.572  59.391  49.274  0.00  0.00    +0.000 A 
ATOM     22  C   UNL     1     -15.184  59.373  51.078  0.00  0.00    +0.000 A 
ATOM     23  C   UNL     1     -14.605  60.012  49.983  0.00  0.00    +0.000 A 
ATOM     24  H   UNL     1     -11.580  54.565  50.234  0.00  0.00    +0.000 HD
ATOM     25  H   UNL     1     -11.619  58.047  48.250  0.00  0.00    +0.000 HD
ENDBRANCH   1  17
BRANCH   3  26
ATOM     26  O   UNL     1     -12.448  54.867  46.710  0.00  0.00    +0.000 OA
ATOM     27  H   UNL     1     -12.810  54.020  46.535  0.00  0.00    +0.000 HD
ENDBRANCH   3  26
BRANCH   5  28
ATOM     28  N   UNL     1      -6.899  55.160  47.771  0.00  0.00    +0.000 N 
ATOM     29  H   UNL     1      -6.340  55.842  47.333  0.00  0.00    +0.000 HD
BRANCH  28  30
ATOM     30  C   UNL     1      -6.355  54.149  48.687  0.00  0.00    +0.000 C 
BRANCH  30  31
ATOM     31  C   UNL     1      -5.477  54.781  49.770  0.00  0.00    +0.000 C 
BRANCH  31  32
ATOM     32  C   UNL     1      -6.213  54.767  51.115  0.00  0.00    +0.000 C 
ATOM     33  C   UNL     1      -7.243  53.655  51.195  0.00  0.00    +0.000 C 
ENDBRANCH  31  32
ENDBRANCH  30  31
ENDBRANCH  28  30
ENDBRANCH   5  28
TORSDOF 6
ENDMDL
MODEL 6
REMARK VINA RESULT:      -7.6      3.253      7.574
REMARK  Name = 
REMARK  7 active torsions:
REMARK  status: ('A' for Active; 'I' for Inactive)
REMARK    1  A    between atoms: C_6  and  C_10
REMARK    2  A    between atoms: C_14  and  O_18
REMARK    3  A    between atoms: N_17  and  N_20
REMARK    4  A    between atoms: N_20  and  C_23
REMARK    5  A    between atoms: C_23  and  C_26
REMARK    6  A    between atoms: C_26  and  C_28
REMARK    7  A    between atoms: C_28  and  C_29
REMARK                            x       y       z     vdW  Elec       q    Type
REMARK                         _______ _______ _______ _____ _____    ______ ____
ROOT
ATOM      1  C   UNL     1     -10.215  55.197  50.775  0.00  0.00    +0.000 A 
ATOM      2  C   UNL     1      -9.798  55.101  49.346  0.00  0.00    +0.000 A 
ATOM      3  C   UNL     1     -11.415  55.705  51.102  0.00  0.00    +0.000 A 
ATOM      4  O   UNL     1      -8.664  54.667  49.117  0.00  0.00    +0.000 OA
ATOM      5  N   UNL     1     -10.717  55.483  48.361  0.00  0.00    +0.000 N 
ATOM      6  C   UNL     1     -12.356  56.131  50.055  0.00  0.00    +0.000 A 
ATOM      7  C   UNL     1     -11.997  56.016  48.701  0.00  0.00    +0.000 A 
ATOM      8  C   UNL     1     -13.623  56.639  50.394  0.00  0.00    +0.000 A 
ATOM      9  C   UNL     1     -12.910  56.427  47.716  0.00  0.00    +0.000 A 
ATOM     10  C   UNL     1     -14.525  57.029  49.407  0.00  0.00    +0.000 A 
ATOM     11  C   UNL     1     -14.167  56.926  48.068  0.00  0.00    +0.000 A 
ENDROOT
BRANCH   1  17
ATOM     12  S   UNL     1      -7.017  54.745  53.008  0.00  0.00    +0.000 S 
ATOM     13  O   UNL     1      -6.942  55.724  54.076  0.00  0.00    +0.000 OA
ATOM     14  O   UNL     1      -5.821  54.382  52.267  0.00  0.00    +0.000 OA
ATOM     15  N   UNL     1      -8.127  55.263  51.949  0.00  0.00    +0.000 N 
ATOM     16  C   UNL     1      -7.588  53.260  53.744  0.00  0.00    +0.000 A 
ATOM     17  C   UNL     1      -9.273  54.659  51.837  0.00  0.00    +0.000 C 
ATOM     18  C   UNL     1      -8.878  52.848  53.440  0.00  0.00    +0.000 A 
ATOM     19  C   UNL     1      -6.764  52.537  54.605  0.00  0.00    +0.000 A 
ATOM     20  N   UNL     1      -9.698  53.587  52.592  0.00  0.00    +0.000 N 
ATOM     21  C   UNL     1      -9.370  51.701  54.075  0.00  0.00    +0.000 A 
ATOM     22  C   UNL     1      -7.253  51.377  55.202  0.00  0.00    +0.000 A 
ATOM     23  C   UNL     1      -8.560  50.965  54.946  0.00  0.00    +0.000 A 
ATOM     24  H   UNL     1      -7.932  56.045  51.384  0.00  0.00    +0.000 HD
ATOM     25  H   UNL     1     -10.645  53.326  52.526  0.00  0.00    +0.000 HD
ENDBRANCH   1  17
BRANCH   3  26
ATOM     26  O   UNL     1     -11.877  55.844  52.399  0.00  0.00    +0.000 OA
ATOM     27  H   UNL     1     -12.799  55.866  52.568  0.00  0.00    +0.000 HD
ENDBRANCH   3  26
BRANCH   5  28
ATOM     28  N   UNL     1     -10.348  55.450  46.967  0.00  0.00    +0.000 N 
ATOM     29  H   UNL     1     -10.064  56.250  46.469  0.00  0.00    +0.000 HD
BRANCH  28  30
ATOM     30  C   UNL     1     -10.436  54.118  46.354  0.00  0.00    +0.000 C 
BRANCH  30  31
ATOM     31  C   UNL     1     -11.538  54.053  45.293  0.00  0.00    +0.000 C 
BRANCH  31  32
ATOM     32  C   UNL     1     -11.941  52.594  45.046  0.00  0.00    +0.000 C 
ATOM     33  C   UNL     1     -12.348  51.886  46.325  0.00  0.00    +0.000 C 
ENDBRANCH  31  32
ENDBRANCH  30  31
ENDBRANCH  28  30
ENDBRANCH   5  28
TORSDOF 6
ENDMDL
MODEL 7
REMARK VINA RESULT:      -7.4      2.667      8.322
REMARK  Name = 
REMARK  7 active torsions:
REMARK  status: ('A' for Active; 'I' for Inactive)
REMARK    1  A    between atoms: C_6  and  C_10
REMARK    2  A    between atoms: C_14  and  O_18
REMARK    3  A    between atoms: N_17  and  N_20
REMARK    4  A    between atoms: N_20  and  C_23
REMARK    5  A    between atoms: C_23  and  C_26
REMARK    6  A    between atoms: C_26  and  C_28
REMARK    7  A    between atoms: C_28  and  C_29
REMARK                            x       y       z     vdW  Elec       q    Type
REMARK                         _______ _______ _______ _____ _____    ______ ____
ROOT
ATOM      1  C   UNL     1      -9.838  55.192  50.940  0.00  0.00    +0.000 A 
ATOM      2  C   UNL     1     -11.038  55.327  51.815  0.00  0.00    +0.000 A 
ATOM      3  C   UNL     1      -9.937  55.373  49.613  0.00  0.00    +0.000 A 
ATOM      4  O   UNL     1     -10.886  55.102  53.021  0.00  0.00    +0.000 OA
ATOM      5  N   UNL     1     -12.246  55.717  51.225  0.00  0.00    +0.000 N 
ATOM      6  C   UNL     1     -11.223  55.752  49.005  0.00  0.00    +0.000 A 
ATOM      7  C   UNL     1     -12.359  55.919  49.816  0.00  0.00    +0.000 A 
ATOM      8  C   UNL     1     -11.324  55.967  47.620  0.00  0.00    +0.000 A 
ATOM      9  C   UNL     1     -13.576  56.283  49.218  0.00  0.00    +0.000 A 
ATOM     10  C   UNL     1     -12.535  56.343  47.040  0.00  0.00    +0.000 A 
ATOM     11  C   UNL     1     -13.661  56.497  47.839  0.00  0.00    +0.000 A 
ENDROOT
BRANCH   1  17
ATOM     12  S   UNL     1      -6.860  55.301  53.498  0.00  0.00    +0.000 S 
ATOM     13  O   UNL     1      -7.105  54.483  54.670  0.00  0.00    +0.000 OA
ATOM     14  O   UNL     1      -6.244  56.609  53.637  0.00  0.00    +0.000 OA
ATOM     15  N   UNL     1      -8.274  55.489  52.732  0.00  0.00    +0.000 N 
ATOM     16  C   UNL     1      -5.781  54.375  52.472  0.00  0.00    +0.000 A 
ATOM     17  C   UNL     1      -8.499  54.900  51.595  0.00  0.00    +0.000 C 
ATOM     18  C   UNL     1      -6.303  53.853  51.296  0.00  0.00    +0.000 A 
ATOM     19  C   UNL     1      -4.452  54.176  52.843  0.00  0.00    +0.000 A 
ATOM     20  N   UNL     1      -7.637  54.045  50.944  0.00  0.00    +0.000 N 
ATOM     21  C   UNL     1      -5.470  53.055  50.503  0.00  0.00    +0.000 A 
ATOM     22  C   UNL     1      -3.624  53.409  52.026  0.00  0.00    +0.000 A 
ATOM     23  C   UNL     1      -4.136  52.840  50.861  0.00  0.00    +0.000 A 
ATOM     24  H   UNL     1      -8.972  56.057  53.132  0.00  0.00    +0.000 HD
ATOM     25  H   UNL     1      -7.986  53.535  50.177  0.00  0.00    +0.000 HD
ENDBRANCH   1  17
BRANCH   3  26
ATOM     26  O   UNL     1      -8.881  55.255  48.727  0.00  0.00    +0.000 OA
ATOM     27  H   UNL     1      -9.048  55.109  47.816  0.00  0.00    +0.000 HD
ENDBRANCH   3  26
BRANCH   5  28
ATOM     28  N   UNL     1     -13.447  55.820  52.019  0.00  0.00    +0.000 N 
ATOM     29  H   UNL     1     -14.114  55.099  52.077  0.00  0.00    +0.000 HD
BRANCH  28  30
ATOM     30  C   UNL     1     -13.586  57.096  52.733  0.00  0.00    +0.000 C 
BRANCH  30  31
ATOM     31  C   UNL     1     -14.804  57.887  52.248  0.00  0.00    +0.000 C 
BRANCH  31  32
ATOM     32  C   UNL     1     -14.352  59.211  51.621  0.00  0.00    +0.000 C 
ATOM     33  C   UNL     1     -15.252  59.643  50.478  0.00  0.00    +0.000 C 
ENDBRANCH  31  32
ENDBRANCH  30  31
ENDBRANCH  28  30
ENDBRANCH   5  28
TORSDOF 6
ENDMDL
MODEL 8
REMARK VINA RESULT:      -7.4      3.419      5.090
REMARK  Name = 
REMARK  7 active torsions:
REMARK  status: ('A' for Active; 'I' for Inactive)
REMARK    1  A    between atoms: C_6  and  C_10
REMARK    2  A    between atoms: C_14  and  O_18
REMARK    3  A    between atoms: N_17  and  N_20
REMARK    4  A    between atoms: N_20  and  C_23
REMARK    5  A    between atoms: C_23  and  C_26
REMARK    6  A    between atoms: C_26  and  C_28
REMARK    7  A    between atoms: C_28  and  C_29
REMARK                            x       y       z     vdW  Elec       q    Type
REMARK                         _______ _______ _______ _____ _____    ______ ____
ROOT
ATOM      1  C   UNL     1     -11.753  55.822  48.762  0.00  0.00    +0.000 A 
ATOM      2  C   UNL     1     -10.774  55.094  49.620  0.00  0.00    +0.000 A 
ATOM      3  C   UNL     1     -11.858  55.536  47.454  0.00  0.00    +0.000 A 
ATOM      4  O   UNL     1     -10.697  55.439  50.805  0.00  0.00    +0.000 OA
ATOM      5  N   UNL     1     -10.027  54.062  49.042  0.00  0.00    +0.000 N 
ATOM      6  C   UNL     1     -11.041  54.468  46.856  0.00  0.00    +0.000 A 
ATOM      7  C   UNL     1     -10.137  53.746  47.655  0.00  0.00    +0.000 A 
ATOM      8  C   UNL     1     -11.167  54.148  45.492  0.00  0.00    +0.000 A 
ATOM      9  C   UNL     1      -9.368  52.729  47.065  0.00  0.00    +0.000 A 
ATOM     10  C   UNL     1     -10.409  53.127  44.923  0.00  0.00    +0.000 A 
ATOM     11  C   UNL     1      -9.507  52.420  45.709  0.00  0.00    +0.000 A 
ENDROOT
BRANCH   1  17
ATOM     12  S   UNL     1     -13.593  59.215  49.485  0.00  0.00    +0.000 S 
ATOM     13  O   UNL     1     -14.732  59.426  48.612  0.00  0.00    +0.000 OA
ATOM     14  O   UNL     1     -12.702  60.318  49.801  0.00  0.00    +0.000 OA
ATOM     15  N   UNL     1     -12.706  58.019  48.848  0.00  0.00    +0.000 N 
ATOM     16  C   UNL     1     -14.246  58.678  51.020  0.00  0.00    +0.000 A 
ATOM     17  C   UNL     1     -12.659  56.850  49.416  0.00  0.00    +0.000 C 
ATOM     18  C   UNL     1     -14.041  57.352  51.377  0.00  0.00    +0.000 A 
ATOM     19  C   UNL     1     -14.947  59.563  51.837  0.00  0.00    +0.000 A 
ATOM     20  N   UNL     1     -13.353  56.472  50.545  0.00  0.00    +0.000 N 
ATOM     21  C   UNL     1     -14.616  56.893  52.568  0.00  0.00    +0.000 A 
ATOM     22  C   UNL     1     -15.484  59.103  53.038  0.00  0.00    +0.000 A 
ATOM     23  C   UNL     1     -15.328  57.765  53.398  0.00  0.00    +0.000 A 
ATOM     24  H   UNL     1     -12.197  58.179  48.021  0.00  0.00    +0.000 HD
ATOM     25  H   UNL     1     -13.362  55.516  50.780  0.00  0.00    +0.000 HD
ENDBRANCH   1  17
BRANCH   3  26
ATOM     26  O   UNL     1     -12.727  56.168  46.583  0.00  0.00    +0.000 OA
ATOM     27  H   UNL     1     -13.410  56.715  46.918  0.00  0.00    +0.000 HD
ENDBRANCH   3  26
BRANCH   5  28
ATOM     28  N   UNL     1      -9.036  53.355  49.818  0.00  0.00    +0.000 N 
ATOM     29  H   UNL     1      -9.177  52.446  50.167  0.00  0.00    +0.000 HD
BRANCH  28  30
ATOM     30  C   UNL     1      -7.797  54.112  50.040  0.00  0.00    +0.000 C 
BRANCH  30  31
ATOM     31  C   UNL     1      -7.448  54.203  51.528  0.00  0.00    +0.000 C 
BRANCH  31  32
ATOM     32  C   UNL     1      -7.255  55.669  51.933  0.00  0.00    +0.000 C 
ATOM     33  C   UNL     1      -7.486  56.620  50.773  0.00  0.00    +0.000 C 
ENDBRANCH  31  32
ENDBRANCH  30  31
ENDBRANCH  28  30
ENDBRANCH   5  28
TORSDOF 6
ENDMDL
MODEL 9
REMARK VINA RESULT:      -7.4      3.524      4.507
REMARK  Name = 
REMARK  7 active torsions:
REMARK  status: ('A' for Active; 'I' for Inactive)
REMARK    1  A    between atoms: C_6  and  C_10
REMARK    2  A    between atoms: C_14  and  O_18
REMARK    3  A    between atoms: N_17  and  N_20
REMARK    4  A    between atoms: N_20  and  C_23
REMARK    5  A    between atoms: C_23  and  C_26
REMARK    6  A    between atoms: C_26  and  C_28
REMARK    7  A    between atoms: C_28  and  C_29
REMARK                            x       y       z     vdW  Elec       q    Type
REMARK                         _______ _______ _______ _____ _____    ______ ____
ROOT
ATOM      1  C   UNL     1     -12.219  54.301  50.143  0.00  0.00    +0.000 A 
ATOM      2  C   UNL     1     -11.961  53.944  48.718  0.00  0.00    +0.000 A 
ATOM      3  C   UNL     1     -11.656  53.593  51.136  0.00  0.00    +0.000 A 
ATOM      4  O   UNL     1     -12.547  54.607  47.855  0.00  0.00    +0.000 OA
ATOM      5  N   UNL     1     -11.063  52.905  48.448  0.00  0.00    +0.000 N 
ATOM      6  C   UNL     1     -10.739  52.483  50.834  0.00  0.00    +0.000 A 
ATOM      7  C   UNL     1     -10.454  52.152  49.497  0.00  0.00    +0.000 A 
ATOM      8  C   UNL     1     -10.127  51.757  51.871  0.00  0.00    +0.000 A 
ATOM      9  C   UNL     1      -9.574  51.090  49.230  0.00  0.00    +0.000 A 
ATOM     10  C   UNL     1      -9.245  50.715  51.592  0.00  0.00    +0.000 A 
ATOM     11  C   UNL     1      -8.971  50.380  50.272  0.00  0.00    +0.000 A 
ENDROOT
BRANCH   1  17
ATOM     12  S   UNL     1     -15.252  56.482  51.352  0.00  0.00    +0.000 S 
ATOM     13  O   UNL     1     -15.240  56.704  52.785  0.00  0.00    +0.000 OA
ATOM     14  O   UNL     1     -16.502  56.192  50.670  0.00  0.00    +0.000 OA
ATOM     15  N   UNL     1     -14.216  55.278  51.037  0.00  0.00    +0.000 N 
ATOM     16  C   UNL     1     -14.644  57.956  50.624  0.00  0.00    +0.000 A 
ATOM     17  C   UNL     1     -13.087  55.512  50.436  0.00  0.00    +0.000 C 
ATOM     18  C   UNL     1     -13.383  57.913  50.044  0.00  0.00    +0.000 A 
ATOM     19  C   UNL     1     -15.411  59.120  50.640  0.00  0.00    +0.000 A 
ATOM     20  N   UNL     1     -12.619  56.749  50.048  0.00  0.00    +0.000 N 
ATOM     21  C   UNL     1     -12.858  59.101  49.520  0.00  0.00    +0.000 A 
ATOM     22  C   UNL     1     -14.891  60.286  50.083  0.00  0.00    +0.000 A 
ATOM     23  C   UNL     1     -13.610  60.280  49.533  0.00  0.00    +0.000 A 
ATOM     24  H   UNL     1     -14.444  54.359  51.304  0.00  0.00    +0.000 HD
ATOM     25  H   UNL     1     -11.682  56.814  49.754  0.00  0.00    +0.000 HD
ENDBRANCH   1  17
BRANCH   3  26
ATOM     26  O   UNL     1     -11.850  53.845  52.482  0.00  0.00    +0.000 OA
ATOM     27  H   UNL     1     -12.075  54.708  52.769  0.00  0.00    +0.000 HD
ENDBRANCH   3  26
BRANCH   5  28
ATOM     28  N   UNL     1     -10.811  52.492  47.089  0.00  0.00    +0.000 N 
ATOM     29  H   UNL     1     -11.053  51.601  46.746  0.00  0.00    +0.000 HD
BRANCH  28  30
ATOM     30  C   UNL     1     -10.162  53.516  46.260  0.00  0.00    +0.000 C 
BRANCH  30  31
ATOM     31  C   UNL     1      -8.781  53.894  46.803  0.00  0.00    +0.000 C 
BRANCH  31  32
ATOM     32  C   UNL     1      -8.763  55.374  47.204  0.00  0.00    +0.000 C 
ATOM     33  C   UNL     1      -8.617  55.562  48.702  0.00  0.00    +0.000 C 
ENDBRANCH  31  32
ENDBRANCH  30  31
ENDBRANCH  28  30
ENDBRANCH   5  28
TORSDOF 6
ENDMDL
