MODEL 1
REMARK VINA RESULT:      -8.3      0.000      0.000
REMARK  Name = 
REMARK  5 active torsions:
REMARK  status: ('A' for Active; 'I' for Inactive)
REMARK    1  A    between atoms: C_6  and  C_10
REMARK    2  A    between atoms: C_14  and  O_18
REMARK    3  A    between atoms: N_17  and  N_20
REMARK    4  A    between atoms: N_20  and  C_23
REMARK    5  A    between atoms: C_23  and  C_26
REMARK                            x       y       z     vdW  Elec       q    Type
REMARK                         _______ _______ _______ _____ _____    ______ ____
ROOT
ATOM      1  C   UNL     1     -11.337  53.906  51.569  0.00  0.00    +0.000 A 
ATOM      2  C   UNL     1     -10.381  54.078  52.702  0.00  0.00    +0.000 A 
ATOM      3  C   UNL     1     -11.485  52.710  50.975  0.00  0.00    +0.000 A 
ATOM      4  O   UNL     1     -10.282  55.208  53.190  0.00  0.00    +0.000 OA
ATOM      5  N   UNL     1      -9.686  52.954  53.157  0.00  0.00    +0.000 N 
ATOM      6  C   UNL     1     -10.730  51.544  51.452  0.00  0.00    +0.000 A 
ATOM      7  C   UNL     1      -9.839  51.677  52.532  0.00  0.00    +0.000 A 
ATOM      8  C   UNL     1     -10.907  50.286  50.849  0.00  0.00    +0.000 A 
ATOM      9  C   UNL     1      -9.131  50.548  52.975  0.00  0.00    +0.000 A 
ATOM     10  C   UNL     1     -10.216  49.170  51.312  0.00  0.00    +0.000 A 
ATOM     11  C   UNL     1      -9.324  49.302  52.372  0.00  0.00    +0.000 A 
ENDROOT
BRANCH   1  17
ATOM     12  S   UNL     1     -12.859  56.788  49.366  0.00  0.00    +0.000 S 
ATOM     13  O   UNL     1     -13.878  56.295  48.458  0.00  0.00    +0.000 OA
ATOM     14  O   UNL     1     -11.890  57.773  48.932  0.00  0.00    +0.000 OA
ATOM     15  N   UNL     1     -12.045  55.495  49.924  0.00  0.00    +0.000 N 
ATOM     16  C   UNL     1     -13.718  57.511  50.717  0.00  0.00    +0.000 A 
ATOM     17  C   UNL     1     -12.185  55.089  51.152  0.00  0.00    +0.000 C 
ATOM     18  C   UNL     1     -13.690  56.855  51.937  0.00  0.00    +0.000 A 
ATOM     19  C   UNL     1     -14.392  58.721  50.542  0.00  0.00    +0.000 A 
ATOM     20  N   UNL     1     -13.027  55.641  52.093  0.00  0.00    +0.000 N 
ATOM     21  C   UNL     1     -14.423  57.399  52.998  0.00  0.00    +0.000 A 
ATOM     22  C   UNL     1     -15.088  59.270  51.617  0.00  0.00    +0.000 A 
ATOM     23  C   UNL     1     -15.112  58.604  52.842  0.00  0.00    +0.000 A 
ATOM     24  H   UNL     1     -11.435  55.010  49.321  0.00  0.00    +0.000 HD
ATOM     25  H   UNL     1     -13.169  55.144  52.932  0.00  0.00    +0.000 HD
ENDBRANCH   1  17
BRANCH   3  26
ATOM     26  O   UNL     1     -12.352  52.462  49.926  0.00  0.00    +0.000 OA
ATOM     27  H   UNL     1     -12.490  53.114  49.267  0.00  0.00    +0.000 HD
ENDBRANCH   3  26
BRANCH   5  28
ATOM     28  N   UNL     1      -8.736  53.070  54.237  0.00  0.00    +0.000 N 
ATOM     29  H   UNL     1      -8.975  52.917  55.179  0.00  0.00    +0.000 HD
BRANCH  28  30
ATOM     30  C   UNL     1      -7.382  53.438  53.806  0.00  0.00    +0.000 C 
BRANCH  30  31
ATOM     31  C   UNL     1      -6.978  54.746  54.415  0.00  0.00    +0.000 C 
ATOM     32  C   UNL     1      -6.808  56.002  53.603  0.00  0.00    +0.000 C 
ATOM     33  C   UNL     1      -5.596  55.285  54.130  0.00  0.00    +0.000 C 
ENDBRANCH  30  31
ENDBRANCH  28  30
ENDBRANCH   5  28
TORSDOF 5
ENDMDL
MODEL 2
REMARK VINA RESULT:      -8.1      3.976      4.875
REMARK  Name = 
REMARK  5 active torsions:
REMARK  status: ('A' for Active; 'I' for Inactive)
REMARK    1  A    between atoms: C_6  and  C_10
REMARK    2  A    between atoms: C_14  and  O_18
REMARK    3  A    between atoms: N_17  and  N_20
REMARK    4  A    between atoms: N_20  and  C_23
REMARK    5  A    between atoms: C_23  and  C_26
REMARK                            x       y       z     vdW  Elec       q    Type
REMARK                         _______ _______ _______ _____ _____    ______ ____
ROOT
ATOM      1  C   UNL     1     -10.673  55.646  48.157  0.00  0.00    +0.000 A 
ATOM      2  C   UNL     1      -9.210  55.756  48.426  0.00  0.00    +0.000 A 
ATOM      3  C   UNL     1     -11.122  54.981  47.079  0.00  0.00    +0.000 A 
ATOM      4  O   UNL     1      -8.866  56.396  49.424  0.00  0.00    +0.000 OA
ATOM      5  N   UNL     1      -8.327  55.109  47.556  0.00  0.00    +0.000 N 
ATOM      6  C   UNL     1     -10.179  54.325  46.163  0.00  0.00    +0.000 A 
ATOM      7  C   UNL     1      -8.796  54.397  46.408  0.00  0.00    +0.000 A 
ATOM      8  C   UNL     1     -10.651  53.605  45.051  0.00  0.00    +0.000 A 
ATOM      9  C   UNL     1      -7.912  53.760  45.522  0.00  0.00    +0.000 A 
ATOM     10  C   UNL     1      -9.766  52.957  44.194  0.00  0.00    +0.000 A 
ATOM     11  C   UNL     1      -8.396  53.039  44.426  0.00  0.00    +0.000 A 
ENDROOT
BRANCH   1  17
ATOM     12  S   UNL     1     -13.090  55.953  51.246  0.00  0.00    +0.000 S 
ATOM     13  O   UNL     1     -12.362  56.155  52.484  0.00  0.00    +0.000 OA
ATOM     14  O   UNL     1     -14.233  55.066  51.190  0.00  0.00    +0.000 OA
ATOM     15  N   UNL     1     -12.014  55.456  50.131  0.00  0.00    +0.000 N 
ATOM     16  C   UNL     1     -13.677  57.536  50.762  0.00  0.00    +0.000 A 
ATOM     17  C   UNL     1     -11.640  56.237  49.160  0.00  0.00    +0.000 C 
ATOM     18  C   UNL     1     -13.092  58.145  49.663  0.00  0.00    +0.000 A 
ATOM     19  C   UNL     1     -14.716  58.138  51.475  0.00  0.00    +0.000 A 
ATOM     20  N   UNL     1     -12.046  57.541  48.971  0.00  0.00    +0.000 N 
ATOM     21  C   UNL     1     -13.518  59.431  49.313  0.00  0.00    +0.000 A 
ATOM     22  C   UNL     1     -15.156  59.404  51.094  0.00  0.00    +0.000 A 
ATOM     23  C   UNL     1     -14.550  60.055  50.019  0.00  0.00    +0.000 A 
ATOM     24  H   UNL     1     -11.640  54.547  50.192  0.00  0.00    +0.000 HD
ATOM     25  H   UNL     1     -11.566  58.080  48.301  0.00  0.00    +0.000 HD
ENDBRANCH   1  17
BRANCH   3  26
ATOM     26  O   UNL     1     -12.459  54.825  46.759  0.00  0.00    +0.000 OA
ATOM     27  H   UNL     1     -12.709  54.600  45.885  0.00  0.00    +0.000 HD
ENDBRANCH   3  26
BRANCH   5  28
ATOM     28  N   UNL     1      -6.902  55.200  47.761  0.00  0.00    +0.000 N 
ATOM     29  H   UNL     1      -6.336  55.861  47.301  0.00  0.00    +0.000 HD
BRANCH  28  30
ATOM     30  C   UNL     1      -6.371  54.222  48.716  0.00  0.00    +0.000 C 
BRANCH  30  31
ATOM     31  C   UNL     1      -5.652  54.918  49.831  0.00  0.00    +0.000 C 
ATOM     32  C   UNL     1      -4.743  54.194  50.789  0.00  0.00    +0.000 C 
ATOM     33  C   UNL     1      -6.094  54.664  51.253  0.00  0.00    +0.000 C 
ENDBRANCH  30  31
ENDBRANCH  28  30
ENDBRANCH   5  28
TORSDOF 5
ENDMDL
MODEL 3
REMARK VINA RESULT:      -8.1      2.921      7.345
REMARK  Name = 
REMARK  5 active torsions:
REMARK  status: ('A' for Active; 'I' for Inactive)
REMARK    1  A    between atoms: C_6  and  C_10
REMARK    2  A    between atoms: C_14  and  O_18
REMARK    3  A    between atoms: N_17  and  N_20
REMARK    4  A    between atoms: N_20  and  C_23
REMARK    5  A    between atoms: C_23  and  C_26
REMARK                            x       y       z     vdW  Elec       q    Type
REMARK                         _______ _______ _______ _____ _____    ______ ____
ROOT
ATOM      1  C   UNL     1     -10.464  54.913  50.519  0.00  0.00    +0.000 A 
ATOM      2  C   UNL     1     -11.595  55.099  51.475  0.00  0.00    +0.000 A 
ATOM      3  C   UNL     1     -10.601  55.249  49.225  0.00  0.00    +0.000 A 
ATOM      4  O   UNL     1     -11.407  54.753  52.645  0.00  0.00    +0.000 OA
ATOM      5  N   UNL     1     -12.775  55.677  50.998  0.00  0.00    +0.000 N 
ATOM      6  C   UNL     1     -11.856  55.835  48.737  0.00  0.00    +0.000 A 
ATOM      7  C   UNL     1     -12.928  56.040  49.624  0.00  0.00    +0.000 A 
ATOM      8  C   UNL     1     -11.988  56.213  47.388  0.00  0.00    +0.000 A 
ATOM      9  C   UNL     1     -14.118  56.605  49.136  0.00  0.00    +0.000 A 
ATOM     10  C   UNL     1     -13.164  56.794  46.923  0.00  0.00    +0.000 A 
ATOM     11  C   UNL     1     -14.231  56.985  47.796  0.00  0.00    +0.000 A 
ENDROOT
BRANCH   1  17
ATOM     12  S   UNL     1      -7.236  52.706  50.943  0.00  0.00    +0.000 S 
ATOM     13  O   UNL     1      -6.213  53.050  49.973  0.00  0.00    +0.000 OA
ATOM     14  O   UNL     1      -7.507  51.324  51.279  0.00  0.00    +0.000 OA
ATOM     15  N   UNL     1      -8.626  53.381  50.437  0.00  0.00    +0.000 N 
ATOM     16  C   UNL     1      -6.769  53.490  52.444  0.00  0.00    +0.000 A 
ATOM     17  C   UNL     1      -9.142  54.404  51.053  0.00  0.00    +0.000 C 
ATOM     18  C   UNL     1      -7.517  54.573  52.878  0.00  0.00    +0.000 A 
ATOM     19  C   UNL     1      -5.677  53.008  53.168  0.00  0.00    +0.000 A 
ATOM     20  N   UNL     1      -8.594  55.053  52.138  0.00  0.00    +0.000 N 
ATOM     21  C   UNL     1      -7.110  55.235  54.042  0.00  0.00    +0.000 A 
ATOM     22  C   UNL     1      -5.304  53.655  54.344  0.00  0.00    +0.000 A 
ATOM     23  C   UNL     1      -6.015  54.774  54.776  0.00  0.00    +0.000 A 
ATOM     24  H   UNL     1      -9.086  53.008  49.649  0.00  0.00    +0.000 HD
ATOM     25  H   UNL     1      -8.990  55.914  52.408  0.00  0.00    +0.000 HD
ENDBRANCH   1  17
BRANCH   3  26
ATOM     26  O   UNL     1      -9.604  55.115  48.276  0.00  0.00    +0.000 OA
ATOM     27  H   UNL     1      -9.787  55.295  47.374  0.00  0.00    +0.000 HD
ENDBRANCH   3  26
BRANCH   5  28
ATOM     28  N   UNL     1     -13.904  55.862  51.877  0.00  0.00    +0.000 N 
ATOM     29  H   UNL     1     -14.629  55.202  51.963  0.00  0.00    +0.000 HD
BRANCH  28  30
ATOM     30  C   UNL     1     -13.876  57.120  52.631  0.00  0.00    +0.000 C 
BRANCH  30  31
ATOM     31  C   UNL     1     -15.101  57.931  52.340  0.00  0.00    +0.000 C 
ATOM     32  C   UNL     1     -15.056  59.222  51.568  0.00  0.00    +0.000 C 
ATOM     33  C   UNL     1     -15.287  59.250  53.054  0.00  0.00    +0.000 C 
ENDBRANCH  30  31
ENDBRANCH  28  30
ENDBRANCH   5  28
TORSDOF 5
ENDMDL
MODEL 4
REMARK VINA RESULT:      -8.0      3.393      7.608
REMARK  Name = 
REMARK  5 active torsions:
REMARK  status: ('A' for Active; 'I' for Inactive)
REMARK    1  A    between atoms: C_6  and  C_10
REMARK    2  A    between atoms: C_14  and  O_18
REMARK    3  A    between atoms: N_17  and  N_20
REMARK    4  A    between atoms: N_20  and  C_23
REMARK    5  A    between atoms: C_23  and  C_26
REMARK                            x       y       z     vdW  Elec       q    Type
REMARK                         _______ _______ _______ _____ _____    ______ ____
ROOT
ATOM      1  C   UNL     1     -10.230  55.193  50.816  0.00  0.00    +0.000 A 
ATOM      2  C   UNL     1      -9.790  55.140  49.391  0.00  0.00    +0.000 A 
ATOM      3  C   UNL     1     -11.450  55.653  51.137  0.00  0.00    +0.000 A 
ATOM      4  O   UNL     1      -8.649  54.723  49.168  0.00  0.00    +0.000 OA
ATOM      5  N   UNL     1     -10.698  55.533  48.404  0.00  0.00    +0.000 N 
ATOM      6  C   UNL     1     -12.385  56.082  50.089  0.00  0.00    +0.000 A 
ATOM      7  C   UNL     1     -12.000  56.022  48.737  0.00  0.00    +0.000 A 
ATOM      8  C   UNL     1     -13.673  56.536  50.424  0.00  0.00    +0.000 A 
ATOM      9  C   UNL     1     -12.910  56.433  47.750  0.00  0.00    +0.000 A 
ATOM     10  C   UNL     1     -14.574  56.919  49.435  0.00  0.00    +0.000 A 
ATOM     11  C   UNL     1     -14.191  56.873  48.097  0.00  0.00    +0.000 A 
ENDROOT
BRANCH   1  17
ATOM     12  S   UNL     1      -7.045  54.746  53.081  0.00  0.00    +0.000 S 
ATOM     13  O   UNL     1      -7.007  55.717  54.159  0.00  0.00    +0.000 OA
ATOM     14  O   UNL     1      -5.845  54.399  52.349  0.00  0.00    +0.000 OA
ATOM     15  N   UNL     1      -8.156  55.260  52.010  0.00  0.00    +0.000 N 
ATOM     16  C   UNL     1      -7.632  53.251  53.793  0.00  0.00    +0.000 A 
ATOM     17  C   UNL     1      -9.299  54.653  51.881  0.00  0.00    +0.000 C 
ATOM     18  C   UNL     1      -8.910  52.826  53.466  0.00  0.00    +0.000 A 
ATOM     19  C   UNL     1      -6.807  52.521  54.651  0.00  0.00    +0.000 A 
ATOM     20  N   UNL     1      -9.727  53.572  52.621  0.00  0.00    +0.000 N 
ATOM     21  C   UNL     1      -9.400  51.668  54.079  0.00  0.00    +0.000 A 
ATOM     22  C   UNL     1      -7.294  51.349  55.226  0.00  0.00    +0.000 A 
ATOM     23  C   UNL     1      -8.594  50.928  54.948  0.00  0.00    +0.000 A 
ATOM     24  H   UNL     1      -7.959  56.045  51.448  0.00  0.00    +0.000 HD
ATOM     25  H   UNL     1     -10.674  53.309  52.547  0.00  0.00    +0.000 HD
ENDBRANCH   1  17
BRANCH   3  26
ATOM     26  O   UNL     1     -11.939  55.730  52.429  0.00  0.00    +0.000 OA
ATOM     27  H   UNL     1     -12.572  55.107  52.730  0.00  0.00    +0.000 HD
ENDBRANCH   3  26
BRANCH   5  28
ATOM     28  N   UNL     1     -10.316  55.518  47.012  0.00  0.00    +0.000 N 
ATOM     29  H   UNL     1     -10.151  56.338  46.494  0.00  0.00    +0.000 HD
BRANCH  28  30
ATOM     30  C   UNL     1     -10.195  54.173  46.440  0.00  0.00    +0.000 C 
BRANCH  30  31
ATOM     31  C   UNL     1     -11.198  53.979  45.345  0.00  0.00    +0.000 C 
ATOM     32  C   UNL     1     -12.006  52.717  45.196  0.00  0.00    +0.000 C 
ATOM     33  C   UNL     1     -10.885  53.004  44.234  0.00  0.00    +0.000 C 
ENDBRANCH  30  31
ENDBRANCH  28  30
ENDBRANCH   5  28
TORSDOF 5
ENDMDL
MODEL 5
REMARK VINA RESULT:      -7.9      3.328      7.672
REMARK  Name = 
REMARK  5 active torsions:
REMARK  status: ('A' for Active; 'I' for Inactive)
REMARK    1  A    between atoms: C_6  and  C_10
REMARK    2  A    between atoms: C_14  and  O_18
REMARK    3  A    between atoms: N_17  and  N_20
REMARK    4  A    between atoms: N_20  and  C_23
REMARK    5  A    between atoms: C_23  and  C_26
REMARK                            x       y       z     vdW  Elec       q    Type
REMARK                         _______ _______ _______ _____ _____    ______ ____
ROOT
ATOM      1  C   UNL     1      -9.709  55.150  50.908  0.00  0.00    +0.000 A 
ATOM      2  C   UNL     1     -10.934  55.292  51.748  0.00  0.00    +0.000 A 
ATOM      3  C   UNL     1      -9.772  55.306  49.575  0.00  0.00    +0.000 A 
ATOM      4  O   UNL     1     -10.807  55.118  52.964  0.00  0.00    +0.000 OA
ATOM      5  N   UNL     1     -12.132  55.639  51.116  0.00  0.00    +0.000 N 
ATOM      6  C   UNL     1     -11.044  55.650  48.925  0.00  0.00    +0.000 A 
ATOM      7  C   UNL     1     -12.208  55.809  49.699  0.00  0.00    +0.000 A 
ATOM      8  C   UNL     1     -11.104  55.842  47.533  0.00  0.00    +0.000 A 
ATOM      9  C   UNL     1     -13.413  56.142  49.059  0.00  0.00    +0.000 A 
ATOM     10  C   UNL     1     -12.299  56.195  46.914  0.00  0.00    +0.000 A 
ATOM     11  C   UNL     1     -13.455  56.340  47.675  0.00  0.00    +0.000 A 
ENDROOT
BRANCH   1  17
ATOM     12  S   UNL     1      -6.782  55.388  53.526  0.00  0.00    +0.000 S 
ATOM     13  O   UNL     1      -7.053  54.600  54.713  0.00  0.00    +0.000 OA
ATOM     14  O   UNL     1      -6.187  56.704  53.626  0.00  0.00    +0.000 OA
ATOM     15  N   UNL     1      -8.185  55.532  52.714  0.00  0.00    +0.000 N 
ATOM     16  C   UNL     1      -5.685  54.430  52.544  0.00  0.00    +0.000 A 
ATOM     17  C   UNL     1      -8.385  54.897  51.597  0.00  0.00    +0.000 C 
ATOM     18  C   UNL     1      -6.173  53.868  51.375  0.00  0.00    +0.000 A 
ATOM     19  C   UNL     1      -4.358  54.266  52.947  0.00  0.00    +0.000 A 
ATOM     20  N   UNL     1      -7.502  54.026  50.994  0.00  0.00    +0.000 N 
ATOM     21  C   UNL     1      -5.316  53.055  50.624  0.00  0.00    +0.000 A 
ATOM     22  C   UNL     1      -3.506  53.484  52.169  0.00  0.00    +0.000 A 
ATOM     23  C   UNL     1      -3.988  52.870  51.014  0.00  0.00    +0.000 A 
ATOM     24  H   UNL     1      -8.895  56.111  53.075  0.00  0.00    +0.000 HD
ATOM     25  H   UNL     1      -7.834  53.481  50.244  0.00  0.00    +0.000 HD
ENDBRANCH   1  17
BRANCH   3  26
ATOM     26  O   UNL     1      -8.687  55.200  48.725  0.00  0.00    +0.000 OA
ATOM     27  H   UNL     1      -8.753  55.498  47.839  0.00  0.00    +0.000 HD
ENDBRANCH   3  26
BRANCH   5  28
ATOM     28  N   UNL     1     -13.349  55.770  51.881  0.00  0.00    +0.000 N 
ATOM     29  H   UNL     1     -14.022  55.055  51.941  0.00  0.00    +0.000 HD
BRANCH  28  30
ATOM     30  C   UNL     1     -13.492  57.062  52.561  0.00  0.00    +0.000 C 
BRANCH  30  31
ATOM     31  C   UNL     1     -14.826  57.669  52.252  0.00  0.00    +0.000 C 
ATOM     32  C   UNL     1     -15.011  58.735  51.205  0.00  0.00    +0.000 C 
ATOM     33  C   UNL     1     -15.088  59.099  52.662  0.00  0.00    +0.000 C 
ENDBRANCH  30  31
ENDBRANCH  28  30
ENDBRANCH   5  28
TORSDOF 5
ENDMDL
MODEL 6
REMARK VINA RESULT:      -7.8      3.463      4.241
REMARK  Name = 
REMARK  5 active torsions:
REMARK  status: ('A' for Active; 'I' for Inactive)
REMARK    1  A    between atoms: C_6  and  C_10
REMARK    2  A    between atoms: C_14  and  O_18
REMARK    3  A    between atoms: N_17  and  N_20
REMARK    4  A    between atoms: N_20  and  C_23
REMARK    5  A    between atoms: C_23  and  C_26
REMARK                            x       y       z     vdW  Elec       q    Type
REMARK                         _______ _______ _______ _____ _____    ______ ____
ROOT
ATOM      1  C   UNL     1     -11.567  56.024  48.773  0.00  0.00    +0.000 A 
ATOM      2  C   UNL     1     -10.489  55.422  49.611  0.00  0.00    +0.000 A 
ATOM      3  C   UNL     1     -11.717  55.660  47.489  0.00  0.00    +0.000 A 
ATOM      4  O   UNL     1     -10.396  55.815  50.778  0.00  0.00    +0.000 OA
ATOM      5  N   UNL     1      -9.678  54.438  49.039  0.00  0.00    +0.000 N 
ATOM      6  C   UNL     1     -10.843  54.639  46.897  0.00  0.00    +0.000 A 
ATOM      7  C   UNL     1      -9.833  54.043  47.674  0.00  0.00    +0.000 A 
ATOM      8  C   UNL     1     -11.020  54.237  45.561  0.00  0.00    +0.000 A 
ATOM      9  C   UNL     1      -9.011  53.066  47.089  0.00  0.00    +0.000 A 
ATOM     10  C   UNL     1     -10.213  53.251  45.000  0.00  0.00    +0.000 A 
ATOM     11  C   UNL     1      -9.204  52.669  45.763  0.00  0.00    +0.000 A 
ENDROOT
BRANCH   1  17
ATOM     12  S   UNL     1     -13.586  59.324  49.486  0.00  0.00    +0.000 S 
ATOM     13  O   UNL     1     -14.729  59.460  48.603  0.00  0.00    +0.000 OA
ATOM     14  O   UNL     1     -12.756  60.465  49.811  0.00  0.00    +0.000 OA
ATOM     15  N   UNL     1     -12.629  58.168  48.859  0.00  0.00    +0.000 N 
ATOM     16  C   UNL     1     -14.219  58.731  51.014  0.00  0.00    +0.000 A 
ATOM     17  C   UNL     1     -12.527  56.999  49.421  0.00  0.00    +0.000 C 
ATOM     18  C   UNL     1     -13.943  57.422  51.374  0.00  0.00    +0.000 A 
ATOM     19  C   UNL     1     -14.967  59.582  51.831  0.00  0.00    +0.000 A 
ATOM     20  N   UNL     1     -13.210  56.580  50.543  0.00  0.00    +0.000 N 
ATOM     21  C   UNL     1     -14.497  56.931  52.562  0.00  0.00    +0.000 A 
ATOM     22  C   UNL     1     -15.482  59.090  53.029  0.00  0.00    +0.000 A 
ATOM     23  C   UNL     1     -15.255  57.763  53.390  0.00  0.00    +0.000 A 
ATOM     24  H   UNL     1     -12.116  58.357  48.039  0.00  0.00    +0.000 HD
ATOM     25  H   UNL     1     -13.177  55.623  50.771  0.00  0.00    +0.000 HD
ENDBRANCH   1  17
BRANCH   3  26
ATOM     26  O   UNL     1     -12.692  56.162  46.645  0.00  0.00    +0.000 OA
ATOM     27  H   UNL     1     -13.424  56.628  46.998  0.00  0.00    +0.000 HD
ENDBRANCH   3  26
BRANCH   5  28
ATOM     28  N   UNL     1      -8.610  53.838  49.801  0.00  0.00    +0.000 N 
ATOM     29  H   UNL     1      -8.573  52.877  50.006  0.00  0.00    +0.000 HD
BRANCH  28  30
ATOM     30  C   UNL     1      -7.582  54.789  50.241  0.00  0.00    +0.000 C 
BRANCH  30  31
ATOM     31  C   UNL     1      -6.652  55.111  49.112  0.00  0.00    +0.000 C 
ATOM     32  C   UNL     1      -5.781  54.074  48.455  0.00  0.00    +0.000 C 
ATOM     33  C   UNL     1      -5.163  55.095  49.369  0.00  0.00    +0.000 C 
ENDBRANCH  30  31
ENDBRANCH  28  30
ENDBRANCH   5  28
TORSDOF 5
ENDMDL
MODEL 7
REMARK VINA RESULT:      -7.8      2.932      7.275
REMARK  Name = 
REMARK  5 active torsions:
REMARK  status: ('A' for Active; 'I' for Inactive)
REMARK    1  A    between atoms: C_6  and  C_10
REMARK    2  A    between atoms: C_14  and  O_18
REMARK    3  A    between atoms: N_17  and  N_20
REMARK    4  A    between atoms: N_20  and  C_23
REMARK    5  A    between atoms: C_23  and  C_26
REMARK                            x       y       z     vdW  Elec       q    Type
REMARK                         _______ _______ _______ _____ _____    ______ ____
ROOT
ATOM      1  C   UNL     1     -10.168  54.695  50.875  0.00  0.00    +0.000 A 
ATOM      2  C   UNL     1     -11.342  55.538  51.246  0.00  0.00    +0.000 A 
ATOM      3  C   UNL     1      -9.919  54.398  49.588  0.00  0.00    +0.000 A 
ATOM      4  O   UNL     1     -11.521  55.757  52.448  0.00  0.00    +0.000 OA
ATOM      5  N   UNL     1     -12.141  56.047  50.218  0.00  0.00    +0.000 N 
ATOM      6  C   UNL     1     -10.782  54.924  48.522  0.00  0.00    +0.000 A 
ATOM      7  C   UNL     1     -11.883  55.738  48.846  0.00  0.00    +0.000 A 
ATOM      8  C   UNL     1     -10.504  54.637  47.174  0.00  0.00    +0.000 A 
ATOM      9  C   UNL     1     -12.692  56.234  47.812  0.00  0.00    +0.000 A 
ATOM     10  C   UNL     1     -11.301  55.153  46.156  0.00  0.00    +0.000 A 
ATOM     11  C   UNL     1     -12.398  55.948  46.475  0.00  0.00    +0.000 A 
ENDROOT
BRANCH   1  17
ATOM     12  S   UNL     1      -6.970  54.449  53.153  0.00  0.00    +0.000 S 
ATOM     13  O   UNL     1      -6.942  55.493  54.160  0.00  0.00    +0.000 OA
ATOM     14  O   UNL     1      -5.768  54.068  52.442  0.00  0.00    +0.000 OA
ATOM     15  N   UNL     1      -8.091  54.873  52.053  0.00  0.00    +0.000 N 
ATOM     16  C   UNL     1      -7.534  52.999  53.969  0.00  0.00    +0.000 A 
ATOM     17  C   UNL     1      -9.226  54.243  51.971  0.00  0.00    +0.000 C 
ATOM     18  C   UNL     1      -8.807  52.536  53.677  0.00  0.00    +0.000 A 
ATOM     19  C   UNL     1      -6.697  52.342  54.873  0.00  0.00    +0.000 A 
ATOM     20  N   UNL     1      -9.638  53.210  52.786  0.00  0.00    +0.000 N 
ATOM     21  C   UNL     1      -9.280  51.416  54.371  0.00  0.00    +0.000 A 
ATOM     22  C   UNL     1      -7.167  51.206  55.529  0.00  0.00    +0.000 A 
ATOM     23  C   UNL     1      -8.461  50.750  55.286  0.00  0.00    +0.000 A 
ATOM     24  H   UNL     1      -7.907  55.619  51.437  0.00  0.00    +0.000 HD
ATOM     25  H   UNL     1     -10.581  52.930  52.734  0.00  0.00    +0.000 HD
ENDBRANCH   1  17
BRANCH   3  26
ATOM     26  O   UNL     1      -8.851  53.631  49.157  0.00  0.00    +0.000 OA
ATOM     27  H   UNL     1      -8.169  54.021  48.647  0.00  0.00    +0.000 HD
ENDBRANCH   3  26
BRANCH   5  28
ATOM     28  N   UNL     1     -13.299  56.851  50.524  0.00  0.00    +0.000 N 
ATOM     29  H   UNL     1     -13.350  57.814  50.327  0.00  0.00    +0.000 HD
BRANCH  28  30
ATOM     30  C   UNL     1     -14.395  56.107  51.157  0.00  0.00    +0.000 C 
BRANCH  30  31
ATOM     31  C   UNL     1     -15.372  57.051  51.787  0.00  0.00    +0.000 C 
ATOM     32  C   UNL     1     -15.067  58.509  52.005  0.00  0.00    +0.000 C 
ATOM     33  C   UNL     1     -15.089  57.569  53.178  0.00  0.00    +0.000 C 
ENDBRANCH  30  31
ENDBRANCH  28  30
ENDBRANCH   5  28
TORSDOF 5
ENDMDL
MODEL 8
REMARK VINA RESULT:      -7.6      3.030      4.131
REMARK  Name = 
REMARK  5 active torsions:
REMARK  status: ('A' for Active; 'I' for Inactive)
REMARK    1  A    between atoms: C_6  and  C_10
REMARK    2  A    between atoms: C_14  and  O_18
REMARK    3  A    between atoms: N_17  and  N_20
REMARK    4  A    between atoms: N_20  and  C_23
REMARK    5  A    between atoms: C_23  and  C_26
REMARK                            x       y       z     vdW  Elec       q    Type
REMARK                         _______ _______ _______ _____ _____    ______ ____
ROOT
ATOM      1  C   UNL     1     -11.564  56.020  48.807  0.00  0.00    +0.000 A 
ATOM      2  C   UNL     1     -10.513  55.397  49.663  0.00  0.00    +0.000 A 
ATOM      3  C   UNL     1     -11.689  55.671  47.516  0.00  0.00    +0.000 A 
ATOM      4  O   UNL     1     -10.443  55.777  50.836  0.00  0.00    +0.000 OA
ATOM      5  N   UNL     1      -9.700  54.409  49.099  0.00  0.00    +0.000 N 
ATOM      6  C   UNL     1     -10.812  54.647  46.933  0.00  0.00    +0.000 A 
ATOM      7  C   UNL     1      -9.828  54.030  47.727  0.00  0.00    +0.000 A 
ATOM      8  C   UNL     1     -10.963  54.260  45.589  0.00  0.00    +0.000 A 
ATOM      9  C   UNL     1      -9.003  53.050  47.151  0.00  0.00    +0.000 A 
ATOM     10  C   UNL     1     -10.154  53.271  45.037  0.00  0.00    +0.000 A 
ATOM     11  C   UNL     1      -9.170  52.670  45.816  0.00  0.00    +0.000 A 
ENDROOT
BRANCH   1  17
ATOM     12  S   UNL     1     -13.587  59.324  49.487  0.00  0.00    +0.000 S 
ATOM     13  O   UNL     1     -14.724  59.456  48.596  0.00  0.00    +0.000 OA
ATOM     14  O   UNL     1     -12.758  60.467  49.810  0.00  0.00    +0.000 OA
ATOM     15  N   UNL     1     -12.626  58.164  48.873  0.00  0.00    +0.000 N 
ATOM     16  C   UNL     1     -14.230  58.741  51.015  0.00  0.00    +0.000 A 
ATOM     17  C   UNL     1     -12.528  56.999  49.442  0.00  0.00    +0.000 C 
ATOM     18  C   UNL     1     -13.956  57.434  51.385  0.00  0.00    +0.000 A 
ATOM     19  C   UNL     1     -14.982  59.597  51.822  0.00  0.00    +0.000 A 
ATOM     20  N   UNL     1     -13.219  56.587  50.562  0.00  0.00    +0.000 N 
ATOM     21  C   UNL     1     -14.518  56.950  52.572  0.00  0.00    +0.000 A 
ATOM     22  C   UNL     1     -15.505  59.113  53.020  0.00  0.00    +0.000 A 
ATOM     23  C   UNL     1     -15.281  57.787  53.389  0.00  0.00    +0.000 A 
ATOM     24  H   UNL     1     -12.108  58.348  48.056  0.00  0.00    +0.000 HD
ATOM     25  H   UNL     1     -13.187  55.631  50.797  0.00  0.00    +0.000 HD
ENDBRANCH   1  17
BRANCH   3  26
ATOM     26  O   UNL     1     -12.638  56.193  46.655  0.00  0.00    +0.000 OA
ATOM     27  H   UNL     1     -12.635  55.950  45.750  0.00  0.00    +0.000 HD
ENDBRANCH   3  26
BRANCH   5  28
ATOM     28  N   UNL     1      -8.656  53.789  49.879  0.00  0.00    +0.000 N 
ATOM     29  H   UNL     1      -7.726  54.108  49.877  0.00  0.00    +0.000 HD
BRANCH  28  30
ATOM     30  C   UNL     1      -9.106  52.642  50.676  0.00  0.00    +0.000 C 
BRANCH  30  31
ATOM     31  C   UNL     1      -8.924  52.919  52.137  0.00  0.00    +0.000 C 
ATOM     32  C   UNL     1      -9.190  51.885  53.199  0.00  0.00    +0.000 C 
ATOM     33  C   UNL     1     -10.149  53.028  53.015  0.00  0.00    +0.000 C 
ENDBRANCH  30  31
ENDBRANCH  28  30
ENDBRANCH   5  28
TORSDOF 5
ENDMDL
MODEL 9
REMARK VINA RESULT:      -7.5      3.174      4.863
REMARK  Name = 
REMARK  5 active torsions:
REMARK  status: ('A' for Active; 'I' for Inactive)
REMARK    1  A    between atoms: C_6  and  C_10
REMARK    2  A    between atoms: C_14  and  O_18
REMARK    3  A    between atoms: N_17  and  N_20
REMARK    4  A    between atoms: N_20  and  C_23
REMARK    5  A    between atoms: C_23  and  C_26
REMARK                            x       y       z     vdW  Elec       q    Type
REMARK                         _______ _______ _______ _____ _____    ______ ____
ROOT
ATOM      1  C   UNL     1     -12.281  54.280  50.178  0.00  0.00    +0.000 A 
ATOM      2  C   UNL     1     -12.052  53.895  48.755  0.00  0.00    +0.000 A 
ATOM      3  C   UNL     1     -11.697  53.594  51.174  0.00  0.00    +0.000 A 
ATOM      4  O   UNL     1     -12.633  54.558  47.890  0.00  0.00    +0.000 OA
ATOM      5  N   UNL     1     -11.178  52.837  48.489  0.00  0.00    +0.000 N 
ATOM      6  C   UNL     1     -10.798  52.471  50.877  0.00  0.00    +0.000 A 
ATOM      7  C   UNL     1     -10.550  52.102  49.543  0.00  0.00    +0.000 A 
ATOM      8  C   UNL     1     -10.164  51.771  51.920  0.00  0.00    +0.000 A 
ATOM      9  C   UNL     1      -9.684  51.028  49.281  0.00  0.00    +0.000 A 
ATOM     10  C   UNL     1      -9.290  50.723  51.646  0.00  0.00    +0.000 A 
ATOM     11  C   UNL     1      -9.054  50.348  50.327  0.00  0.00    +0.000 A 
ENDROOT
BRANCH   1  17
ATOM     12  S   UNL     1     -15.284  56.509  51.398  0.00  0.00    +0.000 S 
ATOM     13  O   UNL     1     -15.244  56.734  52.830  0.00  0.00    +0.000 OA
ATOM     14  O   UNL     1     -16.535  56.233  50.722  0.00  0.00    +0.000 OA
ATOM     15  N   UNL     1     -14.259  55.288  51.074  0.00  0.00    +0.000 N 
ATOM     16  C   UNL     1     -14.641  57.966  50.657  0.00  0.00    +0.000 A 
ATOM     17  C   UNL     1     -13.127  55.501  50.469  0.00  0.00    +0.000 C 
ATOM     18  C   UNL     1     -13.390  57.903  50.064  0.00  0.00    +0.000 A 
ATOM     19  C   UNL     1     -15.397  59.141  50.667  0.00  0.00    +0.000 A 
ATOM     20  N   UNL     1     -12.641  56.730  50.076  0.00  0.00    +0.000 N 
ATOM     21  C   UNL     1     -12.852  59.078  49.527  0.00  0.00    +0.000 A 
ATOM     22  C   UNL     1     -14.864  60.294  50.096  0.00  0.00    +0.000 A 
ATOM     23  C   UNL     1     -13.587  60.265  49.535  0.00  0.00    +0.000 A 
ATOM     24  H   UNL     1     -14.500  54.371  51.339  0.00  0.00    +0.000 HD
ATOM     25  H   UNL     1     -11.702  56.781  49.782  0.00  0.00    +0.000 HD
ENDBRANCH   1  17
BRANCH   3  26
ATOM     26  O   UNL     1     -11.850  53.887  52.517  0.00  0.00    +0.000 OA
ATOM     27  H   UNL     1     -11.748  53.212  53.160  0.00  0.00    +0.000 HD
ENDBRANCH   3  26
BRANCH   5  28
ATOM     28  N   UNL     1     -10.937  52.413  47.131  0.00  0.00    +0.000 N 
ATOM     29  H   UNL     1     -11.348  51.609  46.740  0.00  0.00    +0.000 HD
BRANCH  28  30
ATOM     30  C   UNL     1     -10.024  53.287  46.384  0.00  0.00    +0.000 C 
BRANCH  30  31
ATOM     31  C   UNL     1      -9.421  52.547  45.230  0.00  0.00    +0.000 C 
ATOM     32  C   UNL     1      -8.565  53.220  44.191  0.00  0.00    +0.000 C 
ATOM     33  C   UNL     1      -9.964  52.794  43.842  0.00  0.00    +0.000 C 
ENDBRANCH  30  31
ENDBRANCH  28  30
ENDBRANCH   5  28
TORSDOF 5
ENDMDL
