MODEL 1
REMARK VINA RESULT:      -9.2      0.000      0.000
REMARK  Name = 
REMARK  5 active torsions:
REMARK  status: ('A' for Active; 'I' for Inactive)
REMARK    1  A    between atoms: C_6  and  C_10
REMARK    2  A    between atoms: C_14  and  O_18
REMARK    3  A    between atoms: N_17  and  N_20
REMARK    4  A    between atoms: N_20  and  C_23
REMARK    5  A    between atoms: C_23  and  C_26
REMARK                            x       y       z     vdW  Elec       q    Type
REMARK                         _______ _______ _______ _____ _____    ______ ____
ROOT
ATOM      1  C   UNL     1      -9.146  54.378  49.897  0.00  0.00    +0.000 A 
ATOM      2  C   UNL     1     -10.208  55.425  49.996  0.00  0.00    +0.000 A 
ATOM      3  C   UNL     1      -9.027  53.635  48.783  0.00  0.00    +0.000 A 
ATOM      4  O   UNL     1     -10.282  56.062  51.051  0.00  0.00    +0.000 OA
ATOM      5  N   UNL     1     -11.034  55.632  48.889  0.00  0.00    +0.000 N 
ATOM      6  C   UNL     1      -9.911  53.863  47.631  0.00  0.00    +0.000 A 
ATOM      7  C   UNL     1     -10.904  54.856  47.698  0.00  0.00    +0.000 A 
ATOM      8  C   UNL     1      -9.767  53.108  46.454  0.00  0.00    +0.000 A 
ATOM      9  C   UNL     1     -11.738  55.065  46.586  0.00  0.00    +0.000 A 
ATOM     10  C   UNL     1     -10.591  53.335  45.353  0.00  0.00    +0.000 A 
ATOM     11  C   UNL     1     -11.578  54.312  45.420  0.00  0.00    +0.000 A 
ENDROOT
BRANCH   1  17
ATOM     12  S   UNL     1      -7.759  54.107  53.563  0.00  0.00    +0.000 S 
ATOM     13  O   UNL     1      -7.985  52.795  54.137  0.00  0.00    +0.000 OA
ATOM     14  O   UNL     1      -7.953  55.301  54.363  0.00  0.00    +0.000 OA
ATOM     15  N   UNL     1      -8.693  54.235  52.246  0.00  0.00    +0.000 N 
ATOM     16  C   UNL     1      -6.078  54.134  53.054  0.00  0.00    +0.000 A 
ATOM     17  C   UNL     1      -8.177  54.214  51.053  0.00  0.00    +0.000 C 
ATOM     18  C   UNL     1      -5.814  54.118  51.695  0.00  0.00    +0.000 A 
ATOM     19  C   UNL     1      -5.061  54.182  54.009  0.00  0.00    +0.000 A 
ATOM     20  N   UNL     1      -6.840  54.059  50.755  0.00  0.00    +0.000 N 
ATOM     21  C   UNL     1      -4.477  54.074  51.284  0.00  0.00    +0.000 A 
ATOM     22  C   UNL     1      -3.733  54.175  53.584  0.00  0.00    +0.000 A 
ATOM     23  C   UNL     1      -3.444  54.113  52.223  0.00  0.00    +0.000 A 
ATOM     24  H   UNL     1      -9.667  54.329  52.351  0.00  0.00    +0.000 HD
ATOM     25  H   UNL     1      -6.593  53.896  49.816  0.00  0.00    +0.000 HD
ENDBRANCH   1  17
BRANCH   3  26
ATOM     26  O   UNL     1      -8.080  52.642  48.606  0.00  0.00    +0.000 OA
ATOM     27  H   UNL     1      -7.604  52.311  49.342  0.00  0.00    +0.000 HD
ENDBRANCH   3  26
BRANCH   5  28
ATOM     28  N   UNL     1     -12.129  56.559  48.959  0.00  0.00    +0.000 N 
ATOM     29  H   UNL     1     -12.078  57.463  48.574  0.00  0.00    +0.000 HD
BRANCH  28  30
ATOM     30  C   UNL     1     -13.328  56.063  49.645  0.00  0.00    +0.000 C 
BRANCH  30  31
ATOM     31  C   UNL     1     -13.814  57.064  50.667  0.00  0.00    +0.000 A 
ATOM     32  C   UNL     1     -13.690  56.797  52.040  0.00  0.00    +0.000 A 
ATOM     33  C   UNL     1     -14.411  58.263  50.258  0.00  0.00    +0.000 A 
ATOM     34  C   UNL     1     -14.154  57.714  52.984  0.00  0.00    +0.000 A 
ATOM     35  C   UNL     1     -14.873  59.177  51.204  0.00  0.00    +0.000 A 
ATOM     36  C   UNL     1     -14.746  58.903  52.565  0.00  0.00    +0.000 A 
ENDBRANCH  30  31
ENDBRANCH  28  30
ENDBRANCH   5  28
TORSDOF 5
ENDMDL
MODEL 2
REMARK VINA RESULT:      -8.9      1.578      2.119
REMARK  Name = 
REMARK  5 active torsions:
REMARK  status: ('A' for Active; 'I' for Inactive)
REMARK    1  A    between atoms: C_6  and  C_10
REMARK    2  A    between atoms: C_14  and  O_18
REMARK    3  A    between atoms: N_17  and  N_20
REMARK    4  A    between atoms: N_20  and  C_23
REMARK    5  A    between atoms: C_23  and  C_26
REMARK                            x       y       z     vdW  Elec       q    Type
REMARK                         _______ _______ _______ _____ _____    ______ ____
ROOT
ATOM      1  C   UNL     1      -9.629  54.293  50.166  0.00  0.00    +0.000 A 
ATOM      2  C   UNL     1     -10.643  55.391  50.188  0.00  0.00    +0.000 A 
ATOM      3  C   UNL     1      -9.444  53.563  49.053  0.00  0.00    +0.000 A 
ATOM      4  O   UNL     1     -10.783  56.014  51.245  0.00  0.00    +0.000 OA
ATOM      5  N   UNL     1     -11.350  55.658  49.013  0.00  0.00    +0.000 N 
ATOM      6  C   UNL     1     -10.203  53.855  47.829  0.00  0.00    +0.000 A 
ATOM      7  C   UNL     1     -11.147  54.896  47.824  0.00  0.00    +0.000 A 
ATOM      8  C   UNL     1      -9.987  53.112  46.654  0.00  0.00    +0.000 A 
ATOM      9  C   UNL     1     -11.862  55.166  46.643  0.00  0.00    +0.000 A 
ATOM     10  C   UNL     1     -10.692  53.399  45.487  0.00  0.00    +0.000 A 
ATOM     11  C   UNL     1     -11.631  54.425  45.482  0.00  0.00    +0.000 A 
ENDROOT
BRANCH   1  17
ATOM     12  S   UNL     1      -6.791  54.712  52.850  0.00  0.00    +0.000 S 
ATOM     13  O   UNL     1      -7.072  55.789  53.779  0.00  0.00    +0.000 OA
ATOM     14  O   UNL     1      -5.450  54.520  52.334  0.00  0.00    +0.000 OA
ATOM     15  N   UNL     1      -7.791  54.879  51.586  0.00  0.00    +0.000 N 
ATOM     16  C   UNL     1      -7.204  53.225  53.689  0.00  0.00    +0.000 A 
ATOM     17  C   UNL     1      -8.783  54.060  51.403  0.00  0.00    +0.000 C 
ATOM     18  C   UNL     1      -8.328  52.536  53.267  0.00  0.00    +0.000 A 
ATOM     19  C   UNL     1      -6.400  52.769  54.736  0.00  0.00    +0.000 A 
ATOM     20  N   UNL     1      -9.125  53.009  52.228  0.00  0.00    +0.000 N 
ATOM     21  C   UNL     1      -8.699  51.385  53.973  0.00  0.00    +0.000 A 
ATOM     22  C   UNL     1      -6.762  51.601  55.407  0.00  0.00    +0.000 A 
ATOM     23  C   UNL     1      -7.915  50.916  55.029  0.00  0.00    +0.000 A 
ATOM     24  H   UNL     1      -7.644  55.613  50.948  0.00  0.00    +0.000 HD
ATOM     25  H   UNL     1      -9.989  52.564  52.073  0.00  0.00    +0.000 HD
ENDBRANCH   1  17
BRANCH   3  26
ATOM     26  O   UNL     1      -8.535  52.524  48.944  0.00  0.00    +0.000 OA
ATOM     27  H   UNL     1      -7.634  52.707  48.766  0.00  0.00    +0.000 HD
ENDBRANCH   3  26
BRANCH   5  28
ATOM     28  N   UNL     1     -12.399  56.639  49.001  0.00  0.00    +0.000 N 
ATOM     29  H   UNL     1     -12.275  57.537  48.617  0.00  0.00    +0.000 HD
BRANCH  28  30
ATOM     30  C   UNL     1     -13.667  56.209  49.600  0.00  0.00    +0.000 C 
BRANCH  30  31
ATOM     31  C   UNL     1     -14.116  57.185  50.664  0.00  0.00    +0.000 A 
ATOM     32  C   UNL     1     -14.094  56.820  52.020  0.00  0.00    +0.000 A 
ATOM     33  C   UNL     1     -14.576  58.459  50.309  0.00  0.00    +0.000 A 
ATOM     34  C   UNL     1     -14.524  57.715  53.000  0.00  0.00    +0.000 A 
ATOM     35  C   UNL     1     -15.004  59.351  51.291  0.00  0.00    +0.000 A 
ATOM     36  C   UNL     1     -14.979  58.979  52.635  0.00  0.00    +0.000 A 
ENDBRANCH  30  31
ENDBRANCH  28  30
ENDBRANCH   5  28
TORSDOF 5
ENDMDL
MODEL 3
REMARK VINA RESULT:      -8.9      3.159      8.577
REMARK  Name = 
REMARK  5 active torsions:
REMARK  status: ('A' for Active; 'I' for Inactive)
REMARK    1  A    between atoms: C_6  and  C_10
REMARK    2  A    between atoms: C_14  and  O_18
REMARK    3  A    between atoms: N_17  and  N_20
REMARK    4  A    between atoms: N_20  and  C_23
REMARK    5  A    between atoms: C_23  and  C_26
REMARK                            x       y       z     vdW  Elec       q    Type
REMARK                         _______ _______ _______ _____ _____    ______ ____
ROOT
ATOM      1  C   UNL     1     -10.099  54.548  52.227  0.00  0.00    +0.000 A 
ATOM      2  C   UNL     1      -8.734  55.126  52.039  0.00  0.00    +0.000 A 
ATOM      3  C   UNL     1     -10.270  53.439  52.968  0.00  0.00    +0.000 A 
ATOM      4  O   UNL     1      -8.635  56.133  51.332  0.00  0.00    +0.000 OA
ATOM      5  N   UNL     1      -7.661  54.508  52.688  0.00  0.00    +0.000 N 
ATOM      6  C   UNL     1      -9.129  52.800  53.637  0.00  0.00    +0.000 A 
ATOM      7  C   UNL     1      -7.839  53.340  53.488  0.00  0.00    +0.000 A 
ATOM      8  C   UNL     1      -9.311  51.658  54.437  0.00  0.00    +0.000 A 
ATOM      9  C   UNL     1      -6.758  52.719  54.138  0.00  0.00    +0.000 A 
ATOM     10  C   UNL     1      -8.234  51.060  55.088  0.00  0.00    +0.000 A 
ATOM     11  C   UNL     1      -6.957  51.590  54.937  0.00  0.00    +0.000 A 
ENDROOT
BRANCH   1  17
ATOM     12  S   UNL     1     -12.559  56.013  49.537  0.00  0.00    +0.000 S 
ATOM     13  O   UNL     1     -13.455  55.004  49.009  0.00  0.00    +0.000 OA
ATOM     14  O   UNL     1     -11.960  56.996  48.655  0.00  0.00    +0.000 OA
ATOM     15  N   UNL     1     -11.361  55.248  50.315  0.00  0.00    +0.000 N 
ATOM     16  C   UNL     1     -13.490  56.924  50.715  0.00  0.00    +0.000 A 
ATOM     17  C   UNL     1     -11.284  55.268  51.612  0.00  0.00    +0.000 C 
ATOM     18  C   UNL     1     -13.179  56.758  52.053  0.00  0.00    +0.000 A 
ATOM     19  C   UNL     1     -14.499  57.790  50.288  0.00  0.00    +0.000 A 
ATOM     20  N   UNL     1     -12.177  55.882  52.464  0.00  0.00    +0.000 N 
ATOM     21  C   UNL     1     -13.959  57.431  53.001  0.00  0.00    +0.000 A 
ATOM     22  C   UNL     1     -15.244  58.482  51.241  0.00  0.00    +0.000 A 
ATOM     23  C   UNL     1     -14.978  58.296  52.596  0.00  0.00    +0.000 A 
ATOM     24  H   UNL     1     -10.681  54.762  49.796  0.00  0.00    +0.000 HD
ATOM     25  H   UNL     1     -12.102  55.689  53.427  0.00  0.00    +0.000 HD
ENDBRANCH   1  17
BRANCH   3  26
ATOM     26  O   UNL     1     -11.494  52.831  53.189  0.00  0.00    +0.000 OA
ATOM     27  H   UNL     1     -11.837  52.772  54.059  0.00  0.00    +0.000 HD
ENDBRANCH   3  26
BRANCH   5  28
ATOM     28  N   UNL     1      -6.317  54.965  52.471  0.00  0.00    +0.000 N 
ATOM     29  H   UNL     1      -5.802  55.435  53.166  0.00  0.00    +0.000 HD
BRANCH  28  30
ATOM     30  C   UNL     1      -5.765  54.681  51.142  0.00  0.00    +0.000 C 
BRANCH  30  31
ATOM     31  C   UNL     1      -5.136  53.307  51.104  0.00  0.00    +0.000 A 
ATOM     32  C   UNL     1      -5.821  52.227  50.524  0.00  0.00    +0.000 A 
ATOM     33  C   UNL     1      -3.871  53.091  51.663  0.00  0.00    +0.000 A 
ATOM     34  C   UNL     1      -5.248  50.954  50.504  0.00  0.00    +0.000 A 
ATOM     35  C   UNL     1      -3.300  51.818  51.640  0.00  0.00    +0.000 A 
ATOM     36  C   UNL     1      -3.988  50.752  51.062  0.00  0.00    +0.000 A 
ENDBRANCH  30  31
ENDBRANCH  28  30
ENDBRANCH   5  28
TORSDOF 5
ENDMDL
MODEL 4
REMARK VINA RESULT:      -8.9      2.556      7.368
REMARK  Name = 
REMARK  5 active torsions:
REMARK  status: ('A' for Active; 'I' for Inactive)
REMARK    1  A    between atoms: C_6  and  C_10
REMARK    2  A    between atoms: C_14  and  O_18
REMARK    3  A    between atoms: N_17  and  N_20
REMARK    4  A    between atoms: N_20  and  C_23
REMARK    5  A    between atoms: C_23  and  C_26
REMARK                            x       y       z     vdW  Elec       q    Type
REMARK                         _______ _______ _______ _____ _____    ______ ____
ROOT
ATOM      1  C   UNL     1     -11.412  56.045  48.834  0.00  0.00    +0.000 A 
ATOM      2  C   UNL     1     -10.337  55.479  49.704  0.00  0.00    +0.000 A 
ATOM      3  C   UNL     1     -11.510  55.673  47.546  0.00  0.00    +0.000 A 
ATOM      4  O   UNL     1     -10.284  55.873  50.873  0.00  0.00    +0.000 OA
ATOM      5  N   UNL     1      -9.476  54.526  49.152  0.00  0.00    +0.000 N 
ATOM      6  C   UNL     1     -10.590  54.675  46.982  0.00  0.00    +0.000 A 
ATOM      7  C   UNL     1      -9.584  54.116  47.789  0.00  0.00    +0.000 A 
ATOM      8  C   UNL     1     -10.711  54.261  45.643  0.00  0.00    +0.000 A 
ATOM      9  C   UNL     1      -8.716  53.159  47.236  0.00  0.00    +0.000 A 
ATOM     10  C   UNL     1      -9.853  53.301  45.111  0.00  0.00    +0.000 A 
ATOM     11  C   UNL     1      -8.853  52.752  45.907  0.00  0.00    +0.000 A 
ENDROOT
BRANCH   1  17
ATOM     12  S   UNL     1     -13.560  59.277  49.446  0.00  0.00    +0.000 S 
ATOM     13  O   UNL     1     -14.692  59.360  48.544  0.00  0.00    +0.000 OA
ATOM     14  O   UNL     1     -12.781  60.461  49.755  0.00  0.00    +0.000 OA
ATOM     15  N   UNL     1     -12.548  58.155  48.863  0.00  0.00    +0.000 N 
ATOM     16  C   UNL     1     -14.198  58.705  50.979  0.00  0.00    +0.000 A 
ATOM     17  C   UNL     1     -12.415  57.002  49.449  0.00  0.00    +0.000 C 
ATOM     18  C   UNL     1     -13.881  57.416  51.369  0.00  0.00    +0.000 A 
ATOM     19  C   UNL     1     -14.988  59.547  51.764  0.00  0.00    +0.000 A 
ATOM     20  N   UNL     1     -13.100  56.584  50.570  0.00  0.00    +0.000 N 
ATOM     21  C   UNL     1     -14.438  56.930  52.558  0.00  0.00    +0.000 A 
ATOM     22  C   UNL     1     -15.507  59.063  52.963  0.00  0.00    +0.000 A 
ATOM     23  C   UNL     1     -15.238  57.753  53.354  0.00  0.00    +0.000 A 
ATOM     24  H   UNL     1     -12.026  58.349  48.052  0.00  0.00    +0.000 HD
ATOM     25  H   UNL     1     -13.034  55.635  50.822  0.00  0.00    +0.000 HD
ENDBRANCH   1  17
BRANCH   3  26
ATOM     26  O   UNL     1     -12.466  56.150  46.667  0.00  0.00    +0.000 OA
ATOM     27  H   UNL     1     -13.241  56.562  46.995  0.00  0.00    +0.000 HD
ENDBRANCH   3  26
BRANCH   5  28
ATOM     28  N   UNL     1      -8.370  54.016  49.912  0.00  0.00    +0.000 N 
ATOM     29  H   UNL     1      -8.401  53.141  50.363  0.00  0.00    +0.000 HD
BRANCH  28  30
ATOM     30  C   UNL     1      -7.192  54.888  49.969  0.00  0.00    +0.000 C 
BRANCH  30  31
ATOM     31  C   UNL     1      -6.652  54.969  51.378  0.00  0.00    +0.000 A 
ATOM     32  C   UNL     1      -7.312  55.738  52.350  0.00  0.00    +0.000 A 
ATOM     33  C   UNL     1      -5.475  54.294  51.726  0.00  0.00    +0.000 A 
ATOM     34  C   UNL     1      -6.805  55.826  53.647  0.00  0.00    +0.000 A 
ATOM     35  C   UNL     1      -4.971  54.384  53.024  0.00  0.00    +0.000 A 
ATOM     36  C   UNL     1      -5.634  55.150  53.982  0.00  0.00    +0.000 A 
ENDBRANCH  30  31
ENDBRANCH  28  30
ENDBRANCH   5  28
TORSDOF 5
ENDMDL
MODEL 5
REMARK VINA RESULT:      -8.8      2.095      5.662
REMARK  Name = 
REMARK  5 active torsions:
REMARK  status: ('A' for Active; 'I' for Inactive)
REMARK    1  A    between atoms: C_6  and  C_10
REMARK    2  A    between atoms: C_14  and  O_18
REMARK    3  A    between atoms: N_17  and  N_20
REMARK    4  A    between atoms: N_20  and  C_23
REMARK    5  A    between atoms: C_23  and  C_26
REMARK                            x       y       z     vdW  Elec       q    Type
REMARK                         _______ _______ _______ _____ _____    ______ ____
ROOT
ATOM      1  C   UNL     1     -10.423  55.176  50.957  0.00  0.00    +0.000 A 
ATOM      2  C   UNL     1     -10.126  55.071  49.496  0.00  0.00    +0.000 A 
ATOM      3  C   UNL     1     -11.588  55.698  51.377  0.00  0.00    +0.000 A 
ATOM      4  O   UNL     1      -9.031  54.601  49.171  0.00  0.00    +0.000 OA
ATOM      5  N   UNL     1     -11.107  55.487  48.593  0.00  0.00    +0.000 N 
ATOM      6  C   UNL     1     -12.605  56.138  50.410  0.00  0.00    +0.000 A 
ATOM      7  C   UNL     1     -12.352  56.029  49.032  0.00  0.00    +0.000 A 
ATOM      8  C   UNL     1     -13.837  56.655  50.848  0.00  0.00    +0.000 A 
ATOM      9  C   UNL     1     -13.337  56.449  48.120  0.00  0.00    +0.000 A 
ATOM     10  C   UNL     1     -14.810  57.055  49.934  0.00  0.00    +0.000 A 
ATOM     11  C   UNL     1     -14.559  56.954  48.570  0.00  0.00    +0.000 A 
ENDROOT
BRANCH   1  17
ATOM     12  S   UNL     1      -7.070  54.710  52.952  0.00  0.00    +0.000 S 
ATOM     13  O   UNL     1      -6.920  55.694  54.005  0.00  0.00    +0.000 OA
ATOM     14  O   UNL     1      -5.935  54.337  52.130  0.00  0.00    +0.000 OA
ATOM     15  N   UNL     1      -8.250  55.222  51.966  0.00  0.00    +0.000 N 
ATOM     16  C   UNL     1      -7.605  53.233  53.736  0.00  0.00    +0.000 A 
ATOM     17  C   UNL     1      -9.409  54.633  51.946  0.00  0.00    +0.000 C 
ATOM     18  C   UNL     1      -8.911  52.826  53.525  0.00  0.00    +0.000 A 
ATOM     19  C   UNL     1      -6.718  52.505  54.531  0.00  0.00    +0.000 A 
ATOM     20  N   UNL     1      -9.787  53.569  52.737  0.00  0.00    +0.000 N 
ATOM     21  C   UNL     1      -9.364  51.685  54.198  0.00  0.00    +0.000 A 
ATOM     22  C   UNL     1      -7.172  51.350  55.167  0.00  0.00    +0.000 A 
ATOM     23  C   UNL     1      -8.496  50.947  55.006  0.00  0.00    +0.000 A 
ATOM     24  H   UNL     1      -8.086  55.990  51.374  0.00  0.00    +0.000 HD
ATOM     25  H   UNL     1     -10.739  53.317  52.746  0.00  0.00    +0.000 HD
ENDBRANCH   1  17
BRANCH   3  26
ATOM     26  O   UNL     1     -11.945  55.841  52.706  0.00  0.00    +0.000 OA
ATOM     27  H   UNL     1     -11.289  55.806  53.374  0.00  0.00    +0.000 HD
ENDBRANCH   3  26
BRANCH   5  28
ATOM     28  N   UNL     1     -10.842  55.494  47.181  0.00  0.00    +0.000 N 
ATOM     29  H   UNL     1     -10.284  56.184  46.754  0.00  0.00    +0.000 HD
BRANCH  28  30
ATOM     30  C   UNL     1     -11.459  54.402  46.421  0.00  0.00    +0.000 C 
BRANCH  30  31
ATOM     31  C   UNL     1     -10.497  53.854  45.392  0.00  0.00    +0.000 A 
ATOM     32  C   UNL     1     -10.967  53.070  44.325  0.00  0.00    +0.000 A 
ATOM     33  C   UNL     1      -9.124  54.107  45.499  0.00  0.00    +0.000 A 
ATOM     34  C   UNL     1     -10.077  52.551  43.384  0.00  0.00    +0.000 A 
ATOM     35  C   UNL     1      -8.238  53.588  44.555  0.00  0.00    +0.000 A 
ATOM     36  C   UNL     1      -8.714  52.810  43.500  0.00  0.00    +0.000 A 
ENDBRANCH  30  31
ENDBRANCH  28  30
ENDBRANCH   5  28
TORSDOF 5
ENDMDL
MODEL 6
REMARK VINA RESULT:      -8.8      2.916      7.654
REMARK  Name = 
REMARK  5 active torsions:
REMARK  status: ('A' for Active; 'I' for Inactive)
REMARK    1  A    between atoms: C_6  and  C_10
REMARK    2  A    between atoms: C_14  and  O_18
REMARK    3  A    between atoms: N_17  and  N_20
REMARK    4  A    between atoms: N_20  and  C_23
REMARK    5  A    between atoms: C_23  and  C_26
REMARK                            x       y       z     vdW  Elec       q    Type
REMARK                         _______ _______ _______ _____ _____    ______ ____
ROOT
ATOM      1  C   UNL     1     -11.170  54.576  50.745  0.00  0.00    +0.000 A 
ATOM      2  C   UNL     1      -9.791  54.943  50.300  0.00  0.00    +0.000 A 
ATOM      3  C   UNL     1     -11.421  53.349  51.234  0.00  0.00    +0.000 A 
ATOM      4  O   UNL     1      -9.625  56.077  49.841  0.00  0.00    +0.000 OA
ATOM      5  N   UNL     1      -8.776  53.994  50.449  0.00  0.00    +0.000 N 
ATOM      6  C   UNL     1     -10.341  52.362  51.376  0.00  0.00    +0.000 A 
ATOM      7  C   UNL     1      -9.034  52.695  50.980  0.00  0.00    +0.000 A 
ATOM      8  C   UNL     1     -10.596  51.089  51.916  0.00  0.00    +0.000 A 
ATOM      9  C   UNL     1      -8.011  51.742  51.128  0.00  0.00    +0.000 A 
ATOM     10  C   UNL     1      -9.571  50.158  52.069  0.00  0.00    +0.000 A 
ATOM     11  C   UNL     1      -8.279  50.484  51.673  0.00  0.00    +0.000 A 
ENDROOT
BRANCH   1  17
ATOM     12  S   UNL     1     -13.649  57.267  49.315  0.00  0.00    +0.000 S 
ATOM     13  O   UNL     1     -14.805  56.664  48.682  0.00  0.00    +0.000 OA
ATOM     14  O   UNL     1     -12.999  58.416  48.713  0.00  0.00    +0.000 OA
ATOM     15  N   UNL     1     -12.533  56.109  49.507  0.00  0.00    +0.000 N 
ATOM     16  C   UNL     1     -14.182  57.792  50.905  0.00  0.00    +0.000 A 
ATOM     17  C   UNL     1     -12.258  55.631  50.684  0.00  0.00    +0.000 C 
ATOM     18  C   UNL     1     -13.713  57.095  52.005  0.00  0.00    +0.000 A 
ATOM     19  C   UNL     1     -15.040  58.886  51.027  0.00  0.00    +0.000 A 
ATOM     20  N   UNL     1     -12.864  55.999  51.866  0.00  0.00    +0.000 N 
ATOM     21  C   UNL     1     -14.183  57.466  53.271  0.00  0.00    +0.000 A 
ATOM     22  C   UNL     1     -15.473  59.267  52.296  0.00  0.00    +0.000 A 
ATOM     23  C   UNL     1     -15.050  58.552  53.415  0.00  0.00    +0.000 A 
ATOM     24  H   UNL     1     -12.056  55.763  48.720  0.00  0.00    +0.000 HD
ATOM     25  H   UNL     1     -12.687  55.452  52.665  0.00  0.00    +0.000 HD
ENDBRANCH   1  17
BRANCH   3  26
ATOM     26  O   UNL     1     -12.665  52.920  51.662  0.00  0.00    +0.000 OA
ATOM     27  H   UNL     1     -13.108  53.377  52.350  0.00  0.00    +0.000 HD
ENDBRANCH   3  26
BRANCH   5  28
ATOM     28  N   UNL     1      -7.454  54.258  49.955  0.00  0.00    +0.000 N 
ATOM     29  H   UNL     1      -7.063  53.757  49.203  0.00  0.00    +0.000 HD
BRANCH  28  30
ATOM     30  C   UNL     1      -6.726  55.327  50.649  0.00  0.00    +0.000 C 
BRANCH  30  31
ATOM     31  C   UNL     1      -6.509  54.972  52.102  0.00  0.00    +0.000 A 
ATOM     32  C   UNL     1      -5.491  54.079  52.472  0.00  0.00    +0.000 A 
ATOM     33  C   UNL     1      -7.333  55.516  53.095  0.00  0.00    +0.000 A 
ATOM     34  C   UNL     1      -5.301  53.739  53.813  0.00  0.00    +0.000 A 
ATOM     35  C   UNL     1      -7.139  55.175  54.434  0.00  0.00    +0.000 A 
ATOM     36  C   UNL     1      -6.126  54.287  54.792  0.00  0.00    +0.000 A 
ENDBRANCH  30  31
ENDBRANCH  28  30
ENDBRANCH   5  28
TORSDOF 5
ENDMDL
MODEL 7
REMARK VINA RESULT:      -8.5      3.046      6.976
REMARK  Name = 
REMARK  5 active torsions:
REMARK  status: ('A' for Active; 'I' for Inactive)
REMARK    1  A    between atoms: C_6  and  C_10
REMARK    2  A    between atoms: C_14  and  O_18
REMARK    3  A    between atoms: N_17  and  N_20
REMARK    4  A    between atoms: N_20  and  C_23
REMARK    5  A    between atoms: C_23  and  C_26
REMARK                            x       y       z     vdW  Elec       q    Type
REMARK                         _______ _______ _______ _____ _____    ______ ____
ROOT
ATOM      1  C   UNL     1     -11.682  56.108  48.589  0.00  0.00    +0.000 A 
ATOM      2  C   UNL     1     -10.475  55.600  49.309  0.00  0.00    +0.000 A 
ATOM      3  C   UNL     1     -11.960  55.683  47.345  0.00  0.00    +0.000 A 
ATOM      4  O   UNL     1     -10.259  56.041  50.441  0.00  0.00    +0.000 OA
ATOM      5  N   UNL     1      -9.680  54.645  48.668  0.00  0.00    +0.000 N 
ATOM      6  C   UNL     1     -11.107  54.684  46.685  0.00  0.00    +0.000 A 
ATOM      7  C   UNL     1      -9.978  54.179  47.353  0.00  0.00    +0.000 A 
ATOM      8  C   UNL     1     -11.414  54.215  45.396  0.00  0.00    +0.000 A 
ATOM      9  C   UNL     1      -9.175  53.220  46.710  0.00  0.00    +0.000 A 
ATOM     10  C   UNL     1     -10.618  53.254  44.775  0.00  0.00    +0.000 A 
ATOM     11  C   UNL     1      -9.497  52.758  45.432  0.00  0.00    +0.000 A 
ENDROOT
BRANCH   1  17
ATOM     12  S   UNL     1     -13.640  59.387  49.512  0.00  0.00    +0.000 S 
ATOM     13  O   UNL     1     -14.806  59.582  48.673  0.00  0.00    +0.000 OA
ATOM     14  O   UNL     1     -12.791  60.510  49.860  0.00  0.00    +0.000 OA
ATOM     15  N   UNL     1     -12.711  58.261  48.810  0.00  0.00    +0.000 N 
ATOM     16  C   UNL     1     -14.235  58.743  51.034  0.00  0.00    +0.000 A 
ATOM     17  C   UNL     1     -12.608  57.067  49.313  0.00  0.00    +0.000 C 
ATOM     18  C   UNL     1     -13.964  57.417  51.324  0.00  0.00    +0.000 A 
ATOM     19  C   UNL     1     -14.946  59.566  51.909  0.00  0.00    +0.000 A 
ATOM     20  N   UNL     1     -13.262  56.606  50.436  0.00  0.00    +0.000 N 
ATOM     21  C   UNL     1     -14.490  56.879  52.505  0.00  0.00    +0.000 A 
ATOM     22  C   UNL     1     -15.434  59.027  53.098  0.00  0.00    +0.000 A 
ATOM     23  C   UNL     1     -15.212  57.682  53.390  0.00  0.00    +0.000 A 
ATOM     24  H   UNL     1     -12.217  58.485  47.989  0.00  0.00    +0.000 HD
ATOM     25  H   UNL     1     -13.231  55.640  50.623  0.00  0.00    +0.000 HD
ENDBRANCH   1  17
BRANCH   3  26
ATOM     26  O   UNL     1     -13.048  56.105  46.602  0.00  0.00    +0.000 OA
ATOM     27  H   UNL     1     -13.067  55.964  45.676  0.00  0.00    +0.000 HD
ENDBRANCH   3  26
BRANCH   5  28
ATOM     28  N   UNL     1      -8.460  54.189  49.273  0.00  0.00    +0.000 N 
ATOM     29  H   UNL     1      -7.651  54.748  49.312  0.00  0.00    +0.000 HD
BRANCH  28  30
ATOM     30  C   UNL     1      -8.503  52.832  49.828  0.00  0.00    +0.000 C 
BRANCH  30  31
ATOM     31  C   UNL     1      -9.276  52.807  51.126  0.00  0.00    +0.000 A 
ATOM     32  C   UNL     1      -8.745  53.402  52.282  0.00  0.00    +0.000 A 
ATOM     33  C   UNL     1     -10.524  52.175  51.196  0.00  0.00    +0.000 A 
ATOM     34  C   UNL     1      -9.452  53.365  53.485  0.00  0.00    +0.000 A 
ATOM     35  C   UNL     1     -11.228  52.141  52.400  0.00  0.00    +0.000 A 
ATOM     36  C   UNL     1     -10.692  52.734  53.543  0.00  0.00    +0.000 A 
ENDBRANCH  30  31
ENDBRANCH  28  30
ENDBRANCH   5  28
TORSDOF 5
ENDMDL
MODEL 8
REMARK VINA RESULT:      -8.5      2.489      7.009
REMARK  Name = 
REMARK  5 active torsions:
REMARK  status: ('A' for Active; 'I' for Inactive)
REMARK    1  A    between atoms: C_6  and  C_10
REMARK    2  A    between atoms: C_14  and  O_18
REMARK    3  A    between atoms: N_17  and  N_20
REMARK    4  A    between atoms: N_20  and  C_23
REMARK    5  A    between atoms: C_23  and  C_26
REMARK                            x       y       z     vdW  Elec       q    Type
REMARK                         _______ _______ _______ _____ _____    ______ ____
ROOT
ATOM      1  C   UNL     1     -10.693  55.598  48.133  0.00  0.00    +0.000 A 
ATOM      2  C   UNL     1      -9.227  55.654  48.417  0.00  0.00    +0.000 A 
ATOM      3  C   UNL     1     -11.148  54.983  47.029  0.00  0.00    +0.000 A 
ATOM      4  O   UNL     1      -8.867  56.250  49.436  0.00  0.00    +0.000 OA
ATOM      5  N   UNL     1      -8.359  55.013  47.528  0.00  0.00    +0.000 N 
ATOM      6  C   UNL     1     -10.219  54.321  46.102  0.00  0.00    +0.000 A 
ATOM      7  C   UNL     1      -8.838  54.345  46.361  0.00  0.00    +0.000 A 
ATOM      8  C   UNL     1     -10.696  53.649  44.962  0.00  0.00    +0.000 A 
ATOM      9  C   UNL     1      -7.962  53.702  45.468  0.00  0.00    +0.000 A 
ATOM     10  C   UNL     1      -9.819  53.004  44.092  0.00  0.00    +0.000 A 
ATOM     11  C   UNL     1      -8.452  53.033  44.344  0.00  0.00    +0.000 A 
ENDROOT
BRANCH   1  17
ATOM     12  S   UNL     1     -13.046  55.954  51.259  0.00  0.00    +0.000 S 
ATOM     13  O   UNL     1     -12.302  56.190  52.480  0.00  0.00    +0.000 OA
ATOM     14  O   UNL     1     -14.182  55.052  51.256  0.00  0.00    +0.000 OA
ATOM     15  N   UNL     1     -11.999  55.439  50.136  0.00  0.00    +0.000 N 
ATOM     16  C   UNL     1     -13.670  57.518  50.758  0.00  0.00    +0.000 A 
ATOM     17  C   UNL     1     -11.652  56.201  49.143  0.00  0.00    +0.000 C 
ATOM     18  C   UNL     1     -13.114  58.105  49.635  0.00  0.00    +0.000 A 
ATOM     19  C   UNL     1     -14.702  58.121  51.480  0.00  0.00    +0.000 A 
ATOM     20  N   UNL     1     -12.078  57.496  48.932  0.00  0.00    +0.000 N 
ATOM     21  C   UNL     1     -13.561  59.380  49.268  0.00  0.00    +0.000 A 
ATOM     22  C   UNL     1     -15.162  59.375  51.082  0.00  0.00    +0.000 A 
ATOM     23  C   UNL     1     -14.586  60.006  49.981  0.00  0.00    +0.000 A 
ATOM     24  H   UNL     1     -11.620  54.533  50.208  0.00  0.00    +0.000 HD
ATOM     25  H   UNL     1     -11.621  58.024  48.238  0.00  0.00    +0.000 HD
ENDBRANCH   1  17
BRANCH   3  26
ATOM     26  O   UNL     1     -12.485  54.890  46.682  0.00  0.00    +0.000 OA
ATOM     27  H   UNL     1     -12.727  54.664  45.806  0.00  0.00    +0.000 HD
ENDBRANCH   3  26
BRANCH   5  28
ATOM     28  N   UNL     1      -6.937  55.110  47.700  0.00  0.00    +0.000 N 
ATOM     29  H   UNL     1      -6.437  55.931  47.489  0.00  0.00    +0.000 HD
BRANCH  28  30
ATOM     30  C   UNL     1      -6.283  53.902  48.213  0.00  0.00    +0.000 C 
BRANCH  30  31
ATOM     31  C   UNL     1      -6.464  53.786  49.709  0.00  0.00    +0.000 A 
ATOM     32  C   UNL     1      -7.376  52.863  50.246  0.00  0.00    +0.000 A 
ATOM     33  C   UNL     1      -5.739  54.612  50.577  0.00  0.00    +0.000 A 
ATOM     34  C   UNL     1      -7.556  52.768  51.627  0.00  0.00    +0.000 A 
ATOM     35  C   UNL     1      -5.920  54.513  51.957  0.00  0.00    +0.000 A 
ATOM     36  C   UNL     1      -6.828  53.594  52.481  0.00  0.00    +0.000 A 
ENDBRANCH  30  31
ENDBRANCH  28  30
ENDBRANCH   5  28
TORSDOF 5
ENDMDL
MODEL 9
REMARK VINA RESULT:      -8.5      2.082      5.558
REMARK  Name = 
REMARK  5 active torsions:
REMARK  status: ('A' for Active; 'I' for Inactive)
REMARK    1  A    between atoms: C_6  and  C_10
REMARK    2  A    between atoms: C_14  and  O_18
REMARK    3  A    between atoms: N_17  and  N_20
REMARK    4  A    between atoms: N_20  and  C_23
REMARK    5  A    between atoms: C_23  and  C_26
REMARK                            x       y       z     vdW  Elec       q    Type
REMARK                         _______ _______ _______ _____ _____    ______ ____
ROOT
ATOM      1  C   UNL     1     -10.313  54.866  50.226  0.00  0.00    +0.000 A 
ATOM      2  C   UNL     1     -10.133  54.739  48.748  0.00  0.00    +0.000 A 
ATOM      3  C   UNL     1     -11.335  55.581  50.726  0.00  0.00    +0.000 A 
ATOM      4  O   UNL     1      -9.165  54.086  48.347  0.00  0.00    +0.000 OA
ATOM      5  N   UNL     1     -11.076  55.345  47.915  0.00  0.00    +0.000 N 
ATOM      6  C   UNL     1     -12.313  56.218  49.833  0.00  0.00    +0.000 A 
ATOM      7  C   UNL     1     -12.171  56.095  48.440  0.00  0.00    +0.000 A 
ATOM      8  C   UNL     1     -13.400  56.941  50.355  0.00  0.00    +0.000 A 
ATOM      9  C   UNL     1     -13.119  56.705  47.599  0.00  0.00    +0.000 A 
ATOM     10  C   UNL     1     -14.340  57.530  49.512  0.00  0.00    +0.000 A 
ATOM     11  C   UNL     1     -14.198  57.414  48.133  0.00  0.00    +0.000 A 
ENDROOT
BRANCH   1  17
ATOM     12  S   UNL     1      -8.466  51.928  52.068  0.00  0.00    +0.000 S 
ATOM     13  O   UNL     1      -7.458  51.306  51.232  0.00  0.00    +0.000 OA
ATOM     14  O   UNL     1      -9.328  51.114  52.905  0.00  0.00    +0.000 OA
ATOM     15  N   UNL     1      -9.412  52.829  51.110  0.00  0.00    +0.000 N 
ATOM     16  C   UNL     1      -7.603  52.999  53.160  0.00  0.00    +0.000 A 
ATOM     17  C   UNL     1      -9.355  54.127  51.141  0.00  0.00    +0.000 C 
ATOM     18  C   UNL     1      -7.736  54.363  52.965  0.00  0.00    +0.000 A 
ATOM     19  C   UNL     1      -6.825  52.466  54.189  0.00  0.00    +0.000 A 
ATOM     20  N   UNL     1      -8.508  54.879  51.927  0.00  0.00    +0.000 N 
ATOM     21  C   UNL     1      -6.999  55.221  53.790  0.00  0.00    +0.000 A 
ATOM     22  C   UNL     1      -6.125  53.334  55.026  0.00  0.00    +0.000 A 
ATOM     23  C   UNL     1      -6.207  54.709  54.821  0.00  0.00    +0.000 A 
ATOM     24  H   UNL     1     -10.040  52.386  50.496  0.00  0.00    +0.000 HD
ATOM     25  H   UNL     1      -8.443  55.844  51.743  0.00  0.00    +0.000 HD
ENDBRANCH   1  17
BRANCH   3  26
ATOM     26  O   UNL     1     -11.575  55.759  52.078  0.00  0.00    +0.000 OA
ATOM     27  H   UNL     1     -10.902  56.103  52.632  0.00  0.00    +0.000 HD
ENDBRANCH   3  26
BRANCH   5  28
ATOM     28  N   UNL     1     -10.904  55.335  46.489  0.00  0.00    +0.000 N 
ATOM     29  H   UNL     1     -10.317  55.975  46.025  0.00  0.00    +0.000 HD
BRANCH  28  30
ATOM     30  C   UNL     1     -11.662  54.303  45.773  0.00  0.00    +0.000 C 
BRANCH  30  31
ATOM     31  C   UNL     1     -10.733  53.380  45.018  0.00  0.00    +0.000 A 
ATOM     32  C   UNL     1      -9.364  53.678  44.915  0.00  0.00    +0.000 A 
ATOM     33  C   UNL     1     -11.229  52.227  44.397  0.00  0.00    +0.000 A 
ATOM     34  C   UNL     1      -8.509  52.834  44.204  0.00  0.00    +0.000 A 
ATOM     35  C   UNL     1     -10.371  51.386  43.689  0.00  0.00    +0.000 A 
ATOM     36  C   UNL     1      -9.014  51.690  43.591  0.00  0.00    +0.000 A 
ENDBRANCH  30  31
ENDBRANCH  28  30
ENDBRANCH   5  28
TORSDOF 5
ENDMDL
