MODEL 1
REMARK VINA RESULT:      -9.3      0.000      0.000
REMARK  Name = 
REMARK  5 active torsions:
REMARK  status: ('A' for Active; 'I' for Inactive)
REMARK    1  A    between atoms: C_5  and  C_8
REMARK    2  A    between atoms: C_8  and  N_9
REMARK    3  A    between atoms: N_9  and  N_10
REMARK    4  A    between atoms: C_14  and  C_17
REMARK    5  A    between atoms: C_18  and  O_23
REMARK                            x       y       z     vdW  Elec       q    Type
REMARK                         _______ _______ _______ _____ _____    ______ ____
ROOT
ATOM      1  N   UNL     1      -9.663  54.480  50.108  0.00  0.00    +0.000 N 
ATOM      2  C   UNL     1     -10.622  55.264  50.753  0.00  0.00    +0.000 A 
ATOM      3  C   UNL     1      -9.891  53.097  49.861  0.00  0.00    +0.000 A 
ATOM      4  O   UNL     1     -10.436  56.460  50.989  0.00  0.00    +0.000 OA
ATOM      5  C   UNL     1     -11.924  54.605  51.109  0.00  0.00    +0.000 A 
ATOM      6  C   UNL     1     -11.004  52.467  50.450  0.00  0.00    +0.000 A 
ATOM      7  C   UNL     1      -9.091  52.372  48.973  0.00  0.00    +0.000 A 
ATOM      8  C   UNL     1     -11.991  53.265  51.187  0.00  0.00    +0.000 A 
ATOM      9  C   UNL     1     -11.296  51.130  50.142  0.00  0.00    +0.000 A 
ATOM     10  C   UNL     1      -9.435  51.067  48.616  0.00  0.00    +0.000 A 
ATOM     11  C   UNL     1     -10.532  50.445  49.203  0.00  0.00    +0.000 A 
ENDROOT
BRANCH   5  12
ATOM     12  C   UNL     1     -13.130  55.458  51.382  0.00  0.00    +0.000 C 
ATOM     13  N   UNL     1     -13.074  56.390  52.298  0.00  0.00    +0.000 N 
ATOM     14  N   UNL     1     -14.254  55.291  50.596  0.00  0.00    +0.000 N 
ATOM     15  S   UNL     1     -14.353  57.417  52.345  0.00  0.00    +0.000 S 
ATOM     16  C   UNL     1     -14.466  56.485  49.863  0.00  0.00    +0.000 A 
ATOM     17  O   UNL     1     -13.936  58.675  52.896  0.00  0.00    +0.000 OA
ATOM     18  O   UNL     1     -15.522  56.716  52.856  0.00  0.00    +0.000 OA
ATOM     19  C   UNL     1     -14.643  57.664  50.601  0.00  0.00    +0.000 A 
ATOM     20  C   UNL     1     -14.024  56.564  48.546  0.00  0.00    +0.000 A 
ATOM     21  C   UNL     1     -14.493  58.920  50.023  0.00  0.00    +0.000 A 
ATOM     22  C   UNL     1     -13.783  57.812  47.979  0.00  0.00    +0.000 A 
ATOM     23  C   UNL     1     -14.043  58.982  48.703  0.00  0.00    +0.000 A 
ATOM     24  H   UNL     1     -12.314  56.471  52.918  0.00  0.00    +0.000 HD
ATOM     25  H   UNL     1     -14.813  54.482  50.553  0.00  0.00    +0.000 HD
ENDBRANCH   5  12
BRANCH   1  26
ATOM     26  N   UNL     1      -8.610  55.157  49.388  0.00  0.00    +0.000 N 
ATOM     27  H   UNL     1      -7.729  55.358  49.778  0.00  0.00    +0.000 HD
BRANCH  26  28
ATOM     28  C   UNL     1      -8.986  55.513  48.015  0.00  0.00    +0.000 C 
BRANCH  28  33
ATOM     29 BR   UNL     1     -11.474  51.379  44.525  0.00  0.00    +0.000 Br
ATOM     30  C   UNL     1     -10.801  52.962  45.300  0.00  0.00    +0.000 A 
ATOM     31  C   UNL     1      -9.463  53.294  45.141  0.00  0.00    +0.000 A 
ATOM     32  C   UNL     1     -11.650  53.810  46.009  0.00  0.00    +0.000 A 
ATOM     33  C   UNL     1      -8.991  54.460  45.731  0.00  0.00    +0.000 A 
ATOM     34  C   UNL     1     -11.104  54.824  46.795  0.00  0.00    +0.000 A 
ATOM     35  C   UNL     1      -9.728  55.048  46.766  0.00  0.00    +0.000 A 
ENDBRANCH  28  33
ENDBRANCH  26  28
ENDBRANCH   1  26
BRANCH   8  36
ATOM     36  O   UNL     1     -13.042  52.556  51.736  0.00  0.00    +0.000 OA
ATOM     37  H   UNL     1     -13.864  52.979  51.889  0.00  0.00    +0.000 HD
ENDBRANCH   8  36
TORSDOF 5
ENDMDL
MODEL 2
REMARK VINA RESULT:      -9.0      3.263      4.822
REMARK  Name = 
REMARK  5 active torsions:
REMARK  status: ('A' for Active; 'I' for Inactive)
REMARK    1  A    between atoms: C_5  and  C_8
REMARK    2  A    between atoms: C_8  and  N_9
REMARK    3  A    between atoms: N_9  and  N_10
REMARK    4  A    between atoms: C_14  and  C_17
REMARK    5  A    between atoms: C_18  and  O_23
REMARK                            x       y       z     vdW  Elec       q    Type
REMARK                         _______ _______ _______ _____ _____    ______ ____
ROOT
ATOM      1  N   UNL     1      -9.764  55.219  51.031  0.00  0.00    +0.000 N 
ATOM      2  C   UNL     1     -11.137  55.347  51.257  0.00  0.00    +0.000 A 
ATOM      3  C   UNL     1      -9.265  54.794  49.768  0.00  0.00    +0.000 A 
ATOM      4  O   UNL     1     -11.589  55.698  52.349  0.00  0.00    +0.000 OA
ATOM      5  C   UNL     1     -12.053  55.087  50.095  0.00  0.00    +0.000 A 
ATOM      6  C   UNL     1     -10.164  54.305  48.802  0.00  0.00    +0.000 A 
ATOM      7  C   UNL     1      -7.916  54.940  49.431  0.00  0.00    +0.000 A 
ATOM      8  C   UNL     1     -11.609  54.372  49.046  0.00  0.00    +0.000 A 
ATOM      9  C   UNL     1      -9.700  53.971  47.521  0.00  0.00    +0.000 A 
ATOM     10  C   UNL     1      -7.481  54.678  48.131  0.00  0.00    +0.000 A 
ATOM     11  C   UNL     1      -8.370  54.189  47.178  0.00  0.00    +0.000 A 
ENDROOT
BRANCH   5  12
ATOM     12  C   UNL     1     -13.456  55.622  50.129  0.00  0.00    +0.000 C 
ATOM     13  N   UNL     1     -14.155  55.546  51.232  0.00  0.00    +0.000 N 
ATOM     14  N   UNL     1     -13.950  56.261  49.009  0.00  0.00    +0.000 N 
ATOM     15  S   UNL     1     -15.572  56.374  51.233  0.00  0.00    +0.000 S 
ATOM     16  C   UNL     1     -14.189  57.619  49.340  0.00  0.00    +0.000 A 
ATOM     17  O   UNL     1     -15.917  56.729  52.581  0.00  0.00    +0.000 OA
ATOM     18  O   UNL     1     -16.524  55.710  50.356  0.00  0.00    +0.000 OA
ATOM     19  C   UNL     1     -15.080  57.871  50.393  0.00  0.00    +0.000 A 
ATOM     20  C   UNL     1     -13.242  58.580  49.002  0.00  0.00    +0.000 A 
ATOM     21  C   UNL     1     -15.117  59.099  51.043  0.00  0.00    +0.000 A 
ATOM     22  C   UNL     1     -13.207  59.782  49.703  0.00  0.00    +0.000 A 
ATOM     23  C   UNL     1     -14.156  60.051  50.697  0.00  0.00    +0.000 A 
ATOM     24  H   UNL     1     -13.850  55.027  52.011  0.00  0.00    +0.000 HD
ATOM     25  H   UNL     1     -14.110  55.846  48.131  0.00  0.00    +0.000 HD
ENDBRANCH   5  12
BRANCH   1  26
ATOM     26  N   UNL     1      -8.865  55.856  51.964  0.00  0.00    +0.000 N 
ATOM     27  H   UNL     1      -8.560  56.788  51.873  0.00  0.00    +0.000 HD
BRANCH  26  28
ATOM     28  C   UNL     1      -8.452  54.974  53.062  0.00  0.00    +0.000 C 
BRANCH  28  33
ATOM     29 BR   UNL     1      -8.459  49.939  56.242  0.00  0.00    +0.000 Br
ATOM     30  C   UNL     1      -8.510  51.257  54.892  0.00  0.00    +0.000 A 
ATOM     31  C   UNL     1      -7.327  51.735  54.348  0.00  0.00    +0.000 A 
ATOM     32  C   UNL     1      -9.735  51.730  54.423  0.00  0.00    +0.000 A 
ATOM     33  C   UNL     1      -7.393  52.713  53.363  0.00  0.00    +0.000 A 
ATOM     34  C   UNL     1      -9.766  52.877  53.630  0.00  0.00    +0.000 A 
ATOM     35  C   UNL     1      -8.567  53.462  53.223  0.00  0.00    +0.000 A 
ENDBRANCH  28  33
ENDBRANCH  26  28
ENDBRANCH   1  26
BRANCH   8  36
ATOM     36  O   UNL     1     -12.409  53.859  48.043  0.00  0.00    +0.000 OA
ATOM     37  H   UNL     1     -12.874  54.438  47.471  0.00  0.00    +0.000 HD
ENDBRANCH   8  36
TORSDOF 5
ENDMDL
MODEL 3
REMARK VINA RESULT:      -8.9      2.317      5.559
REMARK  Name = 
REMARK  5 active torsions:
REMARK  status: ('A' for Active; 'I' for Inactive)
REMARK    1  A    between atoms: C_5  and  C_8
REMARK    2  A    between atoms: C_8  and  N_9
REMARK    3  A    between atoms: N_9  and  N_10
REMARK    4  A    between atoms: C_14  and  C_17
REMARK    5  A    between atoms: C_18  and  O_23
REMARK                            x       y       z     vdW  Elec       q    Type
REMARK                         _______ _______ _______ _____ _____    ______ ____
ROOT
ATOM      1  N   UNL     1     -13.409  56.169  48.784  0.00  0.00    +0.000 N 
ATOM      2  C   UNL     1     -12.903  55.150  49.593  0.00  0.00    +0.000 A 
ATOM      3  C   UNL     1     -13.799  57.421  49.338  0.00  0.00    +0.000 A 
ATOM      4  O   UNL     1     -12.575  54.054  49.134  0.00  0.00    +0.000 OA
ATOM      5  C   UNL     1     -12.722  55.455  51.053  0.00  0.00    +0.000 A 
ATOM      6  C   UNL     1     -13.865  57.563  50.738  0.00  0.00    +0.000 A 
ATOM      7  C   UNL     1     -14.025  58.538  48.529  0.00  0.00    +0.000 A 
ATOM      8  C   UNL     1     -13.396  56.477  51.606  0.00  0.00    +0.000 A 
ATOM      9  C   UNL     1     -14.156  58.815  51.300  0.00  0.00    +0.000 A 
ATOM     10  C   UNL     1     -14.237  59.794  49.102  0.00  0.00    +0.000 A 
ATOM     11  C   UNL     1     -14.308  59.931  50.485  0.00  0.00    +0.000 A 
ENDROOT
BRANCH   5  12
ATOM     12  C   UNL     1     -11.797  54.603  51.874  0.00  0.00    +0.000 C 
ATOM     13  N   UNL     1     -11.922  53.301  51.856  0.00  0.00    +0.000 N 
ATOM     14  N   UNL     1     -10.774  55.215  52.572  0.00  0.00    +0.000 N 
ATOM     15  S   UNL     1     -10.716  52.461  52.586  0.00  0.00    +0.000 S 
ATOM     16  C   UNL     1      -9.540  54.775  52.032  0.00  0.00    +0.000 A 
ATOM     17  O   UNL     1     -10.622  51.154  52.000  0.00  0.00    +0.000 OA
ATOM     18  O   UNL     1     -10.802  52.642  54.028  0.00  0.00    +0.000 OA
ATOM     19  C   UNL     1      -9.292  53.395  52.051  0.00  0.00    +0.000 A 
ATOM     20  C   UNL     1      -8.876  55.575  51.107  0.00  0.00    +0.000 A 
ATOM     21  C   UNL     1      -8.320  52.814  51.244  0.00  0.00    +0.000 A 
ATOM     22  C   UNL     1      -7.964  54.994  50.231  0.00  0.00    +0.000 A 
ATOM     23  C   UNL     1      -7.666  53.629  50.318  0.00  0.00    +0.000 A 
ATOM     24  H   UNL     1     -12.689  52.854  51.430  0.00  0.00    +0.000 HD
ATOM     25  H   UNL     1     -10.883  55.849  53.317  0.00  0.00    +0.000 HD
ENDBRANCH   5  12
BRANCH   1  26
ATOM     26  N   UNL     1     -13.199  56.068  47.359  0.00  0.00    +0.000 N 
ATOM     27  H   UNL     1     -13.931  55.955  46.710  0.00  0.00    +0.000 HD
BRANCH  26  28
ATOM     28  C   UNL     1     -11.784  56.149  46.977  0.00  0.00    +0.000 C 
BRANCH  28  33
ATOM     29 BR   UNL     1      -9.846  50.536  46.533  0.00  0.00    +0.000 Br
ATOM     30  C   UNL     1     -10.192  52.380  46.326  0.00  0.00    +0.000 A 
ATOM     31  C   UNL     1      -9.481  53.305  47.078  0.00  0.00    +0.000 A 
ATOM     32  C   UNL     1     -11.140  52.814  45.402  0.00  0.00    +0.000 A 
ATOM     33  C   UNL     1      -9.763  54.656  46.914  0.00  0.00    +0.000 A 
ATOM     34  C   UNL     1     -11.578  54.138  45.442  0.00  0.00    +0.000 A 
ATOM     35  C   UNL     1     -10.976  55.033  46.326  0.00  0.00    +0.000 A 
ENDBRANCH  28  33
ENDBRANCH  26  28
ENDBRANCH   1  26
BRANCH   8  36
ATOM     36  O   UNL     1     -13.510  56.708  52.964  0.00  0.00    +0.000 OA
ATOM     37  H   UNL     1     -14.345  56.914  53.337  0.00  0.00    +0.000 HD
ENDBRANCH   8  36
TORSDOF 5
ENDMDL
MODEL 4
REMARK VINA RESULT:      -8.7      3.881      6.709
REMARK  Name = 
REMARK  5 active torsions:
REMARK  status: ('A' for Active; 'I' for Inactive)
REMARK    1  A    between atoms: C_5  and  C_8
REMARK    2  A    between atoms: C_8  and  N_9
REMARK    3  A    between atoms: N_9  and  N_10
REMARK    4  A    between atoms: C_14  and  C_17
REMARK    5  A    between atoms: C_18  and  O_23
REMARK                            x       y       z     vdW  Elec       q    Type
REMARK                         _______ _______ _______ _____ _____    ______ ____
ROOT
ATOM      1  N   UNL     1     -10.001  53.591  51.907  0.00  0.00    +0.000 N 
ATOM      2  C   UNL     1      -9.944  53.030  50.630  0.00  0.00    +0.000 A 
ATOM      3  C   UNL     1      -8.832  54.102  52.537  0.00  0.00    +0.000 A 
ATOM      4  O   UNL     1     -10.944  52.569  50.074  0.00  0.00    +0.000 OA
ATOM      5  C   UNL     1      -8.617  53.053  49.926  0.00  0.00    +0.000 A 
ATOM      6  C   UNL     1      -7.574  53.857  51.954  0.00  0.00    +0.000 A 
ATOM      7  C   UNL     1      -8.910  54.920  53.668  0.00  0.00    +0.000 A 
ATOM      8  C   UNL     1      -7.489  53.210  50.640  0.00  0.00    +0.000 A 
ATOM      9  C   UNL     1      -6.421  54.432  52.511  0.00  0.00    +0.000 A 
ATOM     10  C   UNL     1      -7.767  55.548  54.166  0.00  0.00    +0.000 A 
ATOM     11  C   UNL     1      -6.524  55.301  53.592  0.00  0.00    +0.000 A 
ENDROOT
BRANCH   5  12
ATOM     12  C   UNL     1      -8.572  52.888  48.434  0.00  0.00    +0.000 C 
ATOM     13  N   UNL     1      -9.012  51.784  47.887  0.00  0.00    +0.000 N 
ATOM     14  N   UNL     1      -8.140  53.948  47.661  0.00  0.00    +0.000 N 
ATOM     15  S   UNL     1      -9.145  51.805  46.251  0.00  0.00    +0.000 S 
ATOM     16  C   UNL     1      -9.224  54.388  46.861  0.00  0.00    +0.000 A 
ATOM     17  O   UNL     1     -10.153  50.869  45.842  0.00  0.00    +0.000 OA
ATOM     18  O   UNL     1      -7.818  51.800  45.655  0.00  0.00    +0.000 OA
ATOM     19  C   UNL     1      -9.800  53.447  45.995  0.00  0.00    +0.000 A 
ATOM     20  C   UNL     1      -9.973  55.486  47.270  0.00  0.00    +0.000 A 
ATOM     21  C   UNL     1     -11.063  53.633  45.446  0.00  0.00    +0.000 A 
ATOM     22  C   UNL     1     -11.273  55.641  46.799  0.00  0.00    +0.000 A 
ATOM     23  C   UNL     1     -11.804  54.737  45.871  0.00  0.00    +0.000 A 
ATOM     24  H   UNL     1      -9.249  50.992  48.422  0.00  0.00    +0.000 HD
ATOM     25  H   UNL     1      -7.234  54.333  47.665  0.00  0.00    +0.000 HD
ENDBRANCH   5  12
BRANCH   1  26
ATOM     26  N   UNL     1     -11.297  53.967  52.423  0.00  0.00    +0.000 N 
ATOM     27  H   UNL     1     -11.865  53.363  52.954  0.00  0.00    +0.000 HD
BRANCH  26  28
ATOM     28  C   UNL     1     -11.680  55.340  52.075  0.00  0.00    +0.000 C 
BRANCH  28  33
ATOM     29 BR   UNL     1     -14.349  60.092  49.675  0.00  0.00    +0.000 Br
ATOM     30  C   UNL     1     -13.873  58.379  50.306  0.00  0.00    +0.000 A 
ATOM     31  C   UNL     1     -14.116  58.038  51.630  0.00  0.00    +0.000 A 
ATOM     32  C   UNL     1     -13.305  57.447  49.440  0.00  0.00    +0.000 A 
ATOM     33  C   UNL     1     -13.746  56.773  52.071  0.00  0.00    +0.000 A 
ATOM     34  C   UNL     1     -12.718  56.295  49.963  0.00  0.00    +0.000 A 
ATOM     35  C   UNL     1     -12.813  56.038  51.331  0.00  0.00    +0.000 A 
ENDBRANCH  28  33
ENDBRANCH  26  28
ENDBRANCH   1  26
BRANCH   8  36
ATOM     36  O   UNL     1      -6.211  53.005  50.156  0.00  0.00    +0.000 OA
ATOM     37  H   UNL     1      -5.557  53.668  50.263  0.00  0.00    +0.000 HD
ENDBRANCH   8  36
TORSDOF 5
ENDMDL
MODEL 5
REMARK VINA RESULT:      -8.6      2.503      3.467
REMARK  Name = 
REMARK  5 active torsions:
REMARK  status: ('A' for Active; 'I' for Inactive)
REMARK    1  A    between atoms: C_5  and  C_8
REMARK    2  A    between atoms: C_8  and  N_9
REMARK    3  A    between atoms: N_9  and  N_10
REMARK    4  A    between atoms: C_14  and  C_17
REMARK    5  A    between atoms: C_18  and  O_23
REMARK                            x       y       z     vdW  Elec       q    Type
REMARK                         _______ _______ _______ _____ _____    ______ ____
ROOT
ATOM      1  N   UNL     1     -10.273  54.395  49.141  0.00  0.00    +0.000 N 
ATOM      2  C   UNL     1     -11.101  55.264  49.855  0.00  0.00    +0.000 A 
ATOM      3  C   UNL     1     -10.418  52.984  49.257  0.00  0.00    +0.000 A 
ATOM      4  O   UNL     1     -10.981  56.489  49.780  0.00  0.00    +0.000 OA
ATOM      5  C   UNL     1     -12.189  54.650  50.689  0.00  0.00    +0.000 A 
ATOM      6  C   UNL     1     -11.266  52.458  50.250  0.00  0.00    +0.000 A 
ATOM      7  C   UNL     1      -9.813  52.112  48.347  0.00  0.00    +0.000 A 
ATOM      8  C   UNL     1     -12.098  53.360  51.054  0.00  0.00    +0.000 A 
ATOM      9  C   UNL     1     -11.492  51.075  50.316  0.00  0.00    +0.000 A 
ATOM     10  C   UNL     1     -10.106  50.747  48.375  0.00  0.00    +0.000 A 
ATOM     11  C   UNL     1     -10.940  50.228  49.361  0.00  0.00    +0.000 A 
ENDROOT
BRANCH   5  12
ATOM     12  C   UNL     1     -13.359  55.493  51.109  0.00  0.00    +0.000 C 
ATOM     13  N   UNL     1     -13.254  56.281  52.148  0.00  0.00    +0.000 N 
ATOM     14  N   UNL     1     -14.502  55.478  50.333  0.00  0.00    +0.000 N 
ATOM     15  S   UNL     1     -14.495  57.331  52.372  0.00  0.00    +0.000 S 
ATOM     16  C   UNL     1     -14.685  56.772  49.784  0.00  0.00    +0.000 A 
ATOM     17  O   UNL     1     -14.024  58.482  53.088  0.00  0.00    +0.000 OA
ATOM     18  O   UNL     1     -15.678  56.602  52.802  0.00  0.00    +0.000 OA
ATOM     19  C   UNL     1     -14.807  57.837  50.688  0.00  0.00    +0.000 A 
ATOM     20  C   UNL     1     -14.263  57.026  48.482  0.00  0.00    +0.000 A 
ATOM     21  C   UNL     1     -14.623  59.157  50.294  0.00  0.00    +0.000 A 
ATOM     22  C   UNL     1     -13.988  58.334  48.096  0.00  0.00    +0.000 A 
ATOM     23  C   UNL     1     -14.194  59.395  48.987  0.00  0.00    +0.000 A 
ATOM     24  H   UNL     1     -12.481  56.246  52.756  0.00  0.00    +0.000 HD
ATOM     25  H   UNL     1     -15.090  54.702  50.186  0.00  0.00    +0.000 HD
ENDBRANCH   5  12
BRANCH   1  26
ATOM     26  N   UNL     1      -9.522  54.935  48.032  0.00  0.00    +0.000 N 
ATOM     27  H   UNL     1      -9.818  54.873  47.096  0.00  0.00    +0.000 HD
BRANCH  26  28
ATOM     28  C   UNL     1      -8.273  55.587  48.445  0.00  0.00    +0.000 C 
BRANCH  28  33
ATOM     29 BR   UNL     1      -7.157  54.929  54.257  0.00  0.00    +0.000 Br
ATOM     30  C   UNL     1      -7.075  55.218  52.394  0.00  0.00    +0.000 A 
ATOM     31  C   UNL     1      -7.357  56.475  51.877  0.00  0.00    +0.000 A 
ATOM     32  C   UNL     1      -6.706  54.180  51.540  0.00  0.00    +0.000 A 
ATOM     33  C   UNL     1      -7.299  56.658  50.500  0.00  0.00    +0.000 A 
ATOM     34  C   UNL     1      -6.904  54.321  50.167  0.00  0.00    +0.000 A 
ATOM     35  C   UNL     1      -7.355  55.539  49.660  0.00  0.00    +0.000 A 
ENDBRANCH  28  33
ENDBRANCH  26  28
ENDBRANCH   1  26
BRANCH   8  36
ATOM     36  O   UNL     1     -12.889  52.750  52.009  0.00  0.00    +0.000 OA
ATOM     37  H   UNL     1     -13.216  53.245  52.735  0.00  0.00    +0.000 HD
ENDBRANCH   8  36
TORSDOF 5
ENDMDL
MODEL 6
REMARK VINA RESULT:      -8.6      4.193      7.522
REMARK  Name = 
REMARK  5 active torsions:
REMARK  status: ('A' for Active; 'I' for Inactive)
REMARK    1  A    between atoms: C_5  and  C_8
REMARK    2  A    between atoms: C_8  and  N_9
REMARK    3  A    between atoms: N_9  and  N_10
REMARK    4  A    between atoms: C_14  and  C_17
REMARK    5  A    between atoms: C_18  and  O_23
REMARK                            x       y       z     vdW  Elec       q    Type
REMARK                         _______ _______ _______ _____ _____    ______ ____
ROOT
ATOM      1  N   UNL     1     -10.091  54.999  50.246  0.00  0.00    +0.000 N 
ATOM      2  C   UNL     1      -9.030  54.957  51.154  0.00  0.00    +0.000 A 
ATOM      3  C   UNL     1      -9.855  55.080  48.845  0.00  0.00    +0.000 A 
ATOM      4  O   UNL     1      -9.215  54.902  52.372  0.00  0.00    +0.000 OA
ATOM      5  C   UNL     1      -7.639  54.929  50.587  0.00  0.00    +0.000 A 
ATOM      6  C   UNL     1      -8.548  55.323  48.380  0.00  0.00    +0.000 A 
ATOM      7  C   UNL     1     -10.871  54.830  47.919  0.00  0.00    +0.000 A 
ATOM      8  C   UNL     1      -7.427  55.345  49.326  0.00  0.00    +0.000 A 
ATOM      9  C   UNL     1      -8.283  55.312  47.003  0.00  0.00    +0.000 A 
ATOM     10  C   UNL     1     -10.580  54.746  46.556  0.00  0.00    +0.000 A 
ATOM     11  C   UNL     1      -9.289  54.991  46.098  0.00  0.00    +0.000 A 
ENDROOT
BRANCH   5  12
ATOM     12  C   UNL     1      -6.504  54.444  51.443  0.00  0.00    +0.000 C 
ATOM     13  N   UNL     1      -6.051  55.198  52.411  0.00  0.00    +0.000 N 
ATOM     14  N   UNL     1      -6.017  53.167  51.239  0.00  0.00    +0.000 N 
ATOM     15  S   UNL     1      -4.986  54.479  53.432  0.00  0.00    +0.000 S 
ATOM     16  C   UNL     1      -6.276  52.400  52.402  0.00  0.00    +0.000 A 
ATOM     17  O   UNL     1      -5.043  55.125  54.713  0.00  0.00    +0.000 OA
ATOM     18  O   UNL     1      -3.721  54.266  52.745  0.00  0.00    +0.000 OA
ATOM     19  C   UNL     1      -5.735  52.868  53.609  0.00  0.00    +0.000 A 
ATOM     20  C   UNL     1      -7.386  51.561  52.432  0.00  0.00    +0.000 A 
ATOM     21  C   UNL     1      -6.207  52.432  54.842  0.00  0.00    +0.000 A 
ATOM     22  C   UNL     1      -7.926  51.185  53.658  0.00  0.00    +0.000 A 
ATOM     23  C   UNL     1      -7.324  51.594  54.855  0.00  0.00    +0.000 A 
ATOM     24  H   UNL     1      -6.331  56.136  52.520  0.00  0.00    +0.000 HD
ATOM     25  H   UNL     1      -5.565  52.845  50.426  0.00  0.00    +0.000 HD
ENDBRANCH   5  12
BRANCH   1  26
ATOM     26  N   UNL     1     -11.398  54.605  50.717  0.00  0.00    +0.000 N 
ATOM     27  H   UNL     1     -11.872  53.805  50.393  0.00  0.00    +0.000 HD
BRANCH  26  28
ATOM     28  C   UNL     1     -11.947  55.517  51.727  0.00  0.00    +0.000 C 
BRANCH  28  33
ATOM     29 BR   UNL     1     -14.599  60.346  49.467  0.00  0.00    +0.000 Br
ATOM     30  C   UNL     1     -14.161  58.636  50.133  0.00  0.00    +0.000 A 
ATOM     31  C   UNL     1     -14.197  58.397  51.500  0.00  0.00    +0.000 A 
ATOM     32  C   UNL     1     -13.828  57.607  49.254  0.00  0.00    +0.000 A 
ATOM     33  C   UNL     1     -13.860  57.131  51.964  0.00  0.00    +0.000 A 
ATOM     34  C   UNL     1     -13.253  56.438  49.755  0.00  0.00    +0.000 A 
ATOM     35  C   UNL     1     -13.131  56.271  51.134  0.00  0.00    +0.000 A 
ENDBRANCH  28  33
ENDBRANCH  26  28
ENDBRANCH   1  26
BRANCH   8  36
ATOM     36  O   UNL     1      -6.186  55.600  48.775  0.00  0.00    +0.000 OA
ATOM     37  H   UNL     1      -6.096  55.702  47.848  0.00  0.00    +0.000 HD
ENDBRANCH   8  36
TORSDOF 5
ENDMDL
MODEL 7
REMARK VINA RESULT:      -8.5      2.167      2.677
REMARK  Name = 
REMARK  5 active torsions:
REMARK  status: ('A' for Active; 'I' for Inactive)
REMARK    1  A    between atoms: C_5  and  C_8
REMARK    2  A    between atoms: C_8  and  N_9
REMARK    3  A    between atoms: N_9  and  N_10
REMARK    4  A    between atoms: C_14  and  C_17
REMARK    5  A    between atoms: C_18  and  O_23
REMARK                            x       y       z     vdW  Elec       q    Type
REMARK                         _______ _______ _______ _____ _____    ______ ____
ROOT
ATOM      1  N   UNL     1      -8.102  54.468  51.356  0.00  0.00    +0.000 N 
ATOM      2  C   UNL     1      -9.309  55.164  51.262  0.00  0.00    +0.000 A 
ATOM      3  C   UNL     1      -8.049  53.163  51.920  0.00  0.00    +0.000 A 
ATOM      4  O   UNL     1      -9.373  56.302  50.792  0.00  0.00    +0.000 OA
ATOM      5  C   UNL     1     -10.552  54.450  51.714  0.00  0.00    +0.000 A 
ATOM      6  C   UNL     1      -9.186  52.648  52.572  0.00  0.00    +0.000 A 
ATOM      7  C   UNL     1      -6.928  52.344  51.759  0.00  0.00    +0.000 A 
ATOM      8  C   UNL     1     -10.449  53.394  52.539  0.00  0.00    +0.000 A 
ATOM      9  C   UNL     1      -9.181  51.329  53.050  0.00  0.00    +0.000 A 
ATOM     10  C   UNL     1      -6.963  51.010  52.170  0.00  0.00    +0.000 A 
ATOM     11  C   UNL     1      -8.085  50.504  52.819  0.00  0.00    +0.000 A 
ENDROOT
BRANCH   5  12
ATOM     12  C   UNL     1     -11.893  54.936  51.243  0.00  0.00    +0.000 C 
ATOM     13  N   UNL     1     -12.250  56.175  51.463  0.00  0.00    +0.000 N 
ATOM     14  N   UNL     1     -12.690  54.079  50.509  0.00  0.00    +0.000 N 
ATOM     15  S   UNL     1     -13.617  56.667  50.698  0.00  0.00    +0.000 S 
ATOM     16  C   UNL     1     -12.838  54.615  49.205  0.00  0.00    +0.000 A 
ATOM     17  O   UNL     1     -13.569  58.088  50.502  0.00  0.00    +0.000 OA
ATOM     18  O   UNL     1     -14.772  56.023  51.304  0.00  0.00    +0.000 OA
ATOM     19  C   UNL     1     -13.397  55.897  49.102  0.00  0.00    +0.000 A 
ATOM     20  C   UNL     1     -12.034  54.136  48.176  0.00  0.00    +0.000 A 
ATOM     21  C   UNL     1     -13.259  56.666  47.952  0.00  0.00    +0.000 A 
ATOM     22  C   UNL     1     -11.813  54.930  47.055  0.00  0.00    +0.000 A 
ATOM     23  C   UNL     1     -12.445  56.174  46.930  0.00  0.00    +0.000 A 
ATOM     24  H   UNL     1     -11.733  56.774  52.048  0.00  0.00    +0.000 HD
ATOM     25  H   UNL     1     -13.088  53.240  50.835  0.00  0.00    +0.000 HD
ENDBRANCH   5  12
BRANCH   1  26
ATOM     26  N   UNL     1      -6.990  54.936  50.562  0.00  0.00    +0.000 N 
ATOM     27  H   UNL     1      -6.252  55.476  50.927  0.00  0.00    +0.000 HD
BRANCH  26  28
ATOM     28  C   UNL     1      -7.071  54.524  49.156  0.00  0.00    +0.000 C 
BRANCH  28  33
ATOM     29 BR   UNL     1      -8.708  52.890  43.668  0.00  0.00    +0.000 Br
ATOM     30  C   UNL     1      -8.623  53.486  45.457  0.00  0.00    +0.000 A 
ATOM     31  C   UNL     1      -8.328  54.815  45.729  0.00  0.00    +0.000 A 
ATOM     32  C   UNL     1      -8.883  52.602  46.502  0.00  0.00    +0.000 A 
ATOM     33  C   UNL     1      -8.262  55.225  47.055  0.00  0.00    +0.000 A 
ATOM     34  C   UNL     1      -8.562  52.972  47.808  0.00  0.00    +0.000 A 
ATOM     35  C   UNL     1      -8.097  54.263  48.059  0.00  0.00    +0.000 A 
ENDBRANCH  28  33
ENDBRANCH  26  28
ENDBRANCH   1  26
BRANCH   8  36
ATOM     36  O   UNL     1     -11.504  52.812  53.215  0.00  0.00    +0.000 OA
ATOM     37  H   UNL     1     -12.380  53.106  53.060  0.00  0.00    +0.000 HD
ENDBRANCH   8  36
TORSDOF 5
ENDMDL
MODEL 8
REMARK VINA RESULT:      -8.5      3.024      4.433
REMARK  Name = 
REMARK  5 active torsions:
REMARK  status: ('A' for Active; 'I' for Inactive)
REMARK    1  A    between atoms: C_5  and  C_8
REMARK    2  A    between atoms: C_8  and  N_9
REMARK    3  A    between atoms: N_9  and  N_10
REMARK    4  A    between atoms: C_14  and  C_17
REMARK    5  A    between atoms: C_18  and  O_23
REMARK                            x       y       z     vdW  Elec       q    Type
REMARK                         _______ _______ _______ _____ _____    ______ ____
ROOT
ATOM      1  N   UNL     1      -9.800  55.055  51.044  0.00  0.00    +0.000 N 
ATOM      2  C   UNL     1     -11.174  55.184  51.253  0.00  0.00    +0.000 A 
ATOM      3  C   UNL     1      -9.279  54.745  49.756  0.00  0.00    +0.000 A 
ATOM      4  O   UNL     1     -11.645  55.436  52.364  0.00  0.00    +0.000 OA
ATOM      5  C   UNL     1     -12.069  55.052  50.053  0.00  0.00    +0.000 A 
ATOM      6  C   UNL     1     -10.165  54.367  48.729  0.00  0.00    +0.000 A 
ATOM      7  C   UNL     1      -7.922  54.899  49.462  0.00  0.00    +0.000 A 
ATOM      8  C   UNL     1     -11.614  54.435  48.950  0.00  0.00    +0.000 A 
ATOM      9  C   UNL     1      -9.678  54.149  47.431  0.00  0.00    +0.000 A 
ATOM     10  C   UNL     1      -7.462  54.756  48.151  0.00  0.00    +0.000 A 
ATOM     11  C   UNL     1      -8.338  54.376  47.138  0.00  0.00    +0.000 A 
ENDROOT
BRANCH   5  12
ATOM     12  C   UNL     1     -13.464  55.606  50.111  0.00  0.00    +0.000 C 
ATOM     13  N   UNL     1     -14.149  55.531  51.222  0.00  0.00    +0.000 N 
ATOM     14  N   UNL     1     -13.965  56.262  49.002  0.00  0.00    +0.000 N 
ATOM     15  S   UNL     1     -15.555  56.377  51.249  0.00  0.00    +0.000 S 
ATOM     16  C   UNL     1     -14.181  57.619  49.348  0.00  0.00    +0.000 A 
ATOM     17  O   UNL     1     -15.877  56.725  52.604  0.00  0.00    +0.000 OA
ATOM     18  O   UNL     1     -16.528  55.733  50.379  0.00  0.00    +0.000 OA
ATOM     19  C   UNL     1     -15.054  57.874  50.415  0.00  0.00    +0.000 A 
ATOM     20  C   UNL     1     -13.225  58.571  49.005  0.00  0.00    +0.000 A 
ATOM     21  C   UNL     1     -15.066  59.098  51.075  0.00  0.00    +0.000 A 
ATOM     22  C   UNL     1     -13.165  59.766  49.716  0.00  0.00    +0.000 A 
ATOM     23  C   UNL     1     -14.098  60.039  50.724  0.00  0.00    +0.000 A 
ATOM     24  H   UNL     1     -13.842  55.001  51.993  0.00  0.00    +0.000 HD
ATOM     25  H   UNL     1     -14.142  55.856  48.123  0.00  0.00    +0.000 HD
ENDBRANCH   5  12
BRANCH   1  26
ATOM     26  N   UNL     1      -8.911  55.584  52.052  0.00  0.00    +0.000 N 
ATOM     27  H   UNL     1      -8.674  56.537  52.119  0.00  0.00    +0.000 HD
BRANCH  26  28
ATOM     28  C   UNL     1      -8.398  54.556  52.965  0.00  0.00    +0.000 C 
BRANCH  28  33
ATOM     29 BR   UNL     1      -3.994  51.787  50.067  0.00  0.00    +0.000 Br
ATOM     30  C   UNL     1      -5.126  52.604  51.337  0.00  0.00    +0.000 A 
ATOM     31  C   UNL     1      -6.135  51.866  51.939  0.00  0.00    +0.000 A 
ATOM     32  C   UNL     1      -4.932  53.938  51.690  0.00  0.00    +0.000 A 
ATOM     33  C   UNL     1      -6.961  52.496  52.863  0.00  0.00    +0.000 A 
ATOM     34  C   UNL     1      -5.919  54.604  52.416  0.00  0.00    +0.000 A 
ATOM     35  C   UNL     1      -7.028  53.894  52.877  0.00  0.00    +0.000 A 
ENDBRANCH  28  33
ENDBRANCH  26  28
ENDBRANCH   1  26
BRANCH   8  36
ATOM     36  O   UNL     1     -12.399  54.034  47.886  0.00  0.00    +0.000 OA
ATOM     37  H   UNL     1     -13.287  53.773  48.030  0.00  0.00    +0.000 HD
ENDBRANCH   8  36
TORSDOF 5
ENDMDL
MODEL 9
REMARK VINA RESULT:      -8.3      3.895      6.929
REMARK  Name = 
REMARK  5 active torsions:
REMARK  status: ('A' for Active; 'I' for Inactive)
REMARK    1  A    between atoms: C_5  and  C_8
REMARK    2  A    between atoms: C_8  and  N_9
REMARK    3  A    between atoms: N_9  and  N_10
REMARK    4  A    between atoms: C_14  and  C_17
REMARK    5  A    between atoms: C_18  and  O_23
REMARK                            x       y       z     vdW  Elec       q    Type
REMARK                         _______ _______ _______ _____ _____    ______ ____
ROOT
ATOM      1  N   UNL     1      -8.713  56.000  49.268  0.00  0.00    +0.000 N 
ATOM      2  C   UNL     1      -7.777  55.847  50.293  0.00  0.00    +0.000 A 
ATOM      3  C   UNL     1      -8.496  55.426  47.984  0.00  0.00    +0.000 A 
ATOM      4  O   UNL     1      -7.939  56.351  51.407  0.00  0.00    +0.000 OA
ATOM      5  C   UNL     1      -6.573  54.995  50.005  0.00  0.00    +0.000 A 
ATOM      6  C   UNL     1      -7.238  54.870  47.683  0.00  0.00    +0.000 A 
ATOM      7  C   UNL     1      -9.530  55.315  47.051  0.00  0.00    +0.000 A 
ATOM      8  C   UNL     1      -6.217  54.757  48.731  0.00  0.00    +0.000 A 
ATOM      9  C   UNL     1      -7.038  54.217  46.457  0.00  0.00    +0.000 A 
ATOM     10  C   UNL     1      -9.341  54.596  45.869  0.00  0.00    +0.000 A 
ATOM     11  C   UNL     1      -8.096  54.052  45.570  0.00  0.00    +0.000 A 
ENDROOT
BRANCH   5  12
ATOM     12  C   UNL     1      -5.780  54.430  51.148  0.00  0.00    +0.000 C 
ATOM     13  N   UNL     1      -5.544  55.166  52.204  0.00  0.00    +0.000 N 
ATOM     14  N   UNL     1      -5.385  53.107  51.093  0.00  0.00    +0.000 N 
ATOM     15  S   UNL     1      -4.888  54.380  53.486  0.00  0.00    +0.000 S 
ATOM     16  C   UNL     1      -6.038  52.404  52.137  0.00  0.00    +0.000 A 
ATOM     17  O   UNL     1      -5.237  55.066  54.697  0.00  0.00    +0.000 OA
ATOM     18  O   UNL     1      -3.508  54.026  53.186  0.00  0.00    +0.000 OA
ATOM     19  C   UNL     1      -5.813  52.854  53.446  0.00  0.00    +0.000 A 
ATOM     20  C   UNL     1      -7.189  51.676  51.853  0.00  0.00    +0.000 A 
ATOM     21  C   UNL     1      -6.654  52.502  54.496  0.00  0.00    +0.000 A 
ATOM     22  C   UNL     1      -8.087  51.391  52.877  0.00  0.00    +0.000 A 
ATOM     23  C   UNL     1      -7.808  51.776  54.194  0.00  0.00    +0.000 A 
ATOM     24  H   UNL     1      -5.748  56.129  52.227  0.00  0.00    +0.000 HD
ATOM     25  H   UNL     1      -4.758  52.719  50.442  0.00  0.00    +0.000 HD
ENDBRANCH   5  12
BRANCH   1  26
ATOM     26  N   UNL     1     -10.042  56.435  49.628  0.00  0.00    +0.000 N 
ATOM     27  H   UNL     1     -10.328  57.377  49.608  0.00  0.00    +0.000 HD
BRANCH  26  28
ATOM     28  C   UNL     1     -10.923  55.331  50.024  0.00  0.00    +0.000 C 
BRANCH  28  33
ATOM     29 BR   UNL     1     -10.614  50.457  46.617  0.00  0.00    +0.000 Br
ATOM     30  C   UNL     1     -10.918  51.727  47.979  0.00  0.00    +0.000 A 
ATOM     31  C   UNL     1     -12.036  52.547  47.921  0.00  0.00    +0.000 A 
ATOM     32  C   UNL     1     -10.036  51.825  49.054  0.00  0.00    +0.000 A 
ATOM     33  C   UNL     1     -12.230  53.481  48.932  0.00  0.00    +0.000 A 
ATOM     34  C   UNL     1     -10.114  52.927  49.905  0.00  0.00    +0.000 A 
ATOM     35  C   UNL     1     -11.146  53.850  49.737  0.00  0.00    +0.000 A 
ENDBRANCH  28  33
ENDBRANCH  26  28
ENDBRANCH   1  26
BRANCH   8  36
ATOM     36  O   UNL     1      -5.013  54.207  48.335  0.00  0.00    +0.000 OA
ATOM     37  H   UNL     1      -4.566  53.605  48.895  0.00  0.00    +0.000 HD
ENDBRANCH   8  36
TORSDOF 5
ENDMDL
