MODEL 1
REMARK VINA RESULT:      -8.4      0.000      0.000
REMARK  Name = 
REMARK  5 active torsions:
REMARK  status: ('A' for Active; 'I' for Inactive)
REMARK    1  A    between atoms: C_6  and  C_10
REMARK    2  A    between atoms: C_14  and  O_18
REMARK    3  A    between atoms: N_17  and  N_20
REMARK    4  A    between atoms: N_20  and  C_23
REMARK    5  A    between atoms: C_23  and  C_26
REMARK                            x       y       z     vdW  Elec       q    Type
REMARK                         _______ _______ _______ _____ _____    ______ ____
ROOT
ATOM      1  C   UNL     1     -11.451  56.051  48.834  0.00  0.00    +0.000 A 
ATOM      2  C   UNL     1     -10.389  55.462  49.701  0.00  0.00    +0.000 A 
ATOM      3  C   UNL     1     -11.563  55.678  47.547  0.00  0.00    +0.000 A 
ATOM      4  O   UNL     1     -10.329  55.845  50.875  0.00  0.00    +0.000 OA
ATOM      5  N   UNL     1      -9.553  54.487  49.151  0.00  0.00    +0.000 N 
ATOM      6  C   UNL     1     -10.661  54.664  46.979  0.00  0.00    +0.000 A 
ATOM      7  C   UNL     1      -9.663  54.087  47.784  0.00  0.00    +0.000 A 
ATOM      8  C   UNL     1     -10.796  54.252  45.642  0.00  0.00    +0.000 A 
ATOM      9  C   UNL     1      -8.806  53.125  47.223  0.00  0.00    +0.000 A 
ATOM     10  C   UNL     1      -9.953  53.283  45.103  0.00  0.00    +0.000 A 
ATOM     11  C   UNL     1      -8.954  52.723  45.893  0.00  0.00    +0.000 A 
ENDROOT
BRANCH   1  17
ATOM     12  S   UNL     1     -13.575  59.300  49.462  0.00  0.00    +0.000 S 
ATOM     13  O   UNL     1     -14.711  59.401  48.566  0.00  0.00    +0.000 OA
ATOM     14  O   UNL     1     -12.777  60.473  49.769  0.00  0.00    +0.000 OA
ATOM     15  N   UNL     1     -12.581  58.164  48.865  0.00  0.00    +0.000 N 
ATOM     16  C   UNL     1     -14.212  58.730  50.994  0.00  0.00    +0.000 A 
ATOM     17  C   UNL     1     -12.444  57.016  49.457  0.00  0.00    +0.000 C 
ATOM     18  C   UNL     1     -13.892  57.443  51.389  0.00  0.00    +0.000 A 
ATOM     19  C   UNL     1     -15.002  59.573  51.780  0.00  0.00    +0.000 A 
ATOM     20  N   UNL     1     -13.112  56.608  50.591  0.00  0.00    +0.000 N 
ATOM     21  C   UNL     1     -14.451  56.958  52.578  0.00  0.00    +0.000 A 
ATOM     22  C   UNL     1     -15.520  59.093  52.981  0.00  0.00    +0.000 A 
ATOM     23  C   UNL     1     -15.253  57.781  53.374  0.00  0.00    +0.000 A 
ATOM     24  H   UNL     1     -12.073  58.349  48.042  0.00  0.00    +0.000 HD
ATOM     25  H   UNL     1     -13.033  55.663  50.854  0.00  0.00    +0.000 HD
ENDBRANCH   1  17
BRANCH   3  26
ATOM     26  O   UNL     1     -12.520  56.166  46.674  0.00  0.00    +0.000 OA
ATOM     27  H   UNL     1     -13.424  55.956  46.806  0.00  0.00    +0.000 HD
ENDBRANCH   3  26
BRANCH   5  28
ATOM     28  N   UNL     1      -8.506  53.891  49.941  0.00  0.00    +0.000 N 
ATOM     29  H   UNL     1      -8.581  52.993  50.336  0.00  0.00    +0.000 HD
BRANCH  28  30
ATOM     30  C   UNL     1      -7.311  54.741  50.108  0.00  0.00    +0.000 C 
BRANCH  30  31
ATOM     31  C   UNL     1      -7.006  55.013  51.558  0.00  0.00    +0.000 A 
ATOM     32  S   UNL     1      -6.360  53.767  52.554  0.00  0.00    +0.000 S 
ATOM     33  N   UNL     1      -7.291  56.142  52.179  0.00  0.00    +0.000 NA
ATOM     34  C   UNL     1      -6.489  54.801  53.913  0.00  0.00    +0.000 A 
ATOM     35  C   UNL     1      -6.998  56.020  53.522  0.00  0.00    +0.000 A 
ENDBRANCH  30  31
ENDBRANCH  28  30
ENDBRANCH   5  28
TORSDOF 5
ENDMDL
MODEL 2
REMARK VINA RESULT:      -8.3      3.281      4.914
REMARK  Name = 
REMARK  5 active torsions:
REMARK  status: ('A' for Active; 'I' for Inactive)
REMARK    1  A    between atoms: C_6  and  C_10
REMARK    2  A    between atoms: C_14  and  O_18
REMARK    3  A    between atoms: N_17  and  N_20
REMARK    4  A    between atoms: N_20  and  C_23
REMARK    5  A    between atoms: C_23  and  C_26
REMARK                            x       y       z     vdW  Elec       q    Type
REMARK                         _______ _______ _______ _____ _____    ______ ____
ROOT
ATOM      1  C   UNL     1     -10.111  54.539  52.191  0.00  0.00    +0.000 A 
ATOM      2  C   UNL     1      -8.747  55.104  51.986  0.00  0.00    +0.000 A 
ATOM      3  C   UNL     1     -10.288  53.445  52.951  0.00  0.00    +0.000 A 
ATOM      4  O   UNL     1      -8.643  56.109  51.273  0.00  0.00    +0.000 OA
ATOM      5  N   UNL     1      -7.673  54.494  52.640  0.00  0.00    +0.000 N 
ATOM      6  C   UNL     1      -9.144  52.802  53.617  0.00  0.00    +0.000 A 
ATOM      7  C   UNL     1      -7.850  53.328  53.448  0.00  0.00    +0.000 A 
ATOM      8  C   UNL     1      -9.330  51.675  54.436  0.00  0.00    +0.000 A 
ATOM      9  C   UNL     1      -6.769  52.699  54.085  0.00  0.00    +0.000 A 
ATOM     10  C   UNL     1      -8.252  51.071  55.079  0.00  0.00    +0.000 A 
ATOM     11  C   UNL     1      -6.970  51.580  54.899  0.00  0.00    +0.000 A 
ENDROOT
BRANCH   1  17
ATOM     12  S   UNL     1     -12.582  56.043  49.527  0.00  0.00    +0.000 S 
ATOM     13  O   UNL     1     -13.484  55.046  48.982  0.00  0.00    +0.000 OA
ATOM     14  O   UNL     1     -11.977  57.036  48.659  0.00  0.00    +0.000 OA
ATOM     15  N   UNL     1     -11.387  55.256  50.292  0.00  0.00    +0.000 N 
ATOM     16  C   UNL     1     -13.509  56.939  50.718  0.00  0.00    +0.000 A 
ATOM     17  C   UNL     1     -11.298  55.271  51.589  0.00  0.00    +0.000 C 
ATOM     18  C   UNL     1     -13.185  56.766  52.053  0.00  0.00    +0.000 A 
ATOM     19  C   UNL     1     -14.526  57.804  50.307  0.00  0.00    +0.000 A 
ATOM     20  N   UNL     1     -12.175  55.892  52.451  0.00  0.00    +0.000 N 
ATOM     21  C   UNL     1     -13.963  57.426  53.012  0.00  0.00    +0.000 A 
ATOM     22  C   UNL     1     -15.268  58.485  51.269  0.00  0.00    +0.000 A 
ATOM     23  C   UNL     1     -14.993  58.288  52.623  0.00  0.00    +0.000 A 
ATOM     24  H   UNL     1     -10.720  54.760  49.766  0.00  0.00    +0.000 HD
ATOM     25  H   UNL     1     -12.082  55.705  53.412  0.00  0.00    +0.000 HD
ENDBRANCH   1  17
BRANCH   3  26
ATOM     26  O   UNL     1     -11.515  52.857  53.201  0.00  0.00    +0.000 OA
ATOM     27  H   UNL     1     -11.742  52.599  54.073  0.00  0.00    +0.000 HD
ENDBRANCH   3  26
BRANCH   5  28
ATOM     28  N   UNL     1      -6.333  54.994  52.470  0.00  0.00    +0.000 N 
ATOM     29  H   UNL     1      -5.849  55.474  53.180  0.00  0.00    +0.000 HD
BRANCH  28  30
ATOM     30  C   UNL     1      -5.746  54.724  51.144  0.00  0.00    +0.000 C 
BRANCH  30  31
ATOM     31  C   UNL     1      -4.908  53.472  51.138  0.00  0.00    +0.000 A 
ATOM     32  S   UNL     1      -5.514  52.031  50.417  0.00  0.00    +0.000 S 
ATOM     33  N   UNL     1      -3.742  53.353  51.745  0.00  0.00    +0.000 NA
ATOM     34  C   UNL     1      -4.132  51.186  50.971  0.00  0.00    +0.000 A 
ATOM     35  C   UNL     1      -3.301  52.049  51.652  0.00  0.00    +0.000 A 
ENDBRANCH  30  31
ENDBRANCH  28  30
ENDBRANCH   5  28
TORSDOF 5
ENDMDL
MODEL 3
REMARK VINA RESULT:      -8.3      2.106      2.598
REMARK  Name = 
REMARK  5 active torsions:
REMARK  status: ('A' for Active; 'I' for Inactive)
REMARK    1  A    between atoms: C_6  and  C_10
REMARK    2  A    between atoms: C_14  and  O_18
REMARK    3  A    between atoms: N_17  and  N_20
REMARK    4  A    between atoms: N_20  and  C_23
REMARK    5  A    between atoms: C_23  and  C_26
REMARK                            x       y       z     vdW  Elec       q    Type
REMARK                         _______ _______ _______ _____ _____    ______ ____
ROOT
ATOM      1  C   UNL     1     -10.670  55.633  48.131  0.00  0.00    +0.000 A 
ATOM      2  C   UNL     1      -9.208  55.703  48.415  0.00  0.00    +0.000 A 
ATOM      3  C   UNL     1     -11.121  54.998  47.035  0.00  0.00    +0.000 A 
ATOM      4  O   UNL     1      -8.849  56.303  49.435  0.00  0.00    +0.000 OA
ATOM      5  N   UNL     1      -8.332  55.055  47.539  0.00  0.00    +0.000 N 
ATOM      6  C   UNL     1     -10.185  54.339  46.112  0.00  0.00    +0.000 A 
ATOM      7  C   UNL     1      -8.803  54.381  46.370  0.00  0.00    +0.000 A 
ATOM      8  C   UNL     1     -10.656  53.650  44.981  0.00  0.00    +0.000 A 
ATOM      9  C   UNL     1      -7.922  53.751  45.475  0.00  0.00    +0.000 A 
ATOM     10  C   UNL     1      -9.774  53.012  44.112  0.00  0.00    +0.000 A 
ATOM     11  C   UNL     1      -8.406  53.068  44.355  0.00  0.00    +0.000 A 
ENDROOT
BRANCH   1  17
ATOM     12  S   UNL     1     -13.026  55.954  51.263  0.00  0.00    +0.000 S 
ATOM     13  O   UNL     1     -12.288  56.188  52.490  0.00  0.00    +0.000 OA
ATOM     14  O   UNL     1     -14.151  55.037  51.248  0.00  0.00    +0.000 OA
ATOM     15  N   UNL     1     -11.964  55.457  50.141  0.00  0.00    +0.000 N 
ATOM     16  C   UNL     1     -13.662  57.514  50.773  0.00  0.00    +0.000 A 
ATOM     17  C   UNL     1     -11.635  56.223  49.144  0.00  0.00    +0.000 C 
ATOM     18  C   UNL     1     -13.123  58.106  49.644  0.00  0.00    +0.000 A 
ATOM     19  C   UNL     1     -14.692  58.111  51.505  0.00  0.00    +0.000 A 
ATOM     20  N   UNL     1     -12.088  57.506  48.929  0.00  0.00    +0.000 N 
ATOM     21  C   UNL     1     -13.579  59.381  49.285  0.00  0.00    +0.000 A 
ATOM     22  C   UNL     1     -15.165  59.361  51.114  0.00  0.00    +0.000 A 
ATOM     23  C   UNL     1     -14.601  60.001  50.011  0.00  0.00    +0.000 A 
ATOM     24  H   UNL     1     -11.563  54.561  50.217  0.00  0.00    +0.000 HD
ATOM     25  H   UNL     1     -11.652  58.033  48.222  0.00  0.00    +0.000 HD
ENDBRANCH   1  17
BRANCH   3  26
ATOM     26  O   UNL     1     -12.458  54.879  46.697  0.00  0.00    +0.000 OA
ATOM     27  H   UNL     1     -13.012  55.635  46.707  0.00  0.00    +0.000 HD
ENDBRANCH   3  26
BRANCH   5  28
ATOM     28  N   UNL     1      -6.910  55.098  47.761  0.00  0.00    +0.000 N 
ATOM     29  H   UNL     1      -6.355  55.872  47.514  0.00  0.00    +0.000 HD
BRANCH  28  30
ATOM     30  C   UNL     1      -6.355  53.884  48.391  0.00  0.00    +0.000 C 
BRANCH  30  31
ATOM     31  C   UNL     1      -6.461  53.925  49.893  0.00  0.00    +0.000 A 
ATOM     32  S   UNL     1      -7.579  52.900  50.708  0.00  0.00    +0.000 S 
ATOM     33  N   UNL     1      -5.814  54.780  50.663  0.00  0.00    +0.000 NA
ATOM     34  C   UNL     1      -7.185  53.665  52.188  0.00  0.00    +0.000 A 
ATOM     35  C   UNL     1      -6.229  54.633  51.971  0.00  0.00    +0.000 A 
ENDBRANCH  30  31
ENDBRANCH  28  30
ENDBRANCH   5  28
TORSDOF 5
ENDMDL
MODEL 4
REMARK VINA RESULT:      -8.2      2.512      3.277
REMARK  Name = 
REMARK  5 active torsions:
REMARK  status: ('A' for Active; 'I' for Inactive)
REMARK    1  A    between atoms: C_6  and  C_10
REMARK    2  A    between atoms: C_14  and  O_18
REMARK    3  A    between atoms: N_17  and  N_20
REMARK    4  A    between atoms: N_20  and  C_23
REMARK    5  A    between atoms: C_23  and  C_26
REMARK                            x       y       z     vdW  Elec       q    Type
REMARK                         _______ _______ _______ _____ _____    ______ ____
ROOT
ATOM      1  C   UNL     1     -11.169  54.615  50.836  0.00  0.00    +0.000 A 
ATOM      2  C   UNL     1      -9.773  55.004  50.483  0.00  0.00    +0.000 A 
ATOM      3  C   UNL     1     -11.437  53.378  51.290  0.00  0.00    +0.000 A 
ATOM      4  O   UNL     1      -9.586  56.153  50.066  0.00  0.00    +0.000 OA
ATOM      5  N   UNL     1      -8.756  54.066  50.679  0.00  0.00    +0.000 N 
ATOM      6  C   UNL     1     -10.357  52.396  51.471  0.00  0.00    +0.000 A 
ATOM      7  C   UNL     1      -9.031  52.748  51.157  0.00  0.00    +0.000 A 
ATOM      8  C   UNL     1     -10.630  51.112  51.972  0.00  0.00    +0.000 A 
ATOM      9  C   UNL     1      -8.013  51.796  51.330  0.00  0.00    +0.000 A 
ATOM     10  C   UNL     1      -9.609  50.183  52.158  0.00  0.00    +0.000 A 
ATOM     11  C   UNL     1      -8.300  50.523  51.832  0.00  0.00    +0.000 A 
ENDROOT
BRANCH   1  17
ATOM     12  S   UNL     1     -13.629  57.295  49.344  0.00  0.00    +0.000 S 
ATOM     13  O   UNL     1     -14.769  56.692  48.681  0.00  0.00    +0.000 OA
ATOM     14  O   UNL     1     -12.961  58.442  48.756  0.00  0.00    +0.000 OA
ATOM     15  N   UNL     1     -12.519  56.132  49.563  0.00  0.00    +0.000 N 
ATOM     16  C   UNL     1     -14.201  57.819  50.917  0.00  0.00    +0.000 A 
ATOM     17  C   UNL     1     -12.260  55.667  50.748  0.00  0.00    +0.000 C 
ATOM     18  C   UNL     1     -13.745  57.136  52.032  0.00  0.00    +0.000 A 
ATOM     19  C   UNL     1     -15.077  58.903  51.018  0.00  0.00    +0.000 A 
ATOM     20  N   UNL     1     -12.881  56.049  51.918  0.00  0.00    +0.000 N 
ATOM     21  C   UNL     1     -14.250  57.505  53.285  0.00  0.00    +0.000 A 
ATOM     22  C   UNL     1     -15.541  59.286  52.274  0.00  0.00    +0.000 A 
ATOM     23  C   UNL     1     -15.136  58.580  53.407  0.00  0.00    +0.000 A 
ATOM     24  H   UNL     1     -12.034  55.773  48.785  0.00  0.00    +0.000 HD
ATOM     25  H   UNL     1     -12.701  55.518  52.726  0.00  0.00    +0.000 HD
ENDBRANCH   1  17
BRANCH   3  26
ATOM     26  O   UNL     1     -12.697  52.934  51.647  0.00  0.00    +0.000 OA
ATOM     27  H   UNL     1     -12.868  52.014  51.713  0.00  0.00    +0.000 HD
ENDBRANCH   3  26
BRANCH   5  28
ATOM     28  N   UNL     1      -7.392  54.386  50.346  0.00  0.00    +0.000 N 
ATOM     29  H   UNL     1      -6.904  53.947  49.612  0.00  0.00    +0.000 HD
BRANCH  28  30
ATOM     30  C   UNL     1      -6.785  55.429  51.196  0.00  0.00    +0.000 C 
BRANCH  30  31
ATOM     31  C   UNL     1      -6.390  54.899  52.550  0.00  0.00    +0.000 A 
ATOM     32  S   UNL     1      -7.353  55.256  53.932  0.00  0.00    +0.000 S 
ATOM     33  N   UNL     1      -5.275  54.237  52.794  0.00  0.00    +0.000 NA
ATOM     34  C   UNL     1      -6.189  54.491  54.927  0.00  0.00    +0.000 A 
ATOM     35  C   UNL     1      -5.159  54.006  54.150  0.00  0.00    +0.000 A 
ENDBRANCH  30  31
ENDBRANCH  28  30
ENDBRANCH   5  28
TORSDOF 5
ENDMDL
MODEL 5
REMARK VINA RESULT:      -8.2      2.618      3.398
REMARK  Name = 
REMARK  5 active torsions:
REMARK  status: ('A' for Active; 'I' for Inactive)
REMARK    1  A    between atoms: C_6  and  C_10
REMARK    2  A    between atoms: C_14  and  O_18
REMARK    3  A    between atoms: N_17  and  N_20
REMARK    4  A    between atoms: N_20  and  C_23
REMARK    5  A    between atoms: C_23  and  C_26
REMARK                            x       y       z     vdW  Elec       q    Type
REMARK                         _______ _______ _______ _____ _____    ______ ____
ROOT
ATOM      1  C   UNL     1     -10.310  54.892  47.694  0.00  0.00    +0.000 A 
ATOM      2  C   UNL     1      -8.823  55.004  47.679  0.00  0.00    +0.000 A 
ATOM      3  C   UNL     1     -10.961  54.341  46.655  0.00  0.00    +0.000 A 
ATOM      4  O   UNL     1      -8.277  55.524  48.659  0.00  0.00    +0.000 OA
ATOM      5  N   UNL     1      -8.131  54.480  46.584  0.00  0.00    +0.000 N 
ATOM      6  C   UNL     1     -10.219  53.813  45.500  0.00  0.00    +0.000 A 
ATOM      7  C   UNL     1      -8.815  53.895  45.474  0.00  0.00    +0.000 A 
ATOM      8  C   UNL     1     -10.896  53.209  44.426  0.00  0.00    +0.000 A 
ATOM      9  C   UNL     1      -8.123  53.391  44.360  0.00  0.00    +0.000 A 
ATOM     10  C   UNL     1     -10.197  52.696  43.336  0.00  0.00    +0.000 A 
ATOM     11  C   UNL     1      -8.810  52.792  43.301  0.00  0.00    +0.000 A 
ENDROOT
BRANCH   1  17
ATOM     12  S   UNL     1     -11.707  54.948  51.369  0.00  0.00    +0.000 S 
ATOM     13  O   UNL     1     -10.727  55.422  52.327  0.00  0.00    +0.000 OA
ATOM     14  O   UNL     1     -12.559  53.818  51.691  0.00  0.00    +0.000 OA
ATOM     15  N   UNL     1     -10.918  54.601  49.994  0.00  0.00    +0.000 N 
ATOM     16  C   UNL     1     -12.784  56.299  51.065  0.00  0.00    +0.000 A 
ATOM     17  C   UNL     1     -11.059  55.342  48.936  0.00  0.00    +0.000 C 
ATOM     18  C   UNL     1     -12.727  56.905  49.822  0.00  0.00    +0.000 A 
ATOM     19  C   UNL     1     -13.675  56.720  52.057  0.00  0.00    +0.000 A 
ATOM     20  N   UNL     1     -11.827  56.482  48.845  0.00  0.00    +0.000 N 
ATOM     21  C   UNL     1     -13.537  58.025  49.596  0.00  0.00    +0.000 A 
ATOM     22  C   UNL     1     -14.503  57.812  51.805  0.00  0.00    +0.000 A 
ATOM     23  C   UNL     1     -14.426  58.471  50.578  0.00  0.00    +0.000 A 
ATOM     24  H   UNL     1     -10.323  53.817  49.961  0.00  0.00    +0.000 HD
ATOM     25  H   UNL     1     -11.734  57.035  48.037  0.00  0.00    +0.000 HD
ENDBRANCH   1  17
BRANCH   3  26
ATOM     26  O   UNL     1     -12.335  54.191  46.586  0.00  0.00    +0.000 OA
ATOM     27  H   UNL     1     -12.705  53.353  46.385  0.00  0.00    +0.000 HD
ENDBRANCH   3  26
BRANCH   5  28
ATOM     28  N   UNL     1      -6.695  54.568  46.514  0.00  0.00    +0.000 N 
ATOM     29  H   UNL     1      -6.226  55.353  46.150  0.00  0.00    +0.000 HD
BRANCH  28  30
ATOM     30  C   UNL     1      -5.986  53.385  47.038  0.00  0.00    +0.000 C 
BRANCH  30  31
ATOM     31  C   UNL     1      -5.654  53.523  48.500  0.00  0.00    +0.000 A 
ATOM     32  S   UNL     1      -6.395  52.485  49.657  0.00  0.00    +0.000 S 
ATOM     33  N   UNL     1      -4.885  54.471  49.003  0.00  0.00    +0.000 NA
ATOM     34  C   UNL     1      -5.653  53.375  50.916  0.00  0.00    +0.000 A 
ATOM     35  C   UNL     1      -4.886  54.388  50.381  0.00  0.00    +0.000 A 
ENDBRANCH  30  31
ENDBRANCH  28  30
ENDBRANCH   5  28
TORSDOF 5
ENDMDL
MODEL 6
REMARK VINA RESULT:      -8.1      3.421      5.418
REMARK  Name = 
REMARK  5 active torsions:
REMARK  status: ('A' for Active; 'I' for Inactive)
REMARK    1  A    between atoms: C_6  and  C_10
REMARK    2  A    between atoms: C_14  and  O_18
REMARK    3  A    between atoms: N_17  and  N_20
REMARK    4  A    between atoms: N_20  and  C_23
REMARK    5  A    between atoms: C_23  and  C_26
REMARK                            x       y       z     vdW  Elec       q    Type
REMARK                         _______ _______ _______ _____ _____    ______ ____
ROOT
ATOM      1  C   UNL     1     -12.226  54.249  50.159  0.00  0.00    +0.000 A 
ATOM      2  C   UNL     1     -11.910  53.912  48.742  0.00  0.00    +0.000 A 
ATOM      3  C   UNL     1     -11.696  53.530  51.164  0.00  0.00    +0.000 A 
ATOM      4  O   UNL     1     -12.428  54.603  47.858  0.00  0.00    +0.000 OA
ATOM      5  N   UNL     1     -11.018  52.864  48.494  0.00  0.00    +0.000 N 
ATOM      6  C   UNL     1     -10.776  52.417  50.886  0.00  0.00    +0.000 A 
ATOM      7  C   UNL     1     -10.453  52.092  49.556  0.00  0.00    +0.000 A 
ATOM      8  C   UNL     1     -10.198  51.683  51.936  0.00  0.00    +0.000 A 
ATOM      9  C   UNL     1      -9.577  51.023  49.308  0.00  0.00    +0.000 A 
ATOM     10  C   UNL     1      -9.315  50.637  51.678  0.00  0.00    +0.000 A 
ATOM     11  C   UNL     1      -9.009  50.303  50.363  0.00  0.00    +0.000 A 
ENDROOT
BRANCH   1  17
ATOM     12  S   UNL     1     -15.255  56.452  51.357  0.00  0.00    +0.000 S 
ATOM     13  O   UNL     1     -15.244  56.678  52.789  0.00  0.00    +0.000 OA
ATOM     14  O   UNL     1     -16.501  56.161  50.670  0.00  0.00    +0.000 OA
ATOM     15  N   UNL     1     -14.220  55.241  51.044  0.00  0.00    +0.000 N 
ATOM     16  C   UNL     1     -14.629  57.919  50.627  0.00  0.00    +0.000 A 
ATOM     17  C   UNL     1     -13.091  55.465  50.441  0.00  0.00    +0.000 C 
ATOM     18  C   UNL     1     -13.380  57.865  50.034  0.00  0.00    +0.000 A 
ATOM     19  C   UNL     1     -15.394  59.090  50.643  0.00  0.00    +0.000 A 
ATOM     20  N   UNL     1     -12.622  56.695  50.035  0.00  0.00    +0.000 N 
ATOM     21  C   UNL     1     -12.845  59.049  49.509  0.00  0.00    +0.000 A 
ATOM     22  C   UNL     1     -14.867  60.251  50.082  0.00  0.00    +0.000 A 
ATOM     23  C   UNL     1     -13.589  60.233  49.525  0.00  0.00    +0.000 A 
ATOM     24  H   UNL     1     -14.452  54.324  51.316  0.00  0.00    +0.000 HD
ATOM     25  H   UNL     1     -11.691  56.751  49.725  0.00  0.00    +0.000 HD
ENDBRANCH   1  17
BRANCH   3  26
ATOM     26  O   UNL     1     -11.929  53.775  52.506  0.00  0.00    +0.000 OA
ATOM     27  H   UNL     1     -11.229  54.066  53.057  0.00  0.00    +0.000 HD
ENDBRANCH   3  26
BRANCH   5  28
ATOM     28  N   UNL     1     -10.684  52.491  47.144  0.00  0.00    +0.000 N 
ATOM     29  H   UNL     1     -11.149  51.772  46.658  0.00  0.00    +0.000 HD
BRANCH  28  30
ATOM     30  C   UNL     1      -9.588  53.278  46.547  0.00  0.00    +0.000 C 
BRANCH  30  31
ATOM     31  C   UNL     1      -9.505  53.095  45.054  0.00  0.00    +0.000 A 
ATOM     32  S   UNL     1     -10.736  52.227  44.220  0.00  0.00    +0.000 S 
ATOM     33  N   UNL     1      -8.481  53.475  44.313  0.00  0.00    +0.000 NA
ATOM     34  C   UNL     1      -9.829  52.352  42.774  0.00  0.00    +0.000 A 
ATOM     35  C   UNL     1      -8.665  53.050  43.013  0.00  0.00    +0.000 A 
ENDBRANCH  30  31
ENDBRANCH  28  30
ENDBRANCH   5  28
TORSDOF 5
ENDMDL
MODEL 7
REMARK VINA RESULT:      -8.1      3.057      7.241
REMARK  Name = 
REMARK  5 active torsions:
REMARK  status: ('A' for Active; 'I' for Inactive)
REMARK    1  A    between atoms: C_6  and  C_10
REMARK    2  A    between atoms: C_14  and  O_18
REMARK    3  A    between atoms: N_17  and  N_20
REMARK    4  A    between atoms: N_20  and  C_23
REMARK    5  A    between atoms: C_23  and  C_26
REMARK                            x       y       z     vdW  Elec       q    Type
REMARK                         _______ _______ _______ _____ _____    ______ ____
ROOT
ATOM      1  C   UNL     1     -10.283  55.230  50.738  0.00  0.00    +0.000 A 
ATOM      2  C   UNL     1      -9.915  55.104  49.298  0.00  0.00    +0.000 A 
ATOM      3  C   UNL     1     -11.470  55.753  51.094  0.00  0.00    +0.000 A 
ATOM      4  O   UNL     1      -8.810  54.621  49.029  0.00  0.00    +0.000 OA
ATOM      5  N   UNL     1     -10.851  55.501  48.339  0.00  0.00    +0.000 N 
ATOM      6  C   UNL     1     -12.436  56.185  50.072  0.00  0.00    +0.000 A 
ATOM      7  C   UNL     1     -12.113  56.061  48.708  0.00  0.00    +0.000 A 
ATOM      8  C   UNL     1     -13.688  56.705  50.442  0.00  0.00    +0.000 A 
ATOM      9  C   UNL     1     -13.045  56.484  47.746  0.00  0.00    +0.000 A 
ATOM     10  C   UNL     1     -14.611  57.103  49.477  0.00  0.00    +0.000 A 
ATOM     11  C   UNL     1     -14.287  56.998  48.129  0.00  0.00    +0.000 A 
ENDROOT
BRANCH   1  17
ATOM     12  S   UNL     1      -7.049  54.760  52.923  0.00  0.00    +0.000 S 
ATOM     13  O   UNL     1      -6.951  55.741  53.987  0.00  0.00    +0.000 OA
ATOM     14  O   UNL     1      -5.872  54.388  52.159  0.00  0.00    +0.000 OA
ATOM     15  N   UNL     1      -8.177  55.281  51.879  0.00  0.00    +0.000 N 
ATOM     16  C   UNL     1      -7.627  53.283  53.674  0.00  0.00    +0.000 A 
ATOM     17  C   UNL     1      -9.326  54.683  51.782  0.00  0.00    +0.000 C 
ATOM     18  C   UNL     1      -8.914  52.868  53.378  0.00  0.00    +0.000 A 
ATOM     19  C   UNL     1      -6.791  52.558  54.527  0.00  0.00    +0.000 A 
ATOM     20  N   UNL     1      -9.742  53.606  52.534  0.00  0.00    +0.000 N 
ATOM     21  C   UNL     1      -9.406  51.727  54.025  0.00  0.00    +0.000 A 
ATOM     22  C   UNL     1      -7.278  51.403  55.134  0.00  0.00    +0.000 A 
ATOM     23  C   UNL     1      -8.589  50.994  54.891  0.00  0.00    +0.000 A 
ATOM     24  H   UNL     1      -7.986  56.061  51.311  0.00  0.00    +0.000 HD
ATOM     25  H   UNL     1     -10.687  53.340  52.470  0.00  0.00    +0.000 HD
ENDBRANCH   1  17
BRANCH   3  26
ATOM     26  O   UNL     1     -11.896  55.901  52.402  0.00  0.00    +0.000 OA
ATOM     27  H   UNL     1     -12.093  55.144  52.919  0.00  0.00    +0.000 HD
ENDBRANCH   3  26
BRANCH   5  28
ATOM     28  N   UNL     1     -10.544  55.409  46.935  0.00  0.00    +0.000 N 
ATOM     29  H   UNL     1      -9.907  56.012  46.488  0.00  0.00    +0.000 HD
BRANCH  28  30
ATOM     30  C   UNL     1     -11.264  54.336  46.223  0.00  0.00    +0.000 C 
BRANCH  30  31
ATOM     31  C   UNL     1     -10.397  53.657  45.195  0.00  0.00    +0.000 A 
ATOM     32  S   UNL     1      -8.686  53.835  45.254  0.00  0.00    +0.000 S 
ATOM     33  N   UNL     1     -10.860  52.988  44.155  0.00  0.00    +0.000 NA
ATOM     34  C   UNL     1      -8.557  52.976  43.779  0.00  0.00    +0.000 A 
ATOM     35  C   UNL     1      -9.811  52.602  43.347  0.00  0.00    +0.000 A 
ENDBRANCH  30  31
ENDBRANCH  28  30
ENDBRANCH   5  28
TORSDOF 5
ENDMDL
MODEL 8
REMARK VINA RESULT:      -8.1      2.153      7.183
REMARK  Name = 
REMARK  5 active torsions:
REMARK  status: ('A' for Active; 'I' for Inactive)
REMARK    1  A    between atoms: C_6  and  C_10
REMARK    2  A    between atoms: C_14  and  O_18
REMARK    3  A    between atoms: N_17  and  N_20
REMARK    4  A    between atoms: N_20  and  C_23
REMARK    5  A    between atoms: C_23  and  C_26
REMARK                            x       y       z     vdW  Elec       q    Type
REMARK                         _______ _______ _______ _____ _____    ______ ____
ROOT
ATOM      1  C   UNL     1      -9.100  54.345  49.947  0.00  0.00    +0.000 A 
ATOM      2  C   UNL     1     -10.179  55.367  50.078  0.00  0.00    +0.000 A 
ATOM      3  C   UNL     1      -8.968  53.637  48.811  0.00  0.00    +0.000 A 
ATOM      4  O   UNL     1     -10.257  55.984  51.146  0.00  0.00    +0.000 OA
ATOM      5  N   UNL     1     -11.010  55.596  48.978  0.00  0.00    +0.000 N 
ATOM      6  C   UNL     1      -9.864  53.876  47.670  0.00  0.00    +0.000 A 
ATOM      7  C   UNL     1     -10.878  54.846  47.768  0.00  0.00    +0.000 A 
ATOM      8  C   UNL     1      -9.709  53.158  46.472  0.00  0.00    +0.000 A 
ATOM      9  C   UNL     1     -11.729  55.057  46.671  0.00  0.00    +0.000 A 
ATOM     10  C   UNL     1     -10.547  53.391  45.384  0.00  0.00    +0.000 A 
ATOM     11  C   UNL     1     -11.561  54.337  45.485  0.00  0.00    +0.000 A 
ENDROOT
BRANCH   1  17
ATOM     12  S   UNL     1      -7.654  54.084  53.594  0.00  0.00    +0.000 S 
ATOM     13  O   UNL     1      -7.883  52.782  54.189  0.00  0.00    +0.000 OA
ATOM     14  O   UNL     1      -7.828  55.291  54.382  0.00  0.00    +0.000 OA
ATOM     15  N   UNL     1      -8.612  54.201  52.289  0.00  0.00    +0.000 N 
ATOM     16  C   UNL     1      -5.984  54.089  53.059  0.00  0.00    +0.000 A 
ATOM     17  C   UNL     1      -8.113  54.180  51.089  0.00  0.00    +0.000 C 
ATOM     18  C   UNL     1      -5.741  54.074  51.696  0.00  0.00    +0.000 A 
ATOM     19  C   UNL     1      -4.948  54.122  53.998  0.00  0.00    +0.000 A 
ATOM     20  N   UNL     1      -6.782  54.030  50.771  0.00  0.00    +0.000 N 
ATOM     21  C   UNL     1      -4.410  54.010  51.263  0.00  0.00    +0.000 A 
ATOM     22  C   UNL     1      -3.629  54.098  53.553  0.00  0.00    +0.000 A 
ATOM     23  C   UNL     1      -3.360  54.031  52.186  0.00  0.00    +0.000 A 
ATOM     24  H   UNL     1      -9.585  54.289  52.408  0.00  0.00    +0.000 HD
ATOM     25  H   UNL     1      -6.550  53.881  49.826  0.00  0.00    +0.000 HD
ENDBRANCH   1  17
BRANCH   3  26
ATOM     26  O   UNL     1      -7.995  52.676  48.600  0.00  0.00    +0.000 OA
ATOM     27  H   UNL     1      -7.217  52.674  49.124  0.00  0.00    +0.000 HD
ENDBRANCH   3  26
BRANCH   5  28
ATOM     28  N   UNL     1     -12.072  56.565  49.053  0.00  0.00    +0.000 N 
ATOM     29  H   UNL     1     -11.981  57.484  48.712  0.00  0.00    +0.000 HD
BRANCH  28  30
ATOM     30  C   UNL     1     -13.310  56.065  49.682  0.00  0.00    +0.000 C 
BRANCH  30  31
ATOM     31  C   UNL     1     -13.748  56.927  50.837  0.00  0.00    +0.000 A 
ATOM     32  S   UNL     1     -14.335  58.520  50.554  0.00  0.00    +0.000 S 
ATOM     33  N   UNL     1     -13.626  56.587  52.107  0.00  0.00    +0.000 NA
ATOM     34  C   UNL     1     -14.413  58.780  52.244  0.00  0.00    +0.000 A 
ATOM     35  C   UNL     1     -14.003  57.645  52.909  0.00  0.00    +0.000 A 
ENDBRANCH  30  31
ENDBRANCH  28  30
ENDBRANCH   5  28
TORSDOF 5
ENDMDL
MODEL 9
REMARK VINA RESULT:      -8.0      2.934      6.966
REMARK  Name = 
REMARK  5 active torsions:
REMARK  status: ('A' for Active; 'I' for Inactive)
REMARK    1  A    between atoms: C_6  and  C_10
REMARK    2  A    between atoms: C_14  and  O_18
REMARK    3  A    between atoms: N_17  and  N_20
REMARK    4  A    between atoms: N_20  and  C_23
REMARK    5  A    between atoms: C_23  and  C_26
REMARK                            x       y       z     vdW  Elec       q    Type
REMARK                         _______ _______ _______ _____ _____    ______ ____
ROOT
ATOM      1  C   UNL     1     -11.307  54.668  48.346  0.00  0.00    +0.000 A 
ATOM      2  C   UNL     1     -11.122  54.149  49.731  0.00  0.00    +0.000 A 
ATOM      3  C   UNL     1     -12.159  55.680  48.106  0.00  0.00    +0.000 A 
ATOM      4  O   UNL     1     -10.330  53.214  49.893  0.00  0.00    +0.000 OA
ATOM      5  N   UNL     1     -11.821  54.771  50.770  0.00  0.00    +0.000 N 
ATOM      6  C   UNL     1     -12.903  56.311  49.208  0.00  0.00    +0.000 A 
ATOM      7  C   UNL     1     -12.731  55.845  50.524  0.00  0.00    +0.000 A 
ATOM      8  C   UNL     1     -13.772  57.388  48.964  0.00  0.00    +0.000 A 
ATOM      9  C   UNL     1     -13.453  56.455  51.563  0.00  0.00    +0.000 A 
ATOM     10  C   UNL     1     -14.468  57.997  50.005  0.00  0.00    +0.000 A 
ATOM     11  C   UNL     1     -14.313  57.527  51.305  0.00  0.00    +0.000 A 
ENDROOT
BRANCH   1  17
ATOM     12  S   UNL     1      -8.215  53.942  46.028  0.00  0.00    +0.000 S 
ATOM     13  O   UNL     1      -7.276  53.016  46.631  0.00  0.00    +0.000 OA
ATOM     14  O   UNL     1      -7.735  55.107  45.307  0.00  0.00    +0.000 OA
ATOM     15  N   UNL     1      -9.213  54.459  47.199  0.00  0.00    +0.000 N 
ATOM     16  C   UNL     1      -9.149  53.007  44.874  0.00  0.00    +0.000 A 
ATOM     17  C   UNL     1     -10.457  54.084  47.232  0.00  0.00    +0.000 C 
ATOM     18  C   UNL     1     -10.480  52.763  45.166  0.00  0.00    +0.000 A 
ATOM     19  C   UNL     1      -8.550  52.548  43.698  0.00  0.00    +0.000 A 
ATOM     20  N   UNL     1     -11.062  53.217  46.348  0.00  0.00    +0.000 N 
ATOM     21  C   UNL     1     -11.213  51.961  44.283  0.00  0.00    +0.000 A 
ATOM     22  C   UNL     1      -9.302  51.785  42.808  0.00  0.00    +0.000 A 
ATOM     23  C   UNL     1     -10.631  51.482  43.106  0.00  0.00    +0.000 A 
ATOM     24  H   UNL     1      -8.871  55.065  47.895  0.00  0.00    +0.000 HD
ATOM     25  H   UNL     1     -11.966  52.897  46.567  0.00  0.00    +0.000 HD
ENDBRANCH   1  17
BRANCH   3  26
ATOM     26  O   UNL     1     -12.388  56.229  46.857  0.00  0.00    +0.000 OA
ATOM     27  H   UNL     1     -11.914  55.911  46.112  0.00  0.00    +0.000 HD
ENDBRANCH   3  26
BRANCH   5  28
ATOM     28  N   UNL     1     -11.686  54.305  52.125  0.00  0.00    +0.000 N 
ATOM     29  H   UNL     1     -12.360  53.737  52.564  0.00  0.00    +0.000 HD
BRANCH  28  30
ATOM     30  C   UNL     1     -10.451  54.747  52.802  0.00  0.00    +0.000 C 
BRANCH  30  31
ATOM     31  C   UNL     1      -9.697  53.597  53.416  0.00  0.00    +0.000 A 
ATOM     32  S   UNL     1      -7.976  53.614  53.453  0.00  0.00    +0.000 S 
ATOM     33  N   UNL     1     -10.260  52.489  53.859  0.00  0.00    +0.000 NA
ATOM     34  C   UNL     1      -7.984  52.024  54.088  0.00  0.00    +0.000 A 
ATOM     35  C   UNL     1      -9.284  51.591  54.241  0.00  0.00    +0.000 A 
ENDBRANCH  30  31
ENDBRANCH  28  30
ENDBRANCH   5  28
TORSDOF 5
ENDMDL
