MODEL 1
REMARK VINA RESULT:      -8.0      0.000      0.000
REMARK  Name = 
REMARK  8 active torsions:
REMARK  status: ('A' for Active; 'I' for Inactive)
REMARK    1  A    between atoms: C_6  and  C_10
REMARK    2  A    between atoms: C_14  and  O_18
REMARK    3  A    between atoms: N_17  and  N_20
REMARK    4  A    between atoms: N_20  and  C_23
REMARK    5  A    between atoms: C_23  and  C_26
REMARK    6  A    between atoms: C_26  and  C_28
REMARK    7  A    between atoms: C_28  and  C_29
REMARK    8  A    between atoms: C_28  and  C_30
REMARK                            x       y       z     vdW  Elec       q    Type
REMARK                         _______ _______ _______ _____ _____    ______ ____
ROOT
ATOM      1  C   UNL     1     -10.088  54.522  52.221  0.00  0.00    +0.000 A 
ATOM      2  C   UNL     1      -8.725  55.100  52.047  0.00  0.00    +0.000 A 
ATOM      3  C   UNL     1     -10.268  53.413  52.958  0.00  0.00    +0.000 A 
ATOM      4  O   UNL     1      -8.622  56.096  51.322  0.00  0.00    +0.000 OA
ATOM      5  N   UNL     1      -7.661  54.506  52.733  0.00  0.00    +0.000 N 
ATOM      6  C   UNL     1      -9.131  52.778  53.643  0.00  0.00    +0.000 A 
ATOM      7  C   UNL     1      -7.843  53.331  53.522  0.00  0.00    +0.000 A 
ATOM      8  C   UNL     1      -9.321  51.634  54.437  0.00  0.00    +0.000 A 
ATOM      9  C   UNL     1      -6.770  52.713  54.186  0.00  0.00    +0.000 A 
ATOM     10  C   UNL     1      -8.252  51.043  55.105  0.00  0.00    +0.000 A 
ATOM     11  C   UNL     1      -6.975  51.579  54.975  0.00  0.00    +0.000 A 
ENDROOT
BRANCH   1  17
ATOM     12  S   UNL     1     -12.496  56.034  49.512  0.00  0.00    +0.000 S 
ATOM     13  O   UNL     1     -13.389  55.045  48.942  0.00  0.00    +0.000 OA
ATOM     14  O   UNL     1     -11.869  57.031  48.666  0.00  0.00    +0.000 OA
ATOM     15  N   UNL     1     -11.322  55.242  50.298  0.00  0.00    +0.000 N 
ATOM     16  C   UNL     1     -13.446  56.930  50.687  0.00  0.00    +0.000 A 
ATOM     17  C   UNL     1     -11.264  55.249  51.596  0.00  0.00    +0.000 C 
ATOM     18  C   UNL     1     -13.158  56.745  52.028  0.00  0.00    +0.000 A 
ATOM     19  C   UNL     1     -14.444  57.806  50.255  0.00  0.00    +0.000 A 
ATOM     20  N   UNL     1     -12.167  55.857  52.442  0.00  0.00    +0.000 N 
ATOM     21  C   UNL     1     -13.954  57.406  52.972  0.00  0.00    +0.000 A 
ATOM     22  C   UNL     1     -15.197  58.489  51.202  0.00  0.00    +0.000 A 
ATOM     23  C   UNL     1     -14.964  58.280  52.562  0.00  0.00    +0.000 A 
ATOM     24  H   UNL     1     -10.643  54.747  49.784  0.00  0.00    +0.000 HD
ATOM     25  H   UNL     1     -12.108  55.652  53.404  0.00  0.00    +0.000 HD
ENDBRANCH   1  17
BRANCH   3  26
ATOM     26  O   UNL     1     -11.493  52.803  53.162  0.00  0.00    +0.000 OA
ATOM     27  H   UNL     1     -11.532  51.902  53.416  0.00  0.00    +0.000 HD
ENDBRANCH   3  26
BRANCH   5  28
ATOM     28  N   UNL     1      -6.325  55.041  52.603  0.00  0.00    +0.000 N 
ATOM     29  H   UNL     1      -5.939  55.697  53.228  0.00  0.00    +0.000 HD
BRANCH  28  30
ATOM     30  C   UNL     1      -5.601  54.505  51.440  0.00  0.00    +0.000 C 
BRANCH  30  31
ATOM     31  C   UNL     1      -4.184  54.042  51.792  0.00  0.00    +0.000 C 
BRANCH  31  32
ATOM     32  C   UNL     1      -3.979  52.544  51.471  0.00  0.00    +0.000 C 
ATOM     33  C   UNL     1      -3.516  51.739  52.689  0.00  0.00    +0.000 C 
ATOM     34  C   UNL     1      -5.263  51.939  50.905  0.00  0.00    +0.000 C 
ENDBRANCH  31  32
ENDBRANCH  30  31
ENDBRANCH  28  30
ENDBRANCH   5  28
TORSDOF 6
ENDMDL
MODEL 2
REMARK VINA RESULT:      -7.8      3.931      4.847
REMARK  Name = 
REMARK  8 active torsions:
REMARK  status: ('A' for Active; 'I' for Inactive)
REMARK    1  A    between atoms: C_6  and  C_10
REMARK    2  A    between atoms: C_14  and  O_18
REMARK    3  A    between atoms: N_17  and  N_20
REMARK    4  A    between atoms: N_20  and  C_23
REMARK    5  A    between atoms: C_23  and  C_26
REMARK    6  A    between atoms: C_26  and  C_28
REMARK    7  A    between atoms: C_28  and  C_29
REMARK    8  A    between atoms: C_28  and  C_30
REMARK                            x       y       z     vdW  Elec       q    Type
REMARK                         _______ _______ _______ _____ _____    ______ ____
ROOT
ATOM      1  C   UNL     1     -12.514  54.293  49.585  0.00  0.00    +0.000 A 
ATOM      2  C   UNL     1     -12.010  54.267  48.182  0.00  0.00    +0.000 A 
ATOM      3  C   UNL     1     -12.224  53.291  50.431  0.00  0.00    +0.000 A 
ATOM      4  O   UNL     1     -12.347  55.199  47.443  0.00  0.00    +0.000 OA
ATOM      5  N   UNL     1     -11.168  53.218  47.800  0.00  0.00    +0.000 N 
ATOM      6  C   UNL     1     -11.367  52.175  50.002  0.00  0.00    +0.000 A 
ATOM      7  C   UNL     1     -10.851  52.151  48.693  0.00  0.00    +0.000 A 
ATOM      8  C   UNL     1     -11.040  51.138  50.894  0.00  0.00    +0.000 A 
ATOM      9  C   UNL     1     -10.031  51.079  48.302  0.00  0.00    +0.000 A 
ATOM     10  C   UNL     1     -10.211  50.091  50.498  0.00  0.00    +0.000 A 
ATOM     11  C   UNL     1      -9.711  50.059  49.201  0.00  0.00    +0.000 A 
ENDROOT
BRANCH   1  17
ATOM     12  S   UNL     1     -15.366  56.467  51.187  0.00  0.00    +0.000 S 
ATOM     13  O   UNL     1     -15.254  56.561  52.629  0.00  0.00    +0.000 OA
ATOM     14  O   UNL     1     -16.661  56.282  50.562  0.00  0.00    +0.000 OA
ATOM     15  N   UNL     1     -14.402  55.261  50.698  0.00  0.00    +0.000 N 
ATOM     16  C   UNL     1     -14.735  57.977  50.549  0.00  0.00    +0.000 A 
ATOM     17  C   UNL     1     -13.306  55.503  50.043  0.00  0.00    +0.000 C 
ATOM     18  C   UNL     1     -13.526  57.940  49.876  0.00  0.00    +0.000 A 
ATOM     19  C   UNL     1     -15.457  59.160  50.714  0.00  0.00    +0.000 A 
ATOM     20  N   UNL     1     -12.812  56.752  49.730  0.00  0.00    +0.000 N 
ATOM     21  C   UNL     1     -12.986  59.149  49.421  0.00  0.00    +0.000 A 
ATOM     22  C   UNL     1     -14.930  60.346  50.220  0.00  0.00    +0.000 A 
ATOM     23  C   UNL     1     -13.688  60.346  49.585  0.00  0.00    +0.000 A 
ATOM     24  H   UNL     1     -14.651  54.329  50.900  0.00  0.00    +0.000 HD
ATOM     25  H   UNL     1     -11.894  56.809  49.379  0.00  0.00    +0.000 HD
ENDBRANCH   1  17
BRANCH   3  26
ATOM     26  O   UNL     1     -12.659  53.228  51.743  0.00  0.00    +0.000 OA
ATOM     27  H   UNL     1     -12.988  53.997  52.165  0.00  0.00    +0.000 HD
ENDBRANCH   3  26
BRANCH   5  28
ATOM     28  N   UNL     1     -10.646  53.160  46.454  0.00  0.00    +0.000 N 
ATOM     29  H   UNL     1     -11.179  52.871  45.677  0.00  0.00    +0.000 HD
BRANCH  28  30
ATOM     30  C   UNL     1      -9.239  53.576  46.363  0.00  0.00    +0.000 C 
BRANCH  30  31
ATOM     31  C   UNL     1      -9.050  55.072  46.629  0.00  0.00    +0.000 C 
BRANCH  31  32
ATOM     32  C   UNL     1      -8.218  55.322  47.908  0.00  0.00    +0.000 C 
ATOM     33  C   UNL     1      -9.014  56.049  48.996  0.00  0.00    +0.000 C 
ATOM     34  C   UNL     1      -7.673  54.004  48.456  0.00  0.00    +0.000 C 
ENDBRANCH  31  32
ENDBRANCH  30  31
ENDBRANCH  28  30
ENDBRANCH   5  28
TORSDOF 6
ENDMDL
MODEL 3
REMARK VINA RESULT:      -7.7      3.793      5.303
REMARK  Name = 
REMARK  8 active torsions:
REMARK  status: ('A' for Active; 'I' for Inactive)
REMARK    1  A    between atoms: C_6  and  C_10
REMARK    2  A    between atoms: C_14  and  O_18
REMARK    3  A    between atoms: N_17  and  N_20
REMARK    4  A    between atoms: N_20  and  C_23
REMARK    5  A    between atoms: C_23  and  C_26
REMARK    6  A    between atoms: C_26  and  C_28
REMARK    7  A    between atoms: C_28  and  C_29
REMARK    8  A    between atoms: C_28  and  C_30
REMARK                            x       y       z     vdW  Elec       q    Type
REMARK                         _______ _______ _______ _____ _____    ______ ____
ROOT
ATOM      1  C   UNL     1     -10.676  55.612  48.113  0.00  0.00    +0.000 A 
ATOM      2  C   UNL     1      -9.208  55.750  48.337  0.00  0.00    +0.000 A 
ATOM      3  C   UNL     1     -11.141  54.937  47.048  0.00  0.00    +0.000 A 
ATOM      4  O   UNL     1      -8.846  56.419  49.311  0.00  0.00    +0.000 OA
ATOM      5  N   UNL     1      -8.339  55.095  47.459  0.00  0.00    +0.000 N 
ATOM      6  C   UNL     1     -10.212  54.284  46.113  0.00  0.00    +0.000 A 
ATOM      7  C   UNL     1      -8.824  54.371  46.328  0.00  0.00    +0.000 A 
ATOM      8  C   UNL     1     -10.697  53.554  45.014  0.00  0.00    +0.000 A 
ATOM      9  C   UNL     1      -7.952  53.739  45.427  0.00  0.00    +0.000 A 
ATOM     10  C   UNL     1      -9.822  52.916  44.138  0.00  0.00    +0.000 A 
ATOM     11  C   UNL     1      -8.449  53.013  44.342  0.00  0.00    +0.000 A 
ENDROOT
BRANCH   1  17
ATOM     12  S   UNL     1     -13.005  55.913  51.260  0.00  0.00    +0.000 S 
ATOM     13  O   UNL     1     -12.263  56.117  52.488  0.00  0.00    +0.000 OA
ATOM     14  O   UNL     1     -14.143  55.014  51.231  0.00  0.00    +0.000 OA
ATOM     15  N   UNL     1     -11.957  55.421  50.128  0.00  0.00    +0.000 N 
ATOM     16  C   UNL     1     -13.626  57.489  50.797  0.00  0.00    +0.000 A 
ATOM     17  C   UNL     1     -11.620  56.200  49.144  0.00  0.00    +0.000 C 
ATOM     18  C   UNL     1     -13.078  58.097  49.681  0.00  0.00    +0.000 A 
ATOM     19  C   UNL     1     -14.651  58.080  51.537  0.00  0.00    +0.000 A 
ATOM     20  N   UNL     1     -12.047  57.499  48.960  0.00  0.00    +0.000 N 
ATOM     21  C   UNL     1     -13.523  59.381  49.343  0.00  0.00    +0.000 A 
ATOM     22  C   UNL     1     -15.113  59.336  51.165  0.00  0.00    +0.000 A 
ATOM     23  C   UNL     1     -14.541  59.996  50.077  0.00  0.00    +0.000 A 
ATOM     24  H   UNL     1     -11.567  54.518  50.187  0.00  0.00    +0.000 HD
ATOM     25  H   UNL     1     -11.595  58.039  48.272  0.00  0.00    +0.000 HD
ENDBRANCH   1  17
BRANCH   3  26
ATOM     26  O   UNL     1     -12.483  54.771  46.757  0.00  0.00    +0.000 OA
ATOM     27  H   UNL     1     -12.812  53.924  46.529  0.00  0.00    +0.000 HD
ENDBRANCH   3  26
BRANCH   5  28
ATOM     28  N   UNL     1      -6.909  55.191  47.646  0.00  0.00    +0.000 N 
ATOM     29  H   UNL     1      -6.338  55.819  47.148  0.00  0.00    +0.000 HD
BRANCH  28  30
ATOM     30  C   UNL     1      -6.397  54.255  48.658  0.00  0.00    +0.000 C 
BRANCH  30  31
ATOM     31  C   UNL     1      -5.335  54.889  49.562  0.00  0.00    +0.000 C 
BRANCH  31  32
ATOM     32  C   UNL     1      -5.595  54.573  51.053  0.00  0.00    +0.000 C 
ATOM     33  C   UNL     1      -6.944  53.887  51.283  0.00  0.00    +0.000 C 
ATOM     34  C   UNL     1      -4.469  53.708  51.618  0.00  0.00    +0.000 C 
ENDBRANCH  31  32
ENDBRANCH  30  31
ENDBRANCH  28  30
ENDBRANCH   5  28
TORSDOF 6
ENDMDL
MODEL 4
REMARK VINA RESULT:      -7.7      2.051      2.928
REMARK  Name = 
REMARK  8 active torsions:
REMARK  status: ('A' for Active; 'I' for Inactive)
REMARK    1  A    between atoms: C_6  and  C_10
REMARK    2  A    between atoms: C_14  and  O_18
REMARK    3  A    between atoms: N_17  and  N_20
REMARK    4  A    between atoms: N_20  and  C_23
REMARK    5  A    between atoms: C_23  and  C_26
REMARK    6  A    between atoms: C_26  and  C_28
REMARK    7  A    between atoms: C_28  and  C_29
REMARK    8  A    between atoms: C_28  and  C_30
REMARK                            x       y       z     vdW  Elec       q    Type
REMARK                         _______ _______ _______ _____ _____    ______ ____
ROOT
ATOM      1  C   UNL     1     -11.589  54.081  51.282  0.00  0.00    +0.000 A 
ATOM      2  C   UNL     1     -10.665  54.166  52.449  0.00  0.00    +0.000 A 
ATOM      3  C   UNL     1     -11.670  52.951  50.559  0.00  0.00    +0.000 A 
ATOM      4  O   UNL     1     -10.606  55.247  53.046  0.00  0.00    +0.000 OA
ATOM      5  N   UNL     1      -9.952  53.020  52.815  0.00  0.00    +0.000 N 
ATOM      6  C   UNL     1     -10.884  51.765  50.935  0.00  0.00    +0.000 A 
ATOM      7  C   UNL     1     -10.034  51.814  52.056  0.00  0.00    +0.000 A 
ATOM      8  C   UNL     1     -10.988  50.573  50.197  0.00  0.00    +0.000 A 
ATOM      9  C   UNL     1      -9.295  50.671  52.401  0.00  0.00    +0.000 A 
ATOM     10  C   UNL     1     -10.263  49.442  50.562  0.00  0.00    +0.000 A 
ATOM     11  C   UNL     1      -9.412  49.492  51.661  0.00  0.00    +0.000 A 
ENDROOT
BRANCH   1  17
ATOM     12  S   UNL     1     -13.307  57.007  49.305  0.00  0.00    +0.000 S 
ATOM     13  O   UNL     1     -14.411  56.554  48.483  0.00  0.00    +0.000 OA
ATOM     14  O   UNL     1     -12.374  57.997  48.801  0.00  0.00    +0.000 OA
ATOM     15  N   UNL     1     -12.455  55.702  49.746  0.00  0.00    +0.000 N 
ATOM     16  C   UNL     1     -14.027  57.713  50.743  0.00  0.00    +0.000 A 
ATOM     17  C   UNL     1     -12.470  55.276  50.973  0.00  0.00    +0.000 C 
ATOM     18  C   UNL     1     -13.880  57.034  51.940  0.00  0.00    +0.000 A 
ATOM     19  C   UNL     1     -14.707  58.929  50.658  0.00  0.00    +0.000 A 
ATOM     20  N   UNL     1     -13.209  55.815  52.006  0.00  0.00    +0.000 N 
ATOM     21  C   UNL     1     -14.506  57.558  53.078  0.00  0.00    +0.000 A 
ATOM     22  C   UNL     1     -15.286  59.460  51.803  0.00  0.00    +0.000 A 
ATOM     23  C   UNL     1     -15.200  58.769  53.012  0.00  0.00    +0.000 A 
ATOM     24  H   UNL     1     -11.917  55.225  49.073  0.00  0.00    +0.000 HD
ATOM     25  H   UNL     1     -13.265  55.305  52.846  0.00  0.00    +0.000 HD
ENDBRANCH   1  17
BRANCH   3  26
ATOM     26  O   UNL     1     -12.489  52.789  49.457  0.00  0.00    +0.000 OA
ATOM     27  H   UNL     1     -12.493  51.976  48.991  0.00  0.00    +0.000 HD
ENDBRANCH   3  26
BRANCH   5  28
ATOM     28  N   UNL     1      -9.054  53.054  53.947  0.00  0.00    +0.000 N 
ATOM     29  H   UNL     1      -9.200  52.536  54.771  0.00  0.00    +0.000 HD
BRANCH  28  30
ATOM     30  C   UNL     1      -7.900  53.942  53.739  0.00  0.00    +0.000 C 
BRANCH  30  31
ATOM     31  C   UNL     1      -6.919  53.398  52.697  0.00  0.00    +0.000 C 
BRANCH  31  32
ATOM     32  C   UNL     1      -6.806  54.340  51.475  0.00  0.00    +0.000 C 
ATOM     33  C   UNL     1      -7.554  53.807  50.250  0.00  0.00    +0.000 C 
ATOM     34  C   UNL     1      -7.316  55.736  51.830  0.00  0.00    +0.000 C 
ENDBRANCH  31  32
ENDBRANCH  30  31
ENDBRANCH  28  30
ENDBRANCH   5  28
TORSDOF 6
ENDMDL
MODEL 5
REMARK VINA RESULT:      -7.7      2.816      8.224
REMARK  Name = 
REMARK  8 active torsions:
REMARK  status: ('A' for Active; 'I' for Inactive)
REMARK    1  A    between atoms: C_6  and  C_10
REMARK    2  A    between atoms: C_14  and  O_18
REMARK    3  A    between atoms: N_17  and  N_20
REMARK    4  A    between atoms: N_20  and  C_23
REMARK    5  A    between atoms: C_23  and  C_26
REMARK    6  A    between atoms: C_26  and  C_28
REMARK    7  A    between atoms: C_28  and  C_29
REMARK    8  A    between atoms: C_28  and  C_30
REMARK                            x       y       z     vdW  Elec       q    Type
REMARK                         _______ _______ _______ _____ _____    ______ ____
ROOT
ATOM      1  C   UNL     1      -9.839  54.307  50.935  0.00  0.00    +0.000 A 
ATOM      2  C   UNL     1     -10.991  55.190  51.280  0.00  0.00    +0.000 A 
ATOM      3  C   UNL     1      -9.580  53.995  49.655  0.00  0.00    +0.000 A 
ATOM      4  O   UNL     1     -11.200  55.404  52.479  0.00  0.00    +0.000 OA
ATOM      5  N   UNL     1     -11.737  55.742  50.234  0.00  0.00    +0.000 N 
ATOM      6  C   UNL     1     -10.398  54.556  48.568  0.00  0.00    +0.000 A 
ATOM      7  C   UNL     1     -11.467  55.420  48.870  0.00  0.00    +0.000 A 
ATOM      8  C   UNL     1     -10.111  54.253  47.226  0.00  0.00    +0.000 A 
ATOM      9  C   UNL     1     -12.235  55.948  47.820  0.00  0.00    +0.000 A 
ATOM     10  C   UNL     1     -10.870  54.798  46.193  0.00  0.00    +0.000 A 
ATOM     11  C   UNL     1     -11.935  55.642  46.490  0.00  0.00    +0.000 A 
ENDROOT
BRANCH   1  17
ATOM     12  S   UNL     1      -6.663  53.824  53.195  0.00  0.00    +0.000 S 
ATOM     13  O   UNL     1      -6.457  54.925  54.114  0.00  0.00    +0.000 OA
ATOM     14  O   UNL     1      -5.539  53.228  52.499  0.00  0.00    +0.000 OA
ATOM     15  N   UNL     1      -7.735  54.307  52.080  0.00  0.00    +0.000 N 
ATOM     16  C   UNL     1      -7.386  52.530  54.137  0.00  0.00    +0.000 A 
ATOM     17  C   UNL     1      -8.941  53.825  52.059  0.00  0.00    +0.000 C 
ATOM     18  C   UNL     1      -8.712  52.217  53.896  0.00  0.00    +0.000 A 
ATOM     19  C   UNL     1      -6.621  51.843  55.082  0.00  0.00    +0.000 A 
ATOM     20  N   UNL     1      -9.466  52.920  52.958  0.00  0.00    +0.000 N 
ATOM     21  C   UNL     1      -9.313  51.230  54.688  0.00  0.00    +0.000 A 
ATOM     22  C   UNL     1      -7.217  50.837  55.831  0.00  0.00    +0.000 A 
ATOM     23  C   UNL     1      -8.568  50.538  55.647  0.00  0.00    +0.000 A 
ATOM     24  H   UNL     1      -7.468  54.977  51.410  0.00  0.00    +0.000 HD
ATOM     25  H   UNL     1     -10.437  52.759  52.936  0.00  0.00    +0.000 HD
ENDBRANCH   1  17
BRANCH   3  26
ATOM     26  O   UNL     1      -8.542  53.176  49.247  0.00  0.00    +0.000 OA
ATOM     27  H   UNL     1      -8.712  52.285  49.013  0.00  0.00    +0.000 HD
ENDBRANCH   3  26
BRANCH   5  28
ATOM     28  N   UNL     1     -12.855  56.613  50.521  0.00  0.00    +0.000 N 
ATOM     29  H   UNL     1     -12.790  57.595  50.525  0.00  0.00    +0.000 HD
BRANCH  28  30
ATOM     30  C   UNL     1     -14.097  55.879  50.806  0.00  0.00    +0.000 C 
BRANCH  30  31
ATOM     31  C   UNL     1     -15.257  56.808  51.175  0.00  0.00    +0.000 C 
BRANCH  31  32
ATOM     32  C   UNL     1     -14.754  58.121  51.818  0.00  0.00    +0.000 C 
ATOM     33  C   UNL     1     -15.206  59.365  51.047  0.00  0.00    +0.000 C 
ATOM     34  C   UNL     1     -15.216  58.213  53.271  0.00  0.00    +0.000 C 
ENDBRANCH  31  32
ENDBRANCH  30  31
ENDBRANCH  28  30
ENDBRANCH   5  28
TORSDOF 6
ENDMDL
MODEL 6
REMARK VINA RESULT:      -7.7      3.614      7.548
REMARK  Name = 
REMARK  8 active torsions:
REMARK  status: ('A' for Active; 'I' for Inactive)
REMARK    1  A    between atoms: C_6  and  C_10
REMARK    2  A    between atoms: C_14  and  O_18
REMARK    3  A    between atoms: N_17  and  N_20
REMARK    4  A    between atoms: N_20  and  C_23
REMARK    5  A    between atoms: C_23  and  C_26
REMARK    6  A    between atoms: C_26  and  C_28
REMARK    7  A    between atoms: C_28  and  C_29
REMARK    8  A    between atoms: C_28  and  C_30
REMARK                            x       y       z     vdW  Elec       q    Type
REMARK                         _______ _______ _______ _____ _____    ______ ____
ROOT
ATOM      1  C   UNL     1     -10.200  55.273  50.746  0.00  0.00    +0.000 A 
ATOM      2  C   UNL     1      -9.759  55.221  49.322  0.00  0.00    +0.000 A 
ATOM      3  C   UNL     1     -11.419  55.739  51.064  0.00  0.00    +0.000 A 
ATOM      4  O   UNL     1      -8.610  54.822  49.100  0.00  0.00    +0.000 OA
ATOM      5  N   UNL     1     -10.673  55.594  48.332  0.00  0.00    +0.000 N 
ATOM      6  C   UNL     1     -12.355  56.163  50.012  0.00  0.00    +0.000 A 
ATOM      7  C   UNL     1     -11.972  56.087  48.660  0.00  0.00    +0.000 A 
ATOM      8  C   UNL     1     -13.642  56.625  50.341  0.00  0.00    +0.000 A 
ATOM      9  C   UNL     1     -12.881  56.493  47.669  0.00  0.00    +0.000 A 
ATOM     10  C   UNL     1     -14.539  57.007  49.347  0.00  0.00    +0.000 A 
ATOM     11  C   UNL     1     -14.157  56.946  48.011  0.00  0.00    +0.000 A 
ENDROOT
BRANCH   1  17
ATOM     12  S   UNL     1      -7.014  54.824  52.998  0.00  0.00    +0.000 S 
ATOM     13  O   UNL     1      -6.952  55.788  54.078  0.00  0.00    +0.000 OA
ATOM     14  O   UNL     1      -5.818  54.478  52.254  0.00  0.00    +0.000 OA
ATOM     15  N   UNL     1      -8.123  55.343  51.939  0.00  0.00    +0.000 N 
ATOM     16  C   UNL     1      -7.586  53.325  53.713  0.00  0.00    +0.000 A 
ATOM     17  C   UNL     1      -9.263  54.732  51.809  0.00  0.00    +0.000 C 
ATOM     18  C   UNL     1      -8.862  52.900  53.389  0.00  0.00    +0.000 A 
ATOM     19  C   UNL     1      -6.754  52.596  54.565  0.00  0.00    +0.000 A 
ATOM     20  N   UNL     1      -9.684  53.645  52.546  0.00  0.00    +0.000 N 
ATOM     21  C   UNL     1      -9.348  51.740  54.005  0.00  0.00    +0.000 A 
ATOM     22  C   UNL     1      -7.234  51.424  55.136  0.00  0.00    +0.000 A 
ATOM     23  C   UNL     1      -8.536  51.001  54.869  0.00  0.00    +0.000 A 
ATOM     24  H   UNL     1      -7.931  56.135  51.385  0.00  0.00    +0.000 HD
ATOM     25  H   UNL     1     -10.629  53.377  52.471  0.00  0.00    +0.000 HD
ENDBRANCH   1  17
BRANCH   3  26
ATOM     26  O   UNL     1     -11.904  55.833  52.356  0.00  0.00    +0.000 OA
ATOM     27  H   UNL     1     -11.405  56.278  53.013  0.00  0.00    +0.000 HD
ENDBRANCH   3  26
BRANCH   5  28
ATOM     28  N   UNL     1     -10.292  55.549  46.939  0.00  0.00    +0.000 N 
ATOM     29  H   UNL     1     -10.000  56.339  46.429  0.00  0.00    +0.000 HD
BRANCH  28  30
ATOM     30  C   UNL     1     -10.385  54.200  46.361  0.00  0.00    +0.000 C 
BRANCH  30  31
ATOM     31  C   UNL     1     -11.548  54.061  45.373  0.00  0.00    +0.000 C 
BRANCH  31  32
ATOM     32  C   UNL     1     -11.365  52.837  44.447  0.00  0.00    +0.000 C 
ATOM     33  C   UNL     1      -9.945  52.729  43.886  0.00  0.00    +0.000 C 
ATOM     34  C   UNL     1     -11.732  51.550  45.186  0.00  0.00    +0.000 C 
ENDBRANCH  31  32
ENDBRANCH  30  31
ENDBRANCH  28  30
ENDBRANCH   5  28
TORSDOF 6
ENDMDL
MODEL 7
REMARK VINA RESULT:      -7.6      3.387      5.189
REMARK  Name = 
REMARK  8 active torsions:
REMARK  status: ('A' for Active; 'I' for Inactive)
REMARK    1  A    between atoms: C_6  and  C_10
REMARK    2  A    between atoms: C_14  and  O_18
REMARK    3  A    between atoms: N_17  and  N_20
REMARK    4  A    between atoms: N_20  and  C_23
REMARK    5  A    between atoms: C_23  and  C_26
REMARK    6  A    between atoms: C_26  and  C_28
REMARK    7  A    between atoms: C_28  and  C_29
REMARK    8  A    between atoms: C_28  and  C_30
REMARK                            x       y       z     vdW  Elec       q    Type
REMARK                         _______ _______ _______ _____ _____    ______ ____
ROOT
ATOM      1  C   UNL     1     -11.717  55.982  48.713  0.00  0.00    +0.000 A 
ATOM      2  C   UNL     1     -10.672  55.317  49.543  0.00  0.00    +0.000 A 
ATOM      3  C   UNL     1     -11.864  55.661  47.417  0.00  0.00    +0.000 A 
ATOM      4  O   UNL     1     -10.561  55.688  50.716  0.00  0.00    +0.000 OA
ATOM      5  N   UNL     1      -9.909  54.301  48.957  0.00  0.00    +0.000 N 
ATOM      6  C   UNL     1     -11.028  54.616  46.806  0.00  0.00    +0.000 A 
ATOM      7  C   UNL     1     -10.061  53.950  47.582  0.00  0.00    +0.000 A 
ATOM      8  C   UNL     1     -11.198  54.259  45.457  0.00  0.00    +0.000 A 
ATOM      9  C   UNL     1      -9.274  52.953  46.983  0.00  0.00    +0.000 A 
ATOM     10  C   UNL     1     -10.424  53.255  44.881  0.00  0.00    +0.000 A 
ATOM     11  C   UNL     1      -9.458  52.605  45.642  0.00  0.00    +0.000 A 
ENDROOT
BRANCH   1  17
ATOM     12  S   UNL     1     -13.624  59.325  49.494  0.00  0.00    +0.000 S 
ATOM     13  O   UNL     1     -14.773  59.528  48.633  0.00  0.00    +0.000 OA
ATOM     14  O   UNL     1     -12.748  60.433  49.822  0.00  0.00    +0.000 OA
ATOM     15  N   UNL     1     -12.718  58.155  48.836  0.00  0.00    +0.000 N 
ATOM     16  C   UNL     1     -14.258  58.744  51.025  0.00  0.00    +0.000 A 
ATOM     17  C   UNL     1     -12.641  56.980  49.385  0.00  0.00    +0.000 C 
ATOM     18  C   UNL     1     -14.017  57.425  51.366  0.00  0.00    +0.000 A 
ATOM     19  C   UNL     1     -14.966  59.609  51.861  0.00  0.00    +0.000 A 
ATOM     20  N   UNL     1     -13.318  56.570  50.515  0.00  0.00    +0.000 N 
ATOM     21  C   UNL     1     -14.573  56.937  52.555  0.00  0.00    +0.000 A 
ATOM     22  C   UNL     1     -15.477  59.124  53.058  0.00  0.00    +0.000 A 
ATOM     23  C   UNL     1     -15.294  57.784  53.401  0.00  0.00    +0.000 A 
ATOM     24  H   UNL     1     -12.219  58.337  48.007  0.00  0.00    +0.000 HD
ATOM     25  H   UNL     1     -13.307  55.611  50.736  0.00  0.00    +0.000 HD
ENDBRANCH   1  17
BRANCH   3  26
ATOM     26  O   UNL     1     -12.797  56.236  46.573  0.00  0.00    +0.000 OA
ATOM     27  H   UNL     1     -12.535  56.899  45.965  0.00  0.00    +0.000 HD
ENDBRANCH   3  26
BRANCH   5  28
ATOM     28  N   UNL     1      -8.893  53.621  49.727  0.00  0.00    +0.000 N 
ATOM     29  H   UNL     1      -9.034  52.749  50.162  0.00  0.00    +0.000 HD
BRANCH  28  30
ATOM     30  C   UNL     1      -7.627  54.366  49.794  0.00  0.00    +0.000 C 
BRANCH  30  31
ATOM     31  C   UNL     1      -6.919  54.205  51.142  0.00  0.00    +0.000 C 
BRANCH  31  32
ATOM     32  C   UNL     1      -7.055  55.476  52.012  0.00  0.00    +0.000 C 
ATOM     33  C   UNL     1      -7.452  56.708  51.195  0.00  0.00    +0.000 C 
ATOM     34  C   UNL     1      -8.066  55.248  53.135  0.00  0.00    +0.000 C 
ENDBRANCH  31  32
ENDBRANCH  30  31
ENDBRANCH  28  30
ENDBRANCH   5  28
TORSDOF 6
ENDMDL
MODEL 8
REMARK VINA RESULT:      -7.4      3.141      8.363
REMARK  Name = 
REMARK  8 active torsions:
REMARK  status: ('A' for Active; 'I' for Inactive)
REMARK    1  A    between atoms: C_6  and  C_10
REMARK    2  A    between atoms: C_14  and  O_18
REMARK    3  A    between atoms: N_17  and  N_20
REMARK    4  A    between atoms: N_20  and  C_23
REMARK    5  A    between atoms: C_23  and  C_26
REMARK    6  A    between atoms: C_26  and  C_28
REMARK    7  A    between atoms: C_28  and  C_29
REMARK    8  A    between atoms: C_28  and  C_30
REMARK                            x       y       z     vdW  Elec       q    Type
REMARK                         _______ _______ _______ _____ _____    ______ ____
ROOT
ATOM      1  C   UNL     1      -9.119  54.405  50.114  0.00  0.00    +0.000 A 
ATOM      2  C   UNL     1     -10.226  55.369  50.377  0.00  0.00    +0.000 A 
ATOM      3  C   UNL     1      -9.012  53.802  48.918  0.00  0.00    +0.000 A 
ATOM      4  O   UNL     1     -10.292  55.857  51.510  0.00  0.00    +0.000 OA
ATOM      5  N   UNL     1     -11.093  55.684  49.326  0.00  0.00    +0.000 N 
ATOM      6  C   UNL     1      -9.956  54.117  47.834  0.00  0.00    +0.000 A 
ATOM      7  C   UNL     1     -10.985  55.052  48.051  0.00  0.00    +0.000 A 
ATOM      8  C   UNL     1      -9.829  53.508  46.574  0.00  0.00    +0.000 A 
ATOM      9  C   UNL     1     -11.875  55.342  47.004  0.00  0.00    +0.000 A 
ATOM     10  C   UNL     1     -10.707  53.819  45.539  0.00  0.00    +0.000 A 
ATOM     11  C   UNL     1     -11.733  54.732  45.755  0.00  0.00    +0.000 A 
ENDROOT
BRANCH   1  17
ATOM     12  S   UNL     1      -7.537  53.960  53.681  0.00  0.00    +0.000 S 
ATOM     13  O   UNL     1      -7.747  52.632  54.224  0.00  0.00    +0.000 OA
ATOM     14  O   UNL     1      -7.671  55.129  54.528  0.00  0.00    +0.000 OA
ATOM     15  N   UNL     1      -8.542  54.141  52.424  0.00  0.00    +0.000 N 
ATOM     16  C   UNL     1      -5.887  53.987  53.081  0.00  0.00    +0.000 A 
ATOM     17  C   UNL     1      -8.092  54.173  51.205  0.00  0.00    +0.000 C 
ATOM     18  C   UNL     1      -5.697  54.028  51.711  0.00  0.00    +0.000 A 
ATOM     19  C   UNL     1      -4.818  53.982  53.979  0.00  0.00    +0.000 A 
ATOM     20  N   UNL     1      -6.774  54.020  50.828  0.00  0.00    +0.000 N 
ATOM     21  C   UNL     1      -4.384  53.985  51.225  0.00  0.00    +0.000 A 
ATOM     22  C   UNL     1      -3.520  53.983  53.484  0.00  0.00    +0.000 A 
ATOM     23  C   UNL     1      -3.300  53.970  52.106  0.00  0.00    +0.000 A 
ATOM     24  H   UNL     1      -9.510  54.227  52.586  0.00  0.00    +0.000 HD
ATOM     25  H   UNL     1      -6.581  53.897  49.870  0.00  0.00    +0.000 HD
ENDBRANCH   1  17
BRANCH   3  26
ATOM     26  O   UNL     1      -8.026  52.888  48.592  0.00  0.00    +0.000 OA
ATOM     27  H   UNL     1      -8.125  51.987  48.829  0.00  0.00    +0.000 HD
ENDBRANCH   3  26
BRANCH   5  28
ATOM     28  N   UNL     1     -12.173  56.622  49.533  0.00  0.00    +0.000 N 
ATOM     29  H   UNL     1     -12.118  57.575  49.291  0.00  0.00    +0.000 HD
BRANCH  28  30
ATOM     30  C   UNL     1     -13.361  56.007  50.143  0.00  0.00    +0.000 C 
BRANCH  30  31
ATOM     31  C   UNL     1     -13.522  56.376  51.620  0.00  0.00    +0.000 C 
BRANCH  31  32
ATOM     32  C   UNL     1     -15.006  56.608  51.991  0.00  0.00    +0.000 C 
ATOM     33  C   UNL     1     -15.221  57.906  52.773  0.00  0.00    +0.000 C 
ATOM     34  C   UNL     1     -15.875  56.607  50.734  0.00  0.00    +0.000 C 
ENDBRANCH  31  32
ENDBRANCH  30  31
ENDBRANCH  28  30
ENDBRANCH   5  28
TORSDOF 6
ENDMDL
MODEL 9
REMARK VINA RESULT:      -7.4      3.850      7.594
REMARK  Name = 
REMARK  8 active torsions:
REMARK  status: ('A' for Active; 'I' for Inactive)
REMARK    1  A    between atoms: C_6  and  C_10
REMARK    2  A    between atoms: C_14  and  O_18
REMARK    3  A    between atoms: N_17  and  N_20
REMARK    4  A    between atoms: N_20  and  C_23
REMARK    5  A    between atoms: C_23  and  C_26
REMARK    6  A    between atoms: C_26  and  C_28
REMARK    7  A    between atoms: C_28  and  C_29
REMARK    8  A    between atoms: C_28  and  C_30
REMARK                            x       y       z     vdW  Elec       q    Type
REMARK                         _______ _______ _______ _____ _____    ______ ____
ROOT
ATOM      1  C   UNL     1     -10.454  54.902  50.498  0.00  0.00    +0.000 A 
ATOM      2  C   UNL     1     -10.070  54.906  49.057  0.00  0.00    +0.000 A 
ATOM      3  C   UNL     1     -11.608  55.464  50.896  0.00  0.00    +0.000 A 
ATOM      4  O   UNL     1      -8.976  54.411  48.763  0.00  0.00    +0.000 OA
ATOM      5  N   UNL     1     -10.975  55.436  48.132  0.00  0.00    +0.000 N 
ATOM      6  C   UNL     1     -12.532  56.050  49.913  0.00  0.00    +0.000 A 
ATOM      7  C   UNL     1     -12.205  56.030  48.545  0.00  0.00    +0.000 A 
ATOM      8  C   UNL     1     -13.753  56.613  50.325  0.00  0.00    +0.000 A 
ATOM      9  C   UNL     1     -13.101  56.592  47.621  0.00  0.00    +0.000 A 
ATOM     10  C   UNL     1     -14.641  57.150  49.396  0.00  0.00    +0.000 A 
ATOM     11  C   UNL     1     -14.313  57.144  48.044  0.00  0.00    +0.000 A 
ENDROOT
BRANCH   1  17
ATOM     12  S   UNL     1      -9.073  52.208  53.000  0.00  0.00    +0.000 S 
ATOM     13  O   UNL     1      -8.462  51.080  52.326  0.00  0.00    +0.000 OA
ATOM     14  O   UNL     1      -9.919  52.001  54.159  0.00  0.00    +0.000 OA
ATOM     15  N   UNL     1      -9.931  53.032  51.901  0.00  0.00    +0.000 N 
ATOM     16  C   UNL     1      -7.749  53.225  53.547  0.00  0.00    +0.000 A 
ATOM     17  C   UNL     1      -9.541  54.199  51.485  0.00  0.00    +0.000 C 
ATOM     18  C   UNL     1      -7.566  54.443  52.918  0.00  0.00    +0.000 A 
ATOM     19  C   UNL     1      -6.932  52.801  54.597  0.00  0.00    +0.000 A 
ATOM     20  N   UNL     1      -8.383  54.846  51.863  0.00  0.00    +0.000 N 
ATOM     21  C   UNL     1      -6.474  55.230  53.306  0.00  0.00    +0.000 A 
ATOM     22  C   UNL     1      -5.878  53.611  55.001  0.00  0.00    +0.000 A 
ATOM     23  C   UNL     1      -5.638  54.820  54.347  0.00  0.00    +0.000 A 
ATOM     24  H   UNL     1     -10.760  52.641  51.541  0.00  0.00    +0.000 HD
ATOM     25  H   UNL     1      -8.116  55.647  51.356  0.00  0.00    +0.000 HD
ENDBRANCH   1  17
BRANCH   3  26
ATOM     26  O   UNL     1     -12.036  55.515  52.211  0.00  0.00    +0.000 OA
ATOM     27  H   UNL     1     -11.709  54.898  52.835  0.00  0.00    +0.000 HD
ENDBRANCH   3  26
BRANCH   5  28
ATOM     28  N   UNL     1     -10.649  55.449  46.724  0.00  0.00    +0.000 N 
ATOM     29  H   UNL     1     -10.135  56.170  46.293  0.00  0.00    +0.000 HD
BRANCH  28  30
ATOM     30  C   UNL     1     -11.163  54.275  46.003  0.00  0.00    +0.000 C 
BRANCH  30  31
ATOM     31  C   UNL     1     -10.075  53.551  45.206  0.00  0.00    +0.000 C 
BRANCH  31  32
ATOM     32  C   UNL     1     -10.663  52.806  43.985  0.00  0.00    +0.000 C 
ATOM     33  C   UNL     1      -9.633  52.594  42.872  0.00  0.00    +0.000 C 
ATOM     34  C   UNL     1     -11.250  51.462  44.414  0.00  0.00    +0.000 C 
ENDBRANCH  31  32
ENDBRANCH  30  31
ENDBRANCH  28  30
ENDBRANCH   5  28
TORSDOF 6
ENDMDL
