MODEL 1
REMARK VINA RESULT:      -8.8      0.000      0.000
REMARK  Name = 
REMARK  5 active torsions:
REMARK  status: ('A' for Active; 'I' for Inactive)
REMARK    1  A    between atoms: C_6  and  C_10
REMARK    2  A    between atoms: C_14  and  O_18
REMARK    3  A    between atoms: N_17  and  N_20
REMARK    4  A    between atoms: N_20  and  C_23
REMARK    5  A    between atoms: C_23  and  C_26
REMARK                            x       y       z     vdW  Elec       q    Type
REMARK                         _______ _______ _______ _____ _____    ______ ____
ROOT
ATOM      1  C   UNL     1      -9.125  54.332  49.880  0.00  0.00    +0.000 A 
ATOM      2  C   UNL     1     -10.168  55.398  49.948  0.00  0.00    +0.000 A 
ATOM      3  C   UNL     1      -9.012  53.559  48.786  0.00  0.00    +0.000 A 
ATOM      4  O   UNL     1     -10.233  56.064  50.987  0.00  0.00    +0.000 OA
ATOM      5  N   UNL     1     -10.984  55.596  48.832  0.00  0.00    +0.000 N 
ATOM      6  C   UNL     1      -9.887  53.777  47.624  0.00  0.00    +0.000 A 
ATOM      7  C   UNL     1     -10.862  54.787  47.662  0.00  0.00    +0.000 A 
ATOM      8  C   UNL     1      -9.747  52.992  46.465  0.00  0.00    +0.000 A 
ATOM      9  C   UNL     1     -11.685  54.984  46.540  0.00  0.00    +0.000 A 
ATOM     10  C   UNL     1     -10.556  53.210  45.353  0.00  0.00    +0.000 A 
ATOM     11  C   UNL     1     -11.527  54.204  45.391  0.00  0.00    +0.000 A 
ENDROOT
BRANCH   1  17
ATOM     12  S   UNL     1      -7.754  54.099  53.554  0.00  0.00    +0.000 S 
ATOM     13  O   UNL     1      -7.977  52.790  54.138  0.00  0.00    +0.000 OA
ATOM     14  O   UNL     1      -7.958  55.297  54.342  0.00  0.00    +0.000 OA
ATOM     15  N   UNL     1      -8.681  54.207  52.231  0.00  0.00    +0.000 N 
ATOM     16  C   UNL     1      -6.074  54.126  53.052  0.00  0.00    +0.000 A 
ATOM     17  C   UNL     1      -8.161  54.183  51.041  0.00  0.00    +0.000 C 
ATOM     18  C   UNL     1      -5.801  54.107  51.697  0.00  0.00    +0.000 A 
ATOM     19  C   UNL     1      -5.060  54.180  54.012  0.00  0.00    +0.000 A 
ATOM     20  N   UNL     1      -6.822  54.038  50.751  0.00  0.00    +0.000 N 
ATOM     21  C   UNL     1      -4.462  54.066  51.290  0.00  0.00    +0.000 A 
ATOM     22  C   UNL     1      -3.732  54.175  53.594  0.00  0.00    +0.000 A 
ATOM     23  C   UNL     1      -3.433  54.108  52.233  0.00  0.00    +0.000 A 
ATOM     24  H   UNL     1      -9.657  54.290  52.331  0.00  0.00    +0.000 HD
ATOM     25  H   UNL     1      -6.571  53.875  49.814  0.00  0.00    +0.000 HD
ENDBRANCH   1  17
BRANCH   3  26
ATOM     26  O   UNL     1      -8.079  52.549  48.636  0.00  0.00    +0.000 OA
ATOM     27  H   UNL     1      -7.461  52.583  47.934  0.00  0.00    +0.000 HD
ENDBRANCH   3  26
BRANCH   5  28
ATOM     28  N   UNL     1     -12.059  56.549  48.874  0.00  0.00    +0.000 N 
ATOM     29  H   UNL     1     -11.991  57.439  48.459  0.00  0.00    +0.000 HD
BRANCH  28  30
ATOM     30  C   UNL     1     -13.267  56.100  49.579  0.00  0.00    +0.000 C 
BRANCH  30  31
ATOM     31  C   UNL     1     -13.689  57.089  50.633  0.00  0.00    +0.000 A 
ATOM     32  C   UNL     1     -14.132  58.363  50.284  0.00  0.00    +0.000 A 
ATOM     33  C   UNL     1     -13.668  56.765  51.991  0.00  0.00    +0.000 A 
ATOM     34  N   UNL     1     -14.520  59.303  51.174  0.00  0.00    +0.000 NA
ATOM     35  C   UNL     1     -14.060  57.714  52.930  0.00  0.00    +0.000 A 
ATOM     36  C   UNL     1     -14.470  58.957  52.477  0.00  0.00    +0.000 A 
ENDBRANCH  30  31
ENDBRANCH  28  30
ENDBRANCH   5  28
TORSDOF 5
ENDMDL
MODEL 2
REMARK VINA RESULT:      -8.8      2.599      7.313
REMARK  Name = 
REMARK  5 active torsions:
REMARK  status: ('A' for Active; 'I' for Inactive)
REMARK    1  A    between atoms: C_6  and  C_10
REMARK    2  A    between atoms: C_14  and  O_18
REMARK    3  A    between atoms: N_17  and  N_20
REMARK    4  A    between atoms: N_20  and  C_23
REMARK    5  A    between atoms: C_23  and  C_26
REMARK                            x       y       z     vdW  Elec       q    Type
REMARK                         _______ _______ _______ _____ _____    ______ ____
ROOT
ATOM      1  C   UNL     1     -11.425  56.067  48.816  0.00  0.00    +0.000 A 
ATOM      2  C   UNL     1     -10.337  55.508  49.673  0.00  0.00    +0.000 A 
ATOM      3  C   UNL     1     -11.542  55.686  47.532  0.00  0.00    +0.000 A 
ATOM      4  O   UNL     1     -10.269  55.910  50.839  0.00  0.00    +0.000 OA
ATOM      5  N   UNL     1      -9.483  54.553  49.118  0.00  0.00    +0.000 N 
ATOM      6  C   UNL     1     -10.628  54.685  46.962  0.00  0.00    +0.000 A 
ATOM      7  C   UNL     1      -9.609  54.134  47.758  0.00  0.00    +0.000 A 
ATOM      8  C   UNL     1     -10.772  54.260  45.630  0.00  0.00    +0.000 A 
ATOM      9  C   UNL     1      -8.749  53.175  47.198  0.00  0.00    +0.000 A 
ATOM     10  C   UNL     1      -9.925  53.294  45.092  0.00  0.00    +0.000 A 
ATOM     11  C   UNL     1      -8.911  52.754  45.875  0.00  0.00    +0.000 A 
ENDROOT
BRANCH   1  17
ATOM     12  S   UNL     1     -13.574  59.292  49.452  0.00  0.00    +0.000 S 
ATOM     13  O   UNL     1     -14.712  59.376  48.556  0.00  0.00    +0.000 OA
ATOM     14  O   UNL     1     -12.796  60.475  49.761  0.00  0.00    +0.000 OA
ATOM     15  N   UNL     1     -12.568  58.172  48.859  0.00  0.00    +0.000 N 
ATOM     16  C   UNL     1     -14.204  58.712  50.983  0.00  0.00    +0.000 A 
ATOM     17  C   UNL     1     -12.425  57.020  49.441  0.00  0.00    +0.000 C 
ATOM     18  C   UNL     1     -13.878  57.425  51.372  0.00  0.00    +0.000 A 
ATOM     19  C   UNL     1     -14.997  59.546  51.773  0.00  0.00    +0.000 A 
ATOM     20  N   UNL     1     -13.098  56.598  50.567  0.00  0.00    +0.000 N 
ATOM     21  C   UNL     1     -14.427  56.933  52.562  0.00  0.00    +0.000 A 
ATOM     22  C   UNL     1     -15.509  59.057  52.972  0.00  0.00    +0.000 A 
ATOM     23  C   UNL     1     -15.231  57.748  53.362  0.00  0.00    +0.000 A 
ATOM     24  H   UNL     1     -12.055  58.367  48.041  0.00  0.00    +0.000 HD
ATOM     25  H   UNL     1     -13.023  55.649  50.818  0.00  0.00    +0.000 HD
ENDBRANCH   1  17
BRANCH   3  26
ATOM     26  O   UNL     1     -12.516  56.151  46.667  0.00  0.00    +0.000 OA
ATOM     27  H   UNL     1     -13.317  56.498  47.006  0.00  0.00    +0.000 HD
ENDBRANCH   3  26
BRANCH   5  28
ATOM     28  N   UNL     1      -8.367  54.046  49.869  0.00  0.00    +0.000 N 
ATOM     29  H   UNL     1      -8.381  53.162  50.301  0.00  0.00    +0.000 HD
BRANCH  28  30
ATOM     30  C   UNL     1      -7.204  54.940  49.945  0.00  0.00    +0.000 C 
BRANCH  30  31
ATOM     31  C   UNL     1      -6.644  54.998  51.341  0.00  0.00    +0.000 A 
ATOM     32  C   UNL     1      -7.257  55.768  52.327  0.00  0.00    +0.000 A 
ATOM     33  C   UNL     1      -5.505  54.276  51.703  0.00  0.00    +0.000 A 
ATOM     34  N   UNL     1      -6.808  55.872  53.598  0.00  0.00    +0.000 NA
ATOM     35  C   UNL     1      -5.020  54.366  53.004  0.00  0.00    +0.000 A 
ATOM     36  C   UNL     1      -5.697  55.172  53.905  0.00  0.00    +0.000 A 
ENDBRANCH  30  31
ENDBRANCH  28  30
ENDBRANCH   5  28
TORSDOF 5
ENDMDL
MODEL 3
REMARK VINA RESULT:      -8.7      3.014      7.618
REMARK  Name = 
REMARK  5 active torsions:
REMARK  status: ('A' for Active; 'I' for Inactive)
REMARK    1  A    between atoms: C_6  and  C_10
REMARK    2  A    between atoms: C_14  and  O_18
REMARK    3  A    between atoms: N_17  and  N_20
REMARK    4  A    between atoms: N_20  and  C_23
REMARK    5  A    between atoms: C_23  and  C_26
REMARK                            x       y       z     vdW  Elec       q    Type
REMARK                         _______ _______ _______ _____ _____    ______ ____
ROOT
ATOM      1  C   UNL     1     -11.159  54.578  50.754  0.00  0.00    +0.000 A 
ATOM      2  C   UNL     1      -9.776  54.948  50.331  0.00  0.00    +0.000 A 
ATOM      3  C   UNL     1     -11.418  53.347  51.230  0.00  0.00    +0.000 A 
ATOM      4  O   UNL     1      -9.604  56.088  49.885  0.00  0.00    +0.000 OA
ATOM      5  N   UNL     1      -8.762  54.001  50.486  0.00  0.00    +0.000 N 
ATOM      6  C   UNL     1     -10.339  52.360  51.378  0.00  0.00    +0.000 A 
ATOM      7  C   UNL     1      -9.027  52.696  51.001  0.00  0.00    +0.000 A 
ATOM      8  C   UNL     1     -10.602  51.084  51.908  0.00  0.00    +0.000 A 
ATOM      9  C   UNL     1      -8.008  51.741  51.155  0.00  0.00    +0.000 A 
ATOM     10  C   UNL     1      -9.578  50.154  52.073  0.00  0.00    +0.000 A 
ATOM     11  C   UNL     1      -8.282  50.481  51.693  0.00  0.00    +0.000 A 
ENDROOT
BRANCH   1  17
ATOM     12  S   UNL     1     -13.629  57.278  49.330  0.00  0.00    +0.000 S 
ATOM     13  O   UNL     1     -14.785  56.678  48.690  0.00  0.00    +0.000 OA
ATOM     14  O   UNL     1     -12.977  58.427  48.735  0.00  0.00    +0.000 OA
ATOM     15  N   UNL     1     -12.520  56.116  49.520  0.00  0.00    +0.000 N 
ATOM     16  C   UNL     1     -14.167  57.793  50.918  0.00  0.00    +0.000 A 
ATOM     17  C   UNL     1     -12.244  55.635  50.695  0.00  0.00    +0.000 C 
ATOM     18  C   UNL     1     -13.699  57.098  52.018  0.00  0.00    +0.000 A 
ATOM     19  C   UNL     1     -15.031  58.883  51.043  0.00  0.00    +0.000 A 
ATOM     20  N   UNL     1     -12.849  56.002  51.877  0.00  0.00    +0.000 N 
ATOM     21  C   UNL     1     -14.171  57.463  53.283  0.00  0.00    +0.000 A 
ATOM     22  C   UNL     1     -15.467  59.259  52.311  0.00  0.00    +0.000 A 
ATOM     23  C   UNL     1     -15.044  58.543  53.430  0.00  0.00    +0.000 A 
ATOM     24  H   UNL     1     -12.045  55.766  48.731  0.00  0.00    +0.000 HD
ATOM     25  H   UNL     1     -12.669  55.455  52.675  0.00  0.00    +0.000 HD
ENDBRANCH   1  17
BRANCH   3  26
ATOM     26  O   UNL     1     -12.666  52.917  51.643  0.00  0.00    +0.000 OA
ATOM     27  H   UNL     1     -13.436  53.361  51.346  0.00  0.00    +0.000 HD
ENDBRANCH   3  26
BRANCH   5  28
ATOM     28  N   UNL     1      -7.431  54.272  50.015  0.00  0.00    +0.000 N 
ATOM     29  H   UNL     1      -7.028  53.784  49.262  0.00  0.00    +0.000 HD
BRANCH  28  30
ATOM     30  C   UNL     1      -6.715  55.333  50.738  0.00  0.00    +0.000 C 
BRANCH  30  31
ATOM     31  C   UNL     1      -6.487  54.960  52.179  0.00  0.00    +0.000 A 
ATOM     32  C   UNL     1      -7.269  55.507  53.193  0.00  0.00    +0.000 A 
ATOM     33  C   UNL     1      -5.498  54.046  52.551  0.00  0.00    +0.000 A 
ATOM     34  N   UNL     1      -7.118  55.224  54.506  0.00  0.00    +0.000 NA
ATOM     35  C   UNL     1      -5.320  53.738  53.896  0.00  0.00    +0.000 A 
ATOM     36  C   UNL     1      -6.143  54.349  54.826  0.00  0.00    +0.000 A 
ENDBRANCH  30  31
ENDBRANCH  28  30
ENDBRANCH   5  28
TORSDOF 5
ENDMDL
MODEL 4
REMARK VINA RESULT:      -8.7      3.721      7.628
REMARK  Name = 
REMARK  5 active torsions:
REMARK  status: ('A' for Active; 'I' for Inactive)
REMARK    1  A    between atoms: C_6  and  C_10
REMARK    2  A    between atoms: C_14  and  O_18
REMARK    3  A    between atoms: N_17  and  N_20
REMARK    4  A    between atoms: N_20  and  C_23
REMARK    5  A    between atoms: C_23  and  C_26
REMARK                            x       y       z     vdW  Elec       q    Type
REMARK                         _______ _______ _______ _____ _____    ______ ____
ROOT
ATOM      1  C   UNL     1     -12.519  54.300  49.551  0.00  0.00    +0.000 A 
ATOM      2  C   UNL     1     -12.020  54.266  48.143  0.00  0.00    +0.000 A 
ATOM      3  C   UNL     1     -12.217  53.306  50.403  0.00  0.00    +0.000 A 
ATOM      4  O   UNL     1     -12.346  55.199  47.402  0.00  0.00    +0.000 OA
ATOM      5  N   UNL     1     -11.202  53.202  47.758  0.00  0.00    +0.000 N 
ATOM      6  C   UNL     1     -11.361  52.189  49.977  0.00  0.00    +0.000 A 
ATOM      7  C   UNL     1     -10.867  52.148  48.662  0.00  0.00    +0.000 A 
ATOM      8  C   UNL     1     -11.016  51.166  50.878  0.00  0.00    +0.000 A 
ATOM      9  C   UNL     1     -10.046  51.076  48.275  0.00  0.00    +0.000 A 
ATOM     10  C   UNL     1     -10.185  50.119  50.487  0.00  0.00    +0.000 A 
ATOM     11  C   UNL     1      -9.702  50.072  49.184  0.00  0.00    +0.000 A 
ENDROOT
BRANCH   1  17
ATOM     12  S   UNL     1     -15.366  56.462  51.176  0.00  0.00    +0.000 S 
ATOM     13  O   UNL     1     -15.233  56.546  52.619  0.00  0.00    +0.000 OA
ATOM     14  O   UNL     1     -16.670  56.281  50.572  0.00  0.00    +0.000 OA
ATOM     15  N   UNL     1     -14.408  55.261  50.667  0.00  0.00    +0.000 N 
ATOM     16  C   UNL     1     -14.742  57.973  50.542  0.00  0.00    +0.000 A 
ATOM     17  C   UNL     1     -13.314  55.506  50.010  0.00  0.00    +0.000 C 
ATOM     18  C   UNL     1     -13.540  57.942  49.858  0.00  0.00    +0.000 A 
ATOM     19  C   UNL     1     -15.461  59.156  50.723  0.00  0.00    +0.000 A 
ATOM     20  N   UNL     1     -12.825  56.756  49.699  0.00  0.00    +0.000 N 
ATOM     21  C   UNL     1     -13.005  59.151  49.403  0.00  0.00    +0.000 A 
ATOM     22  C   UNL     1     -14.934  60.349  50.234  0.00  0.00    +0.000 A 
ATOM     23  C   UNL     1     -13.702  60.348  49.582  0.00  0.00    +0.000 A 
ATOM     24  H   UNL     1     -14.657  54.328  50.860  0.00  0.00    +0.000 HD
ATOM     25  H   UNL     1     -11.911  56.814  49.339  0.00  0.00    +0.000 HD
ENDBRANCH   1  17
BRANCH   3  26
ATOM     26  O   UNL     1     -12.635  53.254  51.721  0.00  0.00    +0.000 OA
ATOM     27  H   UNL     1     -12.004  53.206  52.411  0.00  0.00    +0.000 HD
ENDBRANCH   3  26
BRANCH   5  28
ATOM     28  N   UNL     1     -10.765  53.073  46.395  0.00  0.00    +0.000 N 
ATOM     29  H   UNL     1     -11.047  52.326  45.820  0.00  0.00    +0.000 HD
BRANCH  28  30
ATOM     30  C   UNL     1      -9.870  54.137  45.921  0.00  0.00    +0.000 C 
BRANCH  30  31
ATOM     31  C   UNL     1      -8.551  54.112  46.647  0.00  0.00    +0.000 A 
ATOM     32  C   UNL     1      -7.566  53.186  46.311  0.00  0.00    +0.000 A 
ATOM     33  C   UNL     1      -8.260  55.019  47.668  0.00  0.00    +0.000 A 
ATOM     34  N   UNL     1      -6.363  53.100  46.922  0.00  0.00    +0.000 NA
ATOM     35  C   UNL     1      -7.031  54.952  48.316  0.00  0.00    +0.000 A 
ATOM     36  C   UNL     1      -6.126  53.983  47.913  0.00  0.00    +0.000 A 
ENDBRANCH  30  31
ENDBRANCH  28  30
ENDBRANCH   5  28
TORSDOF 5
ENDMDL
MODEL 5
REMARK VINA RESULT:      -8.7      2.889      8.023
REMARK  Name = 
REMARK  5 active torsions:
REMARK  status: ('A' for Active; 'I' for Inactive)
REMARK    1  A    between atoms: C_6  and  C_10
REMARK    2  A    between atoms: C_14  and  O_18
REMARK    3  A    between atoms: N_17  and  N_20
REMARK    4  A    between atoms: N_20  and  C_23
REMARK    5  A    between atoms: C_23  and  C_26
REMARK                            x       y       z     vdW  Elec       q    Type
REMARK                         _______ _______ _______ _____ _____    ______ ____
ROOT
ATOM      1  C   UNL     1     -10.096  54.550  52.262  0.00  0.00    +0.000 A 
ATOM      2  C   UNL     1      -8.736  55.151  52.115  0.00  0.00    +0.000 A 
ATOM      3  C   UNL     1     -10.270  53.428  52.981  0.00  0.00    +0.000 A 
ATOM      4  O   UNL     1      -8.637  56.172  51.428  0.00  0.00    +0.000 OA
ATOM      5  N   UNL     1      -7.670  54.541  52.780  0.00  0.00    +0.000 N 
ATOM      6  C   UNL     1      -9.133  52.795  53.667  0.00  0.00    +0.000 A 
ATOM      7  C   UNL     1      -7.849  53.355  53.556  0.00  0.00    +0.000 A 
ATOM      8  C   UNL     1      -9.320  51.641  54.448  0.00  0.00    +0.000 A 
ATOM      9  C   UNL     1      -6.777  52.740  54.223  0.00  0.00    +0.000 A 
ATOM     10  C   UNL     1      -8.251  51.052  55.120  0.00  0.00    +0.000 A 
ATOM     11  C   UNL     1      -6.979  51.600  55.004  0.00  0.00    +0.000 A 
ENDROOT
BRANCH   1  17
ATOM     12  S   UNL     1     -12.532  56.015  49.552  0.00  0.00    +0.000 S 
ATOM     13  O   UNL     1     -13.416  55.001  49.006  0.00  0.00    +0.000 OA
ATOM     14  O   UNL     1     -11.930  57.006  48.683  0.00  0.00    +0.000 OA
ATOM     15  N   UNL     1     -11.342  55.252  50.340  0.00  0.00    +0.000 N 
ATOM     16  C   UNL     1     -13.484  56.909  50.723  0.00  0.00    +0.000 A 
ATOM     17  C   UNL     1     -11.277  55.267  51.637  0.00  0.00    +0.000 C 
ATOM     18  C   UNL     1     -13.186  56.744  52.063  0.00  0.00    +0.000 A 
ATOM     19  C   UNL     1     -14.499  57.765  50.289  0.00  0.00    +0.000 A 
ATOM     20  N   UNL     1     -12.181  55.874  52.482  0.00  0.00    +0.000 N 
ATOM     21  C   UNL     1     -13.980  57.405  53.006  0.00  0.00    +0.000 A 
ATOM     22  C   UNL     1     -15.260  58.445  51.236  0.00  0.00    +0.000 A 
ATOM     23  C   UNL     1     -15.007  58.258  52.595  0.00  0.00    +0.000 A 
ATOM     24  H   UNL     1     -10.656  54.766  49.827  0.00  0.00    +0.000 HD
ATOM     25  H   UNL     1     -12.111  55.681  53.444  0.00  0.00    +0.000 HD
ENDBRANCH   1  17
BRANCH   3  26
ATOM     26  O   UNL     1     -11.489  52.803  53.169  0.00  0.00    +0.000 OA
ATOM     27  H   UNL     1     -11.952  52.913  53.976  0.00  0.00    +0.000 HD
ENDBRANCH   3  26
BRANCH   5  28
ATOM     28  N   UNL     1      -6.328  55.025  52.605  0.00  0.00    +0.000 N 
ATOM     29  H   UNL     1      -6.020  55.876  52.991  0.00  0.00    +0.000 HD
BRANCH  28  30
ATOM     30  C   UNL     1      -5.447  54.157  51.811  0.00  0.00    +0.000 C 
BRANCH  30  31
ATOM     31  C   UNL     1      -5.994  53.938  50.425  0.00  0.00    +0.000 A 
ATOM     32  C   UNL     1      -6.019  54.974  49.493  0.00  0.00    +0.000 A 
ATOM     33  C   UNL     1      -6.480  52.694  50.017  0.00  0.00    +0.000 A 
ATOM     34  N   UNL     1      -6.499  54.853  48.235  0.00  0.00    +0.000 NA
ATOM     35  C   UNL     1      -6.982  52.542  48.729  0.00  0.00    +0.000 A 
ATOM     36  C   UNL     1      -6.974  53.640  47.885  0.00  0.00    +0.000 A 
ENDBRANCH  30  31
ENDBRANCH  28  30
ENDBRANCH   5  28
TORSDOF 5
ENDMDL
MODEL 6
REMARK VINA RESULT:      -8.6      2.304      5.633
REMARK  Name = 
REMARK  5 active torsions:
REMARK  status: ('A' for Active; 'I' for Inactive)
REMARK    1  A    between atoms: C_6  and  C_10
REMARK    2  A    between atoms: C_14  and  O_18
REMARK    3  A    between atoms: N_17  and  N_20
REMARK    4  A    between atoms: N_20  and  C_23
REMARK    5  A    between atoms: C_23  and  C_26
REMARK                            x       y       z     vdW  Elec       q    Type
REMARK                         _______ _______ _______ _____ _____    ______ ____
ROOT
ATOM      1  C   UNL     1     -10.374  55.198  50.893  0.00  0.00    +0.000 A 
ATOM      2  C   UNL     1     -10.040  55.111  49.440  0.00  0.00    +0.000 A 
ATOM      3  C   UNL     1     -11.557  55.699  51.289  0.00  0.00    +0.000 A 
ATOM      4  O   UNL     1      -8.931  54.659  49.138  0.00  0.00    +0.000 OA
ATOM      5  N   UNL     1     -11.003  55.520  48.514  0.00  0.00    +0.000 N 
ATOM      6  C   UNL     1     -12.555  56.133  50.300  0.00  0.00    +0.000 A 
ATOM      7  C   UNL     1     -12.266  56.042  48.928  0.00  0.00    +0.000 A 
ATOM      8  C   UNL     1     -13.806  56.624  50.714  0.00  0.00    +0.000 A 
ATOM      9  C   UNL     1     -13.235  56.456  47.999  0.00  0.00    +0.000 A 
ATOM     10  C   UNL     1     -14.765  57.014  49.781  0.00  0.00    +0.000 A 
ATOM     11  C   UNL     1     -14.478  56.933  48.423  0.00  0.00    +0.000 A 
ENDROOT
BRANCH   1  17
ATOM     12  S   UNL     1      -7.065  54.731  52.955  0.00  0.00    +0.000 S 
ATOM     13  O   UNL     1      -6.937  55.714  54.014  0.00  0.00    +0.000 OA
ATOM     14  O   UNL     1      -5.913  54.361  52.157  0.00  0.00    +0.000 OA
ATOM     15  N   UNL     1      -8.225  55.244  51.950  0.00  0.00    +0.000 N 
ATOM     16  C   UNL     1      -7.616  53.256  53.726  0.00  0.00    +0.000 A 
ATOM     17  C   UNL     1      -9.381  54.653  51.900  0.00  0.00    +0.000 C 
ATOM     18  C   UNL     1      -8.914  52.843  53.484  0.00  0.00    +0.000 A 
ATOM     19  C   UNL     1      -6.748  52.530  54.546  0.00  0.00    +0.000 A 
ATOM     20  N   UNL     1      -9.773  53.585  52.677  0.00  0.00    +0.000 N 
ATOM     21  C   UNL     1      -9.380  51.701  54.144  0.00  0.00    +0.000 A 
ATOM     22  C   UNL     1      -7.214  51.375  55.169  0.00  0.00    +0.000 A 
ATOM     23  C   UNL     1      -8.533  50.966  54.976  0.00  0.00    +0.000 A 
ATOM     24  H   UNL     1      -8.052  56.019  51.367  0.00  0.00    +0.000 HD
ATOM     25  H   UNL     1     -10.723  53.329  52.659  0.00  0.00    +0.000 HD
ENDBRANCH   1  17
BRANCH   3  26
ATOM     26  O   UNL     1     -11.950  55.818  52.610  0.00  0.00    +0.000 OA
ATOM     27  H   UNL     1     -12.651  55.292  52.939  0.00  0.00    +0.000 HD
ENDBRANCH   3  26
BRANCH   5  28
ATOM     28  N   UNL     1     -10.703  55.539  47.109  0.00  0.00    +0.000 N 
ATOM     29  H   UNL     1     -10.080  56.190  46.712  0.00  0.00    +0.000 HD
BRANCH  28  30
ATOM     30  C   UNL     1     -11.391  54.519  46.307  0.00  0.00    +0.000 C 
BRANCH  30  31
ATOM     31  C   UNL     1     -10.433  53.790  45.404  0.00  0.00    +0.000 A 
ATOM     32  C   UNL     1      -9.082  53.688  45.726  0.00  0.00    +0.000 A 
ATOM     33  C   UNL     1     -10.861  53.178  44.223  0.00  0.00    +0.000 A 
ATOM     34  N   UNL     1      -8.163  53.055  44.961  0.00  0.00    +0.000 NA
ATOM     35  C   UNL     1      -9.936  52.523  43.416  0.00  0.00    +0.000 A 
ATOM     36  C   UNL     1      -8.613  52.492  43.822  0.00  0.00    +0.000 A 
ENDBRANCH  30  31
ENDBRANCH  28  30
ENDBRANCH   5  28
TORSDOF 5
ENDMDL
MODEL 7
REMARK VINA RESULT:      -8.5      3.217      8.157
REMARK  Name = 
REMARK  5 active torsions:
REMARK  status: ('A' for Active; 'I' for Inactive)
REMARK    1  A    between atoms: C_6  and  C_10
REMARK    2  A    between atoms: C_14  and  O_18
REMARK    3  A    between atoms: N_17  and  N_20
REMARK    4  A    between atoms: N_20  and  C_23
REMARK    5  A    between atoms: C_23  and  C_26
REMARK                            x       y       z     vdW  Elec       q    Type
REMARK                         _______ _______ _______ _____ _____    ______ ____
ROOT
ATOM      1  C   UNL     1     -11.288  53.990  51.637  0.00  0.00    +0.000 A 
ATOM      2  C   UNL     1     -10.270  54.216  52.706  0.00  0.00    +0.000 A 
ATOM      3  C   UNL     1     -11.451  52.768  51.101  0.00  0.00    +0.000 A 
ATOM      4  O   UNL     1     -10.155  55.364  53.147  0.00  0.00    +0.000 OA
ATOM      5  N   UNL     1      -9.532  53.120  53.158  0.00  0.00    +0.000 N 
ATOM      6  C   UNL     1     -10.658  51.628  51.584  0.00  0.00    +0.000 A 
ATOM      7  C   UNL     1      -9.707  51.817  52.601  0.00  0.00    +0.000 A 
ATOM      8  C   UNL     1     -10.851  50.342  51.048  0.00  0.00    +0.000 A 
ATOM      9  C   UNL     1      -8.963  50.714  53.053  0.00  0.00    +0.000 A 
ATOM     10  C   UNL     1     -10.120  49.254  51.518  0.00  0.00    +0.000 A 
ATOM     11  C   UNL     1      -9.174  49.441  52.519  0.00  0.00    +0.000 A 
ENDROOT
BRANCH   1  17
ATOM     12  S   UNL     1     -12.964  56.759  49.412  0.00  0.00    +0.000 S 
ATOM     13  O   UNL     1     -14.015  56.220  48.569  0.00  0.00    +0.000 OA
ATOM     14  O   UNL     1     -12.039  57.743  48.890  0.00  0.00    +0.000 OA
ATOM     15  N   UNL     1     -12.101  55.510  49.973  0.00  0.00    +0.000 N 
ATOM     16  C   UNL     1     -13.773  57.523  50.768  0.00  0.00    +0.000 A 
ATOM     17  C   UNL     1     -12.172  55.148  51.219  0.00  0.00    +0.000 C 
ATOM     18  C   UNL     1     -13.671  56.919  52.008  0.00  0.00    +0.000 A 
ATOM     19  C   UNL     1     -14.482  58.711  50.578  0.00  0.00    +0.000 A 
ATOM     20  N   UNL     1     -12.974  55.725  52.180  0.00  0.00    +0.000 N 
ATOM     21  C   UNL     1     -14.365  57.489  53.082  0.00  0.00    +0.000 A 
ATOM     22  C   UNL     1     -15.139  59.288  51.662  0.00  0.00    +0.000 A 
ATOM     23  C   UNL     1     -15.088  58.672  52.912  0.00  0.00    +0.000 A 
ATOM     24  H   UNL     1     -11.512  55.014  49.359  0.00  0.00    +0.000 HD
ATOM     25  H   UNL     1     -13.059  55.263  53.044  0.00  0.00    +0.000 HD
ENDBRANCH   1  17
BRANCH   3  26
ATOM     26  O   UNL     1     -12.366  52.467  50.108  0.00  0.00    +0.000 OA
ATOM     27  H   UNL     1     -13.243  52.231  50.337  0.00  0.00    +0.000 HD
ENDBRANCH   3  26
BRANCH   5  28
ATOM     28  N   UNL     1      -8.480  53.296  54.122  0.00  0.00    +0.000 N 
ATOM     29  H   UNL     1      -8.385  52.714  54.910  0.00  0.00    +0.000 HD
BRANCH  28  30
ATOM     30  C   UNL     1      -7.557  54.405  53.847  0.00  0.00    +0.000 C 
BRANCH  30  31
ATOM     31  C   UNL     1      -6.136  53.920  53.722  0.00  0.00    +0.000 A 
ATOM     32  C   UNL     1      -5.858  52.592  53.408  0.00  0.00    +0.000 A 
ATOM     33  C   UNL     1      -5.051  54.781  53.900  0.00  0.00    +0.000 A 
ATOM     34  N   UNL     1      -4.610  52.085  53.286  0.00  0.00    +0.000 NA
ATOM     35  C   UNL     1      -3.756  54.286  53.782  0.00  0.00    +0.000 A 
ATOM     36  C   UNL     1      -3.589  52.944  53.481  0.00  0.00    +0.000 A 
ENDBRANCH  30  31
ENDBRANCH  28  30
ENDBRANCH   5  28
TORSDOF 5
ENDMDL
MODEL 8
REMARK VINA RESULT:      -8.5      3.086      7.170
REMARK  Name = 
REMARK  5 active torsions:
REMARK  status: ('A' for Active; 'I' for Inactive)
REMARK    1  A    between atoms: C_6  and  C_10
REMARK    2  A    between atoms: C_14  and  O_18
REMARK    3  A    between atoms: N_17  and  N_20
REMARK    4  A    between atoms: N_20  and  C_23
REMARK    5  A    between atoms: C_23  and  C_26
REMARK                            x       y       z     vdW  Elec       q    Type
REMARK                         _______ _______ _______ _____ _____    ______ ____
ROOT
ATOM      1  C   UNL     1     -11.267  54.728  48.346  0.00  0.00    +0.000 A 
ATOM      2  C   UNL     1     -11.054  54.261  49.749  0.00  0.00    +0.000 A 
ATOM      3  C   UNL     1     -12.149  55.708  48.083  0.00  0.00    +0.000 A 
ATOM      4  O   UNL     1     -10.243  53.345  49.925  0.00  0.00    +0.000 OA
ATOM      5  N   UNL     1     -11.758  54.899  50.772  0.00  0.00    +0.000 N 
ATOM      6  C   UNL     1     -12.888  56.362  49.173  0.00  0.00    +0.000 A 
ATOM      7  C   UNL     1     -12.687  55.949  50.501  0.00  0.00    +0.000 A 
ATOM      8  C   UNL     1     -13.784  57.411  48.903  0.00  0.00    +0.000 A 
ATOM      9  C   UNL     1     -13.398  56.590  51.530  0.00  0.00    +0.000 A 
ATOM     10  C   UNL     1     -14.468  58.051  49.934  0.00  0.00    +0.000 A 
ATOM     11  C   UNL     1     -14.278  57.638  51.247  0.00  0.00    +0.000 A 
ENDROOT
BRANCH   1  17
ATOM     12  S   UNL     1      -8.195  53.954  46.026  0.00  0.00    +0.000 S 
ATOM     13  O   UNL     1      -7.255  53.040  46.649  0.00  0.00    +0.000 OA
ATOM     14  O   UNL     1      -7.715  55.094  45.272  0.00  0.00    +0.000 OA
ATOM     15  N   UNL     1      -9.185  54.500  47.184  0.00  0.00    +0.000 N 
ATOM     16  C   UNL     1      -9.137  52.990  44.904  0.00  0.00    +0.000 A 
ATOM     17  C   UNL     1     -10.426  54.119  47.242  0.00  0.00    +0.000 C 
ATOM     18  C   UNL     1     -10.462  52.745  45.213  0.00  0.00    +0.000 A 
ATOM     19  C   UNL     1      -8.547  52.507  43.733  0.00  0.00    +0.000 A 
ATOM     20  N   UNL     1     -11.033  53.220  46.392  0.00  0.00    +0.000 N 
ATOM     21  C   UNL     1     -11.203  51.926  44.354  0.00  0.00    +0.000 A 
ATOM     22  C   UNL     1      -9.306  51.722  42.868  0.00  0.00    +0.000 A 
ATOM     23  C   UNL     1     -10.631  51.424  43.183  0.00  0.00    +0.000 A 
ATOM     24  H   UNL     1      -8.841  55.131  47.856  0.00  0.00    +0.000 HD
ATOM     25  H   UNL     1     -11.928  52.893  46.635  0.00  0.00    +0.000 HD
ENDBRANCH   1  17
BRANCH   3  26
ATOM     26  O   UNL     1     -12.411  56.202  46.818  0.00  0.00    +0.000 OA
ATOM     27  H   UNL     1     -12.850  57.023  46.718  0.00  0.00    +0.000 HD
ENDBRANCH   3  26
BRANCH   5  28
ATOM     28  N   UNL     1     -11.656  54.434  52.128  0.00  0.00    +0.000 N 
ATOM     29  H   UNL     1     -12.314  53.819  52.525  0.00  0.00    +0.000 HD
BRANCH  28  30
ATOM     30  C   UNL     1     -10.499  54.939  52.879  0.00  0.00    +0.000 C 
BRANCH  30  31
ATOM     31  C   UNL     1      -9.638  53.813  53.388  0.00  0.00    +0.000 A 
ATOM     32  C   UNL     1      -8.270  53.990  53.584  0.00  0.00    +0.000 A 
ATOM     33  C   UNL     1     -10.176  52.562  53.696  0.00  0.00    +0.000 A 
ATOM     34  N   UNL     1      -7.436  53.025  54.031  0.00  0.00    +0.000 NA
ATOM     35  C   UNL     1      -9.340  51.550  54.157  0.00  0.00    +0.000 A 
ATOM     36  C   UNL     1      -7.990  51.826  54.303  0.00  0.00    +0.000 A 
ENDBRANCH  30  31
ENDBRANCH  28  30
ENDBRANCH   5  28
TORSDOF 5
ENDMDL
MODEL 9
REMARK VINA RESULT:      -8.4      2.331      6.936
REMARK  Name = 
REMARK  5 active torsions:
REMARK  status: ('A' for Active; 'I' for Inactive)
REMARK    1  A    between atoms: C_6  and  C_10
REMARK    2  A    between atoms: C_14  and  O_18
REMARK    3  A    between atoms: N_17  and  N_20
REMARK    4  A    between atoms: N_20  and  C_23
REMARK    5  A    between atoms: C_23  and  C_26
REMARK                            x       y       z     vdW  Elec       q    Type
REMARK                         _______ _______ _______ _____ _____    ______ ____
ROOT
ATOM      1  C   UNL     1     -10.339  54.961  47.819  0.00  0.00    +0.000 A 
ATOM      2  C   UNL     1      -8.850  55.075  47.844  0.00  0.00    +0.000 A 
ATOM      3  C   UNL     1     -10.962  54.427  46.755  0.00  0.00    +0.000 A 
ATOM      4  O   UNL     1      -8.336  55.591  48.842  0.00  0.00    +0.000 OA
ATOM      5  N   UNL     1      -8.131  54.572  46.758  0.00  0.00    +0.000 N 
ATOM      6  C   UNL     1     -10.189  53.910  45.616  0.00  0.00    +0.000 A 
ATOM      7  C   UNL     1      -8.786  53.991  45.629  0.00  0.00    +0.000 A 
ATOM      8  C   UNL     1     -10.838  53.319  44.518  0.00  0.00    +0.000 A 
ATOM      9  C   UNL     1      -8.064  53.487  44.535  0.00  0.00    +0.000 A 
ATOM     10  C   UNL     1     -10.109  52.805  43.448  0.00  0.00    +0.000 A 
ATOM     11  C   UNL     1      -8.722  52.893  43.455  0.00  0.00    +0.000 A 
ENDROOT
BRANCH   1  17
ATOM     12  S   UNL     1     -11.825  54.998  51.454  0.00  0.00    +0.000 S 
ATOM     13  O   UNL     1     -10.868  55.482  52.432  0.00  0.00    +0.000 OA
ATOM     14  O   UNL     1     -12.675  53.866  51.762  0.00  0.00    +0.000 OA
ATOM     15  N   UNL     1     -11.009  54.657  50.099  0.00  0.00    +0.000 N 
ATOM     16  C   UNL     1     -12.904  56.341  51.125  0.00  0.00    +0.000 A 
ATOM     17  C   UNL     1     -11.121  55.402  49.041  0.00  0.00    +0.000 C 
ATOM     18  C   UNL     1     -12.817  56.955  49.889  0.00  0.00    +0.000 A 
ATOM     19  C   UNL     1     -13.823  56.752  52.093  0.00  0.00    +0.000 A 
ATOM     20  N   UNL     1     -11.885  56.544  48.938  0.00  0.00    +0.000 N 
ATOM     21  C   UNL     1     -13.631  58.065  49.641  0.00  0.00    +0.000 A 
ATOM     22  C   UNL     1     -14.653  57.837  51.822  0.00  0.00    +0.000 A 
ATOM     23  C   UNL     1     -14.550  58.500  50.599  0.00  0.00    +0.000 A 
ATOM     24  H   UNL     1     -10.415  53.872  50.077  0.00  0.00    +0.000 HD
ATOM     25  H   UNL     1     -11.763  57.107  48.140  0.00  0.00    +0.000 HD
ENDBRANCH   1  17
BRANCH   3  26
ATOM     26  O   UNL     1     -12.334  54.283  46.645  0.00  0.00    +0.000 OA
ATOM     27  H   UNL     1     -12.864  55.020  46.415  0.00  0.00    +0.000 HD
ENDBRANCH   3  26
BRANCH   5  28
ATOM     28  N   UNL     1      -6.704  54.732  46.690  0.00  0.00    +0.000 N 
ATOM     29  H   UNL     1      -6.282  55.568  46.388  0.00  0.00    +0.000 HD
BRANCH  28  30
ATOM     30  C   UNL     1      -5.922  53.559  47.103  0.00  0.00    +0.000 C 
BRANCH  30  31
ATOM     31  C   UNL     1      -5.743  53.516  48.598  0.00  0.00    +0.000 A 
ATOM     32  C   UNL     1      -6.378  52.543  49.367  0.00  0.00    +0.000 A 
ATOM     33  C   UNL     1      -4.928  54.433  49.265  0.00  0.00    +0.000 A 
ATOM     34  N   UNL     1      -6.270  52.446  50.711  0.00  0.00    +0.000 NA
ATOM     35  C   UNL     1      -4.800  54.357  50.648  0.00  0.00    +0.000 A 
ATOM     36  C   UNL     1      -5.486  53.359  51.320  0.00  0.00    +0.000 A 
ENDBRANCH  30  31
ENDBRANCH  28  30
ENDBRANCH   5  28
TORSDOF 5
ENDMDL
