MODEL 1
REMARK VINA RESULT:      -8.0      0.000      0.000
REMARK  Name = 
REMARK  8 active torsions:
REMARK  status: ('A' for Active; 'I' for Inactive)
REMARK    1  A    between atoms: C_6  and  C_10
REMARK    2  A    between atoms: C_14  and  O_18
REMARK    3  A    between atoms: N_17  and  N_20
REMARK    4  A    between atoms: N_20  and  C_23
REMARK    5  A    between atoms: C_23  and  C_26
REMARK    6  A    between atoms: C_23  and  C_27
REMARK    7  A    between atoms: C_26  and  C_29
REMARK    8  A    between atoms: C_27  and  C_30
REMARK                            x       y       z     vdW  Elec       q    Type
REMARK                         _______ _______ _______ _____ _____    ______ ____
ROOT
ATOM      1  C   UNL     1     -10.089  55.409  50.678  0.00  0.00    +0.000 A 
ATOM      2  C   UNL     1      -9.631  55.548  49.260  0.00  0.00    +0.000 A 
ATOM      3  C   UNL     1     -11.328  55.832  51.009  0.00  0.00    +0.000 A 
ATOM      4  O   UNL     1      -8.421  55.474  49.013  0.00  0.00    +0.000 OA
ATOM      5  N   UNL     1     -10.632  55.691  48.290  0.00  0.00    +0.000 N 
ATOM      6  C   UNL     1     -12.269  56.296  49.982  0.00  0.00    +0.000 A 
ATOM      7  C   UNL     1     -11.932  56.157  48.630  0.00  0.00    +0.000 A 
ATOM      8  C   UNL     1     -13.544  56.774  50.325  0.00  0.00    +0.000 A 
ATOM      9  C   UNL     1     -12.876  56.492  47.645  0.00  0.00    +0.000 A 
ATOM     10  C   UNL     1     -14.481  57.084  49.341  0.00  0.00    +0.000 A 
ATOM     11  C   UNL     1     -14.149  56.940  48.000  0.00  0.00    +0.000 A 
ENDROOT
BRANCH   1  17
ATOM     12  S   UNL     1      -6.999  54.750  53.005  0.00  0.00    +0.000 S 
ATOM     13  O   UNL     1      -7.016  55.724  54.083  0.00  0.00    +0.000 OA
ATOM     14  O   UNL     1      -5.755  54.397  52.359  0.00  0.00    +0.000 OA
ATOM     15  N   UNL     1      -8.018  55.255  51.865  0.00  0.00    +0.000 N 
ATOM     16  C   UNL     1      -7.641  53.268  53.683  0.00  0.00    +0.000 A 
ATOM     17  C   UNL     1      -9.195  54.719  51.698  0.00  0.00    +0.000 C 
ATOM     18  C   UNL     1      -8.920  52.885  53.309  0.00  0.00    +0.000 A 
ATOM     19  C   UNL     1      -6.861  52.530  54.575  0.00  0.00    +0.000 A 
ATOM     20  N   UNL     1      -9.662  53.623  52.390  0.00  0.00    +0.000 N 
ATOM     21  C   UNL     1      -9.438  51.720  53.881  0.00  0.00    +0.000 A 
ATOM     22  C   UNL     1      -7.384  51.365  55.123  0.00  0.00    +0.000 A 
ATOM     23  C   UNL     1      -8.675  50.964  54.781  0.00  0.00    +0.000 A 
ATOM     24  H   UNL     1      -7.743  55.993  51.274  0.00  0.00    +0.000 HD
ATOM     25  H   UNL     1     -10.590  53.342  52.221  0.00  0.00    +0.000 HD
ENDBRANCH   1  17
BRANCH   3  26
ATOM     26  O   UNL     1     -11.862  55.790  52.283  0.00  0.00    +0.000 OA
ATOM     27  H   UNL     1     -12.785  55.893  52.407  0.00  0.00    +0.000 HD
ENDBRANCH   3  26
BRANCH   5  28
ATOM     28  N   UNL     1     -10.340  55.530  46.907  0.00  0.00    +0.000 N 
ATOM     29  H   UNL     1     -10.103  56.289  46.325  0.00  0.00    +0.000 HD
BRANCH  28  30
ATOM     30  C   UNL     1     -10.418  54.144  46.409  0.00  0.00    +0.000 C 
BRANCH  30  31
ATOM     31  C   UNL     1     -11.474  53.955  45.294  0.00  0.00    +0.000 C 
ATOM     32  C   UNL     1     -11.785  52.512  44.922  0.00  0.00    +0.000 C 
ENDBRANCH  30  31
BRANCH  30  33
ATOM     33  C   UNL     1      -9.020  53.699  45.927  0.00  0.00    +0.000 C 
ATOM     34  C   UNL     1      -8.086  54.862  45.603  0.00  0.00    +0.000 C 
ENDBRANCH  30  33
ENDBRANCH  28  30
ENDBRANCH   5  28
TORSDOF 6
ENDMDL
MODEL 2
REMARK VINA RESULT:      -7.9      3.222      7.323
REMARK  Name = 
REMARK  8 active torsions:
REMARK  status: ('A' for Active; 'I' for Inactive)
REMARK    1  A    between atoms: C_6  and  C_10
REMARK    2  A    between atoms: C_14  and  O_18
REMARK    3  A    between atoms: N_17  and  N_20
REMARK    4  A    between atoms: N_20  and  C_23
REMARK    5  A    between atoms: C_23  and  C_26
REMARK    6  A    between atoms: C_23  and  C_27
REMARK    7  A    between atoms: C_26  and  C_29
REMARK    8  A    between atoms: C_27  and  C_30
REMARK                            x       y       z     vdW  Elec       q    Type
REMARK                         _______ _______ _______ _____ _____    ______ ____
ROOT
ATOM      1  C   UNL     1     -10.043  54.410  52.120  0.00  0.00    +0.000 A 
ATOM      2  C   UNL     1      -8.628  54.824  51.859  0.00  0.00    +0.000 A 
ATOM      3  C   UNL     1     -10.275  53.335  52.902  0.00  0.00    +0.000 A 
ATOM      4  O   UNL     1      -8.393  55.580  50.910  0.00  0.00    +0.000 OA
ATOM      5  N   UNL     1      -7.665  54.365  52.768  0.00  0.00    +0.000 N 
ATOM      6  C   UNL     1      -9.178  52.656  53.602  0.00  0.00    +0.000 A 
ATOM      7  C   UNL     1      -7.897  53.220  53.579  0.00  0.00    +0.000 A 
ATOM      8  C   UNL     1      -9.410  51.513  54.386  0.00  0.00    +0.000 A 
ATOM      9  C   UNL     1      -6.872  52.637  54.342  0.00  0.00    +0.000 A 
ATOM     10  C   UNL     1      -8.391  50.955  55.156  0.00  0.00    +0.000 A 
ATOM     11  C   UNL     1      -7.122  51.518  55.137  0.00  0.00    +0.000 A 
ENDROOT
BRANCH   1  17
ATOM     12  S   UNL     1     -12.501  56.037  49.529  0.00  0.00    +0.000 S 
ATOM     13  O   UNL     1     -13.373  55.000  49.005  0.00  0.00    +0.000 OA
ATOM     14  O   UNL     1     -11.953  57.045  48.649  0.00  0.00    +0.000 OA
ATOM     15  N   UNL     1     -11.270  55.317  50.278  0.00  0.00    +0.000 N 
ATOM     16  C   UNL     1     -13.439  56.892  50.736  0.00  0.00    +0.000 A 
ATOM     17  C   UNL     1     -11.189  55.251  51.578  0.00  0.00    +0.000 C 
ATOM     18  C   UNL     1     -13.125  56.681  52.070  0.00  0.00    +0.000 A 
ATOM     19  C   UNL     1     -14.467  57.743  50.326  0.00  0.00    +0.000 A 
ATOM     20  N   UNL     1     -12.070  55.853  52.449  0.00  0.00    +0.000 N 
ATOM     21  C   UNL     1     -13.900  57.341  53.028  0.00  0.00    +0.000 A 
ATOM     22  C   UNL     1     -15.219  58.404  51.290  0.00  0.00    +0.000 A 
ATOM     23  C   UNL     1     -14.940  58.198  52.640  0.00  0.00    +0.000 A 
ATOM     24  H   UNL     1     -10.553  54.914  49.736  0.00  0.00    +0.000 HD
ATOM     25  H   UNL     1     -11.944  55.686  53.410  0.00  0.00    +0.000 HD
ENDBRANCH   1  17
BRANCH   3  26
ATOM     26  O   UNL     1     -11.528  52.829  53.198  0.00  0.00    +0.000 OA
ATOM     27  H   UNL     1     -12.202  52.837  52.547  0.00  0.00    +0.000 HD
ENDBRANCH   3  26
BRANCH   5  28
ATOM     28  N   UNL     1      -6.359  54.929  52.797  0.00  0.00    +0.000 N 
ATOM     29  H   UNL     1      -6.159  55.773  53.263  0.00  0.00    +0.000 HD
BRANCH  28  30
ATOM     30  C   UNL     1      -5.328  54.156  52.079  0.00  0.00    +0.000 C 
BRANCH  30  31
ATOM     31  C   UNL     1      -5.198  54.552  50.588  0.00  0.00    +0.000 C 
ATOM     32  C   UNL     1      -5.749  53.543  49.591  0.00  0.00    +0.000 C 
ENDBRANCH  30  31
BRANCH  30  33
ATOM     33  C   UNL     1      -3.977  54.309  52.811  0.00  0.00    +0.000 C 
ATOM     34  C   UNL     1      -4.077  55.082  54.122  0.00  0.00    +0.000 C 
ENDBRANCH  30  33
ENDBRANCH  28  30
ENDBRANCH   5  28
TORSDOF 6
ENDMDL
MODEL 3
REMARK VINA RESULT:      -7.7      2.299      4.570
REMARK  Name = 
REMARK  8 active torsions:
REMARK  status: ('A' for Active; 'I' for Inactive)
REMARK    1  A    between atoms: C_6  and  C_10
REMARK    2  A    between atoms: C_14  and  O_18
REMARK    3  A    between atoms: N_17  and  N_20
REMARK    4  A    between atoms: N_20  and  C_23
REMARK    5  A    between atoms: C_23  and  C_26
REMARK    6  A    between atoms: C_23  and  C_27
REMARK    7  A    between atoms: C_26  and  C_29
REMARK    8  A    between atoms: C_27  and  C_30
REMARK                            x       y       z     vdW  Elec       q    Type
REMARK                         _______ _______ _______ _____ _____    ______ ____
ROOT
ATOM      1  C   UNL     1      -8.955  54.425  50.304  0.00  0.00    +0.000 A 
ATOM      2  C   UNL     1     -10.379  54.376  50.764  0.00  0.00    +0.000 A 
ATOM      3  C   UNL     1      -8.693  54.354  48.981  0.00  0.00    +0.000 A 
ATOM      4  O   UNL     1     -10.614  54.115  51.949  0.00  0.00    +0.000 OA
ATOM      5  N   UNL     1     -11.355  54.698  49.811  0.00  0.00    +0.000 N 
ATOM      6  C   UNL     1      -9.777  54.365  47.993  0.00  0.00    +0.000 A 
ATOM      7  C   UNL     1     -11.091  54.603  48.417  0.00  0.00    +0.000 A 
ATOM      8  C   UNL     1      -9.512  54.252  46.618  0.00  0.00    +0.000 A 
ATOM      9  C   UNL     1     -12.113  54.730  47.463  0.00  0.00    +0.000 A 
ATOM     10  C   UNL     1     -10.530  54.399  45.678  0.00  0.00    +0.000 A 
ATOM     11  C   UNL     1     -11.831  54.642  46.099  0.00  0.00    +0.000 A 
ENDROOT
BRANCH   1  17
ATOM     12  S   UNL     1      -7.079  55.801  53.464  0.00  0.00    +0.000 S 
ATOM     13  O   UNL     1      -7.668  55.202  54.649  0.00  0.00    +0.000 OA
ATOM     14  O   UNL     1      -6.719  57.201  53.455  0.00  0.00    +0.000 OA
ATOM     15  N   UNL     1      -8.080  55.543  52.228  0.00  0.00    +0.000 N 
ATOM     16  C   UNL     1      -5.603  54.910  53.156  0.00  0.00    +0.000 A 
ATOM     17  C   UNL     1      -7.840  54.642  51.316  0.00  0.00    +0.000 C 
ATOM     18  C   UNL     1      -5.588  54.032  52.083  0.00  0.00    +0.000 A 
ATOM     19  C   UNL     1      -4.502  55.100  53.993  0.00  0.00    +0.000 A 
ATOM     20  N   UNL     1      -6.690  53.888  51.243  0.00  0.00    +0.000 N 
ATOM     21  C   UNL     1      -4.417  53.299  51.865  0.00  0.00    +0.000 A 
ATOM     22  C   UNL     1      -3.341  54.377  53.755  0.00  0.00    +0.000 A 
ATOM     23  C   UNL     1      -3.301  53.472  52.694  0.00  0.00    +0.000 A 
ATOM     24  H   UNL     1      -8.899  56.084  52.159  0.00  0.00    +0.000 HD
ATOM     25  H   UNL     1      -6.644  53.197  50.545  0.00  0.00    +0.000 HD
ENDBRANCH   1  17
BRANCH   3  26
ATOM     26  O   UNL     1      -7.427  54.358  48.426  0.00  0.00    +0.000 OA
ATOM     27  H   UNL     1      -6.763  53.792  48.769  0.00  0.00    +0.000 HD
ENDBRANCH   3  26
BRANCH   5  28
ATOM     28  N   UNL     1     -12.695  54.975  50.202  0.00  0.00    +0.000 N 
ATOM     29  H   UNL     1     -13.385  54.275  50.256  0.00  0.00    +0.000 HD
BRANCH  28  30
ATOM     30  C   UNL     1     -12.973  56.388  50.519  0.00  0.00    +0.000 C 
BRANCH  30  31
ATOM     31  C   UNL     1     -14.107  56.995  49.657  0.00  0.00    +0.000 C 
ATOM     32  C   UNL     1     -13.683  58.100  48.700  0.00  0.00    +0.000 C 
ENDBRANCH  30  31
BRANCH  30  33
ATOM     33  C   UNL     1     -13.295  56.517  52.024  0.00  0.00    +0.000 C 
ATOM     34  C   UNL     1     -14.745  56.899  52.308  0.00  0.00    +0.000 C 
ENDBRANCH  30  33
ENDBRANCH  28  30
ENDBRANCH   5  28
TORSDOF 6
ENDMDL
MODEL 4
REMARK VINA RESULT:      -7.7      1.503      2.102
REMARK  Name = 
REMARK  8 active torsions:
REMARK  status: ('A' for Active; 'I' for Inactive)
REMARK    1  A    between atoms: C_6  and  C_10
REMARK    2  A    between atoms: C_14  and  O_18
REMARK    3  A    between atoms: N_17  and  N_20
REMARK    4  A    between atoms: N_20  and  C_23
REMARK    5  A    between atoms: C_23  and  C_26
REMARK    6  A    between atoms: C_23  and  C_27
REMARK    7  A    between atoms: C_26  and  C_29
REMARK    8  A    between atoms: C_27  and  C_30
REMARK                            x       y       z     vdW  Elec       q    Type
REMARK                         _______ _______ _______ _____ _____    ______ ____
ROOT
ATOM      1  C   UNL     1     -10.256  55.328  50.433  0.00  0.00    +0.000 A 
ATOM      2  C   UNL     1      -9.715  55.470  49.045  0.00  0.00    +0.000 A 
ATOM      3  C   UNL     1     -11.497  55.788  50.701  0.00  0.00    +0.000 A 
ATOM      4  O   UNL     1      -8.496  55.359  48.865  0.00  0.00    +0.000 OA
ATOM      5  N   UNL     1     -10.655  55.659  48.023  0.00  0.00    +0.000 N 
ATOM      6  C   UNL     1     -12.363  56.296  49.630  0.00  0.00    +0.000 A 
ATOM      7  C   UNL     1     -11.956  56.164  48.297  0.00  0.00    +0.000 A 
ATOM      8  C   UNL     1     -13.640  56.812  49.909  0.00  0.00    +0.000 A 
ATOM      9  C   UNL     1     -12.832  56.543  47.267  0.00  0.00    +0.000 A 
ATOM     10  C   UNL     1     -14.509  57.166  48.879  0.00  0.00    +0.000 A 
ATOM     11  C   UNL     1     -14.107  57.029  47.556  0.00  0.00    +0.000 A 
ENDROOT
BRANCH   1  17
ATOM     12  S   UNL     1      -9.092  52.443  52.825  0.00  0.00    +0.000 S 
ATOM     13  O   UNL     1      -8.488  51.393  52.022  0.00  0.00    +0.000 OA
ATOM     14  O   UNL     1      -9.969  52.110  53.925  0.00  0.00    +0.000 OA
ATOM     15  N   UNL     1      -9.900  53.422  51.832  0.00  0.00    +0.000 N 
ATOM     16  C   UNL     1      -7.761  53.351  53.511  0.00  0.00    +0.000 A 
ATOM     17  C   UNL     1      -9.444  54.595  51.490  0.00  0.00    +0.000 C 
ATOM     18  C   UNL     1      -7.502  54.612  52.995  0.00  0.00    +0.000 A 
ATOM     19  C   UNL     1      -7.004  52.784  54.538  0.00  0.00    +0.000 A 
ATOM     20  N   UNL     1      -8.297  55.167  51.994  0.00  0.00    +0.000 N 
ATOM     21  C   UNL     1      -6.417  55.316  53.525  0.00  0.00    +0.000 A 
ATOM     22  C   UNL     1      -5.938  53.502  55.065  0.00  0.00    +0.000 A 
ATOM     23  C   UNL     1      -5.641  54.766  54.554  0.00  0.00    +0.000 A 
ATOM     24  H   UNL     1     -10.767  53.125  51.473  0.00  0.00    +0.000 HD
ATOM     25  H   UNL     1      -8.019  56.033  51.619  0.00  0.00    +0.000 HD
ENDBRANCH   1  17
BRANCH   3  26
ATOM     26  O   UNL     1     -12.103  55.747  51.942  0.00  0.00    +0.000 OA
ATOM     27  H   UNL     1     -11.584  55.808  52.720  0.00  0.00    +0.000 HD
ENDBRANCH   3  26
BRANCH   5  28
ATOM     28  N   UNL     1     -10.291  55.507  46.656  0.00  0.00    +0.000 N 
ATOM     29  H   UNL     1     -10.057  56.273  46.083  0.00  0.00    +0.000 HD
BRANCH  28  30
ATOM     30  C   UNL     1     -10.290  54.117  46.161  0.00  0.00    +0.000 C 
BRANCH  30  31
ATOM     31  C   UNL     1     -11.641  53.690  45.539  0.00  0.00    +0.000 C 
ATOM     32  C   UNL     1     -11.827  52.193  45.340  0.00  0.00    +0.000 C 
ENDBRANCH  30  31
BRANCH  30  33
ATOM     33  C   UNL     1      -9.136  53.940  45.150  0.00  0.00    +0.000 C 
ATOM     34  C   UNL     1      -7.839  54.622  45.577  0.00  0.00    +0.000 C 
ENDBRANCH  30  33
ENDBRANCH  28  30
ENDBRANCH   5  28
TORSDOF 6
ENDMDL
MODEL 5
REMARK VINA RESULT:      -7.7      3.360      7.694
REMARK  Name = 
REMARK  8 active torsions:
REMARK  status: ('A' for Active; 'I' for Inactive)
REMARK    1  A    between atoms: C_6  and  C_10
REMARK    2  A    between atoms: C_14  and  O_18
REMARK    3  A    between atoms: N_17  and  N_20
REMARK    4  A    between atoms: N_20  and  C_23
REMARK    5  A    between atoms: C_23  and  C_26
REMARK    6  A    between atoms: C_23  and  C_27
REMARK    7  A    between atoms: C_26  and  C_29
REMARK    8  A    between atoms: C_27  and  C_30
REMARK                            x       y       z     vdW  Elec       q    Type
REMARK                         _______ _______ _______ _____ _____    ______ ____
ROOT
ATOM      1  C   UNL     1     -11.512  54.142  51.147  0.00  0.00    +0.000 A 
ATOM      2  C   UNL     1     -10.537  54.062  52.280  0.00  0.00    +0.000 A 
ATOM      3  C   UNL     1     -11.652  53.076  50.330  0.00  0.00    +0.000 A 
ATOM      4  O   UNL     1     -10.165  55.109  52.822  0.00  0.00    +0.000 OA
ATOM      5  N   UNL     1     -10.160  52.777  52.691  0.00  0.00    +0.000 N 
ATOM      6  C   UNL     1     -10.970  51.809  50.614  0.00  0.00    +0.000 A 
ATOM      7  C   UNL     1     -10.285  51.655  51.826  0.00  0.00    +0.000 A 
ATOM      8  C   UNL     1     -11.081  50.710  49.746  0.00  0.00    +0.000 A 
ATOM      9  C   UNL     1      -9.730  50.407  52.152  0.00  0.00    +0.000 A 
ATOM     10  C   UNL     1     -10.544  49.470  50.088  0.00  0.00    +0.000 A 
ATOM     11  C   UNL     1      -9.871  49.317  51.293  0.00  0.00    +0.000 A 
ENDROOT
BRANCH   1  17
ATOM     12  S   UNL     1     -13.455  57.066  49.394  0.00  0.00    +0.000 S 
ATOM     13  O   UNL     1     -14.587  56.504  48.677  0.00  0.00    +0.000 OA
ATOM     14  O   UNL     1     -12.660  58.116  48.798  0.00  0.00    +0.000 OA
ATOM     15  N   UNL     1     -12.462  55.857  49.778  0.00  0.00    +0.000 N 
ATOM     16  C   UNL     1     -14.104  57.722  50.883  0.00  0.00    +0.000 A 
ATOM     17  C   UNL     1     -12.387  55.376  50.988  0.00  0.00    +0.000 C 
ATOM     18  C   UNL     1     -13.844  57.038  52.060  0.00  0.00    +0.000 A 
ATOM     19  C   UNL     1     -14.861  58.894  50.840  0.00  0.00    +0.000 A 
ATOM     20  N   UNL     1     -13.056  55.890  52.077  0.00  0.00    +0.000 N 
ATOM     21  C   UNL     1     -14.395  57.549  53.239  0.00  0.00    +0.000 A 
ATOM     22  C   UNL     1     -15.389  59.399  52.022  0.00  0.00    +0.000 A 
ATOM     23  C   UNL     1     -15.161  58.723  53.220  0.00  0.00    +0.000 A 
ATOM     24  H   UNL     1     -11.892  55.468  49.075  0.00  0.00    +0.000 HD
ATOM     25  H   UNL     1     -12.969  55.408  52.931  0.00  0.00    +0.000 HD
ENDBRANCH   1  17
BRANCH   3  26
ATOM     26  O   UNL     1     -12.492  53.028  49.232  0.00  0.00    +0.000 OA
ATOM     27  H   UNL     1     -13.414  52.914  49.353  0.00  0.00    +0.000 HD
ENDBRANCH   3  26
BRANCH   5  28
ATOM     28  N   UNL     1      -9.488  52.572  53.928  0.00  0.00    +0.000 N 
ATOM     29  H   UNL     1      -9.971  52.435  54.776  0.00  0.00    +0.000 HD
BRANCH  28  30
ATOM     30  C   UNL     1      -8.015  52.579  53.848  0.00  0.00    +0.000 C 
BRANCH  30  31
ATOM     31  C   UNL     1      -7.393  53.957  54.176  0.00  0.00    +0.000 C 
ATOM     32  C   UNL     1      -6.046  53.918  54.884  0.00  0.00    +0.000 C 
ENDBRANCH  30  31
BRANCH  30  33
ATOM     33  C   UNL     1      -7.451  51.483  54.779  0.00  0.00    +0.000 C 
ATOM     34  C   UNL     1      -8.517  50.784  55.617  0.00  0.00    +0.000 C 
ENDBRANCH  30  33
ENDBRANCH  28  30
ENDBRANCH   5  28
TORSDOF 6
ENDMDL
MODEL 6
REMARK VINA RESULT:      -7.6      2.846      6.634
REMARK  Name = 
REMARK  8 active torsions:
REMARK  status: ('A' for Active; 'I' for Inactive)
REMARK    1  A    between atoms: C_6  and  C_10
REMARK    2  A    between atoms: C_14  and  O_18
REMARK    3  A    between atoms: N_17  and  N_20
REMARK    4  A    between atoms: N_20  and  C_23
REMARK    5  A    between atoms: C_23  and  C_26
REMARK    6  A    between atoms: C_23  and  C_27
REMARK    7  A    between atoms: C_26  and  C_29
REMARK    8  A    between atoms: C_27  and  C_30
REMARK                            x       y       z     vdW  Elec       q    Type
REMARK                         _______ _______ _______ _____ _____    ______ ____
ROOT
ATOM      1  C   UNL     1     -11.586  54.844  50.596  0.00  0.00    +0.000 A 
ATOM      2  C   UNL     1     -11.561  54.133  49.280  0.00  0.00    +0.000 A 
ATOM      3  C   UNL     1     -10.677  54.510  51.537  0.00  0.00    +0.000 A 
ATOM      4  O   UNL     1     -12.559  54.189  48.552  0.00  0.00    +0.000 OA
ATOM      5  N   UNL     1     -10.361  53.496  48.935  0.00  0.00    +0.000 N 
ATOM      6  C   UNL     1      -9.592  53.567  51.240  0.00  0.00    +0.000 A 
ATOM      7  C   UNL     1      -9.409  53.123  49.924  0.00  0.00    +0.000 A 
ATOM      8  C   UNL     1      -8.666  53.187  52.226  0.00  0.00    +0.000 A 
ATOM      9  C   UNL     1      -8.304  52.314  49.616  0.00  0.00    +0.000 A 
ATOM     10  C   UNL     1      -7.562  52.400  51.906  0.00  0.00    +0.000 A 
ATOM     11  C   UNL     1      -7.378  51.965  50.599  0.00  0.00    +0.000 A 
ENDROOT
BRANCH   1  17
ATOM     12  S   UNL     1     -14.334  57.032  52.345  0.00  0.00    +0.000 S 
ATOM     13  O   UNL     1     -13.744  57.672  53.509  0.00  0.00    +0.000 OA
ATOM     14  O   UNL     1     -15.668  56.479  52.413  0.00  0.00    +0.000 OA
ATOM     15  N   UNL     1     -13.339  55.859  51.868  0.00  0.00    +0.000 N 
ATOM     16  C   UNL     1     -14.369  58.252  51.089  0.00  0.00    +0.000 A 
ATOM     17  C   UNL     1     -12.569  55.982  50.822  0.00  0.00    +0.000 C 
ATOM     18  C   UNL     1     -13.463  58.135  50.046  0.00  0.00    +0.000 A 
ATOM     19  C   UNL     1     -15.290  59.298  51.178  0.00  0.00    +0.000 A 
ATOM     20  N   UNL     1     -12.580  57.061  49.966  0.00  0.00    +0.000 N 
ATOM     21  C   UNL     1     -13.475  59.132  49.066  0.00  0.00    +0.000 A 
ATOM     22  C   UNL     1     -15.299  60.273  50.188  0.00  0.00    +0.000 A 
ATOM     23  C   UNL     1     -14.388  60.193  49.136  0.00  0.00    +0.000 A 
ATOM     24  H   UNL     1     -13.313  55.019  52.381  0.00  0.00    +0.000 HD
ATOM     25  H   UNL     1     -11.912  57.073  49.243  0.00  0.00    +0.000 HD
ENDBRANCH   1  17
BRANCH   3  26
ATOM     26  O   UNL     1     -10.608  55.065  52.801  0.00  0.00    +0.000 OA
ATOM     27  H   UNL     1     -11.146  54.728  53.490  0.00  0.00    +0.000 HD
ENDBRANCH   3  26
BRANCH   5  28
ATOM     28  N   UNL     1     -10.122  53.055  47.604  0.00  0.00    +0.000 N 
ATOM     29  H   UNL     1     -10.045  52.102  47.369  0.00  0.00    +0.000 HD
BRANCH  28  30
ATOM     30  C   UNL     1      -9.999  54.130  46.602  0.00  0.00    +0.000 C 
BRANCH  30  31
ATOM     31  C   UNL     1      -8.838  55.110  46.899  0.00  0.00    +0.000 C 
ATOM     32  C   UNL     1      -7.438  54.543  46.716  0.00  0.00    +0.000 C 
ENDBRANCH  30  31
BRANCH  30  33
ATOM     33  C   UNL     1      -9.846  53.502  45.199  0.00  0.00    +0.000 C 
ATOM     34  C   UNL     1     -11.177  53.222  44.507  0.00  0.00    +0.000 C 
ENDBRANCH  30  33
ENDBRANCH  28  30
ENDBRANCH   5  28
TORSDOF 6
ENDMDL
MODEL 7
REMARK VINA RESULT:      -7.5      3.546      6.063
REMARK  Name = 
REMARK  8 active torsions:
REMARK  status: ('A' for Active; 'I' for Inactive)
REMARK    1  A    between atoms: C_6  and  C_10
REMARK    2  A    between atoms: C_14  and  O_18
REMARK    3  A    between atoms: N_17  and  N_20
REMARK    4  A    between atoms: N_20  and  C_23
REMARK    5  A    between atoms: C_23  and  C_26
REMARK    6  A    between atoms: C_23  and  C_27
REMARK    7  A    between atoms: C_26  and  C_29
REMARK    8  A    between atoms: C_27  and  C_30
REMARK                            x       y       z     vdW  Elec       q    Type
REMARK                         _______ _______ _______ _____ _____    ______ ____
ROOT
ATOM      1  C   UNL     1     -10.384  55.010  47.577  0.00  0.00    +0.000 A 
ATOM      2  C   UNL     1      -8.900  55.203  47.552  0.00  0.00    +0.000 A 
ATOM      3  C   UNL     1     -10.985  54.427  46.518  0.00  0.00    +0.000 A 
ATOM      4  O   UNL     1      -8.390  56.006  48.342  0.00  0.00    +0.000 OA
ATOM      5  N   UNL     1      -8.179  54.395  46.662  0.00  0.00    +0.000 N 
ATOM      6  C   UNL     1     -10.197  53.865  45.415  0.00  0.00    +0.000 A 
ATOM      7  C   UNL     1      -8.803  53.797  45.532  0.00  0.00    +0.000 A 
ATOM      8  C   UNL     1     -10.818  53.293  44.292  0.00  0.00    +0.000 A 
ATOM      9  C   UNL     1      -8.056  53.155  44.532  0.00  0.00    +0.000 A 
ATOM     10  C   UNL     1     -10.069  52.640  43.315  0.00  0.00    +0.000 A 
ATOM     11  C   UNL     1      -8.687  52.568  43.435  0.00  0.00    +0.000 A 
ENDROOT
BRANCH   1  17
ATOM     12  S   UNL     1     -11.614  54.966  51.303  0.00  0.00    +0.000 S 
ATOM     13  O   UNL     1     -10.557  55.500  52.145  0.00  0.00    +0.000 OA
ATOM     14  O   UNL     1     -12.376  53.813  51.729  0.00  0.00    +0.000 OA
ATOM     15  N   UNL     1     -10.977  54.630  49.862  0.00  0.00    +0.000 N 
ATOM     16  C   UNL     1     -12.766  56.268  51.091  0.00  0.00    +0.000 A 
ATOM     17  C   UNL     1     -11.176  55.388  48.820  0.00  0.00    +0.000 C 
ATOM     18  C   UNL     1     -12.814  56.897  49.856  0.00  0.00    +0.000 A 
ATOM     19  C   UNL     1     -13.586  56.636  52.159  0.00  0.00    +0.000 A 
ATOM     20  N   UNL     1     -12.008  56.485  48.797  0.00  0.00    +0.000 N 
ATOM     21  C   UNL     1     -13.712  57.958  49.706  0.00  0.00    +0.000 A 
ATOM     22  C   UNL     1     -14.485  57.682  51.990  0.00  0.00    +0.000 A 
ATOM     23  C   UNL     1     -14.543  58.347  50.766  0.00  0.00    +0.000 A 
ATOM     24  H   UNL     1     -10.420  53.824  49.765  0.00  0.00    +0.000 HD
ATOM     25  H   UNL     1     -12.034  57.018  47.970  0.00  0.00    +0.000 HD
ENDBRANCH   1  17
BRANCH   3  26
ATOM     26  O   UNL     1     -12.347  54.217  46.399  0.00  0.00    +0.000 OA
ATOM     27  H   UNL     1     -12.737  53.452  46.773  0.00  0.00    +0.000 HD
ENDBRANCH   3  26
BRANCH   5  28
ATOM     28  N   UNL     1      -6.765  54.276  46.763  0.00  0.00    +0.000 N 
ATOM     29  H   UNL     1      -6.150  54.758  46.164  0.00  0.00    +0.000 HD
BRANCH  28  30
ATOM     30  C   UNL     1      -6.289  53.377  47.832  0.00  0.00    +0.000 C 
BRANCH  30  31
ATOM     31  C   UNL     1      -6.101  51.915  47.361  0.00  0.00    +0.000 C 
ATOM     32  C   UNL     1      -7.287  50.992  47.597  0.00  0.00    +0.000 C 
ENDBRANCH  30  31
BRANCH  30  33
ATOM     33  C   UNL     1      -4.978  53.941  48.423  0.00  0.00    +0.000 C 
ATOM     34  C   UNL     1      -5.197  55.049  49.448  0.00  0.00    +0.000 C 
ENDBRANCH  30  33
ENDBRANCH  28  30
ENDBRANCH   5  28
TORSDOF 6
ENDMDL
MODEL 8
REMARK VINA RESULT:      -7.5      3.277      6.644
REMARK  Name = 
REMARK  8 active torsions:
REMARK  status: ('A' for Active; 'I' for Inactive)
REMARK    1  A    between atoms: C_6  and  C_10
REMARK    2  A    between atoms: C_14  and  O_18
REMARK    3  A    between atoms: N_17  and  N_20
REMARK    4  A    between atoms: N_20  and  C_23
REMARK    5  A    between atoms: C_23  and  C_26
REMARK    6  A    between atoms: C_23  and  C_27
REMARK    7  A    between atoms: C_26  and  C_29
REMARK    8  A    between atoms: C_27  and  C_30
REMARK                            x       y       z     vdW  Elec       q    Type
REMARK                         _______ _______ _______ _____ _____    ______ ____
ROOT
ATOM      1  C   UNL     1     -11.579  56.049  48.700  0.00  0.00    +0.000 A 
ATOM      2  C   UNL     1     -10.442  55.382  49.407  0.00  0.00    +0.000 A 
ATOM      3  C   UNL     1     -11.842  55.710  47.420  0.00  0.00    +0.000 A 
ATOM      4  O   UNL     1      -9.992  55.899  50.436  0.00  0.00    +0.000 OA
ATOM      5  N   UNL     1     -10.004  54.161  48.875  0.00  0.00    +0.000 N 
ATOM      6  C   UNL     1     -11.122  54.611  46.765  0.00  0.00    +0.000 A 
ATOM      7  C   UNL     1     -10.260  53.808  47.521  0.00  0.00    +0.000 A 
ATOM      8  C   UNL     1     -11.365  54.280  45.421  0.00  0.00    +0.000 A 
ATOM      9  C   UNL     1      -9.660  52.687  46.926  0.00  0.00    +0.000 A 
ATOM     10  C   UNL     1     -10.780  53.153  44.845  0.00  0.00    +0.000 A 
ATOM     11  C   UNL     1      -9.929  52.354  45.598  0.00  0.00    +0.000 A 
ENDROOT
BRANCH   1  17
ATOM     12  S   UNL     1     -13.587  59.325  49.499  0.00  0.00    +0.000 S 
ATOM     13  O   UNL     1     -14.727  59.399  48.602  0.00  0.00    +0.000 OA
ATOM     14  O   UNL     1     -12.815  60.510  49.799  0.00  0.00    +0.000 OA
ATOM     15  N   UNL     1     -12.574  58.213  48.923  0.00  0.00    +0.000 N 
ATOM     16  C   UNL     1     -14.213  58.743  51.027  0.00  0.00    +0.000 A 
ATOM     17  C   UNL     1     -12.470  57.026  49.453  0.00  0.00    +0.000 C 
ATOM     18  C   UNL     1     -13.922  57.437  51.391  0.00  0.00    +0.000 A 
ATOM     19  C   UNL     1     -14.982  59.596  51.820  0.00  0.00    +0.000 A 
ATOM     20  N   UNL     1     -13.122  56.619  50.596  0.00  0.00    +0.000 N 
ATOM     21  C   UNL     1     -14.455  56.969  52.597  0.00  0.00    +0.000 A 
ATOM     22  C   UNL     1     -15.491  59.121  53.023  0.00  0.00    +0.000 A 
ATOM     23  C   UNL     1     -15.233  57.806  53.408  0.00  0.00    +0.000 A 
ATOM     24  H   UNL     1     -12.014  58.437  48.145  0.00  0.00    +0.000 HD
ATOM     25  H   UNL     1     -13.013  55.681  50.871  0.00  0.00    +0.000 HD
ENDBRANCH   1  17
BRANCH   3  26
ATOM     26  O   UNL     1     -12.840  56.269  46.644  0.00  0.00    +0.000 OA
ATOM     27  H   UNL     1     -13.342  56.989  46.973  0.00  0.00    +0.000 HD
ENDBRANCH   3  26
BRANCH   5  28
ATOM     28  N   UNL     1      -9.150  53.302  49.621  0.00  0.00    +0.000 N 
ATOM     29  H   UNL     1      -8.169  53.331  49.539  0.00  0.00    +0.000 HD
BRANCH  28  30
ATOM     30  C   UNL     1      -9.842  52.365  50.526  0.00  0.00    +0.000 C 
BRANCH  30  31
ATOM     31  C   UNL     1      -9.515  50.881  50.234  0.00  0.00    +0.000 C 
ATOM     32  C   UNL     1     -10.613  50.093  49.532  0.00  0.00    +0.000 C 
ENDBRANCH  30  31
BRANCH  30  33
ATOM     33  C   UNL     1      -9.502  52.727  51.988  0.00  0.00    +0.000 C 
ATOM     34  C   UNL     1     -10.674  53.332  52.756  0.00  0.00    +0.000 C 
ENDBRANCH  30  33
ENDBRANCH  28  30
ENDBRANCH   5  28
TORSDOF 6
ENDMDL
MODEL 9
REMARK VINA RESULT:      -7.4      3.061      7.532
REMARK  Name = 
REMARK  8 active torsions:
REMARK  status: ('A' for Active; 'I' for Inactive)
REMARK    1  A    between atoms: C_6  and  C_10
REMARK    2  A    between atoms: C_14  and  O_18
REMARK    3  A    between atoms: N_17  and  N_20
REMARK    4  A    between atoms: N_20  and  C_23
REMARK    5  A    between atoms: C_23  and  C_26
REMARK    6  A    between atoms: C_23  and  C_27
REMARK    7  A    between atoms: C_26  and  C_29
REMARK    8  A    between atoms: C_27  and  C_30
REMARK                            x       y       z     vdW  Elec       q    Type
REMARK                         _______ _______ _______ _____ _____    ______ ____
ROOT
ATOM      1  C   UNL     1      -9.327  55.208  51.406  0.00  0.00    +0.000 A 
ATOM      2  C   UNL     1      -9.090  54.692  52.790  0.00  0.00    +0.000 A 
ATOM      3  C   UNL     1      -8.277  55.329  50.565  0.00  0.00    +0.000 A 
ATOM      4  O   UNL     1      -9.955  54.879  53.653  0.00  0.00    +0.000 OA
ATOM      5  N   UNL     1      -7.909  53.964  52.994  0.00  0.00    +0.000 N 
ATOM      6  C   UNL     1      -6.945  54.841  50.941  0.00  0.00    +0.000 A 
ATOM      7  C   UNL     1      -6.793  54.105  52.124  0.00  0.00    +0.000 A 
ATOM      8  C   UNL     1      -5.842  55.000  50.087  0.00  0.00    +0.000 A 
ATOM      9  C   UNL     1      -5.545  53.537  52.428  0.00  0.00    +0.000 A 
ATOM     10  C   UNL     1      -4.613  54.415  50.388  0.00  0.00    +0.000 A 
ATOM     11  C   UNL     1      -4.464  53.681  51.557  0.00  0.00    +0.000 A 
ENDROOT
BRANCH   1  17
ATOM     12  S   UNL     1     -12.461  55.366  49.050  0.00  0.00    +0.000 S 
ATOM     13  O   UNL     1     -12.971  54.017  48.868  0.00  0.00    +0.000 OA
ATOM     14  O   UNL     1     -12.395  56.280  47.932  0.00  0.00    +0.000 OA
ATOM     15  N   UNL     1     -10.983  55.255  49.682  0.00  0.00    +0.000 N 
ATOM     16  C   UNL     1     -13.501  56.117  50.242  0.00  0.00    +0.000 A 
ATOM     17  C   UNL     1     -10.745  55.502  50.940  0.00  0.00    +0.000 C 
ATOM     18  C   UNL     1     -12.991  56.312  51.517  0.00  0.00    +0.000 A 
ATOM     19  C   UNL     1     -14.798  56.487  49.882  0.00  0.00    +0.000 A 
ATOM     20  N   UNL     1     -11.681  55.966  51.838  0.00  0.00    +0.000 N 
ATOM     21  C   UNL     1     -13.839  56.881  52.471  0.00  0.00    +0.000 A 
ATOM     22  C   UNL     1     -15.624  57.065  50.837  0.00  0.00    +0.000 A 
ATOM     23  C   UNL     1     -15.146  57.257  52.134  0.00  0.00    +0.000 A 
ATOM     24  H   UNL     1     -10.234  54.995  49.098  0.00  0.00    +0.000 HD
ATOM     25  H   UNL     1     -11.401  56.059  52.777  0.00  0.00    +0.000 HD
ENDBRANCH   1  17
BRANCH   3  26
ATOM     26  O   UNL     1      -8.351  55.820  49.275  0.00  0.00    +0.000 OA
ATOM     27  H   UNL     1      -9.168  56.132  48.938  0.00  0.00    +0.000 HD
ENDBRANCH   3  26
BRANCH   5  28
ATOM     28  N   UNL     1      -7.724  53.181  54.167  0.00  0.00    +0.000 N 
ATOM     29  H   UNL     1      -7.078  53.425  54.869  0.00  0.00    +0.000 HD
BRANCH  28  30
ATOM     30  C   UNL     1      -8.572  51.978  54.254  0.00  0.00    +0.000 C 
BRANCH  30  31
ATOM     31  C   UNL     1      -8.842  51.320  52.879  0.00  0.00    +0.000 C 
ATOM     32  C   UNL     1      -7.712  50.461  52.330  0.00  0.00    +0.000 C 
ENDBRANCH  30  31
BRANCH  30  33
ATOM     33  C   UNL     1      -7.925  50.971  55.230  0.00  0.00    +0.000 C 
ATOM     34  C   UNL     1      -8.932  50.053  55.918  0.00  0.00    +0.000 C 
ENDBRANCH  30  33
ENDBRANCH  28  30
ENDBRANCH   5  28
TORSDOF 6
ENDMDL
