MODEL 1
REMARK VINA RESULT:      -8.0      0.000      0.000
REMARK  Name = 
REMARK  9 active torsions:
REMARK  status: ('A' for Active; 'I' for Inactive)
REMARK    1  A    between atoms: C_6  and  C_10
REMARK    2  A    between atoms: C_14  and  O_18
REMARK    3  A    between atoms: N_17  and  N_20
REMARK    4  A    between atoms: N_20  and  C_23
REMARK    5  A    between atoms: C_23  and  C_26
REMARK    6  A    between atoms: C_23  and  C_27
REMARK    7  A    between atoms: C_26  and  C_29
REMARK    8  A    between atoms: C_27  and  C_30
REMARK    9  A    between atoms: C_29  and  C_31
REMARK                            x       y       z     vdW  Elec       q    Type
REMARK                         _______ _______ _______ _____ _____    ______ ____
ROOT
ATOM      1  C   UNL     1      -8.954  54.685  50.231  0.00  0.00    +0.000 A 
ATOM      2  C   UNL     1     -10.373  54.674  50.710  0.00  0.00    +0.000 A 
ATOM      3  C   UNL     1      -8.710  54.608  48.909  0.00  0.00    +0.000 A 
ATOM      4  O   UNL     1     -10.579  54.425  51.903  0.00  0.00    +0.000 OA
ATOM      5  N   UNL     1     -11.362  55.033  49.778  0.00  0.00    +0.000 N 
ATOM      6  C   UNL     1      -9.809  54.608  47.936  0.00  0.00    +0.000 A 
ATOM      7  C   UNL     1     -11.120  54.879  48.368  0.00  0.00    +0.000 A 
ATOM      8  C   UNL     1      -9.547  54.407  46.567  0.00  0.00    +0.000 A 
ATOM      9  C   UNL     1     -12.136  54.948  47.396  0.00  0.00    +0.000 A 
ATOM     10  C   UNL     1     -10.565  54.481  45.623  0.00  0.00    +0.000 A 
ATOM     11  C   UNL     1     -11.859  54.756  46.038  0.00  0.00    +0.000 A 
ENDROOT
BRANCH   1  17
ATOM     12  S   UNL     1      -7.025  55.823  53.461  0.00  0.00    +0.000 S 
ATOM     13  O   UNL     1      -7.600  55.177  54.625  0.00  0.00    +0.000 OA
ATOM     14  O   UNL     1      -6.646  57.222  53.517  0.00  0.00    +0.000 OA
ATOM     15  N   UNL     1      -8.066  55.647  52.241  0.00  0.00    +0.000 N 
ATOM     16  C   UNL     1      -5.570  54.933  53.080  0.00  0.00    +0.000 A 
ATOM     17  C   UNL     1      -7.824  54.846  51.242  0.00  0.00    +0.000 C 
ATOM     18  C   UNL     1      -5.558  54.171  51.924  0.00  0.00    +0.000 A 
ATOM     19  C   UNL     1      -4.477  54.996  53.952  0.00  0.00    +0.000 A 
ATOM     20  N   UNL     1      -6.661  54.126  51.075  0.00  0.00    +0.000 N 
ATOM     21  C   UNL     1      -4.409  53.421  51.650  0.00  0.00    +0.000 A 
ATOM     22  C   UNL     1      -3.336  54.262  53.656  0.00  0.00    +0.000 A 
ATOM     23  C   UNL     1      -3.302  53.469  52.510  0.00  0.00    +0.000 A 
ATOM     24  H   UNL     1      -8.906  56.159  52.252  0.00  0.00    +0.000 HD
ATOM     25  H   UNL     1      -6.607  53.530  50.293  0.00  0.00    +0.000 HD
ENDBRANCH   1  17
BRANCH   3  26
ATOM     26  O   UNL     1      -7.450  54.582  48.338  0.00  0.00    +0.000 OA
ATOM     27  H   UNL     1      -6.749  54.137  48.772  0.00  0.00    +0.000 HD
ENDBRANCH   3  26
BRANCH   5  28
ATOM     28  N   UNL     1     -12.701  55.252  50.241  0.00  0.00    +0.000 N 
ATOM     29  H   UNL     1     -13.352  54.517  50.315  0.00  0.00    +0.000 HD
BRANCH  28  30
ATOM     30  C   UNL     1     -13.056  56.647  50.603  0.00  0.00    +0.000 C 
BRANCH  30  31
ATOM     31  C   UNL     1     -13.460  56.618  52.099  0.00  0.00    +0.000 C 
ATOM     32  C   UNL     1     -14.901  57.047  52.354  0.00  0.00    +0.000 C 
ENDBRANCH  30  31
BRANCH  30  33
ATOM     33  C   UNL     1     -14.205  57.224  49.734  0.00  0.00    +0.000 C 
BRANCH  33  34
ATOM     34  C   UNL     1     -13.801  58.492  48.963  0.00  0.00    +0.000 C 
ATOM     35  C   UNL     1     -14.096  59.769  49.732  0.00  0.00    +0.000 C 
ENDBRANCH  33  34
ENDBRANCH  30  33
ENDBRANCH  28  30
ENDBRANCH   5  28
TORSDOF 7
ENDMDL
MODEL 2
REMARK VINA RESULT:      -7.9      2.293      4.743
REMARK  Name = 
REMARK  9 active torsions:
REMARK  status: ('A' for Active; 'I' for Inactive)
REMARK    1  A    between atoms: C_6  and  C_10
REMARK    2  A    between atoms: C_14  and  O_18
REMARK    3  A    between atoms: N_17  and  N_20
REMARK    4  A    between atoms: N_20  and  C_23
REMARK    5  A    between atoms: C_23  and  C_26
REMARK    6  A    between atoms: C_23  and  C_27
REMARK    7  A    between atoms: C_26  and  C_29
REMARK    8  A    between atoms: C_27  and  C_30
REMARK    9  A    between atoms: C_29  and  C_31
REMARK                            x       y       z     vdW  Elec       q    Type
REMARK                         _______ _______ _______ _____ _____    ______ ____
ROOT
ATOM      1  C   UNL     1      -9.917  55.291  50.366  0.00  0.00    +0.000 A 
ATOM      2  C   UNL     1      -9.444  55.369  48.948  0.00  0.00    +0.000 A 
ATOM      3  C   UNL     1     -11.158  55.720  50.666  0.00  0.00    +0.000 A 
ATOM      4  O   UNL     1      -8.229  55.280  48.738  0.00  0.00    +0.000 OA
ATOM      5  N   UNL     1     -10.432  55.454  47.951  0.00  0.00    +0.000 N 
ATOM      6  C   UNL     1     -12.077  56.172  49.614  0.00  0.00    +0.000 A 
ATOM      7  C   UNL     1     -11.733  55.982  48.263  0.00  0.00    +0.000 A 
ATOM      8  C   UNL     1     -13.325  56.729  49.950  0.00  0.00    +0.000 A 
ATOM      9  C   UNL     1     -12.672  56.356  47.282  0.00  0.00    +0.000 A 
ATOM     10  C   UNL     1     -14.239  57.091  48.967  0.00  0.00    +0.000 A 
ATOM     11  C   UNL     1     -13.913  56.899  47.633  0.00  0.00    +0.000 A 
ENDROOT
BRANCH   1  17
ATOM     12  S   UNL     1      -6.902  54.860  52.851  0.00  0.00    +0.000 S 
ATOM     13  O   UNL     1      -6.998  55.847  53.908  0.00  0.00    +0.000 OA
ATOM     14  O   UNL     1      -5.617  54.561  52.248  0.00  0.00    +0.000 OA
ATOM     15  N   UNL     1      -7.903  55.312  51.669  0.00  0.00    +0.000 N 
ATOM     16  C   UNL     1      -7.489  53.361  53.530  0.00  0.00    +0.000 A 
ATOM     17  C   UNL     1      -9.012  54.671  51.425  0.00  0.00    +0.000 C 
ATOM     18  C   UNL     1      -8.698  52.867  53.069  0.00  0.00    +0.000 A 
ATOM     19  C   UNL     1      -6.743  52.717  54.524  0.00  0.00    +0.000 A 
ATOM     20  N   UNL     1      -9.420  53.529  52.078  0.00  0.00    +0.000 N 
ATOM     21  C   UNL     1      -9.187  51.692  53.651  0.00  0.00    +0.000 A 
ATOM     22  C   UNL     1      -7.233  51.542  55.079  0.00  0.00    +0.000 A 
ATOM     23  C   UNL     1      -8.457  51.032  54.650  0.00  0.00    +0.000 A 
ATOM     24  H   UNL     1      -7.670  56.094  51.118  0.00  0.00    +0.000 HD
ATOM     25  H   UNL     1     -10.293  53.151  51.825  0.00  0.00    +0.000 HD
ENDBRANCH   1  17
BRANCH   3  26
ATOM     26  O   UNL     1     -11.707  55.728  51.936  0.00  0.00    +0.000 OA
ATOM     27  H   UNL     1     -12.210  54.996  52.233  0.00  0.00    +0.000 HD
ENDBRANCH   3  26
BRANCH   5  28
ATOM     28  N   UNL     1     -10.043  55.307  46.579  0.00  0.00    +0.000 N 
ATOM     29  H   UNL     1      -9.757  56.078  46.035  0.00  0.00    +0.000 HD
BRANCH  28  30
ATOM     30  C   UNL     1     -10.093  53.934  46.020  0.00  0.00    +0.000 C 
BRANCH  30  31
ATOM     31  C   UNL     1      -8.862  53.798  45.088  0.00  0.00    +0.000 C 
ATOM     32  C   UNL     1      -7.796  54.863  45.320  0.00  0.00    +0.000 C 
ENDBRANCH  30  31
BRANCH  30  33
ATOM     33  C   UNL     1     -11.405  53.645  45.242  0.00  0.00    +0.000 C 
BRANCH  33  34
ATOM     34  C   UNL     1     -12.165  52.418  45.776  0.00  0.00    +0.000 C 
ATOM     35  C   UNL     1     -12.217  52.370  47.293  0.00  0.00    +0.000 C 
ENDBRANCH  33  34
ENDBRANCH  30  33
ENDBRANCH  28  30
ENDBRANCH   5  28
TORSDOF 7
ENDMDL
MODEL 3
REMARK VINA RESULT:      -7.8      2.278      4.826
REMARK  Name = 
REMARK  9 active torsions:
REMARK  status: ('A' for Active; 'I' for Inactive)
REMARK    1  A    between atoms: C_6  and  C_10
REMARK    2  A    between atoms: C_14  and  O_18
REMARK    3  A    between atoms: N_17  and  N_20
REMARK    4  A    between atoms: N_20  and  C_23
REMARK    5  A    between atoms: C_23  and  C_26
REMARK    6  A    between atoms: C_23  and  C_27
REMARK    7  A    between atoms: C_26  and  C_29
REMARK    8  A    between atoms: C_27  and  C_30
REMARK    9  A    between atoms: C_29  and  C_31
REMARK                            x       y       z     vdW  Elec       q    Type
REMARK                         _______ _______ _______ _____ _____    ______ ____
ROOT
ATOM      1  C   UNL     1     -10.397  55.229  50.594  0.00  0.00    +0.000 A 
ATOM      2  C   UNL     1      -9.830  55.377  49.216  0.00  0.00    +0.000 A 
ATOM      3  C   UNL     1     -11.640  55.684  50.841  0.00  0.00    +0.000 A 
ATOM      4  O   UNL     1      -8.608  55.257  49.078  0.00  0.00    +0.000 OA
ATOM      5  N   UNL     1     -10.747  55.559  48.166  0.00  0.00    +0.000 N 
ATOM      6  C   UNL     1     -12.473  56.233  49.764  0.00  0.00    +0.000 A 
ATOM      7  C   UNL     1     -12.049  56.113  48.429  0.00  0.00    +0.000 A 
ATOM      8  C   UNL     1     -13.722  56.813  50.056  0.00  0.00    +0.000 A 
ATOM      9  C   UNL     1     -12.909  56.580  47.416  0.00  0.00    +0.000 A 
ATOM     10  C   UNL     1     -14.558  57.267  49.042  0.00  0.00    +0.000 A 
ATOM     11  C   UNL     1     -14.152  57.146  47.721  0.00  0.00    +0.000 A 
ENDROOT
BRANCH   1  17
ATOM     12  S   UNL     1      -9.185  52.390  53.027  0.00  0.00    +0.000 S 
ATOM     13  O   UNL     1      -8.611  51.303  52.259  0.00  0.00    +0.000 OA
ATOM     14  O   UNL     1     -10.049  52.107  54.157  0.00  0.00    +0.000 OA
ATOM     15  N   UNL     1     -10.008  53.328  52.005  0.00  0.00    +0.000 N 
ATOM     16  C   UNL     1      -7.837  53.307  53.656  0.00  0.00    +0.000 A 
ATOM     17  C   UNL     1      -9.583  54.514  51.667  0.00  0.00    +0.000 C 
ATOM     18  C   UNL     1      -7.617  54.575  53.145  0.00  0.00    +0.000 A 
ATOM     19  C   UNL     1      -7.012  52.735  54.632  0.00  0.00    +0.000 A 
ATOM     20  N   UNL     1      -8.453  55.119  52.173  0.00  0.00    +0.000 N 
ATOM     21  C   UNL     1      -6.507  55.285  53.616  0.00  0.00    +0.000 A 
ATOM     22  C   UNL     1      -5.925  53.459  55.104  0.00  0.00    +0.000 A 
ATOM     23  C   UNL     1      -5.666  54.730  54.593  0.00  0.00    +0.000 A 
ATOM     24  H   UNL     1     -10.854  52.997  51.626  0.00  0.00    +0.000 HD
ATOM     25  H   UNL     1      -8.218  56.006  51.817  0.00  0.00    +0.000 HD
ENDBRANCH   1  17
BRANCH   3  26
ATOM     26  O   UNL     1     -12.270  55.634  52.072  0.00  0.00    +0.000 OA
ATOM     27  H   UNL     1     -12.851  56.322  52.329  0.00  0.00    +0.000 HD
ENDBRANCH   3  26
BRANCH   5  28
ATOM     28  N   UNL     1     -10.275  55.482  46.815  0.00  0.00    +0.000 N 
ATOM     29  H   UNL     1     -10.034  56.289  46.303  0.00  0.00    +0.000 HD
BRANCH  28  30
ATOM     30  C   UNL     1     -10.166  54.124  46.227  0.00  0.00    +0.000 C 
BRANCH  30  31
ATOM     31  C   UNL     1      -8.863  54.116  45.389  0.00  0.00    +0.000 C 
ATOM     32  C   UNL     1      -8.924  53.206  44.167  0.00  0.00    +0.000 C 
ENDBRANCH  30  31
BRANCH  30  33
ATOM     33  C   UNL     1     -11.388  53.746  45.348  0.00  0.00    +0.000 C 
BRANCH  33  34
ATOM     34  C   UNL     1     -12.103  52.470  45.825  0.00  0.00    +0.000 C 
ATOM     35  C   UNL     1     -12.297  52.430  47.331  0.00  0.00    +0.000 C 
ENDBRANCH  33  34
ENDBRANCH  30  33
ENDBRANCH  28  30
ENDBRANCH   5  28
TORSDOF 7
ENDMDL
MODEL 4
REMARK VINA RESULT:      -7.6      3.607      7.824
REMARK  Name = 
REMARK  9 active torsions:
REMARK  status: ('A' for Active; 'I' for Inactive)
REMARK    1  A    between atoms: C_6  and  C_10
REMARK    2  A    between atoms: C_14  and  O_18
REMARK    3  A    between atoms: N_17  and  N_20
REMARK    4  A    between atoms: N_20  and  C_23
REMARK    5  A    between atoms: C_23  and  C_26
REMARK    6  A    between atoms: C_23  and  C_27
REMARK    7  A    between atoms: C_26  and  C_29
REMARK    8  A    between atoms: C_27  and  C_30
REMARK    9  A    between atoms: C_29  and  C_31
REMARK                            x       y       z     vdW  Elec       q    Type
REMARK                         _______ _______ _______ _____ _____    ______ ____
ROOT
ATOM      1  C   UNL     1     -11.629  54.069  51.124  0.00  0.00    +0.000 A 
ATOM      2  C   UNL     1     -10.709  53.914  52.295  0.00  0.00    +0.000 A 
ATOM      3  C   UNL     1     -11.772  53.041  50.266  0.00  0.00    +0.000 A 
ATOM      4  O   UNL     1     -10.342  54.939  52.881  0.00  0.00    +0.000 OA
ATOM      5  N   UNL     1     -10.398  52.602  52.692  0.00  0.00    +0.000 N 
ATOM      6  C   UNL     1     -11.115  51.751  50.514  0.00  0.00    +0.000 A 
ATOM      7  C   UNL     1     -10.483  51.520  51.749  0.00  0.00    +0.000 A 
ATOM      8  C   UNL     1     -11.175  50.726  49.551  0.00  0.00    +0.000 A 
ATOM      9  C   UNL     1      -9.933  50.245  51.982  0.00  0.00    +0.000 A 
ATOM     10  C   UNL     1     -10.626  49.474  49.801  0.00  0.00    +0.000 A 
ATOM     11  C   UNL     1     -10.009  49.232  51.019  0.00  0.00    +0.000 A 
ENDROOT
BRANCH   1  17
ATOM     12  S   UNL     1     -13.394  57.128  49.399  0.00  0.00    +0.000 S 
ATOM     13  O   UNL     1     -14.515  56.660  48.608  0.00  0.00    +0.000 OA
ATOM     14  O   UNL     1     -12.516  58.160  48.880  0.00  0.00    +0.000 OA
ATOM     15  N   UNL     1     -12.482  55.846  49.758  0.00  0.00    +0.000 N 
ATOM     16  C   UNL     1     -14.072  57.756  50.881  0.00  0.00    +0.000 A 
ATOM     17  C   UNL     1     -12.429  55.357  50.965  0.00  0.00    +0.000 C 
ATOM     18  C   UNL     1     -13.840  57.055  52.052  0.00  0.00    +0.000 A 
ATOM     19  C   UNL     1     -14.841  58.926  50.844  0.00  0.00    +0.000 A 
ATOM     20  N   UNL     1     -13.071  55.893  52.060  0.00  0.00    +0.000 N 
ATOM     21  C   UNL     1     -14.426  57.536  53.228  0.00  0.00    +0.000 A 
ATOM     22  C   UNL     1     -15.402  59.401  52.022  0.00  0.00    +0.000 A 
ATOM     23  C   UNL     1     -15.202  58.704  53.213  0.00  0.00    +0.000 A 
ATOM     24  H   UNL     1     -11.950  55.423  49.046  0.00  0.00    +0.000 HD
ATOM     25  H   UNL     1     -12.979  55.416  52.916  0.00  0.00    +0.000 HD
ENDBRANCH   1  17
BRANCH   3  26
ATOM     26  O   UNL     1     -12.567  53.061  49.134  0.00  0.00    +0.000 OA
ATOM     27  H   UNL     1     -12.726  53.870  48.688  0.00  0.00    +0.000 HD
ENDBRANCH   3  26
BRANCH   5  28
ATOM     28  N   UNL     1      -9.707  52.401  53.933  0.00  0.00    +0.000 N 
ATOM     29  H   UNL     1     -10.160  52.508  54.801  0.00  0.00    +0.000 HD
BRANCH  28  30
ATOM     30  C   UNL     1      -8.275  52.024  53.840  0.00  0.00    +0.000 C 
BRANCH  30  31
ATOM     31  C   UNL     1      -7.930  51.301  55.166  0.00  0.00    +0.000 C 
ATOM     32  C   UNL     1      -9.031  50.371  55.664  0.00  0.00    +0.000 C 
ENDBRANCH  30  31
BRANCH  30  33
ATOM     33  C   UNL     1      -7.342  53.244  53.620  0.00  0.00    +0.000 C 
BRANCH  33  34
ATOM     34  C   UNL     1      -6.226  53.348  54.674  0.00  0.00    +0.000 C 
ATOM     35  C   UNL     1      -5.690  54.761  54.830  0.00  0.00    +0.000 C 
ENDBRANCH  33  34
ENDBRANCH  30  33
ENDBRANCH  28  30
ENDBRANCH   5  28
TORSDOF 7
ENDMDL
MODEL 5
REMARK VINA RESULT:      -7.6      1.202      1.873
REMARK  Name = 
REMARK  9 active torsions:
REMARK  status: ('A' for Active; 'I' for Inactive)
REMARK    1  A    between atoms: C_6  and  C_10
REMARK    2  A    between atoms: C_14  and  O_18
REMARK    3  A    between atoms: N_17  and  N_20
REMARK    4  A    between atoms: N_20  and  C_23
REMARK    5  A    between atoms: C_23  and  C_26
REMARK    6  A    between atoms: C_23  and  C_27
REMARK    7  A    between atoms: C_26  and  C_29
REMARK    8  A    between atoms: C_27  and  C_30
REMARK    9  A    between atoms: C_29  and  C_31
REMARK                            x       y       z     vdW  Elec       q    Type
REMARK                         _______ _______ _______ _____ _____    ______ ____
ROOT
ATOM      1  C   UNL     1      -9.189  54.490  50.017  0.00  0.00    +0.000 A 
ATOM      2  C   UNL     1     -10.350  55.425  50.163  0.00  0.00    +0.000 A 
ATOM      3  C   UNL     1      -9.061  53.779  48.880  0.00  0.00    +0.000 A 
ATOM      4  O   UNL     1     -10.635  55.820  51.299  0.00  0.00    +0.000 OA
ATOM      5  N   UNL     1     -10.977  55.850  48.979  0.00  0.00    +0.000 N 
ATOM      6  C   UNL     1      -9.984  53.978  47.756  0.00  0.00    +0.000 A 
ATOM      7  C   UNL     1     -10.896  55.048  47.787  0.00  0.00    +0.000 A 
ATOM      8  C   UNL     1      -9.912  53.147  46.622  0.00  0.00    +0.000 A 
ATOM      9  C   UNL     1     -11.711  55.255  46.658  0.00  0.00    +0.000 A 
ATOM     10  C   UNL     1     -10.725  53.369  45.517  0.00  0.00    +0.000 A 
ATOM     11  C   UNL     1     -11.622  54.427  45.534  0.00  0.00    +0.000 A 
ENDROOT
BRANCH   1  17
ATOM     12  S   UNL     1      -7.655  54.219  53.626  0.00  0.00    +0.000 S 
ATOM     13  O   UNL     1      -7.941  52.911  54.180  0.00  0.00    +0.000 OA
ATOM     14  O   UNL     1      -7.769  55.403  54.457  0.00  0.00    +0.000 OA
ATOM     15  N   UNL     1      -8.614  54.428  52.346  0.00  0.00    +0.000 N 
ATOM     16  C   UNL     1      -5.998  54.163  53.073  0.00  0.00    +0.000 A 
ATOM     17  C   UNL     1      -8.147  54.410  51.128  0.00  0.00    +0.000 C 
ATOM     18  C   UNL     1      -5.766  54.191  51.709  0.00  0.00    +0.000 A 
ATOM     19  C   UNL     1      -4.963  54.070  54.011  0.00  0.00    +0.000 A 
ATOM     20  N   UNL     1      -6.816  54.283  50.798  0.00  0.00    +0.000 N 
ATOM     21  C   UNL     1      -4.441  54.096  51.270  0.00  0.00    +0.000 A 
ATOM     22  C   UNL     1      -3.651  53.994  53.561  0.00  0.00    +0.000 A 
ATOM     23  C   UNL     1      -3.388  54.000  52.192  0.00  0.00    +0.000 A 
ATOM     24  H   UNL     1      -9.577  54.572  52.487  0.00  0.00    +0.000 HD
ATOM     25  H   UNL     1      -6.589  54.254  49.840  0.00  0.00    +0.000 HD
ENDBRANCH   1  17
BRANCH   3  26
ATOM     26  O   UNL     1      -8.053  52.865  48.630  0.00  0.00    +0.000 OA
ATOM     27  H   UNL     1      -8.240  51.948  48.642  0.00  0.00    +0.000 HD
ENDBRANCH   3  26
BRANCH   5  28
ATOM     28  N   UNL     1     -11.941  56.909  49.049  0.00  0.00    +0.000 N 
ATOM     29  H   UNL     1     -11.745  57.812  48.709  0.00  0.00    +0.000 HD
BRANCH  28  30
ATOM     30  C   UNL     1     -13.250  56.574  49.663  0.00  0.00    +0.000 C 
BRANCH  30  31
ATOM     31  C   UNL     1     -14.304  56.702  48.534  0.00  0.00    +0.000 C 
ATOM     32  C   UNL     1     -14.022  57.836  47.556  0.00  0.00    +0.000 C 
ENDBRANCH  30  31
BRANCH  30  33
ATOM     33  C   UNL     1     -13.610  57.493  50.859  0.00  0.00    +0.000 C 
BRANCH  33  34
ATOM     34  C   UNL     1     -14.075  56.713  52.101  0.00  0.00    +0.000 C 
ATOM     35  C   UNL     1     -15.505  57.035  52.500  0.00  0.00    +0.000 C 
ENDBRANCH  33  34
ENDBRANCH  30  33
ENDBRANCH  28  30
ENDBRANCH   5  28
TORSDOF 7
ENDMDL
MODEL 6
REMARK VINA RESULT:      -7.5      3.221      7.061
REMARK  Name = 
REMARK  9 active torsions:
REMARK  status: ('A' for Active; 'I' for Inactive)
REMARK    1  A    between atoms: C_6  and  C_10
REMARK    2  A    between atoms: C_14  and  O_18
REMARK    3  A    between atoms: N_17  and  N_20
REMARK    4  A    between atoms: N_20  and  C_23
REMARK    5  A    between atoms: C_23  and  C_26
REMARK    6  A    between atoms: C_23  and  C_27
REMARK    7  A    between atoms: C_26  and  C_29
REMARK    8  A    between atoms: C_27  and  C_30
REMARK    9  A    between atoms: C_29  and  C_31
REMARK                            x       y       z     vdW  Elec       q    Type
REMARK                         _______ _______ _______ _____ _____    ______ ____
ROOT
ATOM      1  C   UNL     1     -11.573  56.110  48.646  0.00  0.00    +0.000 A 
ATOM      2  C   UNL     1     -10.342  55.546  49.285  0.00  0.00    +0.000 A 
ATOM      3  C   UNL     1     -11.918  55.694  47.412  0.00  0.00    +0.000 A 
ATOM      4  O   UNL     1      -9.865  56.151  50.252  0.00  0.00    +0.000 OA
ATOM      5  N   UNL     1      -9.869  54.320  48.786  0.00  0.00    +0.000 N 
ATOM      6  C   UNL     1     -11.160  54.637  46.732  0.00  0.00    +0.000 A 
ATOM      7  C   UNL     1     -10.182  53.917  47.441  0.00  0.00    +0.000 A 
ATOM      8  C   UNL     1     -11.456  54.295  45.398  0.00  0.00    +0.000 A 
ATOM      9  C   UNL     1      -9.530  52.858  46.780  0.00  0.00    +0.000 A 
ATOM     10  C   UNL     1     -10.802  53.245  44.764  0.00  0.00    +0.000 A 
ATOM     11  C   UNL     1      -9.842  52.524  45.457  0.00  0.00    +0.000 A 
ENDROOT
BRANCH   1  17
ATOM     12  S   UNL     1     -13.605  59.361  49.513  0.00  0.00    +0.000 S 
ATOM     13  O   UNL     1     -14.761  59.458  48.644  0.00  0.00    +0.000 OA
ATOM     14  O   UNL     1     -12.819  60.542  49.814  0.00  0.00    +0.000 OA
ATOM     15  N   UNL     1     -12.610  58.261  48.879  0.00  0.00    +0.000 N 
ATOM     16  C   UNL     1     -14.194  58.758  51.043  0.00  0.00    +0.000 A 
ATOM     17  C   UNL     1     -12.442  57.090  49.427  0.00  0.00    +0.000 C 
ATOM     18  C   UNL     1     -13.840  57.473  51.416  0.00  0.00    +0.000 A 
ATOM     19  C   UNL     1     -15.017  59.571  51.832  0.00  0.00    +0.000 A 
ATOM     20  N   UNL     1     -13.020  56.685  50.610  0.00  0.00    +0.000 N 
ATOM     21  C   UNL     1     -14.355  56.977  52.619  0.00  0.00    +0.000 A 
ATOM     22  C   UNL     1     -15.505  59.072  53.032  0.00  0.00    +0.000 A 
ATOM     23  C   UNL     1     -15.182  57.774  53.424  0.00  0.00    +0.000 A 
ATOM     24  H   UNL     1     -12.117  58.479  48.056  0.00  0.00    +0.000 HD
ATOM     25  H   UNL     1     -12.841  55.764  50.910  0.00  0.00    +0.000 HD
ENDBRANCH   1  17
BRANCH   3  26
ATOM     26  O   UNL     1     -13.012  56.152  46.700  0.00  0.00    +0.000 OA
ATOM     27  H   UNL     1     -13.731  55.578  46.526  0.00  0.00    +0.000 HD
ENDBRANCH   3  26
BRANCH   5  28
ATOM     28  N   UNL     1      -8.835  53.635  49.504  0.00  0.00    +0.000 N 
ATOM     29  H   UNL     1      -7.889  53.700  49.238  0.00  0.00    +0.000 HD
BRANCH  28  30
ATOM     30  C   UNL     1      -9.264  52.821  50.668  0.00  0.00    +0.000 C 
BRANCH  30  31
ATOM     31  C   UNL     1      -7.973  52.455  51.442  0.00  0.00    +0.000 C 
ATOM     32  C   UNL     1      -8.226  51.660  52.718  0.00  0.00    +0.000 C 
ENDBRANCH  30  31
BRANCH  30  33
ATOM     33  C   UNL     1     -10.040  51.541  50.258  0.00  0.00    +0.000 C 
BRANCH  33  34
ATOM     34  C   UNL     1     -11.556  51.653  50.494  0.00  0.00    +0.000 C 
ATOM     35  C   UNL     1     -11.932  52.839  51.366  0.00  0.00    +0.000 C 
ENDBRANCH  33  34
ENDBRANCH  30  33
ENDBRANCH  28  30
ENDBRANCH   5  28
TORSDOF 7
ENDMDL
MODEL 7
REMARK VINA RESULT:      -7.4      3.246      7.537
REMARK  Name = 
REMARK  9 active torsions:
REMARK  status: ('A' for Active; 'I' for Inactive)
REMARK    1  A    between atoms: C_6  and  C_10
REMARK    2  A    between atoms: C_14  and  O_18
REMARK    3  A    between atoms: N_17  and  N_20
REMARK    4  A    between atoms: N_20  and  C_23
REMARK    5  A    between atoms: C_23  and  C_26
REMARK    6  A    between atoms: C_23  and  C_27
REMARK    7  A    between atoms: C_26  and  C_29
REMARK    8  A    between atoms: C_27  and  C_30
REMARK    9  A    between atoms: C_29  and  C_31
REMARK                            x       y       z     vdW  Elec       q    Type
REMARK                         _______ _______ _______ _____ _____    ______ ____
ROOT
ATOM      1  C   UNL     1     -11.712  54.690  50.563  0.00  0.00    +0.000 A 
ATOM      2  C   UNL     1     -11.718  53.981  49.245  0.00  0.00    +0.000 A 
ATOM      3  C   UNL     1     -10.816  54.321  51.499  0.00  0.00    +0.000 A 
ATOM      4  O   UNL     1     -12.720  54.097  48.530  0.00  0.00    +0.000 OA
ATOM      5  N   UNL     1     -10.542  53.301  48.881  0.00  0.00    +0.000 N 
ATOM      6  C   UNL     1      -9.795  53.306  51.211  0.00  0.00    +0.000 A 
ATOM      7  C   UNL     1      -9.626  52.847  49.893  0.00  0.00    +0.000 A 
ATOM      8  C   UNL     1      -8.943  52.844  52.232  0.00  0.00    +0.000 A 
ATOM      9  C   UNL     1      -8.586  51.932  49.639  0.00  0.00    +0.000 A 
ATOM     10  C   UNL     1      -7.921  51.942  51.961  0.00  0.00    +0.000 A 
ATOM     11  C   UNL     1      -7.740  51.490  50.663  0.00  0.00    +0.000 A 
ENDROOT
BRANCH   1  17
ATOM     12  S   UNL     1     -14.349  57.002  52.338  0.00  0.00    +0.000 S 
ATOM     13  O   UNL     1     -13.741  57.638  53.490  0.00  0.00    +0.000 OA
ATOM     14  O   UNL     1     -15.699  56.479  52.423  0.00  0.00    +0.000 OA
ATOM     15  N   UNL     1     -13.384  55.791  51.884  0.00  0.00    +0.000 N 
ATOM     16  C   UNL     1     -14.363  58.203  51.069  0.00  0.00    +0.000 A 
ATOM     17  C   UNL     1     -12.672  55.851  50.794  0.00  0.00    +0.000 C 
ATOM     18  C   UNL     1     -13.524  58.014  49.985  0.00  0.00    +0.000 A 
ATOM     19  C   UNL     1     -15.197  59.321  51.190  0.00  0.00    +0.000 A 
ATOM     20  N   UNL     1     -12.704  56.891  49.890  0.00  0.00    +0.000 N 
ATOM     21  C   UNL     1     -13.503  59.003  48.995  0.00  0.00    +0.000 A 
ATOM     22  C   UNL     1     -15.179  60.285  50.191  0.00  0.00    +0.000 A 
ATOM     23  C   UNL     1     -14.329  60.132  49.097  0.00  0.00    +0.000 A 
ATOM     24  H   UNL     1     -13.332  54.984  52.446  0.00  0.00    +0.000 HD
ATOM     25  H   UNL     1     -12.098  56.837  49.117  0.00  0.00    +0.000 HD
ENDBRANCH   1  17
BRANCH   3  26
ATOM     26  O   UNL     1     -10.721  54.875  52.764  0.00  0.00    +0.000 OA
ATOM     27  H   UNL     1     -10.595  55.797  52.862  0.00  0.00    +0.000 HD
ENDBRANCH   3  26
BRANCH   5  28
ATOM     28  N   UNL     1     -10.420  52.799  47.544  0.00  0.00    +0.000 N 
ATOM     29  H   UNL     1     -10.711  51.890  47.303  0.00  0.00    +0.000 HD
BRANCH  28  30
ATOM     30  C   UNL     1      -9.830  53.721  46.542  0.00  0.00    +0.000 C 
BRANCH  30  31
ATOM     31  C   UNL     1     -10.923  53.952  45.467  0.00  0.00    +0.000 C 
ATOM     32  C   UNL     1     -10.874  52.953  44.316  0.00  0.00    +0.000 C 
ENDBRANCH  30  31
BRANCH  30  33
ATOM     33  C   UNL     1      -8.534  53.164  45.896  0.00  0.00    +0.000 C 
BRANCH  33  34
ATOM     34  C   UNL     1      -7.262  53.885  46.377  0.00  0.00    +0.000 C 
ATOM     35  C   UNL     1      -7.534  54.882  47.490  0.00  0.00    +0.000 C 
ENDBRANCH  33  34
ENDBRANCH  30  33
ENDBRANCH  28  30
ENDBRANCH   5  28
TORSDOF 7
ENDMDL
MODEL 8
REMARK VINA RESULT:      -7.4      3.570      6.927
REMARK  Name = 
REMARK  9 active torsions:
REMARK  status: ('A' for Active; 'I' for Inactive)
REMARK    1  A    between atoms: C_6  and  C_10
REMARK    2  A    between atoms: C_14  and  O_18
REMARK    3  A    between atoms: N_17  and  N_20
REMARK    4  A    between atoms: N_20  and  C_23
REMARK    5  A    between atoms: C_23  and  C_26
REMARK    6  A    between atoms: C_23  and  C_27
REMARK    7  A    between atoms: C_26  and  C_29
REMARK    8  A    between atoms: C_27  and  C_30
REMARK    9  A    between atoms: C_29  and  C_31
REMARK                            x       y       z     vdW  Elec       q    Type
REMARK                         _______ _______ _______ _____ _____    ______ ____
ROOT
ATOM      1  C   UNL     1     -11.803  54.411  48.244  0.00  0.00    +0.000 A 
ATOM      2  C   UNL     1     -11.862  53.586  49.492  0.00  0.00    +0.000 A 
ATOM      3  C   UNL     1     -12.532  55.542  48.173  0.00  0.00    +0.000 A 
ATOM      4  O   UNL     1     -11.458  52.419  49.432  0.00  0.00    +0.000 OA
ATOM      5  N   UNL     1     -12.296  54.232  50.662  0.00  0.00    +0.000 N 
ATOM      6  C   UNL     1     -13.303  56.018  49.328  0.00  0.00    +0.000 A 
ATOM      7  C   UNL     1     -13.136  55.397  50.578  0.00  0.00    +0.000 A 
ATOM      8  C   UNL     1     -14.154  57.133  49.204  0.00  0.00    +0.000 A 
ATOM      9  C   UNL     1     -13.832  55.930  51.680  0.00  0.00    +0.000 A 
ATOM     10  C   UNL     1     -14.832  57.644  50.304  0.00  0.00    +0.000 A 
ATOM     11  C   UNL     1     -14.666  57.045  51.544  0.00  0.00    +0.000 A 
ENDROOT
BRANCH   1  17
ATOM     12  S   UNL     1      -8.535  54.058  46.087  0.00  0.00    +0.000 S 
ATOM     13  O   UNL     1      -7.559  53.266  46.810  0.00  0.00    +0.000 OA
ATOM     14  O   UNL     1      -8.120  55.242  45.361  0.00  0.00    +0.000 OA
ATOM     15  N   UNL     1      -9.676  54.503  47.138  0.00  0.00    +0.000 N 
ATOM     16  C   UNL     1      -9.257  52.986  44.911  0.00  0.00    +0.000 A 
ATOM     17  C   UNL     1     -10.874  53.990  47.110  0.00  0.00    +0.000 C 
ATOM     18  C   UNL     1     -10.576  52.611  45.094  0.00  0.00    +0.000 A 
ATOM     19  C   UNL     1      -8.485  52.523  43.838  0.00  0.00    +0.000 A 
ATOM     20  N   UNL     1     -11.321  53.086  46.172  0.00  0.00    +0.000 N 
ATOM     21  C   UNL     1     -11.134  51.713  44.176  0.00  0.00    +0.000 A 
ATOM     22  C   UNL     1      -9.057  51.648  42.924  0.00  0.00    +0.000 A 
ATOM     23  C   UNL     1     -10.378  51.236  43.095  0.00  0.00    +0.000 A 
ATOM     24  H   UNL     1      -9.461  55.181  47.819  0.00  0.00    +0.000 HD
ATOM     25  H   UNL     1     -12.240  52.747  46.272  0.00  0.00    +0.000 HD
ENDBRANCH   1  17
BRANCH   3  26
ATOM     26  O   UNL     1     -12.588  56.378  47.072  0.00  0.00    +0.000 OA
ATOM     27  H   UNL     1     -12.282  57.260  47.139  0.00  0.00    +0.000 HD
ENDBRANCH   3  26
BRANCH   5  28
ATOM     28  N   UNL     1     -12.159  53.553  51.917  0.00  0.00    +0.000 N 
ATOM     29  H   UNL     1     -12.934  53.160  52.382  0.00  0.00    +0.000 HD
BRANCH  28  30
ATOM     30  C   UNL     1     -10.789  53.472  52.481  0.00  0.00    +0.000 C 
BRANCH  30  31
ATOM     31  C   UNL     1     -10.871  52.501  53.686  0.00  0.00    +0.000 C 
ATOM     32  C   UNL     1      -9.529  51.894  54.079  0.00  0.00    +0.000 C 
ENDBRANCH  30  31
BRANCH  30  33
ATOM     33  C   UNL     1     -10.234  54.851  52.922  0.00  0.00    +0.000 C 
BRANCH  33  34
ATOM     34  C   UNL     1      -8.869  55.182  52.294  0.00  0.00    +0.000 C 
ATOM     35  C   UNL     1      -8.629  54.452  50.984  0.00  0.00    +0.000 C 
ENDBRANCH  33  34
ENDBRANCH  30  33
ENDBRANCH  28  30
ENDBRANCH   5  28
TORSDOF 7
ENDMDL
MODEL 9
REMARK VINA RESULT:      -7.3      3.516      7.620
REMARK  Name = 
REMARK  9 active torsions:
REMARK  status: ('A' for Active; 'I' for Inactive)
REMARK    1  A    between atoms: C_6  and  C_10
REMARK    2  A    between atoms: C_14  and  O_18
REMARK    3  A    between atoms: N_17  and  N_20
REMARK    4  A    between atoms: N_20  and  C_23
REMARK    5  A    between atoms: C_23  and  C_26
REMARK    6  A    between atoms: C_23  and  C_27
REMARK    7  A    between atoms: C_26  and  C_29
REMARK    8  A    between atoms: C_27  and  C_30
REMARK    9  A    between atoms: C_29  and  C_31
REMARK                            x       y       z     vdW  Elec       q    Type
REMARK                         _______ _______ _______ _____ _____    ______ ____
ROOT
ATOM      1  C   UNL     1     -12.001  54.257  50.943  0.00  0.00    +0.000 A 
ATOM      2  C   UNL     1     -11.079  54.147  52.116  0.00  0.00    +0.000 A 
ATOM      3  C   UNL     1     -12.012  53.271  50.025  0.00  0.00    +0.000 A 
ATOM      4  O   UNL     1     -10.843  55.172  52.765  0.00  0.00    +0.000 OA
ATOM      5  N   UNL     1     -10.615  52.861  52.443  0.00  0.00    +0.000 N 
ATOM      6  C   UNL     1     -11.206  52.058  50.209  0.00  0.00    +0.000 A 
ATOM      7  C   UNL     1     -10.561  51.832  51.438  0.00  0.00    +0.000 A 
ATOM      8  C   UNL     1     -11.134  51.091  49.188  0.00  0.00    +0.000 A 
ATOM      9  C   UNL     1      -9.862  50.622  51.606  0.00  0.00    +0.000 A 
ATOM     10  C   UNL     1     -10.440  49.901  49.375  0.00  0.00    +0.000 A 
ATOM     11  C   UNL     1      -9.808  49.665  50.586  0.00  0.00    +0.000 A 
ENDROOT
BRANCH   1  17
ATOM     12  S   UNL     1     -15.242  56.440  51.373  0.00  0.00    +0.000 S 
ATOM     13  O   UNL     1     -15.431  56.758  52.775  0.00  0.00    +0.000 OA
ATOM     14  O   UNL     1     -16.377  56.064  50.552  0.00  0.00    +0.000 OA
ATOM     15  N   UNL     1     -14.160  55.246  51.287  0.00  0.00    +0.000 N 
ATOM     16  C   UNL     1     -14.552  57.867  50.638  0.00  0.00    +0.000 A 
ATOM     17  C   UNL     1     -12.950  55.447  50.844  0.00  0.00    +0.000 C 
ATOM     18  C   UNL     1     -13.235  57.809  50.216  0.00  0.00    +0.000 A 
ATOM     19  C   UNL     1     -15.332  59.023  50.516  0.00  0.00    +0.000 A 
ATOM     20  N   UNL     1     -12.481  56.645  50.351  0.00  0.00    +0.000 N 
ATOM     21  C   UNL     1     -12.672  58.970  49.673  0.00  0.00    +0.000 A 
ATOM     22  C   UNL     1     -14.766  60.161  49.958  0.00  0.00    +0.000 A 
ATOM     23  C   UNL     1     -13.435  60.140  49.543  0.00  0.00    +0.000 A 
ATOM     24  H   UNL     1     -14.420  54.342  51.575  0.00  0.00    +0.000 HD
ATOM     25  H   UNL     1     -11.537  56.682  50.073  0.00  0.00    +0.000 HD
ENDBRANCH   1  17
BRANCH   3  26
ATOM     26  O   UNL     1     -12.795  53.263  48.884  0.00  0.00    +0.000 OA
ATOM     27  H   UNL     1     -12.391  53.293  48.039  0.00  0.00    +0.000 HD
ENDBRANCH   3  26
BRANCH   5  28
ATOM     28  N   UNL     1      -9.915  52.672  53.680  0.00  0.00    +0.000 N 
ATOM     29  H   UNL     1     -10.388  52.639  54.544  0.00  0.00    +0.000 HD
BRANCH  28  30
ATOM     30  C   UNL     1      -8.441  52.529  53.592  0.00  0.00    +0.000 C 
BRANCH  30  31
ATOM     31  C   UNL     1      -8.015  51.659  54.801  0.00  0.00    +0.000 C 
ATOM     32  C   UNL     1      -9.116  50.734  55.310  0.00  0.00    +0.000 C 
ENDBRANCH  30  31
BRANCH  30  33
ATOM     33  C   UNL     1      -7.699  53.892  53.609  0.00  0.00    +0.000 C 
BRANCH  33  34
ATOM     34  C   UNL     1      -6.757  54.081  52.407  0.00  0.00    +0.000 C 
ATOM     35  C   UNL     1      -7.489  54.070  51.076  0.00  0.00    +0.000 C 
ENDBRANCH  33  34
ENDBRANCH  30  33
ENDBRANCH  28  30
ENDBRANCH   5  28
TORSDOF 7
ENDMDL
