MODEL 1
REMARK VINA RESULT:      -8.4      0.000      0.000
REMARK  Name = 
REMARK  6 active torsions:
REMARK  status: ('A' for Active; 'I' for Inactive)
REMARK    1  A    between atoms: C_6  and  C_10
REMARK    2  A    between atoms: C_14  and  O_18
REMARK    3  A    between atoms: N_17  and  N_20
REMARK    4  A    between atoms: N_20  and  C_23
REMARK    5  A    between atoms: C_23  and  C_26
REMARK    6  A    between atoms: C_23  and  C_27
REMARK                            x       y       z     vdW  Elec       q    Type
REMARK                         _______ _______ _______ _____ _____    ______ ____
ROOT
ATOM      1  C   UNL     1     -10.094  54.505  52.233  0.00  0.00    +0.000 A 
ATOM      2  C   UNL     1      -8.709  55.039  52.063  0.00  0.00    +0.000 A 
ATOM      3  C   UNL     1     -10.306  53.411  52.989  0.00  0.00    +0.000 A 
ATOM      4  O   UNL     1      -8.528  55.996  51.301  0.00  0.00    +0.000 OA
ATOM      5  N   UNL     1      -7.692  54.455  52.822  0.00  0.00    +0.000 N 
ATOM      6  C   UNL     1      -9.192  52.736  53.674  0.00  0.00    +0.000 A 
ATOM      7  C   UNL     1      -7.901  53.280  53.596  0.00  0.00    +0.000 A 
ATOM      8  C   UNL     1      -9.404  51.573  54.430  0.00  0.00    +0.000 A 
ATOM      9  C   UNL     1      -6.848  52.652  54.281  0.00  0.00    +0.000 A 
ATOM     10  C   UNL     1      -8.353  50.958  55.108  0.00  0.00    +0.000 A 
ATOM     11  C   UNL     1      -7.075  51.497  55.034  0.00  0.00    +0.000 A 
ENDROOT
BRANCH   1  17
ATOM     12  S   UNL     1     -12.523  56.032  49.548  0.00  0.00    +0.000 S 
ATOM     13  O   UNL     1     -13.392  55.022  48.979  0.00  0.00    +0.000 OA
ATOM     14  O   UNL     1     -11.921  57.042  48.701  0.00  0.00    +0.000 OA
ATOM     15  N   UNL     1     -11.331  55.263  50.327  0.00  0.00    +0.000 N 
ATOM     16  C   UNL     1     -13.486  56.896  50.729  0.00  0.00    +0.000 A 
ATOM     17  C   UNL     1     -11.259  55.267  51.626  0.00  0.00    +0.000 C 
ATOM     18  C   UNL     1     -13.181  56.725  52.070  0.00  0.00    +0.000 A 
ATOM     19  C   UNL     1     -14.522  57.732  50.300  0.00  0.00    +0.000 A 
ATOM     20  N   UNL     1     -12.150  55.882  52.479  0.00  0.00    +0.000 N 
ATOM     21  C   UNL     1     -13.997  57.357  53.013  0.00  0.00    +0.000 A 
ATOM     22  C   UNL     1     -15.300  58.387  51.250  0.00  0.00    +0.000 A 
ATOM     23  C   UNL     1     -15.045  58.189  52.607  0.00  0.00    +0.000 A 
ATOM     24  H   UNL     1     -10.646  54.784  49.807  0.00  0.00    +0.000 HD
ATOM     25  H   UNL     1     -12.051  55.715  53.444  0.00  0.00    +0.000 HD
ENDBRANCH   1  17
BRANCH   3  26
ATOM     26  O   UNL     1     -11.550  52.857  53.230  0.00  0.00    +0.000 OA
ATOM     27  H   UNL     1     -11.763  52.537  54.084  0.00  0.00    +0.000 HD
ENDBRANCH   3  26
BRANCH   5  28
ATOM     28  N   UNL     1      -6.375  55.008  52.766  0.00  0.00    +0.000 N 
ATOM     29  H   UNL     1      -6.108  55.819  53.256  0.00  0.00    +0.000 HD
BRANCH  28  30
ATOM     30  C   UNL     1      -5.452  54.246  51.899  0.00  0.00    +0.000 C 
ATOM     31  C   UNL     1      -5.443  54.732  50.449  0.00  0.00    +0.000 C 
ATOM     32  C   UNL     1      -4.044  54.357  52.487  0.00  0.00    +0.000 C 
ENDBRANCH  28  30
ENDBRANCH   5  28
TORSDOF 4
ENDMDL
MODEL 2
REMARK VINA RESULT:      -8.3      2.959      7.214
REMARK  Name = 
REMARK  6 active torsions:
REMARK  status: ('A' for Active; 'I' for Inactive)
REMARK    1  A    between atoms: C_6  and  C_10
REMARK    2  A    between atoms: C_14  and  O_18
REMARK    3  A    between atoms: N_17  and  N_20
REMARK    4  A    between atoms: N_20  and  C_23
REMARK    5  A    between atoms: C_23  and  C_26
REMARK    6  A    between atoms: C_23  and  C_27
REMARK                            x       y       z     vdW  Elec       q    Type
REMARK                         _______ _______ _______ _____ _____    ______ ____
ROOT
ATOM      1  C   UNL     1     -10.193  55.287  50.736  0.00  0.00    +0.000 A 
ATOM      2  C   UNL     1      -9.758  55.350  49.308  0.00  0.00    +0.000 A 
ATOM      3  C   UNL     1     -11.439  55.666  51.079  0.00  0.00    +0.000 A 
ATOM      4  O   UNL     1      -8.586  55.074  49.030  0.00  0.00    +0.000 OA
ATOM      5  N   UNL     1     -10.724  55.670  48.351  0.00  0.00    +0.000 N 
ATOM      6  C   UNL     1     -12.398  56.126  50.060  0.00  0.00    +0.000 A 
ATOM      7  C   UNL     1     -12.032  56.103  48.705  0.00  0.00    +0.000 A 
ATOM      8  C   UNL     1     -13.684  56.559  50.418  0.00  0.00    +0.000 A 
ATOM      9  C   UNL     1     -12.962  56.510  47.735  0.00  0.00    +0.000 A 
ATOM     10  C   UNL     1     -14.600  56.958  49.448  0.00  0.00    +0.000 A 
ATOM     11  C   UNL     1     -14.241  56.934  48.107  0.00  0.00    +0.000 A 
ENDROOT
BRANCH   1  17
ATOM     12  S   UNL     1      -7.014  54.805  52.996  0.00  0.00    +0.000 S 
ATOM     13  O   UNL     1      -6.976  55.771  54.076  0.00  0.00    +0.000 OA
ATOM     14  O   UNL     1      -5.807  54.472  52.268  0.00  0.00    +0.000 OA
ATOM     15  N   UNL     1      -8.114  55.319  51.925  0.00  0.00    +0.000 N 
ATOM     16  C   UNL     1      -7.589  53.308  53.701  0.00  0.00    +0.000 A 
ATOM     17  C   UNL     1      -9.249  54.702  51.771  0.00  0.00    +0.000 C 
ATOM     18  C   UNL     1      -8.854  52.866  53.349  0.00  0.00    +0.000 A 
ATOM     19  C   UNL     1      -6.769  52.599  54.583  0.00  0.00    +0.000 A 
ATOM     20  N   UNL     1      -9.661  53.589  52.473  0.00  0.00    +0.000 N 
ATOM     21  C   UNL     1      -9.340  51.710  53.968  0.00  0.00    +0.000 A 
ATOM     22  C   UNL     1      -7.249  51.427  55.160  0.00  0.00    +0.000 A 
ATOM     23  C   UNL     1      -8.541  50.990  54.862  0.00  0.00    +0.000 A 
ATOM     24  H   UNL     1      -7.919  56.114  51.377  0.00  0.00    +0.000 HD
ATOM     25  H   UNL     1     -10.588  53.285  52.347  0.00  0.00    +0.000 HD
ENDBRANCH   1  17
BRANCH   3  26
ATOM     26  O   UNL     1     -11.946  55.620  52.365  0.00  0.00    +0.000 OA
ATOM     27  H   UNL     1     -12.848  55.814  52.521  0.00  0.00    +0.000 HD
ENDBRANCH   3  26
BRANCH   5  28
ATOM     28  N   UNL     1     -10.371  55.636  46.966  0.00  0.00    +0.000 N 
ATOM     29  H   UNL     1     -10.130  56.439  46.451  0.00  0.00    +0.000 HD
BRANCH  28  30
ATOM     30  C   UNL     1     -10.403  54.279  46.382  0.00  0.00    +0.000 C 
ATOM     31  C   UNL     1     -11.574  54.061  45.424  0.00  0.00    +0.000 C 
ATOM     32  C   UNL     1      -9.084  54.046  45.643  0.00  0.00    +0.000 C 
ENDBRANCH  28  30
ENDBRANCH   5  28
TORSDOF 4
ENDMDL
MODEL 3
REMARK VINA RESULT:      -8.2      3.850      5.467
REMARK  Name = 
REMARK  6 active torsions:
REMARK  status: ('A' for Active; 'I' for Inactive)
REMARK    1  A    between atoms: C_6  and  C_10
REMARK    2  A    between atoms: C_14  and  O_18
REMARK    3  A    between atoms: N_17  and  N_20
REMARK    4  A    between atoms: N_20  and  C_23
REMARK    5  A    between atoms: C_23  and  C_26
REMARK    6  A    between atoms: C_23  and  C_27
REMARK                            x       y       z     vdW  Elec       q    Type
REMARK                         _______ _______ _______ _____ _____    ______ ____
ROOT
ATOM      1  C   UNL     1     -10.692  55.646  48.060  0.00  0.00    +0.000 A 
ATOM      2  C   UNL     1      -9.225  55.825  48.281  0.00  0.00    +0.000 A 
ATOM      3  C   UNL     1     -11.134  54.920  47.015  0.00  0.00    +0.000 A 
ATOM      4  O   UNL     1      -8.846  56.560  49.199  0.00  0.00    +0.000 OA
ATOM      5  N   UNL     1      -8.355  55.101  47.462  0.00  0.00    +0.000 N 
ATOM      6  C   UNL     1     -10.189  54.275  46.089  0.00  0.00    +0.000 A 
ATOM      7  C   UNL     1      -8.810  54.359  46.337  0.00  0.00    +0.000 A 
ATOM      8  C   UNL     1     -10.644  53.551  44.976  0.00  0.00    +0.000 A 
ATOM      9  C   UNL     1      -7.915  53.712  45.469  0.00  0.00    +0.000 A 
ATOM     10  C   UNL     1      -9.748  52.911  44.123  0.00  0.00    +0.000 A 
ATOM     11  C   UNL     1      -8.384  52.991  44.369  0.00  0.00    +0.000 A 
ENDROOT
BRANCH   1  17
ATOM     12  S   UNL     1     -13.004  55.895  51.229  0.00  0.00    +0.000 S 
ATOM     13  O   UNL     1     -12.230  56.085  52.439  0.00  0.00    +0.000 OA
ATOM     14  O   UNL     1     -14.135  54.991  51.216  0.00  0.00    +0.000 OA
ATOM     15  N   UNL     1     -11.979  55.423  50.068  0.00  0.00    +0.000 N 
ATOM     16  C   UNL     1     -13.634  57.472  50.799  0.00  0.00    +0.000 A 
ATOM     17  C   UNL     1     -11.666  56.209  49.079  0.00  0.00    +0.000 C 
ATOM     18  C   UNL     1     -13.124  58.092  49.670  0.00  0.00    +0.000 A 
ATOM     19  C   UNL     1     -14.627  58.059  51.589  0.00  0.00    +0.000 A 
ATOM     20  N   UNL     1     -12.129  57.495  48.898  0.00  0.00    +0.000 N 
ATOM     21  C   UNL     1     -13.575  59.381  49.370  0.00  0.00    +0.000 A 
ATOM     22  C   UNL     1     -15.096  59.325  51.255  0.00  0.00    +0.000 A 
ATOM     23  C   UNL     1     -14.560  59.992  50.152  0.00  0.00    +0.000 A 
ATOM     24  H   UNL     1     -11.585  54.521  50.110  0.00  0.00    +0.000 HD
ATOM     25  H   UNL     1     -11.729  58.029  48.175  0.00  0.00    +0.000 HD
ENDBRANCH   1  17
BRANCH   3  26
ATOM     26  O   UNL     1     -12.466  54.674  46.741  0.00  0.00    +0.000 OA
ATOM     27  H   UNL     1     -12.984  55.324  46.310  0.00  0.00    +0.000 HD
ENDBRANCH   3  26
BRANCH   5  28
ATOM     28  N   UNL     1      -6.949  55.164  47.712  0.00  0.00    +0.000 N 
ATOM     29  H   UNL     1      -6.341  55.766  47.225  0.00  0.00    +0.000 HD
BRANCH  28  30
ATOM     30  C   UNL     1      -6.496  54.237  48.770  0.00  0.00    +0.000 C 
ATOM     31  C   UNL     1      -5.582  53.127  48.251  0.00  0.00    +0.000 C 
ATOM     32  C   UNL     1      -5.759  55.052  49.835  0.00  0.00    +0.000 C 
ENDBRANCH  28  30
ENDBRANCH   5  28
TORSDOF 4
ENDMDL
MODEL 4
REMARK VINA RESULT:      -8.2      1.829      2.403
REMARK  Name = 
REMARK  6 active torsions:
REMARK  status: ('A' for Active; 'I' for Inactive)
REMARK    1  A    between atoms: C_6  and  C_10
REMARK    2  A    between atoms: C_14  and  O_18
REMARK    3  A    between atoms: N_17  and  N_20
REMARK    4  A    between atoms: N_20  and  C_23
REMARK    5  A    between atoms: C_23  and  C_26
REMARK    6  A    between atoms: C_23  and  C_27
REMARK                            x       y       z     vdW  Elec       q    Type
REMARK                         _______ _______ _______ _____ _____    ______ ____
ROOT
ATOM      1  C   UNL     1     -11.139  53.911  51.662  0.00  0.00    +0.000 A 
ATOM      2  C   UNL     1     -10.098  54.097  52.718  0.00  0.00    +0.000 A 
ATOM      3  C   UNL     1     -11.363  52.688  51.145  0.00  0.00    +0.000 A 
ATOM      4  O   UNL     1      -9.854  55.241  53.119  0.00  0.00    +0.000 OA
ATOM      5  N   UNL     1      -9.489  52.952  53.236  0.00  0.00    +0.000 N 
ATOM      6  C   UNL     1     -10.610  51.515  51.620  0.00  0.00    +0.000 A 
ATOM      7  C   UNL     1      -9.695  51.661  52.674  0.00  0.00    +0.000 A 
ATOM      8  C   UNL     1     -10.813  50.246  51.057  0.00  0.00    +0.000 A 
ATOM      9  C   UNL     1      -9.006  50.533  53.147  0.00  0.00    +0.000 A 
ATOM     10  C   UNL     1     -10.126  49.132  51.534  0.00  0.00    +0.000 A 
ATOM     11  C   UNL     1      -9.222  49.275  52.579  0.00  0.00    +0.000 A 
ENDROOT
BRANCH   1  17
ATOM     12  S   UNL     1     -12.798  56.691  49.434  0.00  0.00    +0.000 S 
ATOM     13  O   UNL     1     -13.831  56.143  48.579  0.00  0.00    +0.000 OA
ATOM     14  O   UNL     1     -11.871  57.681  48.923  0.00  0.00    +0.000 OA
ATOM     15  N   UNL     1     -11.931  55.448  50.006  0.00  0.00    +0.000 N 
ATOM     16  C   UNL     1     -13.628  57.448  50.779  0.00  0.00    +0.000 A 
ATOM     17  C   UNL     1     -11.999  55.094  51.256  0.00  0.00    +0.000 C 
ATOM     18  C   UNL     1     -13.521  56.856  52.027  0.00  0.00    +0.000 A 
ATOM     19  C   UNL     1     -14.364  58.618  50.567  0.00  0.00    +0.000 A 
ATOM     20  N   UNL     1     -12.788  55.687  52.218  0.00  0.00    +0.000 N 
ATOM     21  C   UNL     1     -14.243  57.420  53.084  0.00  0.00    +0.000 A 
ATOM     22  C   UNL     1     -15.044  59.191  51.637  0.00  0.00    +0.000 A 
ATOM     23  C   UNL     1     -14.994  58.584  52.893  0.00  0.00    +0.000 A 
ATOM     24  H   UNL     1     -11.340  54.952  49.395  0.00  0.00    +0.000 HD
ATOM     25  H   UNL     1     -12.839  55.254  53.100  0.00  0.00    +0.000 HD
ENDBRANCH   1  17
BRANCH   3  26
ATOM     26  O   UNL     1     -12.320  52.407  50.187  0.00  0.00    +0.000 OA
ATOM     27  H   UNL     1     -12.103  51.869  49.452  0.00  0.00    +0.000 HD
ENDBRANCH   3  26
BRANCH   5  28
ATOM     28  N   UNL     1      -8.566  53.082  54.320  0.00  0.00    +0.000 N 
ATOM     29  H   UNL     1      -8.817  52.941  55.262  0.00  0.00    +0.000 HD
BRANCH  28  30
ATOM     30  C   UNL     1      -7.201  53.451  53.892  0.00  0.00    +0.000 C 
ATOM     31  C   UNL     1      -6.732  54.794  54.453  0.00  0.00    +0.000 C 
ATOM     32  C   UNL     1      -6.245  52.344  54.342  0.00  0.00    +0.000 C 
ENDBRANCH  28  30
ENDBRANCH   5  28
TORSDOF 4
ENDMDL
MODEL 5
REMARK VINA RESULT:      -8.0      3.111      7.273
REMARK  Name = 
REMARK  6 active torsions:
REMARK  status: ('A' for Active; 'I' for Inactive)
REMARK    1  A    between atoms: C_6  and  C_10
REMARK    2  A    between atoms: C_14  and  O_18
REMARK    3  A    between atoms: N_17  and  N_20
REMARK    4  A    between atoms: N_20  and  C_23
REMARK    5  A    between atoms: C_23  and  C_26
REMARK    6  A    between atoms: C_23  and  C_27
REMARK                            x       y       z     vdW  Elec       q    Type
REMARK                         _______ _______ _______ _____ _____    ______ ____
ROOT
ATOM      1  C   UNL     1     -10.375  54.986  50.500  0.00  0.00    +0.000 A 
ATOM      2  C   UNL     1      -9.888  55.071  49.090  0.00  0.00    +0.000 A 
ATOM      3  C   UNL     1     -11.600  55.444  50.820  0.00  0.00    +0.000 A 
ATOM      4  O   UNL     1      -8.731  54.718  48.836  0.00  0.00    +0.000 OA
ATOM      5  N   UNL     1     -10.795  55.501  48.118  0.00  0.00    +0.000 N 
ATOM      6  C   UNL     1     -12.486  56.015  49.792  0.00  0.00    +0.000 A 
ATOM      7  C   UNL     1     -12.078  56.018  48.449  0.00  0.00    +0.000 A 
ATOM      8  C   UNL     1     -13.749  56.529  50.128  0.00  0.00    +0.000 A 
ATOM      9  C   UNL     1     -12.942  56.531  47.469  0.00  0.00    +0.000 A 
ATOM     10  C   UNL     1     -14.599  57.035  49.147  0.00  0.00    +0.000 A 
ATOM     11  C   UNL     1     -14.197  57.035  47.818  0.00  0.00    +0.000 A 
ENDROOT
BRANCH   1  17
ATOM     12  S   UNL     1      -9.113  52.277  53.053  0.00  0.00    +0.000 S 
ATOM     13  O   UNL     1      -8.540  51.132  52.375  0.00  0.00    +0.000 OA
ATOM     14  O   UNL     1      -9.973  52.093  54.204  0.00  0.00    +0.000 OA
ATOM     15  N   UNL     1      -9.936  53.131  51.950  0.00  0.00    +0.000 N 
ATOM     16  C   UNL     1      -7.761  53.246  53.604  0.00  0.00    +0.000 A 
ATOM     17  C   UNL     1      -9.512  54.290  51.538  0.00  0.00    +0.000 C 
ATOM     18  C   UNL     1      -7.541  54.467  52.987  0.00  0.00    +0.000 A 
ATOM     19  C   UNL     1      -6.951  52.776  54.641  0.00  0.00    +0.000 A 
ATOM     20  N   UNL     1      -8.355  54.916  51.949  0.00  0.00    +0.000 N 
ATOM     21  C   UNL     1      -6.419  55.205  53.377  0.00  0.00    +0.000 A 
ATOM     22  C   UNL     1      -5.861  53.541  55.048  0.00  0.00    +0.000 A 
ATOM     23  C   UNL     1      -5.588  54.750  54.406  0.00  0.00    +0.000 A 
ATOM     24  H   UNL     1     -10.774  52.766  51.586  0.00  0.00    +0.000 HD
ATOM     25  H   UNL     1      -8.085  55.737  51.478  0.00  0.00    +0.000 HD
ENDBRANCH   1  17
BRANCH   3  26
ATOM     26  O   UNL     1     -12.152  55.385  52.086  0.00  0.00    +0.000 OA
ATOM     27  H   UNL     1     -12.529  56.152  52.469  0.00  0.00    +0.000 HD
ENDBRANCH   3  26
BRANCH   5  28
ATOM     28  N   UNL     1     -10.398  55.495  46.744  0.00  0.00    +0.000 N 
ATOM     29  H   UNL     1     -10.153  56.310  46.250  0.00  0.00    +0.000 HD
BRANCH  28  30
ATOM     30  C   UNL     1     -10.393  54.147  46.137  0.00  0.00    +0.000 C 
ATOM     31  C   UNL     1     -11.590  53.892  45.220  0.00  0.00    +0.000 C 
ATOM     32  C   UNL     1      -9.095  53.986  45.344  0.00  0.00    +0.000 C 
ENDBRANCH  28  30
ENDBRANCH   5  28
TORSDOF 4
ENDMDL
MODEL 6
REMARK VINA RESULT:      -7.9      3.782      4.879
REMARK  Name = 
REMARK  6 active torsions:
REMARK  status: ('A' for Active; 'I' for Inactive)
REMARK    1  A    between atoms: C_6  and  C_10
REMARK    2  A    between atoms: C_14  and  O_18
REMARK    3  A    between atoms: N_17  and  N_20
REMARK    4  A    between atoms: N_20  and  C_23
REMARK    5  A    between atoms: C_23  and  C_26
REMARK    6  A    between atoms: C_23  and  C_27
REMARK                            x       y       z     vdW  Elec       q    Type
REMARK                         _______ _______ _______ _____ _____    ______ ____
ROOT
ATOM      1  C   UNL     1     -12.325  54.300  49.810  0.00  0.00    +0.000 A 
ATOM      2  C   UNL     1     -11.796  54.148  48.420  0.00  0.00    +0.000 A 
ATOM      3  C   UNL     1     -11.964  53.426  50.769  0.00  0.00    +0.000 A 
ATOM      4  O   UNL     1     -12.204  54.913  47.540  0.00  0.00    +0.000 OA
ATOM      5  N   UNL     1     -10.821  53.171  48.203  0.00  0.00    +0.000 N 
ATOM      6  C   UNL     1     -11.032  52.324  50.476  0.00  0.00    +0.000 A 
ATOM      7  C   UNL     1     -10.458  52.223  49.200  0.00  0.00    +0.000 A 
ATOM      8  C   UNL     1     -10.684  51.388  51.463  0.00  0.00    +0.000 A 
ATOM      9  C   UNL     1      -9.543  51.191  48.937  0.00  0.00    +0.000 A 
ATOM     10  C   UNL     1      -9.775  50.369  51.193  0.00  0.00    +0.000 A 
ATOM     11  C   UNL     1      -9.203  50.269  49.931  0.00  0.00    +0.000 A 
ENDROOT
BRANCH   1  17
ATOM     12  S   UNL     1     -15.324  56.440  51.178  0.00  0.00    +0.000 S 
ATOM     13  O   UNL     1     -15.277  56.562  52.621  0.00  0.00    +0.000 OA
ATOM     14  O   UNL     1     -16.584  56.204  50.502  0.00  0.00    +0.000 OA
ATOM     15  N   UNL     1     -14.307  55.252  50.758  0.00  0.00    +0.000 N 
ATOM     16  C   UNL     1     -14.702  57.948  50.539  0.00  0.00    +0.000 A 
ATOM     17  C   UNL     1     -13.189  55.503  50.143  0.00  0.00    +0.000 C 
ATOM     18  C   UNL     1     -13.468  57.929  49.908  0.00  0.00    +0.000 A 
ATOM     19  C   UNL     1     -15.455  59.118  50.672  0.00  0.00    +0.000 A 
ATOM     20  N   UNL     1     -12.729  56.754  49.792  0.00  0.00    +0.000 N 
ATOM     21  C   UNL     1     -12.941  59.146  49.465  0.00  0.00    +0.000 A 
ATOM     22  C   UNL     1     -14.935  60.315  50.188  0.00  0.00    +0.000 A 
ATOM     23  C   UNL     1     -13.672  60.330  49.596  0.00  0.00    +0.000 A 
ATOM     24  H   UNL     1     -14.541  54.319  50.973  0.00  0.00    +0.000 HD
ATOM     25  H   UNL     1     -11.815  56.823  49.433  0.00  0.00    +0.000 HD
ENDBRANCH   1  17
BRANCH   3  26
ATOM     26  O   UNL     1     -12.375  53.497  52.087  0.00  0.00    +0.000 OA
ATOM     27  H   UNL     1     -12.051  54.177  52.643  0.00  0.00    +0.000 HD
ENDBRANCH   3  26
BRANCH   5  28
ATOM     28  N   UNL     1     -10.215  53.067  46.912  0.00  0.00    +0.000 N 
ATOM     29  H   UNL     1      -9.323  53.426  46.704  0.00  0.00    +0.000 HD
BRANCH  28  30
ATOM     30  C   UNL     1     -11.058  52.368  45.920  0.00  0.00    +0.000 C 
ATOM     31  C   UNL     1     -11.367  53.214  44.685  0.00  0.00    +0.000 C 
ATOM     32  C   UNL     1     -10.335  51.087  45.497  0.00  0.00    +0.000 C 
ENDBRANCH  28  30
ENDBRANCH   5  28
TORSDOF 4
ENDMDL
MODEL 7
REMARK VINA RESULT:      -7.8      1.208      3.289
REMARK  Name = 
REMARK  6 active torsions:
REMARK  status: ('A' for Active; 'I' for Inactive)
REMARK    1  A    between atoms: C_6  and  C_10
REMARK    2  A    between atoms: C_14  and  O_18
REMARK    3  A    between atoms: N_17  and  N_20
REMARK    4  A    between atoms: N_20  and  C_23
REMARK    5  A    between atoms: C_23  and  C_26
REMARK    6  A    between atoms: C_23  and  C_27
REMARK                            x       y       z     vdW  Elec       q    Type
REMARK                         _______ _______ _______ _____ _____    ______ ____
ROOT
ATOM      1  C   UNL     1      -9.325  54.627  51.912  0.00  0.00    +0.000 A 
ATOM      2  C   UNL     1      -9.374  53.795  53.152  0.00  0.00    +0.000 A 
ATOM      3  C   UNL     1      -8.141  54.906  51.333  0.00  0.00    +0.000 A 
ATOM      4  O   UNL     1     -10.463  53.619  53.709  0.00  0.00    +0.000 OA
ATOM      5  N   UNL     1      -8.181  53.212  53.587  0.00  0.00    +0.000 N 
ATOM      6  C   UNL     1      -6.884  54.384  51.892  0.00  0.00    +0.000 A 
ATOM      7  C   UNL     1      -6.923  53.527  53.003  0.00  0.00    +0.000 A 
ATOM      8  C   UNL     1      -5.645  54.705  51.315  0.00  0.00    +0.000 A 
ATOM      9  C   UNL     1      -5.722  53.004  53.510  0.00  0.00    +0.000 A 
ATOM     10  C   UNL     1      -4.460  54.180  51.825  0.00  0.00    +0.000 A 
ATOM     11  C   UNL     1      -4.498  53.329  52.922  0.00  0.00    +0.000 A 
ENDROOT
BRANCH   1  17
ATOM     12  S   UNL     1     -12.067  55.265  49.169  0.00  0.00    +0.000 S 
ATOM     13  O   UNL     1     -12.749  54.041  48.802  0.00  0.00    +0.000 OA
ATOM     14  O   UNL     1     -11.685  56.225  48.153  0.00  0.00    +0.000 OA
ATOM     15  N   UNL     1     -10.732  54.851  49.987  0.00  0.00    +0.000 N 
ATOM     16  C   UNL     1     -13.141  56.113  50.263  0.00  0.00    +0.000 A 
ATOM     17  C   UNL     1     -10.627  55.066  51.265  0.00  0.00    +0.000 C 
ATOM     18  C   UNL     1     -12.773  56.206  51.596  0.00  0.00    +0.000 A 
ATOM     19  C   UNL     1     -14.324  56.675  49.774  0.00  0.00    +0.000 A 
ATOM     20  N   UNL     1     -11.593  55.635  52.066  0.00  0.00    +0.000 N 
ATOM     21  C   UNL     1     -13.666  56.819  52.480  0.00  0.00    +0.000 A 
ATOM     22  C   UNL     1     -15.184  57.318  50.659  0.00  0.00    +0.000 A 
ATOM     23  C   UNL     1     -14.860  57.378  52.015  0.00  0.00    +0.000 A 
ATOM     24  H   UNL     1      -9.984  54.428  49.505  0.00  0.00    +0.000 HD
ATOM     25  H   UNL     1     -11.440  55.638  53.039  0.00  0.00    +0.000 HD
ENDBRANCH   1  17
BRANCH   3  26
ATOM     26  O   UNL     1      -7.993  55.641  50.171  0.00  0.00    +0.000 OA
ATOM     27  H   UNL     1      -8.155  56.564  50.177  0.00  0.00    +0.000 HD
ENDBRANCH   3  26
BRANCH   5  28
ATOM     28  N   UNL     1      -8.208  52.324  54.708  0.00  0.00    +0.000 N 
ATOM     29  H   UNL     1      -7.747  52.514  55.557  0.00  0.00    +0.000 HD
BRANCH  28  30
ATOM     30  C   UNL     1      -8.991  51.095  54.468  0.00  0.00    +0.000 C 
ATOM     31  C   UNL     1      -8.499  50.289  53.265  0.00  0.00    +0.000 C 
ATOM     32  C   UNL     1      -8.920  50.230  55.728  0.00  0.00    +0.000 C 
ENDBRANCH  28  30
ENDBRANCH   5  28
TORSDOF 4
ENDMDL
MODEL 8
REMARK VINA RESULT:      -7.8      2.530      7.674
REMARK  Name = 
REMARK  6 active torsions:
REMARK  status: ('A' for Active; 'I' for Inactive)
REMARK    1  A    between atoms: C_6  and  C_10
REMARK    2  A    between atoms: C_14  and  O_18
REMARK    3  A    between atoms: N_17  and  N_20
REMARK    4  A    between atoms: N_20  and  C_23
REMARK    5  A    between atoms: C_23  and  C_26
REMARK    6  A    between atoms: C_23  and  C_27
REMARK                            x       y       z     vdW  Elec       q    Type
REMARK                         _______ _______ _______ _____ _____    ______ ____
ROOT
ATOM      1  C   UNL     1     -10.368  54.958  50.873  0.00  0.00    +0.000 A 
ATOM      2  C   UNL     1     -11.691  55.386  51.421  0.00  0.00    +0.000 A 
ATOM      3  C   UNL     1     -10.140  55.010  49.547  0.00  0.00    +0.000 A 
ATOM      4  O   UNL     1     -11.905  55.254  52.632  0.00  0.00    +0.000 OA
ATOM      5  N   UNL     1     -12.602  55.966  50.535  0.00  0.00    +0.000 N 
ATOM      6  C   UNL     1     -11.171  55.505  48.620  0.00  0.00    +0.000 A 
ATOM      7  C   UNL     1     -12.383  55.994  49.130  0.00  0.00    +0.000 A 
ATOM      8  C   UNL     1     -10.951  55.523  47.233  0.00  0.00    +0.000 A 
ATOM      9  C   UNL     1     -13.349  56.498  48.244  0.00  0.00    +0.000 A 
ATOM     10  C   UNL     1     -11.915  56.026  46.363  0.00  0.00    +0.000 A 
ATOM     11  C   UNL     1     -13.114  56.514  46.867  0.00  0.00    +0.000 A 
ENDROOT
BRANCH   1  17
ATOM     12  S   UNL     1      -6.948  55.010  52.808  0.00  0.00    +0.000 S 
ATOM     13  O   UNL     1      -6.923  56.048  53.818  0.00  0.00    +0.000 OA
ATOM     14  O   UNL     1      -5.787  54.767  51.977  0.00  0.00    +0.000 OA
ATOM     15  N   UNL     1      -8.203  55.315  51.831  0.00  0.00    +0.000 N 
ATOM     16  C   UNL     1      -7.264  53.510  53.657  0.00  0.00    +0.000 A 
ATOM     17  C   UNL     1      -9.263  54.561  51.835  0.00  0.00    +0.000 C 
ATOM     18  C   UNL     1      -8.494  52.901  53.468  0.00  0.00    +0.000 A 
ATOM     19  C   UNL     1      -6.280  52.966  54.488  0.00  0.00    +0.000 A 
ATOM     20  N   UNL     1      -9.464  53.462  52.641  0.00  0.00    +0.000 N 
ATOM     21  C   UNL     1      -8.771  51.744  54.203  0.00  0.00    +0.000 A 
ATOM     22  C   UNL     1      -6.555  51.791  55.182  0.00  0.00    +0.000 A 
ATOM     23  C   UNL     1      -7.807  51.187  55.049  0.00  0.00    +0.000 A 
ATOM     24  H   UNL     1      -8.161  56.086  51.219  0.00  0.00    +0.000 HD
ATOM     25  H   UNL     1     -10.355  53.043  52.633  0.00  0.00    +0.000 HD
ENDBRANCH   1  17
BRANCH   3  26
ATOM     26  O   UNL     1      -8.944  54.664  48.945  0.00  0.00    +0.000 OA
ATOM     27  H   UNL     1      -8.830  54.786  48.023  0.00  0.00    +0.000 HD
ENDBRANCH   3  26
BRANCH   5  28
ATOM     28  N   UNL     1     -13.834  56.483  51.043  0.00  0.00    +0.000 N 
ATOM     29  H   UNL     1     -14.681  55.982  51.017  0.00  0.00    +0.000 HD
BRANCH  28  30
ATOM     30  C   UNL     1     -13.715  57.844  51.608  0.00  0.00    +0.000 C 
ATOM     31  C   UNL     1     -14.466  58.903  50.800  0.00  0.00    +0.000 C 
ATOM     32  C   UNL     1     -14.252  57.814  53.040  0.00  0.00    +0.000 C 
ENDBRANCH  28  30
ENDBRANCH   5  28
TORSDOF 4
ENDMDL
MODEL 9
REMARK VINA RESULT:      -7.4      2.347      3.272
REMARK  Name = 
REMARK  6 active torsions:
REMARK  status: ('A' for Active; 'I' for Inactive)
REMARK    1  A    between atoms: C_6  and  C_10
REMARK    2  A    between atoms: C_14  and  O_18
REMARK    3  A    between atoms: N_17  and  N_20
REMARK    4  A    between atoms: N_20  and  C_23
REMARK    5  A    between atoms: C_23  and  C_26
REMARK    6  A    between atoms: C_23  and  C_27
REMARK                            x       y       z     vdW  Elec       q    Type
REMARK                         _______ _______ _______ _____ _____    ______ ____
ROOT
ATOM      1  C   UNL     1     -11.762  53.921  50.934  0.00  0.00    +0.000 A 
ATOM      2  C   UNL     1     -10.906  53.816  52.154  0.00  0.00    +0.000 A 
ATOM      3  C   UNL     1     -11.876  52.871  50.099  0.00  0.00    +0.000 A 
ATOM      4  O   UNL     1     -10.753  54.818  52.862  0.00  0.00    +0.000 OA
ATOM      5  N   UNL     1     -10.364  52.566  52.459  0.00  0.00    +0.000 N 
ATOM      6  C   UNL     1     -11.184  51.602  50.379  0.00  0.00    +0.000 A 
ATOM      7  C   UNL     1     -10.451  51.461  51.567  0.00  0.00    +0.000 A 
ATOM      8  C   UNL     1     -11.269  50.518  49.491  0.00  0.00    +0.000 A 
ATOM      9  C   UNL     1      -9.823  50.236  51.846  0.00  0.00    +0.000 A 
ATOM     10  C   UNL     1     -10.644  49.307  49.777  0.00  0.00    +0.000 A 
ATOM     11  C   UNL     1      -9.921  49.165  50.954  0.00  0.00    +0.000 A 
ENDROOT
BRANCH   1  17
ATOM     12  S   UNL     1     -13.503  56.919  49.082  0.00  0.00    +0.000 S 
ATOM     13  O   UNL     1     -14.699  56.492  48.385  0.00  0.00    +0.000 OA
ATOM     14  O   UNL     1     -12.586  57.852  48.462  0.00  0.00    +0.000 OA
ATOM     15  N   UNL     1     -12.668  55.587  49.472  0.00  0.00    +0.000 N 
ATOM     16  C   UNL     1     -14.047  57.680  50.564  0.00  0.00    +0.000 A 
ATOM     17  C   UNL     1     -12.570  55.185  50.705  0.00  0.00    +0.000 C 
ATOM     18  C   UNL     1     -13.798  57.028  51.761  0.00  0.00    +0.000 A 
ATOM     19  C   UNL     1     -14.704  58.913  50.507  0.00  0.00    +0.000 A 
ATOM     20  N   UNL     1     -13.148  55.796  51.797  0.00  0.00    +0.000 N 
ATOM     21  C   UNL     1     -14.297  57.601  52.935  0.00  0.00    +0.000 A 
ATOM     22  C   UNL     1     -15.159  59.491  51.688  0.00  0.00    +0.000 A 
ATOM     23  C   UNL     1     -14.967  58.828  52.901  0.00  0.00    +0.000 A 
ATOM     24  H   UNL     1     -12.223  55.072  48.760  0.00  0.00    +0.000 HD
ATOM     25  H   UNL     1     -13.098  55.331  52.663  0.00  0.00    +0.000 HD
ENDBRANCH   1  17
BRANCH   3  26
ATOM     26  O   UNL     1     -12.663  52.858  48.961  0.00  0.00    +0.000 OA
ATOM     27  H   UNL     1     -12.267  52.753  48.119  0.00  0.00    +0.000 HD
ENDBRANCH   3  26
BRANCH   5  28
ATOM     28  N   UNL     1      -9.628  52.402  53.674  0.00  0.00    +0.000 N 
ATOM     29  H   UNL     1     -10.045  52.141  54.527  0.00  0.00    +0.000 HD
BRANCH  28  30
ATOM     30  C   UNL     1      -8.181  52.664  53.528  0.00  0.00    +0.000 C 
ATOM     31  C   UNL     1      -7.727  53.953  54.215  0.00  0.00    +0.000 C 
ATOM     32  C   UNL     1      -7.419  51.474  54.112  0.00  0.00    +0.000 C 
ENDBRANCH  28  30
ENDBRANCH   5  28
TORSDOF 4
ENDMDL
