MODEL 1
REMARK VINA RESULT:      -8.0      0.000      0.000
REMARK  Name = 
REMARK  8 active torsions:
REMARK  status: ('A' for Active; 'I' for Inactive)
REMARK    1  A    between atoms: C_6  and  C_10
REMARK    2  A    between atoms: C_14  and  O_18
REMARK    3  A    between atoms: N_17  and  N_20
REMARK    4  A    between atoms: N_20  and  C_23
REMARK    5  A    between atoms: C_23  and  C_26
REMARK    6  A    between atoms: C_26  and  C_28
REMARK    7  A    between atoms: C_28  and  C_29
REMARK    8  A    between atoms: C_28  and  C_30
REMARK                            x       y       z     vdW  Elec       q    Type
REMARK                         _______ _______ _______ _____ _____    ______ ____
ROOT
ATOM      1  C   UNL     1     -10.103  54.522  52.229  0.00  0.00    +0.000 A 
ATOM      2  C   UNL     1      -8.739  55.097  52.058  0.00  0.00    +0.000 A 
ATOM      3  C   UNL     1     -10.286  53.411  52.962  0.00  0.00    +0.000 A 
ATOM      4  O   UNL     1      -8.628  56.086  51.327  0.00  0.00    +0.000 OA
ATOM      5  N   UNL     1      -7.680  54.507  52.758  0.00  0.00    +0.000 N 
ATOM      6  C   UNL     1      -9.153  52.776  53.654  0.00  0.00    +0.000 A 
ATOM      7  C   UNL     1      -7.865  53.331  53.546  0.00  0.00    +0.000 A 
ATOM      8  C   UNL     1      -9.346  51.628  54.444  0.00  0.00    +0.000 A 
ATOM      9  C   UNL     1      -6.796  52.717  54.217  0.00  0.00    +0.000 A 
ATOM     10  C   UNL     1      -8.281  51.037  55.119  0.00  0.00    +0.000 A 
ATOM     11  C   UNL     1      -7.006  51.580  55.003  0.00  0.00    +0.000 A 
ENDROOT
BRANCH   1  17
ATOM     12  S   UNL     1     -12.516  56.043  49.531  0.00  0.00    +0.000 S 
ATOM     13  O   UNL     1     -13.413  55.058  48.962  0.00  0.00    +0.000 OA
ATOM     14  O   UNL     1     -11.893  57.041  48.682  0.00  0.00    +0.000 OA
ATOM     15  N   UNL     1     -11.342  55.249  50.311  0.00  0.00    +0.000 N 
ATOM     16  C   UNL     1     -13.463  56.937  50.708  0.00  0.00    +0.000 A 
ATOM     17  C   UNL     1     -11.277  55.255  51.610  0.00  0.00    +0.000 C 
ATOM     18  C   UNL     1     -13.170  56.753  52.050  0.00  0.00    +0.000 A 
ATOM     19  C   UNL     1     -14.467  57.811  50.283  0.00  0.00    +0.000 A 
ATOM     20  N   UNL     1     -12.174  55.869  52.460  0.00  0.00    +0.000 N 
ATOM     21  C   UNL     1     -13.961  57.415  52.995  0.00  0.00    +0.000 A 
ATOM     22  C   UNL     1     -15.222  58.492  51.233  0.00  0.00    +0.000 A 
ATOM     23  C   UNL     1     -14.976  58.287  52.591  0.00  0.00    +0.000 A 
ATOM     24  H   UNL     1     -10.668  54.752  49.793  0.00  0.00    +0.000 HD
ATOM     25  H   UNL     1     -12.107  55.668  53.421  0.00  0.00    +0.000 HD
ENDBRANCH   1  17
BRANCH   3  26
ATOM     26  O   UNL     1     -11.512  52.802  53.159  0.00  0.00    +0.000 OA
ATOM     27  H   UNL     1     -12.240  53.304  53.469  0.00  0.00    +0.000 HD
ENDBRANCH   3  26
BRANCH   5  28
ATOM     28  N   UNL     1      -6.348  55.051  52.646  0.00  0.00    +0.000 N 
ATOM     29  H   UNL     1      -5.979  55.720  53.268  0.00  0.00    +0.000 HD
BRANCH  28  30
ATOM     30  C   UNL     1      -5.599  54.501  51.506  0.00  0.00    +0.000 C 
BRANCH  30  31
ATOM     31  C   UNL     1      -4.188  54.050  51.889  0.00  0.00    +0.000 C 
BRANCH  31  32
ATOM     32  C   UNL     1      -3.952  52.561  51.539  0.00  0.00    +0.000 C 
ATOM     33  C   UNL     1      -3.470  51.745  52.741  0.00  0.00    +0.000 C 
ATOM     34  C   UNL     1      -5.227  51.940  50.966  0.00  0.00    +0.000 C 
ENDBRANCH  31  32
ENDBRANCH  30  31
ENDBRANCH  28  30
ENDBRANCH   5  28
TORSDOF 6
ENDMDL
MODEL 2
REMARK VINA RESULT:      -7.8      1.884      2.382
REMARK  Name = 
REMARK  8 active torsions:
REMARK  status: ('A' for Active; 'I' for Inactive)
REMARK    1  A    between atoms: C_6  and  C_10
REMARK    2  A    between atoms: C_14  and  O_18
REMARK    3  A    between atoms: N_17  and  N_20
REMARK    4  A    between atoms: N_20  and  C_23
REMARK    5  A    between atoms: C_23  and  C_26
REMARK    6  A    between atoms: C_26  and  C_28
REMARK    7  A    between atoms: C_28  and  C_29
REMARK    8  A    between atoms: C_28  and  C_30
REMARK                            x       y       z     vdW  Elec       q    Type
REMARK                         _______ _______ _______ _____ _____    ______ ____
ROOT
ATOM      1  C   UNL     1     -11.129  54.662  50.961  0.00  0.00    +0.000 A 
ATOM      2  C   UNL     1      -9.730  55.074  50.653  0.00  0.00    +0.000 A 
ATOM      3  C   UNL     1     -11.393  53.417  51.390  0.00  0.00    +0.000 A 
ATOM      4  O   UNL     1      -9.559  56.214  50.210  0.00  0.00    +0.000 OA
ATOM      5  N   UNL     1      -8.700  54.164  50.916  0.00  0.00    +0.000 N 
ATOM      6  C   UNL     1     -10.301  52.457  51.617  0.00  0.00    +0.000 A 
ATOM      7  C   UNL     1      -8.969  52.841  51.379  0.00  0.00    +0.000 A 
ATOM      8  C   UNL     1     -10.572  51.160  52.092  0.00  0.00    +0.000 A 
ATOM      9  C   UNL     1      -7.938  51.915  51.607  0.00  0.00    +0.000 A 
ATOM     10  C   UNL     1      -9.540  50.256  52.330  0.00  0.00    +0.000 A 
ATOM     11  C   UNL     1      -8.224  50.633  52.085  0.00  0.00    +0.000 A 
ENDROOT
BRANCH   1  17
ATOM     12  S   UNL     1     -13.578  57.298  49.388  0.00  0.00    +0.000 S 
ATOM     13  O   UNL     1     -14.701  56.684  48.710  0.00  0.00    +0.000 OA
ATOM     14  O   UNL     1     -12.909  58.446  48.804  0.00  0.00    +0.000 OA
ATOM     15  N   UNL     1     -12.467  56.150  49.641  0.00  0.00    +0.000 N 
ATOM     16  C   UNL     1     -14.188  57.837  50.943  0.00  0.00    +0.000 A 
ATOM     17  C   UNL     1     -12.228  55.699  50.838  0.00  0.00    +0.000 C 
ATOM     18  C   UNL     1     -13.755  57.168  52.077  0.00  0.00    +0.000 A 
ATOM     19  C   UNL     1     -15.071  58.917  51.013  0.00  0.00    +0.000 A 
ATOM     20  N   UNL     1     -12.883  56.085  51.990  0.00  0.00    +0.000 N 
ATOM     21  C   UNL     1     -14.285  57.552  53.313  0.00  0.00    +0.000 A 
ATOM     22  C   UNL     1     -15.562  59.314  52.254  0.00  0.00    +0.000 A 
ATOM     23  C   UNL     1     -15.177  58.625  53.404  0.00  0.00    +0.000 A 
ATOM     24  H   UNL     1     -11.966  55.785  48.877  0.00  0.00    +0.000 HD
ATOM     25  H   UNL     1     -12.724  55.558  52.806  0.00  0.00    +0.000 HD
ENDBRANCH   1  17
BRANCH   3  26
ATOM     26  O   UNL     1     -12.660  52.947  51.683  0.00  0.00    +0.000 OA
ATOM     27  H   UNL     1     -13.409  53.333  51.272  0.00  0.00    +0.000 HD
ENDBRANCH   3  26
BRANCH   5  28
ATOM     28  N   UNL     1      -7.328  54.533  50.662  0.00  0.00    +0.000 N 
ATOM     29  H   UNL     1      -6.820  54.230  49.875  0.00  0.00    +0.000 HD
BRANCH  28  30
ATOM     30  C   UNL     1      -6.769  55.410  51.703  0.00  0.00    +0.000 C 
BRANCH  30  31
ATOM     31  C   UNL     1      -5.854  54.663  52.675  0.00  0.00    +0.000 C 
BRANCH  31  32
ATOM     32  C   UNL     1      -6.388  54.731  54.126  0.00  0.00    +0.000 C 
ATOM     33  C   UNL     1      -7.777  55.369  54.210  0.00  0.00    +0.000 C 
ATOM     34  C   UNL     1      -6.417  53.335  54.750  0.00  0.00    +0.000 C 
ENDBRANCH  31  32
ENDBRANCH  30  31
ENDBRANCH  28  30
ENDBRANCH   5  28
TORSDOF 6
ENDMDL
MODEL 3
REMARK VINA RESULT:      -7.8      3.829      5.345
REMARK  Name = 
REMARK  8 active torsions:
REMARK  status: ('A' for Active; 'I' for Inactive)
REMARK    1  A    between atoms: C_6  and  C_10
REMARK    2  A    between atoms: C_14  and  O_18
REMARK    3  A    between atoms: N_17  and  N_20
REMARK    4  A    between atoms: N_20  and  C_23
REMARK    5  A    between atoms: C_23  and  C_26
REMARK    6  A    between atoms: C_26  and  C_28
REMARK    7  A    between atoms: C_28  and  C_29
REMARK    8  A    between atoms: C_28  and  C_30
REMARK                            x       y       z     vdW  Elec       q    Type
REMARK                         _______ _______ _______ _____ _____    ______ ____
ROOT
ATOM      1  C   UNL     1     -10.694  55.620  48.084  0.00  0.00    +0.000 A 
ATOM      2  C   UNL     1      -9.226  55.761  48.304  0.00  0.00    +0.000 A 
ATOM      3  C   UNL     1     -11.161  54.944  47.022  0.00  0.00    +0.000 A 
ATOM      4  O   UNL     1      -8.859  56.441  49.267  0.00  0.00    +0.000 OA
ATOM      5  N   UNL     1      -8.360  55.090  47.433  0.00  0.00    +0.000 N 
ATOM      6  C   UNL     1     -10.234  54.282  46.089  0.00  0.00    +0.000 A 
ATOM      7  C   UNL     1      -8.846  54.362  46.306  0.00  0.00    +0.000 A 
ATOM      8  C   UNL     1     -10.721  53.550  44.990  0.00  0.00    +0.000 A 
ATOM      9  C   UNL     1      -7.976  53.720  45.411  0.00  0.00    +0.000 A 
ATOM     10  C   UNL     1      -9.848  52.904  44.119  0.00  0.00    +0.000 A 
ATOM     11  C   UNL     1      -8.476  52.991  44.327  0.00  0.00    +0.000 A 
ENDROOT
BRANCH   1  17
ATOM     12  S   UNL     1     -13.012  55.909  51.240  0.00  0.00    +0.000 S 
ATOM     13  O   UNL     1     -12.266  56.105  52.466  0.00  0.00    +0.000 OA
ATOM     14  O   UNL     1     -14.154  55.014  51.214  0.00  0.00    +0.000 OA
ATOM     15  N   UNL     1     -11.970  55.421  50.103  0.00  0.00    +0.000 N 
ATOM     16  C   UNL     1     -13.629  57.489  50.791  0.00  0.00    +0.000 A 
ATOM     17  C   UNL     1     -11.636  56.203  49.119  0.00  0.00    +0.000 C 
ATOM     18  C   UNL     1     -13.086  58.103  49.673  0.00  0.00    +0.000 A 
ATOM     19  C   UNL     1     -14.645  58.085  51.542  0.00  0.00    +0.000 A 
ATOM     20  N   UNL     1     -12.065  57.502  48.941  0.00  0.00    +0.000 N 
ATOM     21  C   UNL     1     -13.530  59.389  49.346  0.00  0.00    +0.000 A 
ATOM     22  C   UNL     1     -15.104  59.349  51.183  0.00  0.00    +0.000 A 
ATOM     23  C   UNL     1     -14.540  60.006  50.090  0.00  0.00    +0.000 A 
ATOM     24  H   UNL     1     -11.582  54.517  50.158  0.00  0.00    +0.000 HD
ATOM     25  H   UNL     1     -11.618  58.042  48.249  0.00  0.00    +0.000 HD
ENDBRANCH   1  17
BRANCH   3  26
ATOM     26  O   UNL     1     -12.503  54.778  46.733  0.00  0.00    +0.000 OA
ATOM     27  H   UNL     1     -12.960  54.022  47.046  0.00  0.00    +0.000 HD
ENDBRANCH   3  26
BRANCH   5  28
ATOM     28  N   UNL     1      -6.932  55.173  47.628  0.00  0.00    +0.000 N 
ATOM     29  H   UNL     1      -6.343  55.755  47.095  0.00  0.00    +0.000 HD
BRANCH  28  30
ATOM     30  C   UNL     1      -6.450  54.298  48.707  0.00  0.00    +0.000 C 
BRANCH  30  31
ATOM     31  C   UNL     1      -5.623  55.050  49.752  0.00  0.00    +0.000 C 
BRANCH  31  32
ATOM     32  C   UNL     1      -6.036  54.662  51.192  0.00  0.00    +0.000 C 
ATOM     33  C   UNL     1      -7.314  53.820  51.230  0.00  0.00    +0.000 C 
ATOM     34  C   UNL     1      -4.899  53.913  51.889  0.00  0.00    +0.000 C 
ENDBRANCH  31  32
ENDBRANCH  30  31
ENDBRANCH  28  30
ENDBRANCH   5  28
TORSDOF 6
ENDMDL
MODEL 4
REMARK VINA RESULT:      -7.7      3.714      4.701
REMARK  Name = 
REMARK  8 active torsions:
REMARK  status: ('A' for Active; 'I' for Inactive)
REMARK    1  A    between atoms: C_6  and  C_10
REMARK    2  A    between atoms: C_14  and  O_18
REMARK    3  A    between atoms: N_17  and  N_20
REMARK    4  A    between atoms: N_20  and  C_23
REMARK    5  A    between atoms: C_23  and  C_26
REMARK    6  A    between atoms: C_26  and  C_28
REMARK    7  A    between atoms: C_28  and  C_29
REMARK    8  A    between atoms: C_28  and  C_30
REMARK                            x       y       z     vdW  Elec       q    Type
REMARK                         _______ _______ _______ _____ _____    ______ ____
ROOT
ATOM      1  C   UNL     1     -12.416  54.284  49.814  0.00  0.00    +0.000 A 
ATOM      2  C   UNL     1     -11.994  54.133  48.392  0.00  0.00    +0.000 A 
ATOM      3  C   UNL     1     -12.023  53.393  50.738  0.00  0.00    +0.000 A 
ATOM      4  O   UNL     1     -12.434  54.952  47.579  0.00  0.00    +0.000 OA
ATOM      5  N   UNL     1     -11.105  53.100  48.072  0.00  0.00    +0.000 N 
ATOM      6  C   UNL     1     -11.124  52.285  50.375  0.00  0.00    +0.000 A 
ATOM      7  C   UNL     1     -10.675  52.153  49.049  0.00  0.00    +0.000 A 
ATOM      8  C   UNL     1     -10.688  51.366  51.347  0.00  0.00    +0.000 A 
ATOM      9  C   UNL     1      -9.813  51.095  48.720  0.00  0.00    +0.000 A 
ATOM     10  C   UNL     1      -9.820  50.330  51.013  0.00  0.00    +0.000 A 
ATOM     11  C   UNL     1      -9.384  50.193  49.699  0.00  0.00    +0.000 A 
ENDROOT
BRANCH   1  17
ATOM     12  S   UNL     1     -15.358  56.471  51.221  0.00  0.00    +0.000 S 
ATOM     13  O   UNL     1     -15.310  56.612  52.662  0.00  0.00    +0.000 OA
ATOM     14  O   UNL     1     -16.625  56.253  50.548  0.00  0.00    +0.000 OA
ATOM     15  N   UNL     1     -14.363  55.263  50.812  0.00  0.00    +0.000 N 
ATOM     16  C   UNL     1     -14.717  57.968  50.567  0.00  0.00    +0.000 A 
ATOM     17  C   UNL     1     -13.241  55.497  50.194  0.00  0.00    +0.000 C 
ATOM     18  C   UNL     1     -13.480  57.926  49.944  0.00  0.00    +0.000 A 
ATOM     19  C   UNL     1     -15.454  59.151  50.670  0.00  0.00    +0.000 A 
ATOM     20  N   UNL     1     -12.750  56.743  49.860  0.00  0.00    +0.000 N 
ATOM     21  C   UNL     1     -12.936  59.127  49.476  0.00  0.00    +0.000 A 
ATOM     22  C   UNL     1     -14.918  60.332  50.166  0.00  0.00    +0.000 A 
ATOM     23  C   UNL     1     -13.653  60.323  49.577  0.00  0.00    +0.000 A 
ATOM     24  H   UNL     1     -14.609  54.336  51.035  0.00  0.00    +0.000 HD
ATOM     25  H   UNL     1     -11.821  56.799  49.540  0.00  0.00    +0.000 HD
ENDBRANCH   1  17
BRANCH   3  26
ATOM     26  O   UNL     1     -12.379  53.448  52.073  0.00  0.00    +0.000 OA
ATOM     27  H   UNL     1     -13.181  53.057  52.360  0.00  0.00    +0.000 HD
ENDBRANCH   3  26
BRANCH   5  28
ATOM     28  N   UNL     1     -10.647  52.937  46.713  0.00  0.00    +0.000 N 
ATOM     29  H   UNL     1     -11.200  52.554  45.995  0.00  0.00    +0.000 HD
BRANCH  28  30
ATOM     30  C   UNL     1      -9.266  53.403  46.515  0.00  0.00    +0.000 C 
BRANCH  30  31
ATOM     31  C   UNL     1      -9.130  54.922  46.650  0.00  0.00    +0.000 C 
BRANCH  31  32
ATOM     32  C   UNL     1      -8.241  55.309  47.855  0.00  0.00    +0.000 C 
ATOM     33  C   UNL     1      -9.024  56.029  48.956  0.00  0.00    +0.000 C 
ATOM     34  C   UNL     1      -7.553  54.069  48.430  0.00  0.00    +0.000 C 
ENDBRANCH  31  32
ENDBRANCH  30  31
ENDBRANCH  28  30
ENDBRANCH   5  28
TORSDOF 6
ENDMDL
MODEL 5
REMARK VINA RESULT:      -7.7      3.538      7.576
REMARK  Name = 
REMARK  8 active torsions:
REMARK  status: ('A' for Active; 'I' for Inactive)
REMARK    1  A    between atoms: C_6  and  C_10
REMARK    2  A    between atoms: C_14  and  O_18
REMARK    3  A    between atoms: N_17  and  N_20
REMARK    4  A    between atoms: N_20  and  C_23
REMARK    5  A    between atoms: C_23  and  C_26
REMARK    6  A    between atoms: C_26  and  C_28
REMARK    7  A    between atoms: C_28  and  C_29
REMARK    8  A    between atoms: C_28  and  C_30
REMARK                            x       y       z     vdW  Elec       q    Type
REMARK                         _______ _______ _______ _____ _____    ______ ____
ROOT
ATOM      1  C   UNL     1     -10.211  55.258  50.699  0.00  0.00    +0.000 A 
ATOM      2  C   UNL     1      -9.772  55.192  49.276  0.00  0.00    +0.000 A 
ATOM      3  C   UNL     1     -11.422  55.744  51.015  0.00  0.00    +0.000 A 
ATOM      4  O   UNL     1      -8.626  54.788  49.054  0.00  0.00    +0.000 OA
ATOM      5  N   UNL     1     -10.689  55.556  48.284  0.00  0.00    +0.000 N 
ATOM      6  C   UNL     1     -12.358  56.166  49.961  0.00  0.00    +0.000 A 
ATOM      7  C   UNL     1     -11.982  56.067  48.609  0.00  0.00    +0.000 A 
ATOM      8  C   UNL     1     -13.638  56.651  50.287  0.00  0.00    +0.000 A 
ATOM      9  C   UNL     1     -12.888  56.468  47.615  0.00  0.00    +0.000 A 
ATOM     10  C   UNL     1     -14.534  57.030  49.292  0.00  0.00    +0.000 A 
ATOM     11  C   UNL     1     -14.158  56.941  47.956  0.00  0.00    +0.000 A 
ENDROOT
BRANCH   1  17
ATOM     12  S   UNL     1      -7.037  54.771  52.958  0.00  0.00    +0.000 S 
ATOM     13  O   UNL     1      -6.960  55.741  54.032  0.00  0.00    +0.000 OA
ATOM     14  O   UNL     1      -5.843  54.399  52.222  0.00  0.00    +0.000 OA
ATOM     15  N   UNL     1      -8.134  55.301  51.895  0.00  0.00    +0.000 N 
ATOM     16  C   UNL     1      -7.634  53.290  53.686  0.00  0.00    +0.000 A 
ATOM     17  C   UNL     1      -9.284  54.707  51.765  0.00  0.00    +0.000 C 
ATOM     18  C   UNL     1      -8.917  52.880  53.361  0.00  0.00    +0.000 A 
ATOM     19  C   UNL     1      -6.819  52.556  54.552  0.00  0.00    +0.000 A 
ATOM     20  N   UNL     1      -9.723  53.628  52.506  0.00  0.00    +0.000 N 
ATOM     21  C   UNL     1      -9.421  51.734  53.985  0.00  0.00    +0.000 A 
ATOM     22  C   UNL     1      -7.320  51.396  55.137  0.00  0.00    +0.000 A 
ATOM     23  C   UNL     1      -8.626  50.990  54.862  0.00  0.00    +0.000 A 
ATOM     24  H   UNL     1      -7.928  56.086  51.338  0.00  0.00    +0.000 HD
ATOM     25  H   UNL     1     -10.669  53.371  52.425  0.00  0.00    +0.000 HD
ENDBRANCH   1  17
BRANCH   3  26
ATOM     26  O   UNL     1     -11.903  55.856  52.307  0.00  0.00    +0.000 OA
ATOM     27  H   UNL     1     -12.409  55.161  52.681  0.00  0.00    +0.000 HD
ENDBRANCH   3  26
BRANCH   5  28
ATOM     28  N   UNL     1     -10.316  55.478  46.891  0.00  0.00    +0.000 N 
ATOM     29  H   UNL     1      -9.998  56.250  46.369  0.00  0.00    +0.000 HD
BRANCH  28  30
ATOM     30  C   UNL     1     -10.460  54.124  46.336  0.00  0.00    +0.000 C 
BRANCH  30  31
ATOM     31  C   UNL     1     -11.575  54.030  45.292  0.00  0.00    +0.000 C 
BRANCH  31  32
ATOM     32  C   UNL     1     -11.944  52.559  44.985  0.00  0.00    +0.000 C 
ATOM     33  C   UNL     1     -10.802  51.795  44.310  0.00  0.00    +0.000 C 
ATOM     34  C   UNL     1     -12.368  51.837  46.265  0.00  0.00    +0.000 C 
ENDBRANCH  31  32
ENDBRANCH  30  31
ENDBRANCH  28  30
ENDBRANCH   5  28
TORSDOF 6
ENDMDL
MODEL 6
REMARK VINA RESULT:      -7.7      2.968      8.387
REMARK  Name = 
REMARK  8 active torsions:
REMARK  status: ('A' for Active; 'I' for Inactive)
REMARK    1  A    between atoms: C_6  and  C_10
REMARK    2  A    between atoms: C_14  and  O_18
REMARK    3  A    between atoms: N_17  and  N_20
REMARK    4  A    between atoms: N_20  and  C_23
REMARK    5  A    between atoms: C_23  and  C_26
REMARK    6  A    between atoms: C_26  and  C_28
REMARK    7  A    between atoms: C_28  and  C_29
REMARK    8  A    between atoms: C_28  and  C_30
REMARK                            x       y       z     vdW  Elec       q    Type
REMARK                         _______ _______ _______ _____ _____    ______ ____
ROOT
ATOM      1  C   UNL     1      -9.040  54.543  50.352  0.00  0.00    +0.000 A 
ATOM      2  C   UNL     1     -10.449  54.392  50.817  0.00  0.00    +0.000 A 
ATOM      3  C   UNL     1      -8.763  54.643  49.042  0.00  0.00    +0.000 A 
ATOM      4  O   UNL     1     -10.633  54.249  52.030  0.00  0.00    +0.000 OA
ATOM      5  N   UNL     1     -11.470  54.456  49.862  0.00  0.00    +0.000 N 
ATOM      6  C   UNL     1      -9.848  54.662  48.047  0.00  0.00    +0.000 A 
ATOM      7  C   UNL     1     -11.187  54.570  48.468  0.00  0.00    +0.000 A 
ATOM      8  C   UNL     1      -9.563  54.793  46.676  0.00  0.00    +0.000 A 
ATOM      9  C   UNL     1     -12.210  54.596  47.507  0.00  0.00    +0.000 A 
ATOM     10  C   UNL     1     -10.587  54.835  45.734  0.00  0.00    +0.000 A 
ATOM     11  C   UNL     1     -11.910  54.733  46.149  0.00  0.00    +0.000 A 
ENDROOT
BRANCH   1  17
ATOM     12  S   UNL     1      -7.036  55.712  53.519  0.00  0.00    +0.000 S 
ATOM     13  O   UNL     1      -7.525  55.113  54.744  0.00  0.00    +0.000 OA
ATOM     14  O   UNL     1      -6.656  57.112  53.491  0.00  0.00    +0.000 OA
ATOM     15  N   UNL     1      -8.153  55.475  52.375  0.00  0.00    +0.000 N 
ATOM     16  C   UNL     1      -5.592  54.814  53.086  0.00  0.00    +0.000 A 
ATOM     17  C   UNL     1      -7.945  54.644  51.395  0.00  0.00    +0.000 C 
ATOM     18  C   UNL     1      -5.650  53.992  51.971  0.00  0.00    +0.000 A 
ATOM     19  C   UNL     1      -4.427  54.947  53.846  0.00  0.00    +0.000 A 
ATOM     20  N   UNL     1      -6.822  53.859  51.229  0.00  0.00    +0.000 N 
ATOM     21  C   UNL     1      -4.523  53.226  51.656  0.00  0.00    +0.000 A 
ATOM     22  C   UNL     1      -3.300  54.208  53.499  0.00  0.00    +0.000 A 
ATOM     23  C   UNL     1      -3.350  53.339  52.408  0.00  0.00    +0.000 A 
ATOM     24  H   UNL     1      -9.005  55.966  52.421  0.00  0.00    +0.000 HD
ATOM     25  H   UNL     1      -6.851  53.156  50.540  0.00  0.00    +0.000 HD
ENDBRANCH   1  17
BRANCH   3  26
ATOM     26  O   UNL     1      -7.488  54.770  48.523  0.00  0.00    +0.000 OA
ATOM     27  H   UNL     1      -7.153  54.118  47.939  0.00  0.00    +0.000 HD
ENDBRANCH   3  26
BRANCH   5  28
ATOM     28  N   UNL     1     -12.850  54.345  50.273  0.00  0.00    +0.000 N 
ATOM     29  H   UNL     1     -13.288  53.489  50.483  0.00  0.00    +0.000 HD
BRANCH  28  30
ATOM     30  C   UNL     1     -13.531  55.646  50.344  0.00  0.00    +0.000 C 
BRANCH  30  31
ATOM     31  C   UNL     1     -13.510  56.247  51.752  0.00  0.00    +0.000 C 
BRANCH  31  32
ATOM     32  C   UNL     1     -14.925  56.671  52.211  0.00  0.00    +0.000 C 
ATOM     33  C   UNL     1     -14.927  58.012  52.949  0.00  0.00    +0.000 C 
ATOM     34  C   UNL     1     -15.877  56.733  51.015  0.00  0.00    +0.000 C 
ENDBRANCH  31  32
ENDBRANCH  30  31
ENDBRANCH  28  30
ENDBRANCH   5  28
TORSDOF 6
ENDMDL
MODEL 7
REMARK VINA RESULT:      -7.7      3.597      5.650
REMARK  Name = 
REMARK  8 active torsions:
REMARK  status: ('A' for Active; 'I' for Inactive)
REMARK    1  A    between atoms: C_6  and  C_10
REMARK    2  A    between atoms: C_14  and  O_18
REMARK    3  A    between atoms: N_17  and  N_20
REMARK    4  A    between atoms: N_20  and  C_23
REMARK    5  A    between atoms: C_23  and  C_26
REMARK    6  A    between atoms: C_26  and  C_28
REMARK    7  A    between atoms: C_28  and  C_29
REMARK    8  A    between atoms: C_28  and  C_30
REMARK                            x       y       z     vdW  Elec       q    Type
REMARK                         _______ _______ _______ _____ _____    ______ ____
ROOT
ATOM      1  C   UNL     1     -11.710  56.034  48.665  0.00  0.00    +0.000 A 
ATOM      2  C   UNL     1     -10.600  55.424  49.452  0.00  0.00    +0.000 A 
ATOM      3  C   UNL     1     -11.917  55.671  47.388  0.00  0.00    +0.000 A 
ATOM      4  O   UNL     1     -10.426  55.839  50.602  0.00  0.00    +0.000 OA
ATOM      5  N   UNL     1      -9.852  54.401  48.858  0.00  0.00    +0.000 N 
ATOM      6  C   UNL     1     -11.090  54.626  46.764  0.00  0.00    +0.000 A 
ATOM      7  C   UNL     1     -10.069  54.003  47.505  0.00  0.00    +0.000 A 
ATOM      8  C   UNL     1     -11.321  54.225  45.435  0.00  0.00    +0.000 A 
ATOM      9  C   UNL     1      -9.294  53.004  46.896  0.00  0.00    +0.000 A 
ATOM     10  C   UNL     1     -10.557  53.221  44.848  0.00  0.00    +0.000 A 
ATOM     11  C   UNL     1      -9.541  52.612  45.577  0.00  0.00    +0.000 A 
ENDROOT
BRANCH   1  17
ATOM     12  S   UNL     1     -13.622  59.359  49.503  0.00  0.00    +0.000 S 
ATOM     13  O   UNL     1     -14.779  59.567  48.657  0.00  0.00    +0.000 OA
ATOM     14  O   UNL     1     -12.750  60.469  49.838  0.00  0.00    +0.000 OA
ATOM     15  N   UNL     1     -12.718  58.202  48.824  0.00  0.00    +0.000 N 
ATOM     16  C   UNL     1     -14.243  58.758  51.031  0.00  0.00    +0.000 A 
ATOM     17  C   UNL     1     -12.628  57.020  49.359  0.00  0.00    +0.000 C 
ATOM     18  C   UNL     1     -13.990  57.435  51.358  0.00  0.00    +0.000 A 
ATOM     19  C   UNL     1     -14.954  59.607  51.882  0.00  0.00    +0.000 A 
ATOM     20  N   UNL     1     -13.290  56.596  50.494  0.00  0.00    +0.000 N 
ATOM     21  C   UNL     1     -14.535  56.932  52.544  0.00  0.00    +0.000 A 
ATOM     22  C   UNL     1     -15.458  59.104  53.078  0.00  0.00    +0.000 A 
ATOM     23  C   UNL     1     -15.257  57.763  53.406  0.00  0.00    +0.000 A 
ATOM     24  H   UNL     1     -12.229  58.396  47.992  0.00  0.00    +0.000 HD
ATOM     25  H   UNL     1     -13.266  55.635  50.707  0.00  0.00    +0.000 HD
ENDBRANCH   1  17
BRANCH   3  26
ATOM     26  O   UNL     1     -12.909  56.197  46.582  0.00  0.00    +0.000 OA
ATOM     27  H   UNL     1     -13.226  57.066  46.733  0.00  0.00    +0.000 HD
ENDBRANCH   3  26
BRANCH   5  28
ATOM     28  N   UNL     1      -8.789  53.761  49.596  0.00  0.00    +0.000 N 
ATOM     29  H   UNL     1      -7.834  53.889  49.395  0.00  0.00    +0.000 HD
BRANCH  28  30
ATOM     30  C   UNL     1      -9.284  52.900  50.681  0.00  0.00    +0.000 C 
BRANCH  30  31
ATOM     31  C   UNL     1      -9.820  51.560  50.173  0.00  0.00    +0.000 C 
BRANCH  31  32
ATOM     32  C   UNL     1     -11.347  51.440  50.387  0.00  0.00    +0.000 C 
ATOM     33  C   UNL     1     -11.896  52.522  51.321  0.00  0.00    +0.000 C 
ATOM     34  C   UNL     1     -12.080  51.489  49.046  0.00  0.00    +0.000 C 
ENDBRANCH  31  32
ENDBRANCH  30  31
ENDBRANCH  28  30
ENDBRANCH   5  28
TORSDOF 6
ENDMDL
MODEL 8
REMARK VINA RESULT:      -7.7      2.837      8.233
REMARK  Name = 
REMARK  8 active torsions:
REMARK  status: ('A' for Active; 'I' for Inactive)
REMARK    1  A    between atoms: C_6  and  C_10
REMARK    2  A    between atoms: C_14  and  O_18
REMARK    3  A    between atoms: N_17  and  N_20
REMARK    4  A    between atoms: N_20  and  C_23
REMARK    5  A    between atoms: C_23  and  C_26
REMARK    6  A    between atoms: C_26  and  C_28
REMARK    7  A    between atoms: C_28  and  C_29
REMARK    8  A    between atoms: C_28  and  C_30
REMARK                            x       y       z     vdW  Elec       q    Type
REMARK                         _______ _______ _______ _____ _____    ______ ____
ROOT
ATOM      1  C   UNL     1      -9.832  54.229  50.930  0.00  0.00    +0.000 A 
ATOM      2  C   UNL     1     -10.974  55.124  51.273  0.00  0.00    +0.000 A 
ATOM      3  C   UNL     1      -9.581  53.906  49.651  0.00  0.00    +0.000 A 
ATOM      4  O   UNL     1     -11.187  55.338  52.470  0.00  0.00    +0.000 OA
ATOM      5  N   UNL     1     -11.708  55.689  50.224  0.00  0.00    +0.000 N 
ATOM      6  C   UNL     1     -10.393  54.474  48.563  0.00  0.00    +0.000 A 
ATOM      7  C   UNL     1     -11.445  55.359  48.861  0.00  0.00    +0.000 A 
ATOM      8  C   UNL     1     -10.116  54.158  47.220  0.00  0.00    +0.000 A 
ATOM      9  C   UNL     1     -12.206  55.897  47.811  0.00  0.00    +0.000 A 
ATOM     10  C   UNL     1     -10.867  54.711  46.186  0.00  0.00    +0.000 A 
ATOM     11  C   UNL     1     -11.913  55.578  46.482  0.00  0.00    +0.000 A 
ENDROOT
BRANCH   1  17
ATOM     12  S   UNL     1      -6.645  53.740  53.171  0.00  0.00    +0.000 S 
ATOM     13  O   UNL     1      -6.417  54.852  54.071  0.00  0.00    +0.000 OA
ATOM     14  O   UNL     1      -5.531  53.117  52.481  0.00  0.00    +0.000 OA
ATOM     15  N   UNL     1      -7.717  54.218  52.059  0.00  0.00    +0.000 N 
ATOM     16  C   UNL     1      -7.376  52.474  54.143  0.00  0.00    +0.000 A 
ATOM     17  C   UNL     1      -8.931  53.750  52.052  0.00  0.00    +0.000 C 
ATOM     18  C   UNL     1      -8.709  52.171  53.916  0.00  0.00    +0.000 A 
ATOM     19  C   UNL     1      -6.615  51.797  55.100  0.00  0.00    +0.000 A 
ATOM     20  N   UNL     1      -9.458  52.863  52.968  0.00  0.00    +0.000 N 
ATOM     21  C   UNL     1      -9.314  51.206  54.729  0.00  0.00    +0.000 A 
ATOM     22  C   UNL     1      -7.220  50.812  55.876  0.00  0.00    +0.000 A 
ATOM     23  C   UNL     1      -8.573  50.523  55.698  0.00  0.00    +0.000 A 
ATOM     24  H   UNL     1      -7.447  54.875  51.377  0.00  0.00    +0.000 HD
ATOM     25  H   UNL     1     -10.431  52.709  52.950  0.00  0.00    +0.000 HD
ENDBRANCH   1  17
BRANCH   3  26
ATOM     26  O   UNL     1      -8.555  53.072  49.246  0.00  0.00    +0.000 OA
ATOM     27  H   UNL     1      -8.516  52.190  49.560  0.00  0.00    +0.000 HD
ENDBRANCH   3  26
BRANCH   5  28
ATOM     28  N   UNL     1     -12.803  56.586  50.510  0.00  0.00    +0.000 N 
ATOM     29  H   UNL     1     -12.722  57.567  50.489  0.00  0.00    +0.000 HD
BRANCH  28  30
ATOM     30  C   UNL     1     -14.050  55.879  50.838  0.00  0.00    +0.000 C 
BRANCH  30  31
ATOM     31  C   UNL     1     -15.217  56.834  51.105  0.00  0.00    +0.000 C 
BRANCH  31  32
ATOM     32  C   UNL     1     -14.736  58.146  51.768  0.00  0.00    +0.000 C 
ATOM     33  C   UNL     1     -15.215  59.393  51.019  0.00  0.00    +0.000 C 
ATOM     34  C   UNL     1     -15.196  58.207  53.226  0.00  0.00    +0.000 C 
ENDBRANCH  31  32
ENDBRANCH  30  31
ENDBRANCH  28  30
ENDBRANCH   5  28
TORSDOF 6
ENDMDL
MODEL 9
REMARK VINA RESULT:      -7.6      4.350      5.649
REMARK  Name = 
REMARK  8 active torsions:
REMARK  status: ('A' for Active; 'I' for Inactive)
REMARK    1  A    between atoms: C_6  and  C_10
REMARK    2  A    between atoms: C_14  and  O_18
REMARK    3  A    between atoms: N_17  and  N_20
REMARK    4  A    between atoms: N_20  and  C_23
REMARK    5  A    between atoms: C_23  and  C_26
REMARK    6  A    between atoms: C_26  and  C_28
REMARK    7  A    between atoms: C_28  and  C_29
REMARK    8  A    between atoms: C_28  and  C_30
REMARK                            x       y       z     vdW  Elec       q    Type
REMARK                         _______ _______ _______ _____ _____    ______ ____
ROOT
ATOM      1  C   UNL     1     -12.506  54.310  49.581  0.00  0.00    +0.000 A 
ATOM      2  C   UNL     1     -11.975  54.299  48.187  0.00  0.00    +0.000 A 
ATOM      3  C   UNL     1     -12.229  53.301  50.422  0.00  0.00    +0.000 A 
ATOM      4  O   UNL     1     -12.311  55.227  47.445  0.00  0.00    +0.000 OA
ATOM      5  N   UNL     1     -11.107  53.265  47.819  0.00  0.00    +0.000 N 
ATOM      6  C   UNL     1     -11.352  52.196  50.002  0.00  0.00    +0.000 A 
ATOM      7  C   UNL     1     -10.800  52.192  48.708  0.00  0.00    +0.000 A 
ATOM      8  C   UNL     1     -11.038  51.151  50.890  0.00  0.00    +0.000 A 
ATOM      9  C   UNL     1      -9.960  51.134  48.325  0.00  0.00    +0.000 A 
ATOM     10  C   UNL     1     -10.190  50.116  50.505  0.00  0.00    +0.000 A 
ATOM     11  C   UNL     1      -9.653  50.106  49.222  0.00  0.00    +0.000 A 
ENDROOT
BRANCH   1  17
ATOM     12  S   UNL     1     -15.376  56.461  51.179  0.00  0.00    +0.000 S 
ATOM     13  O   UNL     1     -15.270  56.551  52.621  0.00  0.00    +0.000 OA
ATOM     14  O   UNL     1     -16.670  56.274  50.551  0.00  0.00    +0.000 OA
ATOM     15  N   UNL     1     -14.406  55.263  50.689  0.00  0.00    +0.000 N 
ATOM     16  C   UNL     1     -14.752  57.977  50.553  0.00  0.00    +0.000 A 
ATOM     17  C   UNL     1     -13.308  55.513  50.036  0.00  0.00    +0.000 C 
ATOM     18  C   UNL     1     -13.540  57.951  49.880  0.00  0.00    +0.000 A 
ATOM     19  C   UNL     1     -15.477  59.159  50.726  0.00  0.00    +0.000 A 
ATOM     20  N   UNL     1     -12.823  56.767  49.726  0.00  0.00    +0.000 N 
ATOM     21  C   UNL     1     -13.008  59.165  49.433  0.00  0.00    +0.000 A 
ATOM     22  C   UNL     1     -14.953  60.355  50.243  0.00  0.00    +0.000 A 
ATOM     23  C   UNL     1     -13.712  60.360  49.604  0.00  0.00    +0.000 A 
ATOM     24  H   UNL     1     -14.649  54.331  50.890  0.00  0.00    +0.000 HD
ATOM     25  H   UNL     1     -11.906  56.829  49.371  0.00  0.00    +0.000 HD
ENDBRANCH   1  17
BRANCH   3  26
ATOM     26  O   UNL     1     -12.693  53.222  51.722  0.00  0.00    +0.000 OA
ATOM     27  H   UNL     1     -13.223  52.497  51.987  0.00  0.00    +0.000 HD
ENDBRANCH   3  26
BRANCH   5  28
ATOM     28  N   UNL     1     -10.545  53.233  46.490  0.00  0.00    +0.000 N 
ATOM     29  H   UNL     1      -9.618  53.492  46.285  0.00  0.00    +0.000 HD
BRANCH  28  30
ATOM     30  C   UNL     1     -11.504  52.773  45.474  0.00  0.00    +0.000 C 
BRANCH  30  31
ATOM     31  C   UNL     1     -10.821  52.120  44.270  0.00  0.00    +0.000 C 
BRANCH  31  32
ATOM     32  C   UNL     1     -10.844  50.577  44.371  0.00  0.00    +0.000 C 
ATOM     33  C   UNL     1      -9.498  49.996  44.813  0.00  0.00    +0.000 C 
ATOM     34  C   UNL     1     -11.947  50.121  45.328  0.00  0.00    +0.000 C 
ENDBRANCH  31  32
ENDBRANCH  30  31
ENDBRANCH  28  30
ENDBRANCH   5  28
TORSDOF 6
ENDMDL
