MODEL 1
REMARK VINA RESULT:      -9.1      0.000      0.000
REMARK  Name = 
REMARK  5 active torsions:
REMARK  status: ('A' for Active; 'I' for Inactive)
REMARK    1  A    between atoms: C_6  and  C_10
REMARK    2  A    between atoms: C_14  and  O_18
REMARK    3  A    between atoms: N_17  and  N_20
REMARK    4  A    between atoms: N_20  and  C_23
REMARK    5  A    between atoms: C_23  and  C_26
REMARK                            x       y       z     vdW  Elec       q    Type
REMARK                         _______ _______ _______ _____ _____    ______ ____
ROOT
ATOM      1  C   UNL     1      -9.533  54.072  50.683  0.00  0.00    +0.000 A 
ATOM      2  C   UNL     1     -10.765  54.444  51.430  0.00  0.00    +0.000 A 
ATOM      3  C   UNL     1      -9.471  54.202  49.347  0.00  0.00    +0.000 A 
ATOM      4  O   UNL     1     -10.728  54.272  52.653  0.00  0.00    +0.000 OA
ATOM      5  N   UNL     1     -11.865  54.928  50.702  0.00  0.00    +0.000 N 
ATOM      6  C   UNL     1     -10.583  54.807  48.611  0.00  0.00    +0.000 A 
ATOM      7  C   UNL     1     -11.766  55.162  49.285  0.00  0.00    +0.000 A 
ATOM      8  C   UNL     1     -10.458  55.048  47.230  0.00  0.00    +0.000 A 
ATOM      9  C   UNL     1     -12.795  55.768  48.541  0.00  0.00    +0.000 A 
ATOM     10  C   UNL     1     -11.473  55.678  46.521  0.00  0.00    +0.000 A 
ATOM     11  C   UNL     1     -12.638  56.047  47.177  0.00  0.00    +0.000 A 
ENDROOT
BRANCH   1  17
ATOM     12  S   UNL     1      -7.491  51.650  52.978  0.00  0.00    +0.000 S 
ATOM     13  O   UNL     1      -7.271  50.383  52.317  0.00  0.00    +0.000 OA
ATOM     14  O   UNL     1      -7.845  51.693  54.387  0.00  0.00    +0.000 OA
ATOM     15  N   UNL     1      -8.648  52.452  52.182  0.00  0.00    +0.000 N 
ATOM     16  C   UNL     1      -6.002  52.554  52.824  0.00  0.00    +0.000 A 
ATOM     17  C   UNL     1      -8.366  53.473  51.437  0.00  0.00    +0.000 C 
ATOM     18  C   UNL     1      -5.974  53.623  51.943  0.00  0.00    +0.000 A 
ATOM     19  C   UNL     1      -4.889  52.174  53.575  0.00  0.00    +0.000 A 
ATOM     20  N   UNL     1      -7.121  54.040  51.281  0.00  0.00    +0.000 N 
ATOM     21  C   UNL     1      -4.772  54.322  51.797  0.00  0.00    +0.000 A 
ATOM     22  C   UNL     1      -3.702  52.886  53.430  0.00  0.00    +0.000 A 
ATOM     23  C   UNL     1      -3.641  53.953  52.533  0.00  0.00    +0.000 A 
ATOM     24  H   UNL     1      -9.584  52.158  52.264  0.00  0.00    +0.000 HD
ATOM     25  H   UNL     1      -7.038  54.795  50.656  0.00  0.00    +0.000 HD
ENDBRANCH   1  17
BRANCH   3  26
ATOM     26  O   UNL     1      -8.400  53.798  48.569  0.00  0.00    +0.000 OA
ATOM     27  H   UNL     1      -8.514  53.664  47.648  0.00  0.00    +0.000 HD
ENDBRANCH   3  26
BRANCH   5  28
ATOM     28  N   UNL     1     -13.182  55.028  51.322  0.00  0.00    +0.000 N 
ATOM     29  H   UNL     1     -13.855  54.313  51.242  0.00  0.00    +0.000 HD
BRANCH  28  30
ATOM     30  C   UNL     1     -13.442  56.266  52.075  0.00  0.00    +0.000 C 
BRANCH  30  31
ATOM     31  C   UNL     1     -14.932  56.675  52.096  0.00  0.00    +0.000 C 
ATOM     32  C   UNL     1     -15.518  57.039  50.726  0.00  0.00    +0.000 C 
ATOM     33  C   UNL     1     -15.134  57.859  53.067  0.00  0.00    +0.000 C 
ATOM     34  C   UNL     1     -14.905  58.316  50.161  0.00  0.00    +0.000 C 
ATOM     35  C   UNL     1     -14.577  59.177  52.524  0.00  0.00    +0.000 C 
ATOM     36  C   UNL     1     -15.097  59.487  51.123  0.00  0.00    +0.000 C 
ENDBRANCH  30  31
ENDBRANCH  28  30
ENDBRANCH   5  28
TORSDOF 5
ENDMDL
MODEL 2
REMARK VINA RESULT:      -8.9      1.480      1.729
REMARK  Name = 
REMARK  5 active torsions:
REMARK  status: ('A' for Active; 'I' for Inactive)
REMARK    1  A    between atoms: C_6  and  C_10
REMARK    2  A    between atoms: C_14  and  O_18
REMARK    3  A    between atoms: N_17  and  N_20
REMARK    4  A    between atoms: N_20  and  C_23
REMARK    5  A    between atoms: C_23  and  C_26
REMARK                            x       y       z     vdW  Elec       q    Type
REMARK                         _______ _______ _______ _____ _____    ______ ____
ROOT
ATOM      1  C   UNL     1      -9.106  54.887  50.895  0.00  0.00    +0.000 A 
ATOM      2  C   UNL     1     -10.376  55.114  51.636  0.00  0.00    +0.000 A 
ATOM      3  C   UNL     1      -9.081  54.886  49.552  0.00  0.00    +0.000 A 
ATOM      4  O   UNL     1     -10.297  55.080  52.868  0.00  0.00    +0.000 OA
ATOM      5  N   UNL     1     -11.552  55.321  50.894  0.00  0.00    +0.000 N 
ATOM      6  C   UNL     1     -10.290  55.209  48.790  0.00  0.00    +0.000 A 
ATOM      7  C   UNL     1     -11.510  55.420  49.458  0.00  0.00    +0.000 A 
ATOM      8  C   UNL     1     -10.223  55.323  47.389  0.00  0.00    +0.000 A 
ATOM      9  C   UNL     1     -12.637  55.757  48.686  0.00  0.00    +0.000 A 
ATOM     10  C   UNL     1     -11.340  55.689  46.649  0.00  0.00    +0.000 A 
ATOM     11  C   UNL     1     -12.545  55.916  47.298  0.00  0.00    +0.000 A 
ENDROOT
BRANCH   1  17
ATOM     12  S   UNL     1      -6.374  55.065  53.691  0.00  0.00    +0.000 S 
ATOM     13  O   UNL     1      -6.863  54.483  54.921  0.00  0.00    +0.000 OA
ATOM     14  O   UNL     1      -5.599  56.294  53.715  0.00  0.00    +0.000 OA
ATOM     15  N   UNL     1      -7.634  55.328  52.710  0.00  0.00    +0.000 N 
ATOM     16  C   UNL     1      -5.350  53.859  52.945  0.00  0.00    +0.000 A 
ATOM     17  C   UNL     1      -7.844  54.582  51.672  0.00  0.00    +0.000 C 
ATOM     18  C   UNL     1      -5.826  53.201  51.822  0.00  0.00    +0.000 A 
ATOM     19  C   UNL     1      -4.099  53.586  53.499  0.00  0.00    +0.000 A 
ATOM     20  N   UNL     1      -7.031  53.560  51.235  0.00  0.00    +0.000 N 
ATOM     21  C   UNL     1      -5.018  52.214  51.249  0.00  0.00    +0.000 A 
ATOM     22  C   UNL     1      -3.300  52.609  52.912  0.00  0.00    +0.000 A 
ATOM     23  C   UNL     1      -3.765  51.916  51.793  0.00  0.00    +0.000 A 
ATOM     24  H   UNL     1      -8.253  56.068  52.906  0.00  0.00    +0.000 HD
ATOM     25  H   UNL     1      -7.326  53.047  50.448  0.00  0.00    +0.000 HD
ENDBRANCH   1  17
BRANCH   3  26
ATOM     26  O   UNL     1      -7.964  54.596  48.788  0.00  0.00    +0.000 OA
ATOM     27  H   UNL     1      -7.677  55.198  48.130  0.00  0.00    +0.000 HD
ENDBRANCH   3  26
BRANCH   5  28
ATOM     28  N   UNL     1     -12.859  55.255  51.538  0.00  0.00    +0.000 N 
ATOM     29  H   UNL     1     -13.406  54.436  51.530  0.00  0.00    +0.000 HD
BRANCH  28  30
ATOM     30  C   UNL     1     -13.309  56.489  52.201  0.00  0.00    +0.000 C 
BRANCH  30  31
ATOM     31  C   UNL     1     -14.834  56.723  52.105  0.00  0.00    +0.000 C 
ATOM     32  C   UNL     1     -15.348  57.036  50.694  0.00  0.00    +0.000 C 
ATOM     33  C   UNL     1     -15.249  57.860  53.064  0.00  0.00    +0.000 C 
ATOM     34  C   UNL     1     -14.847  58.384  50.188  0.00  0.00    +0.000 C 
ATOM     35  C   UNL     1     -14.809  59.241  52.574  0.00  0.00    +0.000 C 
ATOM     36  C   UNL     1     -15.250  59.510  51.138  0.00  0.00    +0.000 C 
ENDBRANCH  30  31
ENDBRANCH  28  30
ENDBRANCH   5  28
TORSDOF 5
ENDMDL
MODEL 3
REMARK VINA RESULT:      -8.8      2.886      8.232
REMARK  Name = 
REMARK  5 active torsions:
REMARK  status: ('A' for Active; 'I' for Inactive)
REMARK    1  A    between atoms: C_6  and  C_10
REMARK    2  A    between atoms: C_14  and  O_18
REMARK    3  A    between atoms: N_17  and  N_20
REMARK    4  A    between atoms: N_20  and  C_23
REMARK    5  A    between atoms: C_23  and  C_26
REMARK                            x       y       z     vdW  Elec       q    Type
REMARK                         _______ _______ _______ _____ _____    ______ ____
ROOT
ATOM      1  C   UNL     1     -11.206  53.872  51.793  0.00  0.00    +0.000 A 
ATOM      2  C   UNL     1     -10.186  54.038  52.864  0.00  0.00    +0.000 A 
ATOM      3  C   UNL     1     -11.378  52.688  51.183  0.00  0.00    +0.000 A 
ATOM      4  O   UNL     1     -10.095  55.170  53.352  0.00  0.00    +0.000 OA
ATOM      5  N   UNL     1      -9.402  52.926  53.216  0.00  0.00    +0.000 N 
ATOM      6  C   UNL     1     -10.632  51.510  51.630  0.00  0.00    +0.000 A 
ATOM      7  C   UNL     1      -9.653  51.633  52.634  0.00  0.00    +0.000 A 
ATOM      8  C   UNL     1     -10.907  50.251  51.064  0.00  0.00    +0.000 A 
ATOM      9  C   UNL     1      -8.984  50.469  53.052  0.00  0.00    +0.000 A 
ATOM     10  C   UNL     1     -10.258  49.109  51.515  0.00  0.00    +0.000 A 
ATOM     11  C   UNL     1      -9.303  49.215  52.516  0.00  0.00    +0.000 A 
ENDROOT
BRANCH   1  17
ATOM     12  S   UNL     1     -12.696  56.631  49.453  0.00  0.00    +0.000 S 
ATOM     13  O   UNL     1     -13.691  56.068  48.569  0.00  0.00    +0.000 OA
ATOM     14  O   UNL     1     -11.734  57.601  48.957  0.00  0.00    +0.000 OA
ATOM     15  N   UNL     1     -11.842  55.421  50.105  0.00  0.00    +0.000 N 
ATOM     16  C   UNL     1     -13.571  57.429  50.740  0.00  0.00    +0.000 A 
ATOM     17  C   UNL     1     -12.005  55.075  51.343  0.00  0.00    +0.000 C 
ATOM     18  C   UNL     1     -13.579  56.837  51.992  0.00  0.00    +0.000 A 
ATOM     19  C   UNL     1     -14.240  58.624  50.473  0.00  0.00    +0.000 A 
ATOM     20  N   UNL     1     -12.826  55.700  52.254  0.00  0.00    +0.000 N 
ATOM     21  C   UNL     1     -14.308  57.460  53.009  0.00  0.00    +0.000 A 
ATOM     22  C   UNL     1     -14.953  59.242  51.498  0.00  0.00    +0.000 A 
ATOM     23  C   UNL     1     -14.995  58.653  52.762  0.00  0.00    +0.000 A 
ATOM     24  H   UNL     1     -11.189  54.936  49.550  0.00  0.00    +0.000 HD
ATOM     25  H   UNL     1     -12.882  55.313  53.158  0.00  0.00    +0.000 HD
ENDBRANCH   1  17
BRANCH   3  26
ATOM     26  O   UNL     1     -12.239  52.471  50.121  0.00  0.00    +0.000 OA
ATOM     27  H   UNL     1     -13.024  51.975  50.248  0.00  0.00    +0.000 HD
ENDBRANCH   3  26
BRANCH   5  28
ATOM     28  N   UNL     1      -8.204  53.088  54.032  0.00  0.00    +0.000 N 
ATOM     29  H   UNL     1      -8.248  53.246  55.003  0.00  0.00    +0.000 HD
BRANCH  28  30
ATOM     30  C   UNL     1      -6.924  53.001  53.312  0.00  0.00    +0.000 C 
BRANCH  30  31
ATOM     31  C   UNL     1      -6.474  54.342  52.687  0.00  0.00    +0.000 C 
ATOM     32  C   UNL     1      -5.277  54.237  51.733  0.00  0.00    +0.000 C 
ATOM     33  C   UNL     1      -6.147  55.355  53.806  0.00  0.00    +0.000 C 
ATOM     34  C   UNL     1      -3.995  53.847  52.463  0.00  0.00    +0.000 C 
ATOM     35  C   UNL     1      -4.842  55.033  54.538  0.00  0.00    +0.000 C 
ATOM     36  C   UNL     1      -3.674  54.843  53.575  0.00  0.00    +0.000 C 
ENDBRANCH  30  31
ENDBRANCH  28  30
ENDBRANCH   5  28
TORSDOF 5
ENDMDL
MODEL 4
REMARK VINA RESULT:      -8.7      1.854      2.698
REMARK  Name = 
REMARK  5 active torsions:
REMARK  status: ('A' for Active; 'I' for Inactive)
REMARK    1  A    between atoms: C_6  and  C_10
REMARK    2  A    between atoms: C_14  and  O_18
REMARK    3  A    between atoms: N_17  and  N_20
REMARK    4  A    between atoms: N_20  and  C_23
REMARK    5  A    between atoms: C_23  and  C_26
REMARK                            x       y       z     vdW  Elec       q    Type
REMARK                         _______ _______ _______ _____ _____    ______ ____
ROOT
ATOM      1  C   UNL     1      -9.754  54.122  50.639  0.00  0.00    +0.000 A 
ATOM      2  C   UNL     1     -10.959  54.944  50.931  0.00  0.00    +0.000 A 
ATOM      3  C   UNL     1      -9.473  53.733  49.384  0.00  0.00    +0.000 A 
ATOM      4  O   UNL     1     -11.138  55.236  52.119  0.00  0.00    +0.000 OA
ATOM      5  N   UNL     1     -11.801  55.296  49.863  0.00  0.00    +0.000 N 
ATOM      6  C   UNL     1     -10.297  54.195  48.265  0.00  0.00    +0.000 A 
ATOM      7  C   UNL     1     -11.449  54.965  48.507  0.00  0.00    +0.000 A 
ATOM      8  C   UNL     1      -9.923  53.879  46.945  0.00  0.00    +0.000 A 
ATOM      9  C   UNL     1     -12.192  55.411  47.398  0.00  0.00    +0.000 A 
ATOM     10  C   UNL     1     -10.652  54.357  45.863  0.00  0.00    +0.000 A 
ATOM     11  C   UNL     1     -11.781  55.132  46.089  0.00  0.00    +0.000 A 
ENDROOT
BRANCH   1  17
ATOM     12  S   UNL     1      -6.672  53.860  53.036  0.00  0.00    +0.000 S 
ATOM     13  O   UNL     1      -6.587  55.025  53.888  0.00  0.00    +0.000 OA
ATOM     14  O   UNL     1      -5.474  53.298  52.437  0.00  0.00    +0.000 OA
ATOM     15  N   UNL     1      -7.692  54.184  51.822  0.00  0.00    +0.000 N 
ATOM     16  C   UNL     1      -7.375  52.587  54.007  0.00  0.00    +0.000 A 
ATOM     17  C   UNL     1      -8.877  53.664  51.784  0.00  0.00    +0.000 C 
ATOM     18  C   UNL     1      -8.684  52.213  53.748  0.00  0.00    +0.000 A 
ATOM     19  C   UNL     1      -6.611  51.992  55.012  0.00  0.00    +0.000 A 
ATOM     20  N   UNL     1      -9.388  52.752  52.680  0.00  0.00    +0.000 N 
ATOM     21  C   UNL     1      -9.253  51.219  54.549  0.00  0.00    +0.000 A 
ATOM     22  C   UNL     1      -7.186  50.994  55.794  0.00  0.00    +0.000 A 
ATOM     23  C   UNL     1      -8.509  50.616  55.569  0.00  0.00    +0.000 A 
ATOM     24  H   UNL     1      -7.406  54.789  51.099  0.00  0.00    +0.000 HD
ATOM     25  H   UNL     1     -10.320  52.461  52.555  0.00  0.00    +0.000 HD
ENDBRANCH   1  17
BRANCH   3  26
ATOM     26  O   UNL     1      -8.425  52.897  49.038  0.00  0.00    +0.000 OA
ATOM     27  H   UNL     1      -7.540  53.187  49.143  0.00  0.00    +0.000 HD
ENDBRANCH   3  26
BRANCH   5  28
ATOM     28  N   UNL     1     -13.134  55.836  50.112  0.00  0.00    +0.000 N 
ATOM     29  H   UNL     1     -13.919  55.255  50.236  0.00  0.00    +0.000 HD
BRANCH  28  30
ATOM     30  C   UNL     1     -13.228  57.303  50.168  0.00  0.00    +0.000 C 
BRANCH  30  31
ATOM     31  C   UNL     1     -14.681  57.826  50.251  0.00  0.00    +0.000 C 
ATOM     32  C   UNL     1     -14.826  59.226  50.861  0.00  0.00    +0.000 C 
ATOM     33  C   UNL     1     -15.549  56.829  51.048  0.00  0.00    +0.000 C 
ATOM     34  C   UNL     1     -14.458  59.246  52.341  0.00  0.00    +0.000 C 
ATOM     35  C   UNL     1     -15.250  56.846  52.549  0.00  0.00    +0.000 C 
ATOM     36  C   UNL     1     -15.311  58.256  53.131  0.00  0.00    +0.000 C 
ENDBRANCH  30  31
ENDBRANCH  28  30
ENDBRANCH   5  28
TORSDOF 5
ENDMDL
MODEL 5
REMARK VINA RESULT:      -8.7      2.760      8.437
REMARK  Name = 
REMARK  5 active torsions:
REMARK  status: ('A' for Active; 'I' for Inactive)
REMARK    1  A    between atoms: C_6  and  C_10
REMARK    2  A    between atoms: C_14  and  O_18
REMARK    3  A    between atoms: N_17  and  N_20
REMARK    4  A    between atoms: N_20  and  C_23
REMARK    5  A    between atoms: C_23  and  C_26
REMARK                            x       y       z     vdW  Elec       q    Type
REMARK                         _______ _______ _______ _____ _____    ______ ____
ROOT
ATOM      1  C   UNL     1     -10.080  54.557  52.287  0.00  0.00    +0.000 A 
ATOM      2  C   UNL     1      -8.696  55.056  52.062  0.00  0.00    +0.000 A 
ATOM      3  C   UNL     1     -10.302  53.435  52.990  0.00  0.00    +0.000 A 
ATOM      4  O   UNL     1      -8.597  56.087  51.388  0.00  0.00    +0.000 OA
ATOM      5  N   UNL     1      -7.627  54.318  52.597  0.00  0.00    +0.000 N 
ATOM      6  C   UNL     1      -9.190  52.733  53.634  0.00  0.00    +0.000 A 
ATOM      7  C   UNL     1      -7.868  53.172  53.434  0.00  0.00    +0.000 A 
ATOM      8  C   UNL     1      -9.448  51.628  54.466  0.00  0.00    +0.000 A 
ATOM      9  C   UNL     1      -6.835  52.484  54.097  0.00  0.00    +0.000 A 
ATOM     10  C   UNL     1      -8.416  50.984  55.138  0.00  0.00    +0.000 A 
ATOM     11  C   UNL     1      -7.111  51.418  54.962  0.00  0.00    +0.000 A 
ENDROOT
BRANCH   1  17
ATOM     12  S   UNL     1     -12.508  55.922  49.539  0.00  0.00    +0.000 S 
ATOM     13  O   UNL     1     -13.340  54.860  49.018  0.00  0.00    +0.000 OA
ATOM     14  O   UNL     1     -11.930  56.910  48.644  0.00  0.00    +0.000 OA
ATOM     15  N   UNL     1     -11.280  55.260  50.358  0.00  0.00    +0.000 N 
ATOM     16  C   UNL     1     -13.497  56.813  50.674  0.00  0.00    +0.000 A 
ATOM     17  C   UNL     1     -11.241  55.291  51.652  0.00  0.00    +0.000 C 
ATOM     18  C   UNL     1     -13.234  56.666  52.027  0.00  0.00    +0.000 A 
ATOM     19  C   UNL     1     -14.519  57.632  50.195  0.00  0.00    +0.000 A 
ATOM     20  N   UNL     1     -12.150  55.921  52.472  0.00  0.00    +0.000 N 
ATOM     21  C   UNL     1     -14.048  57.353  52.932  0.00  0.00    +0.000 A 
ATOM     22  C   UNL     1     -15.315  58.321  51.107  0.00  0.00    +0.000 A 
ATOM     23  C   UNL     1     -15.085  58.172  52.475  0.00  0.00    +0.000 A 
ATOM     24  H   UNL     1     -10.549  54.824  49.863  0.00  0.00    +0.000 HD
ATOM     25  H   UNL     1     -12.022  55.838  53.445  0.00  0.00    +0.000 HD
ENDBRANCH   1  17
BRANCH   3  26
ATOM     26  O   UNL     1     -11.547  52.856  53.171  0.00  0.00    +0.000 OA
ATOM     27  H   UNL     1     -12.211  53.312  53.651  0.00  0.00    +0.000 HD
ENDBRANCH   3  26
BRANCH   5  28
ATOM     28  N   UNL     1      -6.256  54.578  52.170  0.00  0.00    +0.000 N 
ATOM     29  H   UNL     1      -5.656  55.178  52.671  0.00  0.00    +0.000 HD
BRANCH  28  30
ATOM     30  C   UNL     1      -5.826  53.887  50.944  0.00  0.00    +0.000 C 
BRANCH  30  31
ATOM     31  C   UNL     1      -5.602  54.837  49.745  0.00  0.00    +0.000 C 
ATOM     32  C   UNL     1      -6.822  55.019  48.833  0.00  0.00    +0.000 C 
ATOM     33  C   UNL     1      -4.405  54.342  48.905  0.00  0.00    +0.000 C 
ATOM     34  C   UNL     1      -7.174  53.738  48.085  0.00  0.00    +0.000 C 
ATOM     35  C   UNL     1      -4.725  53.082  48.097  0.00  0.00    +0.000 C 
ATOM     36  C   UNL     1      -5.990  53.242  47.259  0.00  0.00    +0.000 C 
ENDBRANCH  30  31
ENDBRANCH  28  30
ENDBRANCH   5  28
TORSDOF 5
ENDMDL
MODEL 6
REMARK VINA RESULT:      -8.6      3.406      8.205
REMARK  Name = 
REMARK  5 active torsions:
REMARK  status: ('A' for Active; 'I' for Inactive)
REMARK    1  A    between atoms: C_6  and  C_10
REMARK    2  A    between atoms: C_14  and  O_18
REMARK    3  A    between atoms: N_17  and  N_20
REMARK    4  A    between atoms: N_20  and  C_23
REMARK    5  A    between atoms: C_23  and  C_26
REMARK                            x       y       z     vdW  Elec       q    Type
REMARK                         _______ _______ _______ _____ _____    ______ ____
ROOT
ATOM      1  C   UNL     1     -11.505  56.309  48.455  0.00  0.00    +0.000 A 
ATOM      2  C   UNL     1     -10.096  56.137  48.902  0.00  0.00    +0.000 A 
ATOM      3  C   UNL     1     -11.940  55.745  47.316  0.00  0.00    +0.000 A 
ATOM      4  O   UNL     1      -9.791  56.708  49.955  0.00  0.00    +0.000 OA
ATOM      5  N   UNL     1      -9.230  55.377  48.099  0.00  0.00    +0.000 N 
ATOM      6  C   UNL     1     -11.059  54.867  46.542  0.00  0.00    +0.000 A 
ATOM      7  C   UNL     1      -9.719  54.691  46.931  0.00  0.00    +0.000 A 
ATOM      8  C   UNL     1     -11.563  54.188  45.417  0.00  0.00    +0.000 A 
ATOM      9  C   UNL     1      -8.920  53.814  46.175  0.00  0.00    +0.000 A 
ATOM     10  C   UNL     1     -10.766  53.301  44.703  0.00  0.00    +0.000 A 
ATOM     11  C   UNL     1      -9.447  53.106  45.087  0.00  0.00    +0.000 A 
ENDROOT
BRANCH   1  17
ATOM     12  S   UNL     1     -13.622  59.424  49.515  0.00  0.00    +0.000 S 
ATOM     13  O   UNL     1     -14.783  59.567  48.665  0.00  0.00    +0.000 OA
ATOM     14  O   UNL     1     -12.847  60.589  49.905  0.00  0.00    +0.000 OA
ATOM     15  N   UNL     1     -12.592  58.393  48.811  0.00  0.00    +0.000 N 
ATOM     16  C   UNL     1     -14.185  58.694  51.002  0.00  0.00    +0.000 A 
ATOM     17  C   UNL     1     -12.434  57.190  49.262  0.00  0.00    +0.000 C 
ATOM     18  C   UNL     1     -13.864  57.368  51.242  0.00  0.00    +0.000 A 
ATOM     19  C   UNL     1     -14.942  59.455  51.893  0.00  0.00    +0.000 A 
ATOM     20  N   UNL     1     -13.029  56.663  50.386  0.00  0.00    +0.000 N 
ATOM     21  C   UNL     1     -14.345  56.779  52.416  0.00  0.00    +0.000 A 
ATOM     22  C   UNL     1     -15.404  58.860  53.064  0.00  0.00    +0.000 A 
ATOM     23  C   UNL     1     -15.114  57.519  53.319  0.00  0.00    +0.000 A 
ATOM     24  H   UNL     1     -12.077  58.687  48.025  0.00  0.00    +0.000 HD
ATOM     25  H   UNL     1     -12.849  55.719  50.599  0.00  0.00    +0.000 HD
ENDBRANCH   1  17
BRANCH   3  26
ATOM     26  O   UNL     1     -13.205  55.927  46.784  0.00  0.00    +0.000 OA
ATOM     27  H   UNL     1     -13.406  56.710  46.310  0.00  0.00    +0.000 HD
ENDBRANCH   3  26
BRANCH   5  28
ATOM     28  N   UNL     1      -7.788  55.414  48.317  0.00  0.00    +0.000 N 
ATOM     29  H   UNL     1      -7.199  56.030  47.824  0.00  0.00    +0.000 HD
BRANCH  28  30
ATOM     30  C   UNL     1      -7.269  54.473  49.323  0.00  0.00    +0.000 C 
BRANCH  30  31
ATOM     31  C   UNL     1      -6.301  55.125  50.337  0.00  0.00    +0.000 C 
ATOM     32  C   UNL     1      -4.960  54.399  50.502  0.00  0.00    +0.000 C 
ATOM     33  C   UNL     1      -6.990  55.243  51.714  0.00  0.00    +0.000 C 
ATOM     34  C   UNL     1      -5.126  53.027  51.147  0.00  0.00    +0.000 C 
ATOM     35  C   UNL     1      -7.138  53.895  52.423  0.00  0.00    +0.000 C 
ATOM     36  C   UNL     1      -5.814  53.140  52.505  0.00  0.00    +0.000 C 
ENDBRANCH  30  31
ENDBRANCH  28  30
ENDBRANCH   5  28
TORSDOF 5
ENDMDL
MODEL 7
REMARK VINA RESULT:      -8.5      2.985      8.373
REMARK  Name = 
REMARK  5 active torsions:
REMARK  status: ('A' for Active; 'I' for Inactive)
REMARK    1  A    between atoms: C_6  and  C_10
REMARK    2  A    between atoms: C_14  and  O_18
REMARK    3  A    between atoms: N_17  and  N_20
REMARK    4  A    between atoms: N_20  and  C_23
REMARK    5  A    between atoms: C_23  and  C_26
REMARK                            x       y       z     vdW  Elec       q    Type
REMARK                         _______ _______ _______ _____ _____    ______ ____
ROOT
ATOM      1  C   UNL     1     -10.710  55.763  48.519  0.00  0.00    +0.000 A 
ATOM      2  C   UNL     1      -9.312  55.787  49.026  0.00  0.00    +0.000 A 
ATOM      3  C   UNL     1     -10.999  55.239  47.316  0.00  0.00    +0.000 A 
ATOM      4  O   UNL     1      -9.149  56.306  50.136  0.00  0.00    +0.000 OA
ATOM      5  N   UNL     1      -8.298  55.254  48.211  0.00  0.00    +0.000 N 
ATOM      6  C   UNL     1      -9.953  54.590  46.522  0.00  0.00    +0.000 A 
ATOM      7  C   UNL     1      -8.618  54.603  46.968  0.00  0.00    +0.000 A 
ATOM      8  C   UNL     1     -10.289  53.939  45.321  0.00  0.00    +0.000 A 
ATOM      9  C   UNL     1      -7.654  53.941  46.187  0.00  0.00    +0.000 A 
ATOM     10  C   UNL     1      -9.327  53.263  44.582  0.00  0.00    +0.000 A 
ATOM     11  C   UNL     1      -8.010  53.255  45.019  0.00  0.00    +0.000 A 
ENDROOT
BRANCH   1  17
ATOM     12  S   UNL     1     -13.383  56.260  51.333  0.00  0.00    +0.000 S 
ATOM     13  O   UNL     1     -12.744  56.522  52.604  0.00  0.00    +0.000 OA
ATOM     14  O   UNL     1     -14.529  55.371  51.256  0.00  0.00    +0.000 OA
ATOM     15  N   UNL     1     -12.272  55.678  50.310  0.00  0.00    +0.000 N 
ATOM     16  C   UNL     1     -13.924  57.807  50.723  0.00  0.00    +0.000 A 
ATOM     17  C   UNL     1     -11.805  56.404  49.344  0.00  0.00    +0.000 C 
ATOM     18  C   UNL     1     -13.236  58.367  49.659  0.00  0.00    +0.000 A 
ATOM     19  C   UNL     1     -15.016  58.435  51.323  0.00  0.00    +0.000 A 
ATOM     20  N   UNL     1     -12.215  57.677  49.019  0.00  0.00    +0.000 N 
ATOM     21  C   UNL     1     -13.651  59.619  49.196  0.00  0.00    +0.000 A 
ATOM     22  C   UNL     1     -15.426  59.676  50.845  0.00  0.00    +0.000 A 
ATOM     23  C   UNL     1     -14.737  60.272  49.788  0.00  0.00    +0.000 A 
ATOM     24  H   UNL     1     -11.945  54.757  50.424  0.00  0.00    +0.000 HD
ATOM     25  H   UNL     1     -11.752  58.131  48.278  0.00  0.00    +0.000 HD
ENDBRANCH   1  17
BRANCH   3  26
ATOM     26  O   UNL     1     -12.254  55.255  46.734  0.00  0.00    +0.000 OA
ATOM     27  H   UNL     1     -12.938  55.774  47.110  0.00  0.00    +0.000 HD
ENDBRANCH   3  26
BRANCH   5  28
ATOM     28  N   UNL     1      -6.893  55.510  48.509  0.00  0.00    +0.000 N 
ATOM     29  H   UNL     1      -6.362  56.168  48.004  0.00  0.00    +0.000 HD
BRANCH  28  30
ATOM     30  C   UNL     1      -6.320  54.722  49.612  0.00  0.00    +0.000 C 
BRANCH  30  31
ATOM     31  C   UNL     1      -4.815  54.414  49.435  0.00  0.00    +0.000 C 
ATOM     32  C   UNL     1      -4.466  53.623  48.168  0.00  0.00    +0.000 C 
ATOM     33  C   UNL     1      -4.289  53.655  50.672  0.00  0.00    +0.000 C 
ATOM     34  C   UNL     1      -5.019  52.202  48.210  0.00  0.00    +0.000 C 
ATOM     35  C   UNL     1      -4.778  52.206  50.734  0.00  0.00    +0.000 C 
ATOM     36  C   UNL     1      -4.506  51.451  49.436  0.00  0.00    +0.000 C 
ENDBRANCH  30  31
ENDBRANCH  28  30
ENDBRANCH   5  28
TORSDOF 5
ENDMDL
MODEL 8
REMARK VINA RESULT:      -8.5      1.680      2.167
REMARK  Name = 
REMARK  5 active torsions:
REMARK  status: ('A' for Active; 'I' for Inactive)
REMARK    1  A    between atoms: C_6  and  C_10
REMARK    2  A    between atoms: C_14  and  O_18
REMARK    3  A    between atoms: N_17  and  N_20
REMARK    4  A    between atoms: N_20  and  C_23
REMARK    5  A    between atoms: C_23  and  C_26
REMARK                            x       y       z     vdW  Elec       q    Type
REMARK                         _______ _______ _______ _____ _____    ______ ____
ROOT
ATOM      1  C   UNL     1      -8.906  54.464  49.779  0.00  0.00    +0.000 A 
ATOM      2  C   UNL     1      -9.791  55.659  49.752  0.00  0.00    +0.000 A 
ATOM      3  C   UNL     1      -8.982  53.527  48.820  0.00  0.00    +0.000 A 
ATOM      4  O   UNL     1      -9.654  56.454  50.688  0.00  0.00    +0.000 OA
ATOM      5  N   UNL     1     -10.716  55.779  48.700  0.00  0.00    +0.000 N 
ATOM      6  C   UNL     1      -9.873  53.714  47.673  0.00  0.00    +0.000 A 
ATOM      7  C   UNL     1     -10.731  54.828  47.620  0.00  0.00    +0.000 A 
ATOM      8  C   UNL     1      -9.856  52.785  46.616  0.00  0.00    +0.000 A 
ATOM      9  C   UNL     1     -11.546  54.981  46.483  0.00  0.00    +0.000 A 
ATOM     10  C   UNL     1     -10.646  52.973  45.488  0.00  0.00    +0.000 A 
ATOM     11  C   UNL     1     -11.483  54.076  45.417  0.00  0.00    +0.000 A 
ENDROOT
BRANCH   1  17
ATOM     12  S   UNL     1      -7.635  54.064  53.458  0.00  0.00    +0.000 S 
ATOM     13  O   UNL     1      -8.000  52.768  53.987  0.00  0.00    +0.000 OA
ATOM     14  O   UNL     1      -7.753  55.254  54.282  0.00  0.00    +0.000 OA
ATOM     15  N   UNL     1      -8.502  54.336  52.119  0.00  0.00    +0.000 N 
ATOM     16  C   UNL     1      -5.951  53.954  53.000  0.00  0.00    +0.000 A 
ATOM     17  C   UNL     1      -7.959  54.274  50.945  0.00  0.00    +0.000 C 
ATOM     18  C   UNL     1      -5.642  53.908  51.650  0.00  0.00    +0.000 A 
ATOM     19  C   UNL     1      -4.973  53.907  53.993  0.00  0.00    +0.000 A 
ATOM     20  N   UNL     1      -6.626  54.054  50.681  0.00  0.00    +0.000 N 
ATOM     21  C   UNL     1      -4.297  53.786  51.288  0.00  0.00    +0.000 A 
ATOM     22  C   UNL     1      -3.636  53.798  53.620  0.00  0.00    +0.000 A 
ATOM     23  C   UNL     1      -3.300  53.727  52.268  0.00  0.00    +0.000 A 
ATOM     24  H   UNL     1      -9.459  54.551  52.199  0.00  0.00    +0.000 HD
ATOM     25  H   UNL     1      -6.350  53.996  49.738  0.00  0.00    +0.000 HD
ENDBRANCH   1  17
BRANCH   3  26
ATOM     26  O   UNL     1      -8.260  52.346  48.818  0.00  0.00    +0.000 OA
ATOM     27  H   UNL     1      -8.703  51.526  48.716  0.00  0.00    +0.000 HD
ENDBRANCH   3  26
BRANCH   5  28
ATOM     28  N   UNL     1     -11.800  56.754  48.770  0.00  0.00    +0.000 N 
ATOM     29  H   UNL     1     -11.782  57.595  48.258  0.00  0.00    +0.000 HD
BRANCH  28  30
ATOM     30  C   UNL     1     -12.922  56.399  49.653  0.00  0.00    +0.000 C 
BRANCH  30  31
ATOM     31  C   UNL     1     -14.269  57.026  49.223  0.00  0.00    +0.000 C 
ATOM     32  C   UNL     1     -14.203  58.521  48.887  0.00  0.00    +0.000 C 
ATOM     33  C   UNL     1     -15.325  56.797  50.325  0.00  0.00    +0.000 C 
ATOM     34  C   UNL     1     -13.901  59.372  50.117  0.00  0.00    +0.000 C 
ATOM     35  C   UNL     1     -15.093  57.665  51.564  0.00  0.00    +0.000 C 
ATOM     36  C   UNL     1     -14.941  59.142  51.210  0.00  0.00    +0.000 C 
ENDBRANCH  30  31
ENDBRANCH  28  30
ENDBRANCH   5  28
TORSDOF 5
ENDMDL
MODEL 9
REMARK VINA RESULT:      -8.5      3.137      5.827
REMARK  Name = 
REMARK  5 active torsions:
REMARK  status: ('A' for Active; 'I' for Inactive)
REMARK    1  A    between atoms: C_6  and  C_10
REMARK    2  A    between atoms: C_14  and  O_18
REMARK    3  A    between atoms: N_17  and  N_20
REMARK    4  A    between atoms: N_20  and  C_23
REMARK    5  A    between atoms: C_23  and  C_26
REMARK                            x       y       z     vdW  Elec       q    Type
REMARK                         _______ _______ _______ _____ _____    ______ ____
ROOT
ATOM      1  C   UNL     1     -10.052  53.484  49.289  0.00  0.00    +0.000 A 
ATOM      2  C   UNL     1     -11.275  53.761  50.089  0.00  0.00    +0.000 A 
ATOM      3  C   UNL     1      -8.832  53.765  49.776  0.00  0.00    +0.000 A 
ATOM      4  O   UNL     1     -12.350  53.481  49.546  0.00  0.00    +0.000 OA
ATOM      5  N   UNL     1     -11.123  54.331  51.364  0.00  0.00    +0.000 N 
ATOM      6  C   UNL     1      -8.678  54.258  51.146  0.00  0.00    +0.000 A 
ATOM      7  C   UNL     1      -9.815  54.540  51.926  0.00  0.00    +0.000 A 
ATOM      8  C   UNL     1      -7.390  54.435  51.685  0.00  0.00    +0.000 A 
ATOM      9  C   UNL     1      -9.617  54.983  53.247  0.00  0.00    +0.000 A 
ATOM     10  C   UNL     1      -7.218  54.842  53.002  0.00  0.00    +0.000 A 
ATOM     11  C   UNL     1      -8.331  55.107  53.787  0.00  0.00    +0.000 A 
ENDROOT
BRANCH   1  17
ATOM     12  S   UNL     1     -11.342  51.325  46.291  0.00  0.00    +0.000 S 
ATOM     13  O   UNL     1     -12.675  51.732  45.905  0.00  0.00    +0.000 OA
ATOM     14  O   UNL     1     -10.991  49.917  46.352  0.00  0.00    +0.000 OA
ATOM     15  N   UNL     1     -11.015  51.951  47.747  0.00  0.00    +0.000 N 
ATOM     16  C   UNL     1     -10.249  52.049  45.134  0.00  0.00    +0.000 A 
ATOM     17  C   UNL     1     -10.196  52.945  47.882  0.00  0.00    +0.000 C 
ATOM     18  C   UNL     1      -9.469  53.116  45.549  0.00  0.00    +0.000 A 
ATOM     19  C   UNL     1     -10.197  51.546  43.834  0.00  0.00    +0.000 A 
ATOM     20  N   UNL     1      -9.468  53.534  46.873  0.00  0.00    +0.000 N 
ATOM     21  C   UNL     1      -8.621  53.713  44.611  0.00  0.00    +0.000 A 
ATOM     22  C   UNL     1      -9.340  52.142  42.913  0.00  0.00    +0.000 A 
ATOM     23  C   UNL     1      -8.560  53.232  43.300  0.00  0.00    +0.000 A 
ATOM     24  H   UNL     1     -11.447  51.569  48.545  0.00  0.00    +0.000 HD
ATOM     25  H   UNL     1      -8.906  54.307  47.107  0.00  0.00    +0.000 HD
ENDBRANCH   1  17
BRANCH   3  26
ATOM     26  O   UNL     1      -7.652  53.621  49.066  0.00  0.00    +0.000 OA
ATOM     27  H   UNL     1      -7.157  52.828  49.135  0.00  0.00    +0.000 HD
ENDBRANCH   3  26
BRANCH   5  28
ATOM     28  N   UNL     1     -12.270  54.895  52.069  0.00  0.00    +0.000 N 
ATOM     29  H   UNL     1     -12.728  54.412  52.794  0.00  0.00    +0.000 HD
BRANCH  28  30
ATOM     30  C   UNL     1     -12.697  56.232  51.627  0.00  0.00    +0.000 C 
BRANCH  30  31
ATOM     31  C   UNL     1     -14.207  56.325  51.308  0.00  0.00    +0.000 C 
ATOM     32  C   UNL     1     -14.544  57.053  50.001  0.00  0.00    +0.000 C 
ATOM     33  C   UNL     1     -14.945  57.009  52.479  0.00  0.00    +0.000 C 
ATOM     34  C   UNL     1     -14.201  58.537  50.067  0.00  0.00    +0.000 C 
ATOM     35  C   UNL     1     -14.671  58.512  52.559  0.00  0.00    +0.000 C 
ATOM     36  C   UNL     1     -14.925  59.215  51.228  0.00  0.00    +0.000 C 
ENDBRANCH  30  31
ENDBRANCH  28  30
ENDBRANCH   5  28
TORSDOF 5
ENDMDL
