MODEL 1
REMARK VINA RESULT:      -8.1      0.000      0.000
REMARK  Name = 
REMARK  9 active torsions:
REMARK  status: ('A' for Active; 'I' for Inactive)
REMARK    1  A    between atoms: C_6  and  C_10
REMARK    2  A    between atoms: C_14  and  O_18
REMARK    3  A    between atoms: N_17  and  N_20
REMARK    4  A    between atoms: N_20  and  C_23
REMARK    5  A    between atoms: C_23  and  C_26
REMARK    6  A    between atoms: C_26  and  C_28
REMARK    7  A    between atoms: C_28  and  C_29
REMARK    8  A    between atoms: C_28  and  C_30
REMARK    9  A    between atoms: C_28  and  C_31
REMARK                            x       y       z     vdW  Elec       q    Type
REMARK                         _______ _______ _______ _____ _____    ______ ____
ROOT
ATOM      1  C   UNL     1     -10.053  54.501  52.083  0.00  0.00    +0.000 A 
ATOM      2  C   UNL     1      -8.714  55.081  51.847  0.00  0.00    +0.000 A 
ATOM      3  C   UNL     1     -10.207  53.426  52.872  0.00  0.00    +0.000 A 
ATOM      4  O   UNL     1      -8.676  56.138  51.197  0.00  0.00    +0.000 OA
ATOM      5  N   UNL     1      -7.605  54.456  52.433  0.00  0.00    +0.000 N 
ATOM      6  C   UNL     1      -9.041  52.799  53.506  0.00  0.00    +0.000 A 
ATOM      7  C   UNL     1      -7.755  53.318  53.279  0.00  0.00    +0.000 A 
ATOM      8  C   UNL     1      -9.202  51.713  54.377  0.00  0.00    +0.000 A 
ATOM      9  C   UNL     1      -6.658  52.736  53.932  0.00  0.00    +0.000 A 
ATOM     10  C   UNL     1      -8.111  51.168  55.049  0.00  0.00    +0.000 A 
ATOM     11  C   UNL     1      -6.839  51.681  54.829  0.00  0.00    +0.000 A 
ENDROOT
BRANCH   1  17
ATOM     12  S   UNL     1     -12.550  55.964  49.475  0.00  0.00    +0.000 S 
ATOM     13  O   UNL     1     -13.452  54.948  48.988  0.00  0.00    +0.000 OA
ATOM     14  O   UNL     1     -11.988  56.948  48.562  0.00  0.00    +0.000 OA
ATOM     15  N   UNL     1     -11.337  55.221  50.217  0.00  0.00    +0.000 N 
ATOM     16  C   UNL     1     -13.441  56.869  50.675  0.00  0.00    +0.000 A 
ATOM     17  C   UNL     1     -11.253  55.208  51.512  0.00  0.00    +0.000 C 
ATOM     18  C   UNL     1     -13.122  56.689  52.011  0.00  0.00    +0.000 A 
ATOM     19  C   UNL     1     -14.455  57.751  50.274  0.00  0.00    +0.000 A 
ATOM     20  N   UNL     1     -12.143  55.784  52.392  0.00  0.00    +0.000 N 
ATOM     21  C   UNL     1     -13.870  57.378  52.977  0.00  0.00    +0.000 A 
ATOM     22  C   UNL     1     -15.176  58.442  51.239  0.00  0.00    +0.000 A 
ATOM     23  C   UNL     1     -14.885  58.252  52.592  0.00  0.00    +0.000 A 
ATOM     24  H   UNL     1     -10.645  54.769  49.681  0.00  0.00    +0.000 HD
ATOM     25  H   UNL     1     -12.081  55.539  53.344  0.00  0.00    +0.000 HD
ENDBRANCH   1  17
BRANCH   3  26
ATOM     26  O   UNL     1     -11.431  52.870  53.208  0.00  0.00    +0.000 OA
ATOM     27  H   UNL     1     -11.496  52.284  53.935  0.00  0.00    +0.000 HD
ENDBRANCH   3  26
BRANCH   5  28
ATOM     28  N   UNL     1      -6.285  55.010  52.318  0.00  0.00    +0.000 N 
ATOM     29  H   UNL     1      -5.959  55.727  52.909  0.00  0.00    +0.000 HD
BRANCH  28  30
ATOM     30  C   UNL     1      -5.461  54.431  51.260  0.00  0.00    +0.000 C 
BRANCH  30  31
ATOM     31  C   UNL     1      -5.657  55.082  49.879  0.00  0.00    +0.000 C 
BRANCH  31  32
ATOM     32  C   UNL     1      -6.129  54.071  48.800  0.00  0.00    +0.000 C 
ATOM     33  C   UNL     1      -6.806  52.842  49.440  0.00  0.00    +0.000 C 
ATOM     34  C   UNL     1      -7.142  54.748  47.859  0.00  0.00    +0.000 C 
ATOM     35  C   UNL     1      -4.920  53.613  47.974  0.00  0.00    +0.000 C 
ENDBRANCH  31  32
ENDBRANCH  30  31
ENDBRANCH  28  30
ENDBRANCH   5  28
TORSDOF 6
ENDMDL
MODEL 2
REMARK VINA RESULT:      -8.1      1.808      2.587
REMARK  Name = 
REMARK  9 active torsions:
REMARK  status: ('A' for Active; 'I' for Inactive)
REMARK    1  A    between atoms: C_6  and  C_10
REMARK    2  A    between atoms: C_14  and  O_18
REMARK    3  A    between atoms: N_17  and  N_20
REMARK    4  A    between atoms: N_20  and  C_23
REMARK    5  A    between atoms: C_23  and  C_26
REMARK    6  A    between atoms: C_26  and  C_28
REMARK    7  A    between atoms: C_28  and  C_29
REMARK    8  A    between atoms: C_28  and  C_30
REMARK    9  A    between atoms: C_28  and  C_31
REMARK                            x       y       z     vdW  Elec       q    Type
REMARK                         _______ _______ _______ _____ _____    ______ ____
ROOT
ATOM      1  C   UNL     1     -11.259  53.958  51.551  0.00  0.00    +0.000 A 
ATOM      2  C   UNL     1     -10.280  54.166  52.639  0.00  0.00    +0.000 A 
ATOM      3  C   UNL     1     -11.432  52.744  51.005  0.00  0.00    +0.000 A 
ATOM      4  O   UNL     1     -10.265  55.292  53.161  0.00  0.00    +0.000 OA
ATOM      5  N   UNL     1      -9.506  53.074  53.057  0.00  0.00    +0.000 N 
ATOM      6  C   UNL     1     -10.639  51.601  51.473  0.00  0.00    +0.000 A 
ATOM      7  C   UNL     1      -9.685  51.778  52.490  0.00  0.00    +0.000 A 
ATOM      8  C   UNL     1     -10.856  50.321  50.948  0.00  0.00    +0.000 A 
ATOM      9  C   UNL     1      -8.970  50.665  52.958  0.00  0.00    +0.000 A 
ATOM     10  C   UNL     1     -10.169  49.217  51.446  0.00  0.00    +0.000 A 
ATOM     11  C   UNL     1      -9.228  49.389  52.453  0.00  0.00    +0.000 A 
ENDROOT
BRANCH   1  17
ATOM     12  S   UNL     1     -12.856  56.764  49.370  0.00  0.00    +0.000 S 
ATOM     13  O   UNL     1     -13.884  56.233  48.507  0.00  0.00    +0.000 OA
ATOM     14  O   UNL     1     -11.927  57.770  48.877  0.00  0.00    +0.000 OA
ATOM     15  N   UNL     1     -12.000  55.525  49.925  0.00  0.00    +0.000 N 
ATOM     16  C   UNL     1     -13.687  57.492  50.724  0.00  0.00    +0.000 A 
ATOM     17  C   UNL     1     -12.139  55.111  51.147  0.00  0.00    +0.000 C 
ATOM     18  C   UNL     1     -13.648  56.846  51.949  0.00  0.00    +0.000 A 
ATOM     19  C   UNL     1     -14.375  58.701  50.552  0.00  0.00    +0.000 A 
ATOM     20  N   UNL     1     -12.996  55.631  52.091  0.00  0.00    +0.000 N 
ATOM     21  C   UNL     1     -14.357  57.405  53.023  0.00  0.00    +0.000 A 
ATOM     22  C   UNL     1     -15.058  59.254  51.628  0.00  0.00    +0.000 A 
ATOM     23  C   UNL     1     -15.051  58.604  52.863  0.00  0.00    +0.000 A 
ATOM     24  H   UNL     1     -11.360  55.073  49.328  0.00  0.00    +0.000 HD
ATOM     25  H   UNL     1     -13.156  55.111  52.913  0.00  0.00    +0.000 HD
ENDBRANCH   1  17
BRANCH   3  26
ATOM     26  O   UNL     1     -12.382  52.448  50.040  0.00  0.00    +0.000 OA
ATOM     27  H   UNL     1     -13.144  51.954  50.269  0.00  0.00    +0.000 HD
ENDBRANCH   3  26
BRANCH   5  28
ATOM     28  N   UNL     1      -8.597  53.180  54.162  0.00  0.00    +0.000 N 
ATOM     29  H   UNL     1      -8.773  52.758  55.034  0.00  0.00    +0.000 HD
BRANCH  28  30
ATOM     30  C   UNL     1      -7.389  53.960  53.899  0.00  0.00    +0.000 C 
BRANCH  30  31
ATOM     31  C   UNL     1      -6.357  53.245  53.009  0.00  0.00    +0.000 C 
BRANCH  31  32
ATOM     32  C   UNL     1      -6.222  53.893  51.605  0.00  0.00    +0.000 C 
ATOM     33  C   UNL     1      -6.937  55.258  51.546  0.00  0.00    +0.000 C 
ATOM     34  C   UNL     1      -4.735  54.108  51.271  0.00  0.00    +0.000 C 
ATOM     35  C   UNL     1      -6.831  52.955  50.556  0.00  0.00    +0.000 C 
ENDBRANCH  31  32
ENDBRANCH  30  31
ENDBRANCH  28  30
ENDBRANCH   5  28
TORSDOF 6
ENDMDL
MODEL 3
REMARK VINA RESULT:      -8.0      2.633      5.093
REMARK  Name = 
REMARK  9 active torsions:
REMARK  status: ('A' for Active; 'I' for Inactive)
REMARK    1  A    between atoms: C_6  and  C_10
REMARK    2  A    between atoms: C_14  and  O_18
REMARK    3  A    between atoms: N_17  and  N_20
REMARK    4  A    between atoms: N_20  and  C_23
REMARK    5  A    between atoms: C_23  and  C_26
REMARK    6  A    between atoms: C_26  and  C_28
REMARK    7  A    between atoms: C_28  and  C_29
REMARK    8  A    between atoms: C_28  and  C_30
REMARK    9  A    between atoms: C_28  and  C_31
REMARK                            x       y       z     vdW  Elec       q    Type
REMARK                         _______ _______ _______ _____ _____    ______ ____
ROOT
ATOM      1  C   UNL     1     -10.669  55.753  48.245  0.00  0.00    +0.000 A 
ATOM      2  C   UNL     1      -9.226  55.861  48.550  0.00  0.00    +0.000 A 
ATOM      3  C   UNL     1     -11.094  55.067  47.172  0.00  0.00    +0.000 A 
ATOM      4  O   UNL     1      -8.929  56.416  49.620  0.00  0.00    +0.000 OA
ATOM      5  N   UNL     1      -8.312  55.268  47.669  0.00  0.00    +0.000 N 
ATOM      6  C   UNL     1     -10.128  54.423  46.273  0.00  0.00    +0.000 A 
ATOM      7  C   UNL     1      -8.751  54.531  46.530  0.00  0.00    +0.000 A 
ATOM      8  C   UNL     1     -10.568  53.658  45.185  0.00  0.00    +0.000 A 
ATOM      9  C   UNL     1      -7.844  53.868  45.688  0.00  0.00    +0.000 A 
ATOM     10  C   UNL     1      -9.662  52.973  44.380  0.00  0.00    +0.000 A 
ATOM     11  C   UNL     1      -8.300  53.076  44.633  0.00  0.00    +0.000 A 
ENDROOT
BRANCH   1  17
ATOM     12  S   UNL     1     -13.147  55.997  51.242  0.00  0.00    +0.000 S 
ATOM     13  O   UNL     1     -12.443  56.201  52.485  0.00  0.00    +0.000 OA
ATOM     14  O   UNL     1     -14.286  55.094  51.179  0.00  0.00    +0.000 OA
ATOM     15  N   UNL     1     -12.072  55.520  50.149  0.00  0.00    +0.000 N 
ATOM     16  C   UNL     1     -13.744  57.566  50.759  0.00  0.00    +0.000 A 
ATOM     17  C   UNL     1     -11.656  56.330  49.224  0.00  0.00    +0.000 C 
ATOM     18  C   UNL     1     -13.128  58.211  49.699  0.00  0.00    +0.000 A 
ATOM     19  C   UNL     1     -14.821  58.144  51.445  0.00  0.00    +0.000 A 
ATOM     20  N   UNL     1     -12.039  57.642  49.057  0.00  0.00    +0.000 N 
ATOM     21  C   UNL     1     -13.576  59.492  49.343  0.00  0.00    +0.000 A 
ATOM     22  C   UNL     1     -15.267  59.406  51.072  0.00  0.00    +0.000 A 
ATOM     23  C   UNL     1     -14.642  60.081  50.022  0.00  0.00    +0.000 A 
ATOM     24  H   UNL     1     -11.725  54.599  50.181  0.00  0.00    +0.000 HD
ATOM     25  H   UNL     1     -11.510  58.208  48.448  0.00  0.00    +0.000 HD
ENDBRANCH   1  17
BRANCH   3  26
ATOM     26  O   UNL     1     -12.426  54.851  46.859  0.00  0.00    +0.000 OA
ATOM     27  H   UNL     1     -12.800  53.999  46.965  0.00  0.00    +0.000 HD
ENDBRANCH   3  26
BRANCH   5  28
ATOM     28  N   UNL     1      -6.903  55.260  47.945  0.00  0.00    +0.000 N 
ATOM     29  H   UNL     1      -6.274  55.874  47.501  0.00  0.00    +0.000 HD
BRANCH  28  30
ATOM     30  C   UNL     1      -6.471  54.274  48.933  0.00  0.00    +0.000 C 
BRANCH  30  31
ATOM     31  C   UNL     1      -5.880  54.883  50.217  0.00  0.00    +0.000 C 
BRANCH  31  32
ATOM     32  C   UNL     1      -6.525  54.309  51.506  0.00  0.00    +0.000 C 
ATOM     33  C   UNL     1      -7.009  55.435  52.442  0.00  0.00    +0.000 C 
ATOM     34  C   UNL     1      -7.734  53.431  51.137  0.00  0.00    +0.000 C 
ATOM     35  C   UNL     1      -5.495  53.444  52.243  0.00  0.00    +0.000 C 
ENDBRANCH  31  32
ENDBRANCH  30  31
ENDBRANCH  28  30
ENDBRANCH   5  28
TORSDOF 6
ENDMDL
MODEL 4
REMARK VINA RESULT:      -8.0      3.002      6.908
REMARK  Name = 
REMARK  9 active torsions:
REMARK  status: ('A' for Active; 'I' for Inactive)
REMARK    1  A    between atoms: C_6  and  C_10
REMARK    2  A    between atoms: C_14  and  O_18
REMARK    3  A    between atoms: N_17  and  N_20
REMARK    4  A    between atoms: N_20  and  C_23
REMARK    5  A    between atoms: C_23  and  C_26
REMARK    6  A    between atoms: C_26  and  C_28
REMARK    7  A    between atoms: C_28  and  C_29
REMARK    8  A    between atoms: C_28  and  C_30
REMARK    9  A    between atoms: C_28  and  C_31
REMARK                            x       y       z     vdW  Elec       q    Type
REMARK                         _______ _______ _______ _____ _____    ______ ____
ROOT
ATOM      1  C   UNL     1     -10.267  55.296  50.783  0.00  0.00    +0.000 A 
ATOM      2  C   UNL     1      -9.823  55.253  49.373  0.00  0.00    +0.000 A 
ATOM      3  C   UNL     1     -11.496  55.729  51.102  0.00  0.00    +0.000 A 
ATOM      4  O   UNL     1      -8.715  54.735  49.159  0.00  0.00    +0.000 OA
ATOM      5  N   UNL     1     -10.701  55.714  48.383  0.00  0.00    +0.000 N 
ATOM      6  C   UNL     1     -12.420  56.180  50.054  0.00  0.00    +0.000 A 
ATOM      7  C   UNL     1     -12.013  56.169  48.709  0.00  0.00    +0.000 A 
ATOM      8  C   UNL     1     -13.724  56.577  50.375  0.00  0.00    +0.000 A 
ATOM      9  C   UNL     1     -12.925  56.557  47.715  0.00  0.00    +0.000 A 
ATOM     10  C   UNL     1     -14.632  56.923  49.379  0.00  0.00    +0.000 A 
ATOM     11  C   UNL     1     -14.234  56.911  48.048  0.00  0.00    +0.000 A 
ENDROOT
BRANCH   1  17
ATOM     12  S   UNL     1      -7.113  54.806  53.018  0.00  0.00    +0.000 S 
ATOM     13  O   UNL     1      -7.090  55.757  54.104  0.00  0.00    +0.000 OA
ATOM     14  O   UNL     1      -5.890  54.477  52.301  0.00  0.00    +0.000 OA
ATOM     15  N   UNL     1      -8.196  55.317  51.948  0.00  0.00    +0.000 N 
ATOM     16  C   UNL     1      -7.696  53.307  53.698  0.00  0.00    +0.000 A 
ATOM     17  C   UNL     1      -9.353  54.739  51.841  0.00  0.00    +0.000 C 
ATOM     18  C   UNL     1      -8.983  52.896  53.389  0.00  0.00    +0.000 A 
ATOM     19  C   UNL     1      -6.865  52.551  54.538  0.00  0.00    +0.000 A 
ATOM     20  N   UNL     1      -9.805  53.674  52.589  0.00  0.00    +0.000 N 
ATOM     21  C   UNL     1      -9.468  51.717  53.975  0.00  0.00    +0.000 A 
ATOM     22  C   UNL     1      -7.351  51.376  55.097  0.00  0.00    +0.000 A 
ATOM     23  C   UNL     1      -8.654  50.960  54.818  0.00  0.00    +0.000 A 
ATOM     24  H   UNL     1      -7.977  56.080  51.365  0.00  0.00    +0.000 HD
ATOM     25  H   UNL     1     -10.764  53.454  52.554  0.00  0.00    +0.000 HD
ENDBRANCH   1  17
BRANCH   3  26
ATOM     26  O   UNL     1     -12.018  55.727  52.386  0.00  0.00    +0.000 OA
ATOM     27  H   UNL     1     -12.555  55.015  52.673  0.00  0.00    +0.000 HD
ENDBRANCH   3  26
BRANCH   5  28
ATOM     28  N   UNL     1     -10.372  55.624  46.988  0.00  0.00    +0.000 N 
ATOM     29  H   UNL     1     -10.232  56.419  46.426  0.00  0.00    +0.000 HD
BRANCH  28  30
ATOM     30  C   UNL     1     -10.260  54.264  46.465  0.00  0.00    +0.000 C 
BRANCH  30  31
ATOM     31  C   UNL     1     -11.603  53.521  46.344  0.00  0.00    +0.000 C 
BRANCH  31  32
ATOM     32  C   UNL     1     -11.658  52.234  47.210  0.00  0.00    +0.000 C 
ATOM     33  C   UNL     1     -12.248  52.519  48.604  0.00  0.00    +0.000 C 
ATOM     34  C   UNL     1     -12.536  51.177  46.516  0.00  0.00    +0.000 C 
ATOM     35  C   UNL     1     -10.239  51.670  47.364  0.00  0.00    +0.000 C 
ENDBRANCH  31  32
ENDBRANCH  30  31
ENDBRANCH  28  30
ENDBRANCH   5  28
TORSDOF 6
ENDMDL
MODEL 5
REMARK VINA RESULT:      -8.0      2.763      8.080
REMARK  Name = 
REMARK  9 active torsions:
REMARK  status: ('A' for Active; 'I' for Inactive)
REMARK    1  A    between atoms: C_6  and  C_10
REMARK    2  A    between atoms: C_14  and  O_18
REMARK    3  A    between atoms: N_17  and  N_20
REMARK    4  A    between atoms: N_20  and  C_23
REMARK    5  A    between atoms: C_23  and  C_26
REMARK    6  A    between atoms: C_26  and  C_28
REMARK    7  A    between atoms: C_28  and  C_29
REMARK    8  A    between atoms: C_28  and  C_30
REMARK    9  A    between atoms: C_28  and  C_31
REMARK                            x       y       z     vdW  Elec       q    Type
REMARK                         _______ _______ _______ _____ _____    ______ ____
ROOT
ATOM      1  C   UNL     1      -8.975  54.355  50.351  0.00  0.00    +0.000 A 
ATOM      2  C   UNL     1     -10.399  54.318  50.747  0.00  0.00    +0.000 A 
ATOM      3  C   UNL     1      -8.622  54.337  49.056  0.00  0.00    +0.000 A 
ATOM      4  O   UNL     1     -10.639  54.451  51.958  0.00  0.00    +0.000 OA
ATOM      5  N   UNL     1     -11.369  54.221  49.740  0.00  0.00    +0.000 N 
ATOM      6  C   UNL     1      -9.648  54.267  48.008  0.00  0.00    +0.000 A 
ATOM      7  C   UNL     1     -11.007  54.209  48.360  0.00  0.00    +0.000 A 
ATOM      8  C   UNL     1      -9.289  54.307  46.655  0.00  0.00    +0.000 A 
ATOM      9  C   UNL     1     -11.977  54.192  47.345  0.00  0.00    +0.000 A 
ATOM     10  C   UNL     1     -10.259  54.329  45.658  0.00  0.00    +0.000 A 
ATOM     11  C   UNL     1     -11.604  54.274  46.002  0.00  0.00    +0.000 A 
ENDROOT
BRANCH   1  17
ATOM     12  S   UNL     1      -7.127  55.777  53.472  0.00  0.00    +0.000 S 
ATOM     13  O   UNL     1      -7.686  55.251  54.694  0.00  0.00    +0.000 OA
ATOM     14  O   UNL     1      -6.743  57.178  53.381  0.00  0.00    +0.000 OA
ATOM     15  N   UNL     1      -8.167  55.467  52.290  0.00  0.00    +0.000 N 
ATOM     16  C   UNL     1      -5.675  54.855  53.166  0.00  0.00    +0.000 A 
ATOM     17  C   UNL     1      -7.935  54.527  51.425  0.00  0.00    +0.000 C 
ATOM     18  C   UNL     1      -5.687  53.922  52.142  0.00  0.00    +0.000 A 
ATOM     19  C   UNL     1      -4.534  55.067  53.953  0.00  0.00    +0.000 A 
ATOM     20  N   UNL     1      -6.836  53.697  51.398  0.00  0.00    +0.000 N 
ATOM     21  C   UNL     1      -4.537  53.147  51.928  0.00  0.00    +0.000 A 
ATOM     22  C   UNL     1      -3.396  54.306  53.720  0.00  0.00    +0.000 A 
ATOM     23  C   UNL     1      -3.399  53.343  52.709  0.00  0.00    +0.000 A 
ATOM     24  H   UNL     1      -8.993  55.998  52.220  0.00  0.00    +0.000 HD
ATOM     25  H   UNL     1      -6.867  52.900  50.820  0.00  0.00    +0.000 HD
ENDBRANCH   1  17
BRANCH   3  26
ATOM     26  O   UNL     1      -7.319  54.448  48.598  0.00  0.00    +0.000 OA
ATOM     27  H   UNL     1      -7.052  55.210  48.123  0.00  0.00    +0.000 HD
ENDBRANCH   3  26
BRANCH   5  28
ATOM     28  N   UNL     1     -12.771  54.266  50.043  0.00  0.00    +0.000 N 
ATOM     29  H   UNL     1     -13.301  53.454  50.217  0.00  0.00    +0.000 HD
BRANCH  28  30
ATOM     30  C   UNL     1     -13.356  55.605  50.076  0.00  0.00    +0.000 C 
BRANCH  30  31
ATOM     31  C   UNL     1     -13.805  56.064  51.475  0.00  0.00    +0.000 C 
BRANCH  31  32
ATOM     32  C   UNL     1     -14.981  57.076  51.426  0.00  0.00    +0.000 C 
ATOM     33  C   UNL     1     -14.601  58.340  50.630  0.00  0.00    +0.000 C 
ATOM     34  C   UNL     1     -16.201  56.424  50.752  0.00  0.00    +0.000 C 
ATOM     35  C   UNL     1     -15.363  57.473  52.858  0.00  0.00    +0.000 C 
ENDBRANCH  31  32
ENDBRANCH  30  31
ENDBRANCH  28  30
ENDBRANCH   5  28
TORSDOF 6
ENDMDL
MODEL 6
REMARK VINA RESULT:      -7.8      1.991      2.883
REMARK  Name = 
REMARK  9 active torsions:
REMARK  status: ('A' for Active; 'I' for Inactive)
REMARK    1  A    between atoms: C_6  and  C_10
REMARK    2  A    between atoms: C_14  and  O_18
REMARK    3  A    between atoms: N_17  and  N_20
REMARK    4  A    between atoms: N_20  and  C_23
REMARK    5  A    between atoms: C_23  and  C_26
REMARK    6  A    between atoms: C_26  and  C_28
REMARK    7  A    between atoms: C_28  and  C_29
REMARK    8  A    between atoms: C_28  and  C_30
REMARK    9  A    between atoms: C_28  and  C_31
REMARK                            x       y       z     vdW  Elec       q    Type
REMARK                         _______ _______ _______ _____ _____    ______ ____
ROOT
ATOM      1  C   UNL     1     -11.231  54.539  50.661  0.00  0.00    +0.000 A 
ATOM      2  C   UNL     1      -9.867  54.923  50.241  0.00  0.00    +0.000 A 
ATOM      3  C   UNL     1     -11.480  53.316  51.154  0.00  0.00    +0.000 A 
ATOM      4  O   UNL     1      -9.705  56.106  49.903  0.00  0.00    +0.000 OA
ATOM      5  N   UNL     1      -8.848  53.965  50.331  0.00  0.00    +0.000 N 
ATOM      6  C   UNL     1     -10.398  52.330  51.273  0.00  0.00    +0.000 A 
ATOM      7  C   UNL     1      -9.097  52.664  50.860  0.00  0.00    +0.000 A 
ATOM      8  C   UNL     1     -10.639  51.073  51.841  0.00  0.00    +0.000 A 
ATOM      9  C   UNL     1      -8.065  51.727  51.026  0.00  0.00    +0.000 A 
ATOM     10  C   UNL     1      -9.601  50.166  52.036  0.00  0.00    +0.000 A 
ATOM     11  C   UNL     1      -8.313  50.494  51.631  0.00  0.00    +0.000 A 
ENDROOT
BRANCH   1  17
ATOM     12  S   UNL     1     -13.691  57.232  49.291  0.00  0.00    +0.000 S 
ATOM     13  O   UNL     1     -14.858  56.621  48.700  0.00  0.00    +0.000 OA
ATOM     14  O   UNL     1     -13.062  58.382  48.659  0.00  0.00    +0.000 OA
ATOM     15  N   UNL     1     -12.579  56.088  49.463  0.00  0.00    +0.000 N 
ATOM     16  C   UNL     1     -14.174  57.757  50.885  0.00  0.00    +0.000 A 
ATOM     17  C   UNL     1     -12.313  55.585  50.630  0.00  0.00    +0.000 C 
ATOM     18  C   UNL     1     -13.713  57.049  51.983  0.00  0.00    +0.000 A 
ATOM     19  C   UNL     1     -15.013  58.871  51.029  0.00  0.00    +0.000 A 
ATOM     20  N   UNL     1     -12.915  55.927  51.821  0.00  0.00    +0.000 N 
ATOM     21  C   UNL     1     -14.140  57.441  53.261  0.00  0.00    +0.000 A 
ATOM     22  C   UNL     1     -15.415  59.261  52.300  0.00  0.00    +0.000 A 
ATOM     23  C   UNL     1     -14.981  58.543  53.416  0.00  0.00    +0.000 A 
ATOM     24  H   UNL     1     -12.091  55.763  48.672  0.00  0.00    +0.000 HD
ATOM     25  H   UNL     1     -12.772  55.341  52.600  0.00  0.00    +0.000 HD
ENDBRANCH   1  17
BRANCH   3  26
ATOM     26  O   UNL     1     -12.709  52.903  51.642  0.00  0.00    +0.000 OA
ATOM     27  H   UNL     1     -13.079  53.321  52.395  0.00  0.00    +0.000 HD
ENDBRANCH   3  26
BRANCH   5  28
ATOM     28  N   UNL     1      -7.484  54.290  50.022  0.00  0.00    +0.000 N 
ATOM     29  H   UNL     1      -7.021  53.932  49.230  0.00  0.00    +0.000 HD
BRANCH  28  30
ATOM     30  C   UNL     1      -6.833  55.193  50.969  0.00  0.00    +0.000 C 
BRANCH  30  31
ATOM     31  C   UNL     1      -6.065  54.480  52.096  0.00  0.00    +0.000 C 
BRANCH  31  32
ATOM     32  C   UNL     1      -6.567  54.876  53.509  0.00  0.00    +0.000 C 
ATOM     33  C   UNL     1      -5.475  54.655  54.576  0.00  0.00    +0.000 C 
ATOM     34  C   UNL     1      -6.965  56.363  53.523  0.00  0.00    +0.000 C 
ATOM     35  C   UNL     1      -7.799  54.034  53.861  0.00  0.00    +0.000 C 
ENDBRANCH  31  32
ENDBRANCH  30  31
ENDBRANCH  28  30
ENDBRANCH   5  28
TORSDOF 6
ENDMDL
MODEL 7
REMARK VINA RESULT:      -7.8      3.023      5.572
REMARK  Name = 
REMARK  9 active torsions:
REMARK  status: ('A' for Active; 'I' for Inactive)
REMARK    1  A    between atoms: C_6  and  C_10
REMARK    2  A    between atoms: C_14  and  O_18
REMARK    3  A    between atoms: N_17  and  N_20
REMARK    4  A    between atoms: N_20  and  C_23
REMARK    5  A    between atoms: C_23  and  C_26
REMARK    6  A    between atoms: C_26  and  C_28
REMARK    7  A    between atoms: C_28  and  C_29
REMARK    8  A    between atoms: C_28  and  C_30
REMARK    9  A    between atoms: C_28  and  C_31
REMARK                            x       y       z     vdW  Elec       q    Type
REMARK                         _______ _______ _______ _____ _____    ______ ____
ROOT
ATOM      1  C   UNL     1     -10.224  54.895  47.654  0.00  0.00    +0.000 A 
ATOM      2  C   UNL     1      -8.748  54.981  47.618  0.00  0.00    +0.000 A 
ATOM      3  C   UNL     1     -10.904  54.343  46.637  0.00  0.00    +0.000 A 
ATOM      4  O   UNL     1      -8.195  55.403  48.646  0.00  0.00    +0.000 OA
ATOM      5  N   UNL     1      -8.081  54.511  46.479  0.00  0.00    +0.000 N 
ATOM      6  C   UNL     1     -10.192  53.825  45.462  0.00  0.00    +0.000 A 
ATOM      7  C   UNL     1      -8.791  53.916  45.395  0.00  0.00    +0.000 A 
ATOM      8  C   UNL     1     -10.891  53.196  44.425  0.00  0.00    +0.000 A 
ATOM      9  C   UNL     1      -8.123  53.372  44.287  0.00  0.00    +0.000 A 
ATOM     10  C   UNL     1     -10.216  52.625  43.350  0.00  0.00    +0.000 A 
ATOM     11  C   UNL     1      -8.831  52.711  43.282  0.00  0.00    +0.000 A 
ENDROOT
BRANCH   1  17
ATOM     12  S   UNL     1     -11.514  54.910  51.330  0.00  0.00    +0.000 S 
ATOM     13  O   UNL     1     -10.514  55.430  52.232  0.00  0.00    +0.000 OA
ATOM     14  O   UNL     1     -12.320  53.759  51.709  0.00  0.00    +0.000 OA
ATOM     15  N   UNL     1     -10.785  54.572  49.941  0.00  0.00    +0.000 N 
ATOM     16  C   UNL     1     -12.636  56.217  51.044  0.00  0.00    +0.000 A 
ATOM     17  C   UNL     1     -10.939  55.336  48.903  0.00  0.00    +0.000 C 
ATOM     18  C   UNL     1     -12.612  56.853  49.814  0.00  0.00    +0.000 A 
ATOM     19  C   UNL     1     -13.532  56.600  52.053  0.00  0.00    +0.000 A 
ATOM     20  N   UNL     1     -11.693  56.487  48.843  0.00  0.00    +0.000 N 
ATOM     21  C   UNL     1     -13.480  57.935  49.602  0.00  0.00    +0.000 A 
ATOM     22  C   UNL     1     -14.400  57.661  51.824  0.00  0.00    +0.000 A 
ATOM     23  C   UNL     1     -14.371  58.331  50.599  0.00  0.00    +0.000 A 
ATOM     24  H   UNL     1     -10.213  53.773  49.875  0.00  0.00    +0.000 HD
ATOM     25  H   UNL     1     -11.574  57.083  48.067  0.00  0.00    +0.000 HD
ENDBRANCH   1  17
BRANCH   3  26
ATOM     26  O   UNL     1     -12.277  54.152  46.626  0.00  0.00    +0.000 OA
ATOM     27  H   UNL     1     -12.814  54.646  46.039  0.00  0.00    +0.000 HD
ENDBRANCH   3  26
BRANCH   5  28
ATOM     28  N   UNL     1      -6.647  54.485  46.408  0.00  0.00    +0.000 N 
ATOM     29  H   UNL     1      -6.129  55.159  45.911  0.00  0.00    +0.000 HD
BRANCH  28  30
ATOM     30  C   UNL     1      -6.012  53.384  47.129  0.00  0.00    +0.000 C 
BRANCH  30  31
ATOM     31  C   UNL     1      -4.996  53.831  48.196  0.00  0.00    +0.000 C 
BRANCH  31  32
ATOM     32  C   UNL     1      -5.281  53.217  49.592  0.00  0.00    +0.000 C 
ATOM     33  C   UNL     1      -6.621  52.453  49.607  0.00  0.00    +0.000 C 
ATOM     34  C   UNL     1      -4.157  52.234  49.969  0.00  0.00    +0.000 C 
ATOM     35  C   UNL     1      -5.325  54.339  50.638  0.00  0.00    +0.000 C 
ENDBRANCH  31  32
ENDBRANCH  30  31
ENDBRANCH  28  30
ENDBRANCH   5  28
TORSDOF 6
ENDMDL
MODEL 8
REMARK VINA RESULT:      -7.8      3.629      7.408
REMARK  Name = 
REMARK  9 active torsions:
REMARK  status: ('A' for Active; 'I' for Inactive)
REMARK    1  A    between atoms: C_6  and  C_10
REMARK    2  A    between atoms: C_14  and  O_18
REMARK    3  A    between atoms: N_17  and  N_20
REMARK    4  A    between atoms: N_20  and  C_23
REMARK    5  A    between atoms: C_23  and  C_26
REMARK    6  A    between atoms: C_26  and  C_28
REMARK    7  A    between atoms: C_28  and  C_29
REMARK    8  A    between atoms: C_28  and  C_30
REMARK    9  A    between atoms: C_28  and  C_31
REMARK                            x       y       z     vdW  Elec       q    Type
REMARK                         _______ _______ _______ _____ _____    ______ ____
ROOT
ATOM      1  C   UNL     1     -11.495  54.352  48.172  0.00  0.00    +0.000 A 
ATOM      2  C   UNL     1     -11.607  53.594  49.437  0.00  0.00    +0.000 A 
ATOM      3  C   UNL     1     -12.132  55.523  48.015  0.00  0.00    +0.000 A 
ATOM      4  O   UNL     1     -10.898  52.580  49.538  0.00  0.00    +0.000 OA
ATOM      5  N   UNL     1     -12.426  54.108  50.451  0.00  0.00    +0.000 N 
ATOM      6  C   UNL     1     -12.962  56.067  49.096  0.00  0.00    +0.000 A 
ATOM      7  C   UNL     1     -13.101  55.355  50.299  0.00  0.00    +0.000 A 
ATOM      8  C   UNL     1     -13.581  57.316  48.960  0.00  0.00    +0.000 A 
ATOM      9  C   UNL     1     -13.860  55.913  51.341  0.00  0.00    +0.000 A 
ATOM     10  C   UNL     1     -14.298  57.878  50.012  0.00  0.00    +0.000 A 
ATOM     11  C   UNL     1     -14.436  57.177  51.204  0.00  0.00    +0.000 A 
ENDROOT
BRANCH   1  17
ATOM     12  S   UNL     1      -8.294  53.930  45.992  0.00  0.00    +0.000 S 
ATOM     13  O   UNL     1      -7.324  53.084  46.647  0.00  0.00    +0.000 OA
ATOM     14  O   UNL     1      -7.866  55.126  45.280  0.00  0.00    +0.000 OA
ATOM     15  N   UNL     1      -9.378  54.366  47.092  0.00  0.00    +0.000 N 
ATOM     16  C   UNL     1      -9.099  52.924  44.813  0.00  0.00    +0.000 A 
ATOM     17  C   UNL     1     -10.564  53.838  47.107  0.00  0.00    +0.000 C 
ATOM     18  C   UNL     1     -10.400  52.521  45.065  0.00  0.00    +0.000 A 
ATOM     19  C   UNL     1      -8.424  52.542  43.645  0.00  0.00    +0.000 A 
ATOM     20  N   UNL     1     -11.038  52.875  46.244  0.00  0.00    +0.000 N 
ATOM     21  C   UNL     1     -11.029  51.672  44.142  0.00  0.00    +0.000 A 
ATOM     22  C   UNL     1      -9.064  51.716  42.729  0.00  0.00    +0.000 A 
ATOM     23  C   UNL     1     -10.366  51.279  42.980  0.00  0.00    +0.000 A 
ATOM     24  H   UNL     1      -9.140  55.045  47.765  0.00  0.00    +0.000 HD
ATOM     25  H   UNL     1     -11.877  52.413  46.476  0.00  0.00    +0.000 HD
ENDBRANCH   1  17
BRANCH   3  26
ATOM     26  O   UNL     1     -12.017  56.332  46.895  0.00  0.00    +0.000 OA
ATOM     27  H   UNL     1     -11.275  56.247  46.329  0.00  0.00    +0.000 HD
ENDBRANCH   3  26
BRANCH   5  28
ATOM     28  N   UNL     1     -12.516  53.473  51.736  0.00  0.00    +0.000 N 
ATOM     29  H   UNL     1     -13.370  53.154  52.109  0.00  0.00    +0.000 HD
BRANCH  28  30
ATOM     30  C   UNL     1     -11.248  53.333  52.448  0.00  0.00    +0.000 C 
BRANCH  30  31
ATOM     31  C   UNL     1     -10.594  54.670  52.841  0.00  0.00    +0.000 C 
BRANCH  31  32
ATOM     32  C   UNL     1      -9.111  54.768  52.395  0.00  0.00    +0.000 C 
ATOM     33  C   UNL     1      -8.218  55.310  53.528  0.00  0.00    +0.000 C 
ATOM     34  C   UNL     1      -8.595  53.374  51.994  0.00  0.00    +0.000 C 
ATOM     35  C   UNL     1      -9.011  55.698  51.179  0.00  0.00    +0.000 C 
ENDBRANCH  31  32
ENDBRANCH  30  31
ENDBRANCH  28  30
ENDBRANCH   5  28
TORSDOF 6
ENDMDL
MODEL 9
REMARK VINA RESULT:      -7.8      2.684      5.049
REMARK  Name = 
REMARK  9 active torsions:
REMARK  status: ('A' for Active; 'I' for Inactive)
REMARK    1  A    between atoms: C_6  and  C_10
REMARK    2  A    between atoms: C_14  and  O_18
REMARK    3  A    between atoms: N_17  and  N_20
REMARK    4  A    between atoms: N_20  and  C_23
REMARK    5  A    between atoms: C_23  and  C_26
REMARK    6  A    between atoms: C_26  and  C_28
REMARK    7  A    between atoms: C_28  and  C_29
REMARK    8  A    between atoms: C_28  and  C_30
REMARK    9  A    between atoms: C_28  and  C_31
REMARK                            x       y       z     vdW  Elec       q    Type
REMARK                         _______ _______ _______ _____ _____    ______ ____
ROOT
ATOM      1  C   UNL     1     -11.718  55.814  48.836  0.00  0.00    +0.000 A 
ATOM      2  C   UNL     1     -10.817  55.035  49.712  0.00  0.00    +0.000 A 
ATOM      3  C   UNL     1     -11.788  55.556  47.520  0.00  0.00    +0.000 A 
ATOM      4  O   UNL     1     -10.898  55.265  50.930  0.00  0.00    +0.000 OA
ATOM      5  N   UNL     1     -10.009  54.049  49.130  0.00  0.00    +0.000 N 
ATOM      6  C   UNL     1     -10.960  54.499  46.927  0.00  0.00    +0.000 A 
ATOM      7  C   UNL     1     -10.080  53.760  47.736  0.00  0.00    +0.000 A 
ATOM      8  C   UNL     1     -11.072  54.185  45.567  0.00  0.00    +0.000 A 
ATOM      9  C   UNL     1      -9.332  52.721  47.161  0.00  0.00    +0.000 A 
ATOM     10  C   UNL     1     -10.354  53.128  45.015  0.00  0.00    +0.000 A 
ATOM     11  C   UNL     1      -9.486  52.394  45.812  0.00  0.00    +0.000 A 
ENDROOT
BRANCH   1  17
ATOM     12  S   UNL     1     -13.549  59.186  49.510  0.00  0.00    +0.000 S 
ATOM     13  O   UNL     1     -14.670  59.360  48.617  0.00  0.00    +0.000 OA
ATOM     14  O   UNL     1     -12.681  60.310  49.829  0.00  0.00    +0.000 OA
ATOM     15  N   UNL     1     -12.637  58.004  48.921  0.00  0.00    +0.000 N 
ATOM     16  C   UNL     1     -14.218  58.643  51.029  0.00  0.00    +0.000 A 
ATOM     17  C   UNL     1     -12.636  56.826  49.466  0.00  0.00    +0.000 C 
ATOM     18  C   UNL     1     -14.041  57.318  51.394  0.00  0.00    +0.000 A 
ATOM     19  C   UNL     1     -14.920  59.542  51.844  0.00  0.00    +0.000 A 
ATOM     20  N   UNL     1     -13.379  56.433  50.557  0.00  0.00    +0.000 N 
ATOM     21  C   UNL     1     -14.621  56.870  52.591  0.00  0.00    +0.000 A 
ATOM     22  C   UNL     1     -15.474  59.091  53.035  0.00  0.00    +0.000 A 
ATOM     23  C   UNL     1     -15.327  57.753  53.407  0.00  0.00    +0.000 A 
ATOM     24  H   UNL     1     -12.070  58.176  48.134  0.00  0.00    +0.000 HD
ATOM     25  H   UNL     1     -13.444  55.470  50.754  0.00  0.00    +0.000 HD
ENDBRANCH   1  17
BRANCH   3  26
ATOM     26  O   UNL     1     -12.660  56.183  46.645  0.00  0.00    +0.000 OA
ATOM     27  H   UNL     1     -12.892  57.081  46.778  0.00  0.00    +0.000 HD
ENDBRANCH   3  26
BRANCH   5  28
ATOM     28  N   UNL     1      -9.174  53.197  49.929  0.00  0.00    +0.000 N 
ATOM     29  H   UNL     1      -9.385  52.249  50.088  0.00  0.00    +0.000 HD
BRANCH  28  30
ATOM     30  C   UNL     1      -7.988  53.841  50.490  0.00  0.00    +0.000 C 
BRANCH  30  31
ATOM     31  C   UNL     1      -7.851  53.694  52.016  0.00  0.00    +0.000 C 
BRANCH  31  32
ATOM     32  C   UNL     1      -7.416  55.012  52.709  0.00  0.00    +0.000 C 
ATOM     33  C   UNL     1      -8.312  55.331  53.923  0.00  0.00    +0.000 C 
ATOM     34  C   UNL     1      -5.961  54.888  53.198  0.00  0.00    +0.000 C 
ATOM     35  C   UNL     1      -7.499  56.164  51.700  0.00  0.00    +0.000 C 
ENDBRANCH  31  32
ENDBRANCH  30  31
ENDBRANCH  28  30
ENDBRANCH   5  28
TORSDOF 6
ENDMDL
