MODEL 1
REMARK VINA RESULT:      -8.3      0.000      0.000
REMARK  Name = 
REMARK  5 active torsions:
REMARK  status: ('A' for Active; 'I' for Inactive)
REMARK    1  A    between atoms: C_6  and  C_10
REMARK    2  A    between atoms: C_14  and  O_18
REMARK    3  A    between atoms: N_17  and  N_20
REMARK    4  A    between atoms: N_20  and  C_23
REMARK    5  A    between atoms: C_23  and  C_26
REMARK                            x       y       z     vdW  Elec       q    Type
REMARK                         _______ _______ _______ _____ _____    ______ ____
ROOT
ATOM      1  C   UNL     1     -11.353  53.921  51.559  0.00  0.00    +0.000 A 
ATOM      2  C   UNL     1     -10.394  54.087  52.690  0.00  0.00    +0.000 A 
ATOM      3  C   UNL     1     -11.495  52.730  50.957  0.00  0.00    +0.000 A 
ATOM      4  O   UNL     1     -10.279  55.217  53.177  0.00  0.00    +0.000 OA
ATOM      5  N   UNL     1      -9.711  52.957  53.149  0.00  0.00    +0.000 N 
ATOM      6  C   UNL     1     -10.741  51.557  51.428  0.00  0.00    +0.000 A 
ATOM      7  C   UNL     1      -9.858  51.685  52.517  0.00  0.00    +0.000 A 
ATOM      8  C   UNL     1     -10.904  50.305  50.811  0.00  0.00    +0.000 A 
ATOM      9  C   UNL     1      -9.150  50.554  52.956  0.00  0.00    +0.000 A 
ATOM     10  C   UNL     1     -10.207  49.188  51.266  0.00  0.00    +0.000 A 
ATOM     11  C   UNL     1      -9.328  49.312  52.335  0.00  0.00    +0.000 A 
ENDROOT
BRANCH   1  17
ATOM     12  S   UNL     1     -12.897  56.800  49.376  0.00  0.00    +0.000 S 
ATOM     13  O   UNL     1     -13.927  56.329  48.471  0.00  0.00    +0.000 OA
ATOM     14  O   UNL     1     -11.921  57.777  48.930  0.00  0.00    +0.000 OA
ATOM     15  N   UNL     1     -12.091  55.506  49.917  0.00  0.00    +0.000 N 
ATOM     16  C   UNL     1     -13.735  57.539  50.729  0.00  0.00    +0.000 A 
ATOM     17  C   UNL     1     -12.202  55.114  51.153  0.00  0.00    +0.000 C 
ATOM     18  C   UNL     1     -13.680  56.896  51.955  0.00  0.00    +0.000 A 
ATOM     19  C   UNL     1     -14.416  58.746  50.558  0.00  0.00    +0.000 A 
ATOM     20  N   UNL     1     -13.008  55.685  52.109  0.00  0.00    +0.000 N 
ATOM     21  C   UNL     1     -14.395  57.448  53.023  0.00  0.00    +0.000 A 
ATOM     22  C   UNL     1     -15.094  59.304  51.637  0.00  0.00    +0.000 A 
ATOM     23  C   UNL     1     -15.090  58.650  52.868  0.00  0.00    +0.000 A 
ATOM     24  H   UNL     1     -11.508  55.006  49.300  0.00  0.00    +0.000 HD
ATOM     25  H   UNL     1     -13.118  55.206  52.962  0.00  0.00    +0.000 HD
ENDBRANCH   1  17
BRANCH   3  26
ATOM     26  O   UNL     1     -12.352  52.489  49.897  0.00  0.00    +0.000 OA
ATOM     27  H   UNL     1     -12.342  51.656  49.467  0.00  0.00    +0.000 HD
ENDBRANCH   3  26
BRANCH   5  28
ATOM     28  N   UNL     1      -8.755  53.074  54.224  0.00  0.00    +0.000 N 
ATOM     29  H   UNL     1      -8.990  52.928  55.169  0.00  0.00    +0.000 HD
BRANCH  28  30
ATOM     30  C   UNL     1      -7.402  53.429  53.781  0.00  0.00    +0.000 C 
BRANCH  30  31
ATOM     31  C   UNL     1      -6.968  54.713  54.418  0.00  0.00    +0.000 C 
ATOM     32  C   UNL     1      -6.818  55.994  53.640  0.00  0.00    +0.000 C 
ATOM     33  C   UNL     1      -5.594  55.255  54.102  0.00  0.00    +0.000 C 
ENDBRANCH  30  31
ENDBRANCH  28  30
ENDBRANCH   5  28
TORSDOF 5
ENDMDL
MODEL 2
REMARK VINA RESULT:      -8.2      2.196      2.802
REMARK  Name = 
REMARK  5 active torsions:
REMARK  status: ('A' for Active; 'I' for Inactive)
REMARK    1  A    between atoms: C_6  and  C_10
REMARK    2  A    between atoms: C_14  and  O_18
REMARK    3  A    between atoms: N_17  and  N_20
REMARK    4  A    between atoms: N_20  and  C_23
REMARK    5  A    between atoms: C_23  and  C_26
REMARK                            x       y       z     vdW  Elec       q    Type
REMARK                         _______ _______ _______ _____ _____    ______ ____
ROOT
ATOM      1  C   UNL     1     -10.117  54.537  52.209  0.00  0.00    +0.000 A 
ATOM      2  C   UNL     1      -8.753  55.101  51.989  0.00  0.00    +0.000 A 
ATOM      3  C   UNL     1     -10.285  53.444  52.969  0.00  0.00    +0.000 A 
ATOM      4  O   UNL     1      -8.658  56.086  51.248  0.00  0.00    +0.000 OA
ATOM      5  N   UNL     1      -7.676  54.508  52.653  0.00  0.00    +0.000 N 
ATOM      6  C   UNL     1      -9.136  52.808  53.633  0.00  0.00    +0.000 A 
ATOM      7  C   UNL     1      -7.847  53.346  53.467  0.00  0.00    +0.000 A 
ATOM      8  C   UNL     1      -9.315  51.675  54.445  0.00  0.00    +0.000 A 
ATOM      9  C   UNL     1      -6.762  52.728  54.112  0.00  0.00    +0.000 A 
ATOM     10  C   UNL     1      -8.233  51.080  55.091  0.00  0.00    +0.000 A 
ATOM     11  C   UNL     1      -6.957  51.604  54.922  0.00  0.00    +0.000 A 
ENDROOT
BRANCH   1  17
ATOM     12  S   UNL     1     -12.577  56.037  49.538  0.00  0.00    +0.000 S 
ATOM     13  O   UNL     1     -13.472  55.044  48.979  0.00  0.00    +0.000 OA
ATOM     14  O   UNL     1     -11.964  57.036  48.681  0.00  0.00    +0.000 OA
ATOM     15  N   UNL     1     -11.391  55.249  50.306  0.00  0.00    +0.000 N 
ATOM     16  C   UNL     1     -13.512  56.928  50.724  0.00  0.00    +0.000 A 
ATOM     17  C   UNL     1     -11.305  55.266  51.604  0.00  0.00    +0.000 C 
ATOM     18  C   UNL     1     -13.194  56.758  52.062  0.00  0.00    +0.000 A 
ATOM     19  C   UNL     1     -14.530  57.791  50.311  0.00  0.00    +0.000 A 
ATOM     20  N   UNL     1     -12.185  55.885  52.461  0.00  0.00    +0.000 N 
ATOM     21  C   UNL     1     -13.974  57.419  53.016  0.00  0.00    +0.000 A 
ATOM     22  C   UNL     1     -15.276  58.471  51.268  0.00  0.00    +0.000 A 
ATOM     23  C   UNL     1     -15.003  58.278  52.622  0.00  0.00    +0.000 A 
ATOM     24  H   UNL     1     -10.724  54.747  49.783  0.00  0.00    +0.000 HD
ATOM     25  H   UNL     1     -12.095  55.697  53.424  0.00  0.00    +0.000 HD
ENDBRANCH   1  17
BRANCH   3  26
ATOM     26  O   UNL     1     -11.510  52.849  53.219  0.00  0.00    +0.000 OA
ATOM     27  H   UNL     1     -12.151  52.794  52.538  0.00  0.00    +0.000 HD
ENDBRANCH   3  26
BRANCH   5  28
ATOM     28  N   UNL     1      -6.336  55.004  52.451  0.00  0.00    +0.000 N 
ATOM     29  H   UNL     1      -5.965  55.766  52.952  0.00  0.00    +0.000 HD
BRANCH  28  30
ATOM     30  C   UNL     1      -5.577  54.270  51.433  0.00  0.00    +0.000 C 
BRANCH  30  31
ATOM     31  C   UNL     1      -5.557  55.037  50.147  0.00  0.00    +0.000 C 
ATOM     32  C   UNL     1      -6.324  54.595  48.928  0.00  0.00    +0.000 C 
ATOM     33  C   UNL     1      -4.828  54.452  48.961  0.00  0.00    +0.000 C 
ENDBRANCH  30  31
ENDBRANCH  28  30
ENDBRANCH   5  28
TORSDOF 5
ENDMDL
MODEL 3
REMARK VINA RESULT:      -8.1      3.999      4.888
REMARK  Name = 
REMARK  5 active torsions:
REMARK  status: ('A' for Active; 'I' for Inactive)
REMARK    1  A    between atoms: C_6  and  C_10
REMARK    2  A    between atoms: C_14  and  O_18
REMARK    3  A    between atoms: N_17  and  N_20
REMARK    4  A    between atoms: N_20  and  C_23
REMARK    5  A    between atoms: C_23  and  C_26
REMARK                            x       y       z     vdW  Elec       q    Type
REMARK                         _______ _______ _______ _____ _____    ______ ____
ROOT
ATOM      1  C   UNL     1     -10.693  55.632  48.108  0.00  0.00    +0.000 A 
ATOM      2  C   UNL     1      -9.229  55.724  48.382  0.00  0.00    +0.000 A 
ATOM      3  C   UNL     1     -11.141  54.988  47.019  0.00  0.00    +0.000 A 
ATOM      4  O   UNL     1      -8.876  56.364  49.379  0.00  0.00    +0.000 OA
ATOM      5  N   UNL     1      -8.351  55.059  47.521  0.00  0.00    +0.000 N 
ATOM      6  C   UNL     1     -10.202  54.325  46.101  0.00  0.00    +0.000 A 
ATOM      7  C   UNL     1      -8.820  54.368  46.362  0.00  0.00    +0.000 A 
ATOM      8  C   UNL     1     -10.673  53.633  44.971  0.00  0.00    +0.000 A 
ATOM      9  C   UNL     1      -7.939  53.726  45.476  0.00  0.00    +0.000 A 
ATOM     10  C   UNL     1      -9.790  52.986  44.109  0.00  0.00    +0.000 A 
ATOM     11  C   UNL     1      -8.424  53.035  44.359  0.00  0.00    +0.000 A 
ENDROOT
BRANCH   1  17
ATOM     12  S   UNL     1     -13.047  55.967  51.236  0.00  0.00    +0.000 S 
ATOM     13  O   UNL     1     -12.317  56.189  52.467  0.00  0.00    +0.000 OA
ATOM     14  O   UNL     1     -14.179  55.059  51.209  0.00  0.00    +0.000 OA
ATOM     15  N   UNL     1     -11.986  55.468  50.121  0.00  0.00    +0.000 N 
ATOM     16  C   UNL     1     -13.673  57.532  50.747  0.00  0.00    +0.000 A 
ATOM     17  C   UNL     1     -11.654  56.231  49.121  0.00  0.00    +0.000 C 
ATOM     18  C   UNL     1     -13.130  58.123  49.618  0.00  0.00    +0.000 A 
ATOM     19  C   UNL     1     -14.697  58.136  51.478  0.00  0.00    +0.000 A 
ATOM     20  N   UNL     1     -12.099  57.514  48.905  0.00  0.00    +0.000 N 
ATOM     21  C   UNL     1     -13.582  59.396  49.257  0.00  0.00    +0.000 A 
ATOM     22  C   UNL     1     -15.164  59.388  51.089  0.00  0.00    +0.000 A 
ATOM     23  C   UNL     1     -14.600  60.022  49.983  0.00  0.00    +0.000 A 
ATOM     24  H   UNL     1     -11.584  54.572  50.202  0.00  0.00    +0.000 HD
ATOM     25  H   UNL     1     -11.659  58.039  48.198  0.00  0.00    +0.000 HD
ENDBRANCH   1  17
BRANCH   3  26
ATOM     26  O   UNL     1     -12.478  54.863  46.683  0.00  0.00    +0.000 OA
ATOM     27  H   UNL     1     -13.013  54.229  47.119  0.00  0.00    +0.000 HD
ENDBRANCH   3  26
BRANCH   5  28
ATOM     28  N   UNL     1      -6.926  55.140  47.732  0.00  0.00    +0.000 N 
ATOM     29  H   UNL     1      -6.349  55.783  47.258  0.00  0.00    +0.000 HD
BRANCH  28  30
ATOM     30  C   UNL     1      -6.415  54.180  48.716  0.00  0.00    +0.000 C 
BRANCH  30  31
ATOM     31  C   UNL     1      -5.683  54.896  49.809  0.00  0.00    +0.000 C 
ATOM     32  C   UNL     1      -4.739  54.191  50.748  0.00  0.00    +0.000 C 
ATOM     33  C   UNL     1      -6.085  54.643  51.242  0.00  0.00    +0.000 C 
ENDBRANCH  30  31
ENDBRANCH  28  30
ENDBRANCH   5  28
TORSDOF 5
ENDMDL
MODEL 4
REMARK VINA RESULT:      -8.1      2.923      7.350
REMARK  Name = 
REMARK  5 active torsions:
REMARK  status: ('A' for Active; 'I' for Inactive)
REMARK    1  A    between atoms: C_6  and  C_10
REMARK    2  A    between atoms: C_14  and  O_18
REMARK    3  A    between atoms: N_17  and  N_20
REMARK    4  A    between atoms: N_20  and  C_23
REMARK    5  A    between atoms: C_23  and  C_26
REMARK                            x       y       z     vdW  Elec       q    Type
REMARK                         _______ _______ _______ _____ _____    ______ ____
ROOT
ATOM      1  C   UNL     1     -10.457  54.926  50.520  0.00  0.00    +0.000 A 
ATOM      2  C   UNL     1     -11.585  55.104  51.480  0.00  0.00    +0.000 A 
ATOM      3  C   UNL     1     -10.603  55.265  49.229  0.00  0.00    +0.000 A 
ATOM      4  O   UNL     1     -11.403  54.737  52.646  0.00  0.00    +0.000 OA
ATOM      5  N   UNL     1     -12.762  55.699  51.016  0.00  0.00    +0.000 N 
ATOM      6  C   UNL     1     -11.861  55.856  48.747  0.00  0.00    +0.000 A 
ATOM      7  C   UNL     1     -12.925  56.066  49.644  0.00  0.00    +0.000 A 
ATOM      8  C   UNL     1     -12.007  56.229  47.400  0.00  0.00    +0.000 A 
ATOM      9  C   UNL     1     -14.117  56.635  49.167  0.00  0.00    +0.000 A 
ATOM     10  C   UNL     1     -13.189  56.808  46.942  0.00  0.00    +0.000 A 
ATOM     11  C   UNL     1     -14.245  57.007  47.824  0.00  0.00    +0.000 A 
ENDROOT
BRANCH   1  17
ATOM     12  S   UNL     1      -7.224  52.730  50.926  0.00  0.00    +0.000 S 
ATOM     13  O   UNL     1      -6.196  53.059  49.959  0.00  0.00    +0.000 OA
ATOM     14  O   UNL     1      -7.502  51.345  51.258  0.00  0.00    +0.000 OA
ATOM     15  N   UNL     1      -8.605  53.405  50.421  0.00  0.00    +0.000 N 
ATOM     16  C   UNL     1      -6.746  53.499  52.429  0.00  0.00    +0.000 A 
ATOM     17  C   UNL     1      -9.130  54.414  51.054  0.00  0.00    +0.000 C 
ATOM     18  C   UNL     1      -7.503  54.568  52.880  0.00  0.00    +0.000 A 
ATOM     19  C   UNL     1      -5.644  53.021  53.142  0.00  0.00    +0.000 A 
ATOM     20  N   UNL     1      -8.593  55.042  52.153  0.00  0.00    +0.000 N 
ATOM     21  C   UNL     1      -7.093  55.223  54.046  0.00  0.00    +0.000 A 
ATOM     22  C   UNL     1      -5.266  53.659  54.319  0.00  0.00    +0.000 A 
ATOM     23  C   UNL     1      -5.986  54.766  54.766  0.00  0.00    +0.000 A 
ATOM     24  H   UNL     1      -9.055  53.047  49.622  0.00  0.00    +0.000 HD
ATOM     25  H   UNL     1      -9.007  55.886  52.446  0.00  0.00    +0.000 HD
ENDBRANCH   1  17
BRANCH   3  26
ATOM     26  O   UNL     1      -9.615  55.126  48.270  0.00  0.00    +0.000 OA
ATOM     27  H   UNL     1      -8.761  55.482  48.422  0.00  0.00    +0.000 HD
ENDBRANCH   3  26
BRANCH   5  28
ATOM     28  N   UNL     1     -13.888  55.868  51.901  0.00  0.00    +0.000 N 
ATOM     29  H   UNL     1     -14.608  55.201  51.987  0.00  0.00    +0.000 HD
BRANCH  28  30
ATOM     30  C   UNL     1     -13.864  57.122  52.662  0.00  0.00    +0.000 C 
BRANCH  30  31
ATOM     31  C   UNL     1     -15.096  57.925  52.380  0.00  0.00    +0.000 C 
ATOM     32  C   UNL     1     -15.061  59.215  51.604  0.00  0.00    +0.000 C 
ATOM     33  C   UNL     1     -15.285  59.243  53.090  0.00  0.00    +0.000 C 
ENDBRANCH  30  31
ENDBRANCH  28  30
ENDBRANCH   5  28
TORSDOF 5
ENDMDL
MODEL 5
REMARK VINA RESULT:      -8.0      3.332      7.677
REMARK  Name = 
REMARK  5 active torsions:
REMARK  status: ('A' for Active; 'I' for Inactive)
REMARK    1  A    between atoms: C_6  and  C_10
REMARK    2  A    between atoms: C_14  and  O_18
REMARK    3  A    between atoms: N_17  and  N_20
REMARK    4  A    between atoms: N_20  and  C_23
REMARK    5  A    between atoms: C_23  and  C_26
REMARK                            x       y       z     vdW  Elec       q    Type
REMARK                         _______ _______ _______ _____ _____    ______ ____
ROOT
ATOM      1  C   UNL     1      -9.713  55.174  50.892  0.00  0.00    +0.000 A 
ATOM      2  C   UNL     1     -10.935  55.309  51.738  0.00  0.00    +0.000 A 
ATOM      3  C   UNL     1      -9.787  55.330  49.562  0.00  0.00    +0.000 A 
ATOM      4  O   UNL     1     -10.810  55.115  52.952  0.00  0.00    +0.000 OA
ATOM      5  N   UNL     1     -12.132  55.675  51.117  0.00  0.00    +0.000 N 
ATOM      6  C   UNL     1     -11.063  55.678  48.917  0.00  0.00    +0.000 A 
ATOM      7  C   UNL     1     -12.220  55.846  49.702  0.00  0.00    +0.000 A 
ATOM      8  C   UNL     1     -11.137  55.861  47.526  0.00  0.00    +0.000 A 
ATOM      9  C   UNL     1     -13.428  56.183  49.070  0.00  0.00    +0.000 A 
ATOM     10  C   UNL     1     -12.339  56.211  46.913  0.00  0.00    +0.000 A 
ATOM     11  C   UNL     1     -13.485  56.367  47.684  0.00  0.00    +0.000 A 
ENDROOT
BRANCH   1  17
ATOM     12  S   UNL     1      -6.799  55.388  53.520  0.00  0.00    +0.000 S 
ATOM     13  O   UNL     1      -7.057  54.603  54.710  0.00  0.00    +0.000 OA
ATOM     14  O   UNL     1      -6.212  56.711  53.628  0.00  0.00    +0.000 OA
ATOM     15  N   UNL     1      -8.196  55.531  52.716  0.00  0.00    +0.000 N 
ATOM     16  C   UNL     1      -5.688  54.446  52.543  0.00  0.00    +0.000 A 
ATOM     17  C   UNL     1      -8.383  54.919  51.582  0.00  0.00    +0.000 C 
ATOM     18  C   UNL     1      -6.163  53.906  51.359  0.00  0.00    +0.000 A 
ATOM     19  C   UNL     1      -4.365  54.272  52.955  0.00  0.00    +0.000 A 
ATOM     20  N   UNL     1      -7.489  54.077  50.965  0.00  0.00    +0.000 N 
ATOM     21  C   UNL     1      -5.300  53.105  50.604  0.00  0.00    +0.000 A 
ATOM     22  C   UNL     1      -3.506  53.501  52.179  0.00  0.00    +0.000 A 
ATOM     23  C   UNL     1      -3.976  52.910  51.007  0.00  0.00    +0.000 A 
ATOM     24  H   UNL     1      -8.915  56.089  53.090  0.00  0.00    +0.000 HD
ATOM     25  H   UNL     1      -7.807  53.559  50.191  0.00  0.00    +0.000 HD
ENDBRANCH   1  17
BRANCH   3  26
ATOM     26  O   UNL     1      -8.709  55.214  48.701  0.00  0.00    +0.000 OA
ATOM     27  H   UNL     1      -7.950  54.732  48.964  0.00  0.00    +0.000 HD
ENDBRANCH   3  26
BRANCH   5  28
ATOM     28  N   UNL     1     -13.345  55.792  51.891  0.00  0.00    +0.000 N 
ATOM     29  H   UNL     1     -14.009  55.069  51.961  0.00  0.00    +0.000 HD
BRANCH  28  30
ATOM     30  C   UNL     1     -13.498  57.087  52.563  0.00  0.00    +0.000 C 
BRANCH  30  31
ATOM     31  C   UNL     1     -14.814  57.706  52.204  0.00  0.00    +0.000 C 
ATOM     32  C   UNL     1     -14.928  58.876  51.261  0.00  0.00    +0.000 C 
ATOM     33  C   UNL     1     -15.141  59.081  52.735  0.00  0.00    +0.000 C 
ENDBRANCH  30  31
ENDBRANCH  28  30
ENDBRANCH   5  28
TORSDOF 5
ENDMDL
MODEL 6
REMARK VINA RESULT:      -7.8      3.017      7.329
REMARK  Name = 
REMARK  5 active torsions:
REMARK  status: ('A' for Active; 'I' for Inactive)
REMARK    1  A    between atoms: C_6  and  C_10
REMARK    2  A    between atoms: C_14  and  O_18
REMARK    3  A    between atoms: N_17  and  N_20
REMARK    4  A    between atoms: N_20  and  C_23
REMARK    5  A    between atoms: C_23  and  C_26
REMARK                            x       y       z     vdW  Elec       q    Type
REMARK                         _______ _______ _______ _____ _____    ______ ____
ROOT
ATOM      1  C   UNL     1      -9.932  54.562  50.862  0.00  0.00    +0.000 A 
ATOM      2  C   UNL     1     -11.294  55.025  51.261  0.00  0.00    +0.000 A 
ATOM      3  C   UNL     1      -9.574  54.539  49.569  0.00  0.00    +0.000 A 
ATOM      4  O   UNL     1     -11.578  54.986  52.463  0.00  0.00    +0.000 OA
ATOM      5  N   UNL     1     -12.149  55.501  50.264  0.00  0.00    +0.000 N 
ATOM      6  C   UNL     1     -10.499  55.009  48.526  0.00  0.00    +0.000 A 
ATOM      7  C   UNL     1     -11.775  55.484  48.885  0.00  0.00    +0.000 A 
ATOM      8  C   UNL     1     -10.117  55.003  47.174  0.00  0.00    +0.000 A 
ATOM      9  C   UNL     1     -12.643  55.932  47.876  0.00  0.00    +0.000 A 
ATOM     10  C   UNL     1     -10.982  55.466  46.184  0.00  0.00    +0.000 A 
ATOM     11  C   UNL     1     -12.246  55.926  46.534  0.00  0.00    +0.000 A 
ENDROOT
BRANCH   1  17
ATOM     12  S   UNL     1      -6.704  54.532  53.102  0.00  0.00    +0.000 S 
ATOM     13  O   UNL     1      -6.689  55.601  54.080  0.00  0.00    +0.000 OA
ATOM     14  O   UNL     1      -5.497  54.188  52.375  0.00  0.00    +0.000 OA
ATOM     15  N   UNL     1      -7.854  54.877  52.018  0.00  0.00    +0.000 N 
ATOM     16  C   UNL     1      -7.174  53.081  53.970  0.00  0.00    +0.000 A 
ATOM     17  C   UNL     1      -8.952  54.180  51.958  0.00  0.00    +0.000 C 
ATOM     18  C   UNL     1      -8.420  52.539  53.699  0.00  0.00    +0.000 A 
ATOM     19  C   UNL     1      -6.298  52.497  54.887  0.00  0.00    +0.000 A 
ATOM     20  N   UNL     1      -9.290  53.139  52.790  0.00  0.00    +0.000 N 
ATOM     21  C   UNL     1      -8.826  51.417  54.429  0.00  0.00    +0.000 A 
ATOM     22  C   UNL     1      -6.699  51.361  55.582  0.00  0.00    +0.000 A 
ATOM     23  C   UNL     1      -7.966  50.826  55.359  0.00  0.00    +0.000 A 
ATOM     24  H   UNL     1      -7.722  55.627  51.394  0.00  0.00    +0.000 HD
ATOM     25  H   UNL     1     -10.210  52.793  52.741  0.00  0.00    +0.000 HD
ENDBRANCH   1  17
BRANCH   3  26
ATOM     26  O   UNL     1      -8.338  54.117  49.110  0.00  0.00    +0.000 OA
ATOM     27  H   UNL     1      -7.557  54.396  49.545  0.00  0.00    +0.000 HD
ENDBRANCH   3  26
BRANCH   5  28
ATOM     28  N   UNL     1     -13.484  55.936  50.598  0.00  0.00    +0.000 N 
ATOM     29  H   UNL     1     -14.273  55.352  50.521  0.00  0.00    +0.000 HD
BRANCH  28  30
ATOM     30  C   UNL     1     -13.558  57.325  51.064  0.00  0.00    +0.000 C 
BRANCH  30  31
ATOM     31  C   UNL     1     -14.124  57.379  52.449  0.00  0.00    +0.000 C 
ATOM     32  C   UNL     1     -15.576  57.105  52.742  0.00  0.00    +0.000 C 
ATOM     33  C   UNL     1     -15.053  58.512  52.813  0.00  0.00    +0.000 C 
ENDBRANCH  30  31
ENDBRANCH  28  30
ENDBRANCH   5  28
TORSDOF 5
ENDMDL
MODEL 7
REMARK VINA RESULT:      -7.8      3.462      4.226
REMARK  Name = 
REMARK  5 active torsions:
REMARK  status: ('A' for Active; 'I' for Inactive)
REMARK    1  A    between atoms: C_6  and  C_10
REMARK    2  A    between atoms: C_14  and  O_18
REMARK    3  A    between atoms: N_17  and  N_20
REMARK    4  A    between atoms: N_20  and  C_23
REMARK    5  A    between atoms: C_23  and  C_26
REMARK                            x       y       z     vdW  Elec       q    Type
REMARK                         _______ _______ _______ _____ _____    ______ ____
ROOT
ATOM      1  C   UNL     1     -11.583  56.026  48.770  0.00  0.00    +0.000 A 
ATOM      2  C   UNL     1     -10.499  55.429  49.604  0.00  0.00    +0.000 A 
ATOM      3  C   UNL     1     -11.734  55.660  47.487  0.00  0.00    +0.000 A 
ATOM      4  O   UNL     1     -10.387  55.835  50.765  0.00  0.00    +0.000 OA
ATOM      5  N   UNL     1      -9.702  54.430  49.037  0.00  0.00    +0.000 N 
ATOM      6  C   UNL     1     -10.862  54.634  46.893  0.00  0.00    +0.000 A 
ATOM      7  C   UNL     1      -9.858  54.032  47.674  0.00  0.00    +0.000 A 
ATOM      8  C   UNL     1     -11.032  54.236  45.556  0.00  0.00    +0.000 A 
ATOM      9  C   UNL     1      -9.039  53.051  47.091  0.00  0.00    +0.000 A 
ATOM     10  C   UNL     1     -10.223  53.251  44.995  0.00  0.00    +0.000 A 
ATOM     11  C   UNL     1      -9.224  52.661  45.760  0.00  0.00    +0.000 A 
ENDROOT
BRANCH   1  17
ATOM     12  S   UNL     1     -13.601  59.320  49.489  0.00  0.00    +0.000 S 
ATOM     13  O   UNL     1     -14.745  59.481  48.614  0.00  0.00    +0.000 OA
ATOM     14  O   UNL     1     -12.759  60.458  49.809  0.00  0.00    +0.000 OA
ATOM     15  N   UNL     1     -12.658  58.169  48.854  0.00  0.00    +0.000 N 
ATOM     16  C   UNL     1     -14.232  58.742  51.020  0.00  0.00    +0.000 A 
ATOM     17  C   UNL     1     -12.541  57.006  49.426  0.00  0.00    +0.000 C 
ATOM     18  C   UNL     1     -13.943  57.438  51.389  0.00  0.00    +0.000 A 
ATOM     19  C   UNL     1     -14.986  59.590  51.834  0.00  0.00    +0.000 A 
ATOM     20  N   UNL     1     -13.200  56.598  50.562  0.00  0.00    +0.000 N 
ATOM     21  C   UNL     1     -14.492  56.951  52.580  0.00  0.00    +0.000 A 
ATOM     22  C   UNL     1     -15.497  59.106  53.033  0.00  0.00    +0.000 A 
ATOM     23  C   UNL     1     -15.257  57.783  53.402  0.00  0.00    +0.000 A 
ATOM     24  H   UNL     1     -12.165  58.351  48.022  0.00  0.00    +0.000 HD
ATOM     25  H   UNL     1     -13.144  55.646  50.808  0.00  0.00    +0.000 HD
ENDBRANCH   1  17
BRANCH   3  26
ATOM     26  O   UNL     1     -12.703  56.168  46.640  0.00  0.00    +0.000 OA
ATOM     27  H   UNL     1     -13.596  56.211  46.922  0.00  0.00    +0.000 HD
ENDBRANCH   3  26
BRANCH   5  28
ATOM     28  N   UNL     1      -8.626  53.842  49.797  0.00  0.00    +0.000 N 
ATOM     29  H   UNL     1      -8.584  52.881  50.011  0.00  0.00    +0.000 HD
BRANCH  28  30
ATOM     30  C   UNL     1      -7.603  54.803  50.222  0.00  0.00    +0.000 C 
BRANCH  30  31
ATOM     31  C   UNL     1      -6.662  55.092  49.094  0.00  0.00    +0.000 C 
ATOM     32  C   UNL     1      -5.781  54.034  48.483  0.00  0.00    +0.000 C 
ATOM     33  C   UNL     1      -5.177  55.089  49.366  0.00  0.00    +0.000 C 
ENDBRANCH  30  31
ENDBRANCH  28  30
ENDBRANCH   5  28
TORSDOF 5
ENDMDL
MODEL 8
REMARK VINA RESULT:      -7.7      2.969      4.381
REMARK  Name = 
REMARK  5 active torsions:
REMARK  status: ('A' for Active; 'I' for Inactive)
REMARK    1  A    between atoms: C_6  and  C_10
REMARK    2  A    between atoms: C_14  and  O_18
REMARK    3  A    between atoms: N_17  and  N_20
REMARK    4  A    between atoms: N_20  and  C_23
REMARK    5  A    between atoms: C_23  and  C_26
REMARK                            x       y       z     vdW  Elec       q    Type
REMARK                         _______ _______ _______ _____ _____    ______ ____
ROOT
ATOM      1  C   UNL     1     -12.250  54.376  50.089  0.00  0.00    +0.000 A 
ATOM      2  C   UNL     1     -11.997  54.046  48.656  0.00  0.00    +0.000 A 
ATOM      3  C   UNL     1     -11.670  53.658  51.064  0.00  0.00    +0.000 A 
ATOM      4  O   UNL     1     -12.589  54.717  47.805  0.00  0.00    +0.000 OA
ATOM      5  N   UNL     1     -11.086  53.026  48.362  0.00  0.00    +0.000 N 
ATOM      6  C   UNL     1     -10.743  52.563  50.740  0.00  0.00    +0.000 A 
ATOM      7  C   UNL     1     -10.462  52.260  49.394  0.00  0.00    +0.000 A 
ATOM      8  C   UNL     1     -10.120  51.824  51.760  0.00  0.00    +0.000 A 
ATOM      9  C   UNL     1      -9.571  51.214  49.103  0.00  0.00    +0.000 A 
ATOM     10  C   UNL     1      -9.226  50.799  51.459  0.00  0.00    +0.000 A 
ATOM     11  C   UNL     1      -8.955  50.491  50.131  0.00  0.00    +0.000 A 
ENDROOT
BRANCH   1  17
ATOM     12  S   UNL     1     -15.281  56.511  51.389  0.00  0.00    +0.000 S 
ATOM     13  O   UNL     1     -15.247  56.719  52.823  0.00  0.00    +0.000 OA
ATOM     14  O   UNL     1     -16.533  56.206  50.723  0.00  0.00    +0.000 OA
ATOM     15  N   UNL     1     -14.234  55.327  51.043  0.00  0.00    +0.000 N 
ATOM     16  C   UNL     1     -14.698  57.999  50.665  0.00  0.00    +0.000 A 
ATOM     17  C   UNL     1     -13.125  55.575  50.408  0.00  0.00    +0.000 C 
ATOM     18  C   UNL     1     -13.463  57.974  50.037  0.00  0.00    +0.000 A 
ATOM     19  C   UNL     1     -15.479  59.155  50.714  0.00  0.00    +0.000 A 
ATOM     20  N   UNL     1     -12.689  56.816  50.006  0.00  0.00    +0.000 N 
ATOM     21  C   UNL     1     -12.966  59.170  49.509  0.00  0.00    +0.000 A 
ATOM     22  C   UNL     1     -14.989  60.331  50.155  0.00  0.00    +0.000 A 
ATOM     23  C   UNL     1     -13.729  60.340  49.559  0.00  0.00    +0.000 A 
ATOM     24  H   UNL     1     -14.439  54.403  51.316  0.00  0.00    +0.000 HD
ATOM     25  H   UNL     1     -11.766  56.891  49.672  0.00  0.00    +0.000 HD
ENDBRANCH   1  17
BRANCH   3  26
ATOM     26  O   UNL     1     -11.856  53.888  52.417  0.00  0.00    +0.000 OA
ATOM     27  H   UNL     1     -12.708  53.798  52.794  0.00  0.00    +0.000 HD
ENDBRANCH   3  26
BRANCH   5  28
ATOM     28  N   UNL     1     -10.829  52.655  46.992  0.00  0.00    +0.000 N 
ATOM     29  H   UNL     1     -11.046  51.767  46.627  0.00  0.00    +0.000 HD
BRANCH  28  30
ATOM     30  C   UNL     1     -10.215  53.721  46.192  0.00  0.00    +0.000 C 
BRANCH  30  31
ATOM     31  C   UNL     1      -8.734  53.752  46.417  0.00  0.00    +0.000 C 
ATOM     32  C   UNL     1      -8.061  54.826  47.230  0.00  0.00    +0.000 C 
ATOM     33  C   UNL     1      -7.916  54.821  45.734  0.00  0.00    +0.000 C 
ENDBRANCH  30  31
ENDBRANCH  28  30
ENDBRANCH   5  28
TORSDOF 5
ENDMDL
MODEL 9
REMARK VINA RESULT:      -7.7      3.082      7.650
REMARK  Name = 
REMARK  5 active torsions:
REMARK  status: ('A' for Active; 'I' for Inactive)
REMARK    1  A    between atoms: C_6  and  C_10
REMARK    2  A    between atoms: C_14  and  O_18
REMARK    3  A    between atoms: N_17  and  N_20
REMARK    4  A    between atoms: N_20  and  C_23
REMARK    5  A    between atoms: C_23  and  C_26
REMARK                            x       y       z     vdW  Elec       q    Type
REMARK                         _______ _______ _______ _____ _____    ______ ____
ROOT
ATOM      1  C   UNL     1      -9.847  53.967  50.625  0.00  0.00    +0.000 A 
ATOM      2  C   UNL     1     -11.062  54.289  51.430  0.00  0.00    +0.000 A 
ATOM      3  C   UNL     1      -9.793  54.279  49.321  0.00  0.00    +0.000 A 
ATOM      4  O   UNL     1     -11.068  53.941  52.616  0.00  0.00    +0.000 OA
ATOM      5  N   UNL     1     -12.101  54.987  50.808  0.00  0.00    +0.000 N 
ATOM      6  C   UNL     1     -10.911  54.981  48.671  0.00  0.00    +0.000 A 
ATOM      7  C   UNL     1     -12.051  55.327  49.421  0.00  0.00    +0.000 A 
ATOM      8  C   UNL     1     -10.847  55.326  47.311  0.00  0.00    +0.000 A 
ATOM      9  C   UNL     1     -13.106  56.001  48.786  0.00  0.00    +0.000 A 
ATOM     10  C   UNL     1     -11.894  56.009  46.695  0.00  0.00    +0.000 A 
ATOM     11  C   UNL     1     -13.025  56.343  47.431  0.00  0.00    +0.000 A 
ENDROOT
BRANCH   1  17
ATOM     12  S   UNL     1      -7.737  51.526  52.868  0.00  0.00    +0.000 S 
ATOM     13  O   UNL     1      -7.433  50.275  52.204  0.00  0.00    +0.000 OA
ATOM     14  O   UNL     1      -8.128  51.538  54.265  0.00  0.00    +0.000 OA
ATOM     15  N   UNL     1      -8.904  52.259  52.020  0.00  0.00    +0.000 N 
ATOM     16  C   UNL     1      -6.281  52.500  52.767  0.00  0.00    +0.000 A 
ATOM     17  C   UNL     1      -8.660  53.337  51.334  0.00  0.00    +0.000 C 
ATOM     18  C   UNL     1      -6.305  53.618  51.948  0.00  0.00    +0.000 A 
ATOM     19  C   UNL     1      -5.151  52.152  53.509  0.00  0.00    +0.000 A 
ATOM     20  N   UNL     1      -7.434  53.947  51.203  0.00  0.00    +0.000 N 
ATOM     21  C   UNL     1      -5.129  54.366  51.817  0.00  0.00    +0.000 A 
ATOM     22  C   UNL     1      -3.999  52.924  53.397  0.00  0.00    +0.000 A 
ATOM     23  C   UNL     1      -3.985  54.026  52.544  0.00  0.00    +0.000 A 
ATOM     24  H   UNL     1      -9.814  51.882  52.023  0.00  0.00    +0.000 HD
ATOM     25  H   UNL     1      -7.350  54.667  50.536  0.00  0.00    +0.000 HD
ENDBRANCH   1  17
BRANCH   3  26
ATOM     26  O   UNL     1      -8.713  54.010  48.499  0.00  0.00    +0.000 OA
ATOM     27  H   UNL     1      -8.227  54.715  48.118  0.00  0.00    +0.000 HD
ENDBRANCH   3  26
BRANCH   5  28
ATOM     28  N   UNL     1     -13.306  55.298  51.539  0.00  0.00    +0.000 N 
ATOM     29  H   UNL     1     -14.063  54.674  51.616  0.00  0.00    +0.000 HD
BRANCH  28  30
ATOM     30  C   UNL     1     -13.300  56.629  52.157  0.00  0.00    +0.000 C 
BRANCH  30  31
ATOM     31  C   UNL     1     -14.680  57.210  52.152  0.00  0.00    +0.000 C 
ATOM     32  C   UNL     1     -15.067  58.372  51.274  0.00  0.00    +0.000 C 
ATOM     33  C   UNL     1     -14.897  58.578  52.753  0.00  0.00    +0.000 C 
ENDBRANCH  30  31
ENDBRANCH  28  30
ENDBRANCH   5  28
TORSDOF 5
ENDMDL
