MODEL 1
REMARK VINA RESULT:      -8.2      0.000      0.000
REMARK  Name = 
REMARK  5 active torsions:
REMARK  status: ('A' for Active; 'I' for Inactive)
REMARK    1  A    between atoms: C_6  and  C_10
REMARK    2  A    between atoms: C_14  and  O_18
REMARK    3  A    between atoms: N_17  and  N_20
REMARK    4  A    between atoms: N_20  and  C_23
REMARK    5  A    between atoms: C_23  and  C_26
REMARK                            x       y       z     vdW  Elec       q    Type
REMARK                         _______ _______ _______ _____ _____    ______ ____
ROOT
ATOM      1  C   UNL     1     -11.336  53.833  51.558  0.00  0.00    +0.000 A 
ATOM      2  C   UNL     1     -10.396  53.986  52.708  0.00  0.00    +0.000 A 
ATOM      3  C   UNL     1     -11.461  52.647  50.938  0.00  0.00    +0.000 A 
ATOM      4  O   UNL     1     -10.295  55.110  53.211  0.00  0.00    +0.000 OA
ATOM      5  N   UNL     1      -9.711  52.854  53.160  0.00  0.00    +0.000 N 
ATOM      6  C   UNL     1     -10.709  51.474  51.407  0.00  0.00    +0.000 A 
ATOM      7  C   UNL     1      -9.845  51.590  52.510  0.00  0.00    +0.000 A 
ATOM      8  C   UNL     1     -10.859  50.229  50.771  0.00  0.00    +0.000 A 
ATOM      9  C   UNL     1      -9.139  50.456  52.945  0.00  0.00    +0.000 A 
ATOM     10  C   UNL     1     -10.162  49.109  51.220  0.00  0.00    +0.000 A 
ATOM     11  C   UNL     1      -9.300  49.224  52.305  0.00  0.00    +0.000 A 
ENDROOT
BRANCH   1  17
ATOM     12  S   UNL     1     -12.869  56.712  49.369  0.00  0.00    +0.000 S 
ATOM     13  O   UNL     1     -13.894  56.234  48.463  0.00  0.00    +0.000 OA
ATOM     14  O   UNL     1     -11.894  57.690  48.923  0.00  0.00    +0.000 OA
ATOM     15  N   UNL     1     -12.064  55.421  49.916  0.00  0.00    +0.000 N 
ATOM     16  C   UNL     1     -13.712  57.449  50.720  0.00  0.00    +0.000 A 
ATOM     17  C   UNL     1     -12.179  55.022  51.149  0.00  0.00    +0.000 C 
ATOM     18  C   UNL     1     -13.663  56.806  51.945  0.00  0.00    +0.000 A 
ATOM     19  C   UNL     1     -14.390  58.658  50.543  0.00  0.00    +0.000 A 
ATOM     20  N   UNL     1     -12.996  55.593  52.104  0.00  0.00    +0.000 N 
ATOM     21  C   UNL     1     -14.383  57.357  53.010  0.00  0.00    +0.000 A 
ATOM     22  C   UNL     1     -15.069  59.217  51.623  0.00  0.00    +0.000 A 
ATOM     23  C   UNL     1     -15.075  58.561  52.854  0.00  0.00    +0.000 A 
ATOM     24  H   UNL     1     -11.473  54.927  49.302  0.00  0.00    +0.000 HD
ATOM     25  H   UNL     1     -13.116  55.111  52.953  0.00  0.00    +0.000 HD
ENDBRANCH   1  17
BRANCH   3  26
ATOM     26  O   UNL     1     -12.299  52.416  49.861  0.00  0.00    +0.000 OA
ATOM     27  H   UNL     1     -13.155  52.800  49.842  0.00  0.00    +0.000 HD
ENDBRANCH   3  26
BRANCH   5  28
ATOM     28  N   UNL     1      -8.773  52.961  54.251  0.00  0.00    +0.000 N 
ATOM     29  H   UNL     1      -9.021  52.797  55.190  0.00  0.00    +0.000 HD
BRANCH  28  30
ATOM     30  C   UNL     1      -7.416  53.337  53.836  0.00  0.00    +0.000 C 
BRANCH  30  31
ATOM     31  C   UNL     1      -7.033  54.653  54.438  0.00  0.00    +0.000 C 
ATOM     32  C   UNL     1      -6.675  55.853  53.604  0.00  0.00    +0.000 C 
ATOM     33  C   UNL     1      -5.597  55.108  54.341  0.00  0.00    +0.000 C 
ENDBRANCH  30  31
ENDBRANCH  28  30
ENDBRANCH   5  28
TORSDOF 5
ENDMDL
MODEL 2
REMARK VINA RESULT:      -8.2      2.212      2.867
REMARK  Name = 
REMARK  5 active torsions:
REMARK  status: ('A' for Active; 'I' for Inactive)
REMARK    1  A    between atoms: C_6  and  C_10
REMARK    2  A    between atoms: C_14  and  O_18
REMARK    3  A    between atoms: N_17  and  N_20
REMARK    4  A    between atoms: N_20  and  C_23
REMARK    5  A    between atoms: C_23  and  C_26
REMARK                            x       y       z     vdW  Elec       q    Type
REMARK                         _______ _______ _______ _____ _____    ______ ____
ROOT
ATOM      1  C   UNL     1     -10.074  54.541  52.177  0.00  0.00    +0.000 A 
ATOM      2  C   UNL     1      -8.711  55.106  51.947  0.00  0.00    +0.000 A 
ATOM      3  C   UNL     1     -10.236  53.450  52.945  0.00  0.00    +0.000 A 
ATOM      4  O   UNL     1      -8.623  56.085  51.199  0.00  0.00    +0.000 OA
ATOM      5  N   UNL     1      -7.630  54.515  52.607  0.00  0.00    +0.000 N 
ATOM      6  C   UNL     1      -9.082  52.823  53.607  0.00  0.00    +0.000 A 
ATOM      7  C   UNL     1      -7.795  53.361  53.431  0.00  0.00    +0.000 A 
ATOM      8  C   UNL     1      -9.256  51.696  54.429  0.00  0.00    +0.000 A 
ATOM      9  C   UNL     1      -6.707  52.749  54.075  0.00  0.00    +0.000 A 
ATOM     10  C   UNL     1      -8.170  51.106  55.072  0.00  0.00    +0.000 A 
ATOM     11  C   UNL     1      -6.896  51.631  54.892  0.00  0.00    +0.000 A 
ENDROOT
BRANCH   1  17
ATOM     12  S   UNL     1     -12.555  56.001  49.504  0.00  0.00    +0.000 S 
ATOM     13  O   UNL     1     -13.446  54.994  48.965  0.00  0.00    +0.000 OA
ATOM     14  O   UNL     1     -11.957  56.994  48.632  0.00  0.00    +0.000 OA
ATOM     15  N   UNL     1     -11.361  55.232  50.275  0.00  0.00    +0.000 N 
ATOM     16  C   UNL     1     -13.489  56.897  50.690  0.00  0.00    +0.000 A 
ATOM     17  C   UNL     1     -11.264  55.255  51.572  0.00  0.00    +0.000 C 
ATOM     18  C   UNL     1     -13.163  56.741  52.027  0.00  0.00    +0.000 A 
ATOM     19  C   UNL     1     -14.512  57.751  50.271  0.00  0.00    +0.000 A 
ATOM     20  N   UNL     1     -12.150  55.875  52.431  0.00  0.00    +0.000 N 
ATOM     21  C   UNL     1     -13.942  57.406  52.979  0.00  0.00    +0.000 A 
ATOM     22  C   UNL     1     -15.254  58.439  51.229  0.00  0.00    +0.000 A 
ATOM     23  C   UNL     1     -14.976  58.258  52.583  0.00  0.00    +0.000 A 
ATOM     24  H   UNL     1     -10.691  54.736  49.751  0.00  0.00    +0.000 HD
ATOM     25  H   UNL     1     -12.059  55.693  53.394  0.00  0.00    +0.000 HD
ENDBRANCH   1  17
BRANCH   3  26
ATOM     26  O   UNL     1     -11.458  52.855  53.205  0.00  0.00    +0.000 OA
ATOM     27  H   UNL     1     -11.766  52.159  52.658  0.00  0.00    +0.000 HD
ENDBRANCH   3  26
BRANCH   5  28
ATOM     28  N   UNL     1      -6.291  55.012  52.394  0.00  0.00    +0.000 N 
ATOM     29  H   UNL     1      -5.924  55.788  52.876  0.00  0.00    +0.000 HD
BRANCH  28  30
ATOM     30  C   UNL     1      -5.526  54.255  51.396  0.00  0.00    +0.000 C 
BRANCH  30  31
ATOM     31  C   UNL     1      -5.483  55.001  50.099  0.00  0.00    +0.000 C 
ATOM     32  C   UNL     1      -6.260  54.563  48.886  0.00  0.00    +0.000 C 
ATOM     33  C   UNL     1      -4.768  54.378  48.924  0.00  0.00    +0.000 C 
ENDBRANCH  30  31
ENDBRANCH  28  30
ENDBRANCH   5  28
TORSDOF 5
ENDMDL
MODEL 3
REMARK VINA RESULT:      -8.1      3.983      4.906
REMARK  Name = 
REMARK  5 active torsions:
REMARK  status: ('A' for Active; 'I' for Inactive)
REMARK    1  A    between atoms: C_6  and  C_10
REMARK    2  A    between atoms: C_14  and  O_18
REMARK    3  A    between atoms: N_17  and  N_20
REMARK    4  A    between atoms: N_20  and  C_23
REMARK    5  A    between atoms: C_23  and  C_26
REMARK                            x       y       z     vdW  Elec       q    Type
REMARK                         _______ _______ _______ _____ _____    ______ ____
ROOT
ATOM      1  C   UNL     1     -10.692  55.627  48.123  0.00  0.00    +0.000 A 
ATOM      2  C   UNL     1      -9.226  55.724  48.389  0.00  0.00    +0.000 A 
ATOM      3  C   UNL     1     -11.143  54.982  47.034  0.00  0.00    +0.000 A 
ATOM      4  O   UNL     1      -8.872  56.365  49.384  0.00  0.00    +0.000 OA
ATOM      5  N   UNL     1      -8.350  55.069  47.518  0.00  0.00    +0.000 N 
ATOM      6  C   UNL     1     -10.206  54.324  46.111  0.00  0.00    +0.000 A 
ATOM      7  C   UNL     1      -8.823  54.376  46.363  0.00  0.00    +0.000 A 
ATOM      8  C   UNL     1     -10.680  53.630  44.985  0.00  0.00    +0.000 A 
ATOM      9  C   UNL     1      -7.944  53.738  45.472  0.00  0.00    +0.000 A 
ATOM     10  C   UNL     1      -9.799  52.991  44.115  0.00  0.00    +0.000 A 
ATOM     11  C   UNL     1      -8.431  53.048  44.357  0.00  0.00    +0.000 A 
ENDROOT
BRANCH   1  17
ATOM     12  S   UNL     1     -13.044  55.957  51.252  0.00  0.00    +0.000 S 
ATOM     13  O   UNL     1     -12.307  56.183  52.479  0.00  0.00    +0.000 OA
ATOM     14  O   UNL     1     -14.175  55.048  51.232  0.00  0.00    +0.000 OA
ATOM     15  N   UNL     1     -11.987  55.461  50.135  0.00  0.00    +0.000 N 
ATOM     16  C   UNL     1     -13.671  57.522  50.762  0.00  0.00    +0.000 A 
ATOM     17  C   UNL     1     -11.651  56.221  49.133  0.00  0.00    +0.000 C 
ATOM     18  C   UNL     1     -13.130  58.113  49.633  0.00  0.00    +0.000 A 
ATOM     19  C   UNL     1     -14.698  58.122  51.495  0.00  0.00    +0.000 A 
ATOM     20  N   UNL     1     -12.096  57.510  48.920  0.00  0.00    +0.000 N 
ATOM     21  C   UNL     1     -13.583  59.386  49.272  0.00  0.00    +0.000 A 
ATOM     22  C   UNL     1     -15.168  59.373  51.100  0.00  0.00    +0.000 A 
ATOM     23  C   UNL     1     -14.604  60.009  49.995  0.00  0.00    +0.000 A 
ATOM     24  H   UNL     1     -11.591  54.563  50.213  0.00  0.00    +0.000 HD
ATOM     25  H   UNL     1     -11.654  58.039  48.218  0.00  0.00    +0.000 HD
ENDBRANCH   1  17
BRANCH   3  26
ATOM     26  O   UNL     1     -12.481  54.850  46.705  0.00  0.00    +0.000 OA
ATOM     27  H   UNL     1     -13.029  54.268  47.196  0.00  0.00    +0.000 HD
ENDBRANCH   3  26
BRANCH   5  28
ATOM     28  N   UNL     1      -6.924  55.158  47.721  0.00  0.00    +0.000 N 
ATOM     29  H   UNL     1      -6.354  55.805  47.245  0.00  0.00    +0.000 HD
BRANCH  28  30
ATOM     30  C   UNL     1      -6.400  54.197  48.698  0.00  0.00    +0.000 C 
BRANCH  30  31
ATOM     31  C   UNL     1      -5.681  54.915  49.799  0.00  0.00    +0.000 C 
ATOM     32  C   UNL     1      -4.803  54.203  50.793  0.00  0.00    +0.000 C 
ATOM     33  C   UNL     1      -6.148  54.721  51.222  0.00  0.00    +0.000 C 
ENDBRANCH  30  31
ENDBRANCH  28  30
ENDBRANCH   5  28
TORSDOF 5
ENDMDL
MODEL 4
REMARK VINA RESULT:      -8.1      2.947      7.355
REMARK  Name = 
REMARK  5 active torsions:
REMARK  status: ('A' for Active; 'I' for Inactive)
REMARK    1  A    between atoms: C_6  and  C_10
REMARK    2  A    between atoms: C_14  and  O_18
REMARK    3  A    between atoms: N_17  and  N_20
REMARK    4  A    between atoms: N_20  and  C_23
REMARK    5  A    between atoms: C_23  and  C_26
REMARK                            x       y       z     vdW  Elec       q    Type
REMARK                         _______ _______ _______ _____ _____    ______ ____
ROOT
ATOM      1  C   UNL     1     -10.455  54.930  50.505  0.00  0.00    +0.000 A 
ATOM      2  C   UNL     1     -11.591  55.102  51.458  0.00  0.00    +0.000 A 
ATOM      3  C   UNL     1     -10.596  55.269  49.213  0.00  0.00    +0.000 A 
ATOM      4  O   UNL     1     -11.414  54.734  52.624  0.00  0.00    +0.000 OA
ATOM      5  N   UNL     1     -12.769  55.688  50.985  0.00  0.00    +0.000 N 
ATOM      6  C   UNL     1     -11.853  55.856  48.725  0.00  0.00    +0.000 A 
ATOM      7  C   UNL     1     -12.923  56.058  49.615  0.00  0.00    +0.000 A 
ATOM      8  C   UNL     1     -11.991  56.232  47.378  0.00  0.00    +0.000 A 
ATOM      9  C   UNL     1     -14.115  56.624  49.131  0.00  0.00    +0.000 A 
ATOM     10  C   UNL     1     -13.174  56.803  46.913  0.00  0.00    +0.000 A 
ATOM     11  C   UNL     1     -14.236  56.996  47.789  0.00  0.00    +0.000 A 
ENDROOT
BRANCH   1  17
ATOM     12  S   UNL     1      -7.222  52.737  50.918  0.00  0.00    +0.000 S 
ATOM     13  O   UNL     1      -6.197  53.072  49.952  0.00  0.00    +0.000 OA
ATOM     14  O   UNL     1      -7.495  51.350  51.247  0.00  0.00    +0.000 OA
ATOM     15  N   UNL     1      -8.603  53.409  50.415  0.00  0.00    +0.000 N 
ATOM     16  C   UNL     1      -6.750  53.508  52.422  0.00  0.00    +0.000 A 
ATOM     17  C   UNL     1      -9.134  54.419  51.040  0.00  0.00    +0.000 C 
ATOM     18  C   UNL     1      -7.508  54.576  52.871  0.00  0.00    +0.000 A 
ATOM     19  C   UNL     1      -5.649  53.028  53.136  0.00  0.00    +0.000 A 
ATOM     20  N   UNL     1      -8.595  55.054  52.141  0.00  0.00    +0.000 N 
ATOM     21  C   UNL     1      -7.101  55.232  54.037  0.00  0.00    +0.000 A 
ATOM     22  C   UNL     1      -5.279  53.666  54.318  0.00  0.00    +0.000 A 
ATOM     23  C   UNL     1      -5.998  54.775  54.763  0.00  0.00    +0.000 A 
ATOM     24  H   UNL     1      -9.054  53.044  49.619  0.00  0.00    +0.000 HD
ATOM     25  H   UNL     1      -9.005  55.900  52.430  0.00  0.00    +0.000 HD
ENDBRANCH   1  17
BRANCH   3  26
ATOM     26  O   UNL     1      -9.602  55.136  48.259  0.00  0.00    +0.000 OA
ATOM     27  H   UNL     1      -9.436  54.301  47.868  0.00  0.00    +0.000 HD
ENDBRANCH   3  26
BRANCH   5  28
ATOM     28  N   UNL     1     -13.903  55.850  51.864  0.00  0.00    +0.000 N 
ATOM     29  H   UNL     1     -14.625  55.185  51.937  0.00  0.00    +0.000 HD
BRANCH  28  30
ATOM     30  C   UNL     1     -13.882  57.096  52.639  0.00  0.00    +0.000 C 
BRANCH  30  31
ATOM     31  C   UNL     1     -15.096  57.918  52.335  0.00  0.00    +0.000 C 
ATOM     32  C   UNL     1     -15.026  59.224  51.589  0.00  0.00    +0.000 C 
ATOM     33  C   UNL     1     -15.295  59.223  53.068  0.00  0.00    +0.000 C 
ENDBRANCH  30  31
ENDBRANCH  28  30
ENDBRANCH   5  28
TORSDOF 5
ENDMDL
MODEL 5
REMARK VINA RESULT:      -8.0      3.312      7.664
REMARK  Name = 
REMARK  5 active torsions:
REMARK  status: ('A' for Active; 'I' for Inactive)
REMARK    1  A    between atoms: C_6  and  C_10
REMARK    2  A    between atoms: C_14  and  O_18
REMARK    3  A    between atoms: N_17  and  N_20
REMARK    4  A    between atoms: N_20  and  C_23
REMARK    5  A    between atoms: C_23  and  C_26
REMARK                            x       y       z     vdW  Elec       q    Type
REMARK                         _______ _______ _______ _____ _____    ______ ____
ROOT
ATOM      1  C   UNL     1     -10.050  55.292  50.807  0.00  0.00    +0.000 A 
ATOM      2  C   UNL     1     -11.233  55.405  51.711  0.00  0.00    +0.000 A 
ATOM      3  C   UNL     1     -10.179  55.517  49.489  0.00  0.00    +0.000 A 
ATOM      4  O   UNL     1     -11.060  55.146  52.907  0.00  0.00    +0.000 OA
ATOM      5  N   UNL     1     -12.450  55.817  51.160  0.00  0.00    +0.000 N 
ATOM      6  C   UNL     1     -11.475  55.921  48.921  0.00  0.00    +0.000 A 
ATOM      7  C   UNL     1     -12.593  56.065  49.762  0.00  0.00    +0.000 A 
ATOM      8  C   UNL     1     -11.603  56.178  47.545  0.00  0.00    +0.000 A 
ATOM      9  C   UNL     1     -13.821  56.456  49.201  0.00  0.00    +0.000 A 
ATOM     10  C   UNL     1     -12.823  56.576  47.004  0.00  0.00    +0.000 A 
ATOM     11  C   UNL     1     -13.932  56.712  47.831  0.00  0.00    +0.000 A 
ENDROOT
BRANCH   1  17
ATOM     12  S   UNL     1      -7.035  55.265  53.326  0.00  0.00    +0.000 S 
ATOM     13  O   UNL     1      -7.258  54.377  54.449  0.00  0.00    +0.000 OA
ATOM     14  O   UNL     1      -6.433  56.569  53.530  0.00  0.00    +0.000 OA
ATOM     15  N   UNL     1      -8.458  55.485  52.590  0.00  0.00    +0.000 N 
ATOM     16  C   UNL     1      -5.972  54.407  52.225  0.00  0.00    +0.000 A 
ATOM     17  C   UNL     1      -8.701  54.975  51.418  0.00  0.00    +0.000 C 
ATOM     18  C   UNL     1      -6.497  53.974  51.019  0.00  0.00    +0.000 A 
ATOM     19  C   UNL     1      -4.635  54.195  52.570  0.00  0.00    +0.000 A 
ATOM     20  N   UNL     1      -7.836  54.179  50.694  0.00  0.00    +0.000 N 
ATOM     21  C   UNL     1      -5.671  53.238  50.164  0.00  0.00    +0.000 A 
ATOM     22  C   UNL     1      -3.812  53.495  51.691  0.00  0.00    +0.000 A 
ATOM     23  C   UNL     1      -4.333  53.007  50.493  0.00  0.00    +0.000 A 
ATOM     24  H   UNL     1      -9.154  56.017  53.038  0.00  0.00    +0.000 HD
ATOM     25  H   UNL     1      -8.189  53.726  49.895  0.00  0.00    +0.000 HD
ENDBRANCH   1  17
BRANCH   3  26
ATOM     26  O   UNL     1      -9.141  55.428  48.578  0.00  0.00    +0.000 OA
ATOM     27  H   UNL     1      -8.261  55.596  48.853  0.00  0.00    +0.000 HD
ENDBRANCH   3  26
BRANCH   5  28
ATOM     28  N   UNL     1     -13.627  55.915  51.991  0.00  0.00    +0.000 N 
ATOM     29  H   UNL     1     -14.293  55.194  52.064  0.00  0.00    +0.000 HD
BRANCH  28  30
ATOM     30  C   UNL     1     -13.740  57.185  52.716  0.00  0.00    +0.000 C 
BRANCH  30  31
ATOM     31  C   UNL     1     -15.004  57.891  52.335  0.00  0.00    +0.000 C 
ATOM     32  C   UNL     1     -15.015  59.134  51.486  0.00  0.00    +0.000 C 
ATOM     33  C   UNL     1     -15.307  59.233  52.958  0.00  0.00    +0.000 C 
ENDBRANCH  30  31
ENDBRANCH  28  30
ENDBRANCH   5  28
TORSDOF 5
ENDMDL
MODEL 6
REMARK VINA RESULT:      -8.0      3.421      7.633
REMARK  Name = 
REMARK  5 active torsions:
REMARK  status: ('A' for Active; 'I' for Inactive)
REMARK    1  A    between atoms: C_6  and  C_10
REMARK    2  A    between atoms: C_14  and  O_18
REMARK    3  A    between atoms: N_17  and  N_20
REMARK    4  A    between atoms: N_20  and  C_23
REMARK    5  A    between atoms: C_23  and  C_26
REMARK                            x       y       z     vdW  Elec       q    Type
REMARK                         _______ _______ _______ _____ _____    ______ ____
ROOT
ATOM      1  C   UNL     1     -10.201  55.246  50.692  0.00  0.00    +0.000 A 
ATOM      2  C   UNL     1      -9.753  55.191  49.269  0.00  0.00    +0.000 A 
ATOM      3  C   UNL     1     -11.422  55.713  51.002  0.00  0.00    +0.000 A 
ATOM      4  O   UNL     1      -8.605  54.790  49.052  0.00  0.00    +0.000 OA
ATOM      5  N   UNL     1     -10.660  55.569  48.275  0.00  0.00    +0.000 N 
ATOM      6  C   UNL     1     -12.353  56.135  49.944  0.00  0.00    +0.000 A 
ATOM      7  C   UNL     1     -11.961  56.059  48.595  0.00  0.00    +0.000 A 
ATOM      8  C   UNL     1     -13.639  56.602  50.268  0.00  0.00    +0.000 A 
ATOM      9  C   UNL     1     -12.866  56.464  47.599  0.00  0.00    +0.000 A 
ATOM     10  C   UNL     1     -14.531  56.988  49.270  0.00  0.00    +0.000 A 
ATOM     11  C   UNL     1     -14.143  56.922  47.937  0.00  0.00    +0.000 A 
ENDROOT
BRANCH   1  17
ATOM     12  S   UNL     1      -7.036  54.830  52.982  0.00  0.00    +0.000 S 
ATOM     13  O   UNL     1      -6.993  55.806  54.052  0.00  0.00    +0.000 OA
ATOM     14  O   UNL     1      -5.829  54.485  52.255  0.00  0.00    +0.000 OA
ATOM     15  N   UNL     1      -8.137  55.331  51.910  0.00  0.00    +0.000 N 
ATOM     16  C   UNL     1      -7.611  53.337  53.704  0.00  0.00    +0.000 A 
ATOM     17  C   UNL     1      -9.273  54.714  51.764  0.00  0.00    +0.000 C 
ATOM     18  C   UNL     1      -8.877  52.895  53.361  0.00  0.00    +0.000 A 
ATOM     19  C   UNL     1      -6.788  52.625  54.580  0.00  0.00    +0.000 A 
ATOM     20  N   UNL     1      -9.692  53.622  52.497  0.00  0.00    +0.000 N 
ATOM     21  C   UNL     1      -9.363  51.738  53.979  0.00  0.00    +0.000 A 
ATOM     22  C   UNL     1      -7.270  51.451  55.158  0.00  0.00    +0.000 A 
ATOM     23  C   UNL     1      -8.561  51.014  54.866  0.00  0.00    +0.000 A 
ATOM     24  H   UNL     1      -7.943  56.121  51.355  0.00  0.00    +0.000 HD
ATOM     25  H   UNL     1     -10.630  53.339  52.405  0.00  0.00    +0.000 HD
ENDBRANCH   1  17
BRANCH   3  26
ATOM     26  O   UNL     1     -11.917  55.806  52.291  0.00  0.00    +0.000 OA
ATOM     27  H   UNL     1     -12.734  55.401  52.510  0.00  0.00    +0.000 HD
ENDBRANCH   3  26
BRANCH   5  28
ATOM     28  N   UNL     1     -10.261  55.558  46.887  0.00  0.00    +0.000 N 
ATOM     29  H   UNL     1     -10.091  56.379  46.371  0.00  0.00    +0.000 HD
BRANCH  28  30
ATOM     30  C   UNL     1     -10.132  54.212  46.316  0.00  0.00    +0.000 C 
BRANCH  30  31
ATOM     31  C   UNL     1     -11.229  53.959  45.329  0.00  0.00    +0.000 C 
ATOM     32  C   UNL     1     -12.000  52.666  45.288  0.00  0.00    +0.000 C 
ATOM     33  C   UNL     1     -10.992  52.969  44.214  0.00  0.00    +0.000 C 
ENDBRANCH  30  31
ENDBRANCH  28  30
ENDBRANCH   5  28
TORSDOF 5
ENDMDL
MODEL 7
REMARK VINA RESULT:      -7.8      3.200      4.508
REMARK  Name = 
REMARK  5 active torsions:
REMARK  status: ('A' for Active; 'I' for Inactive)
REMARK    1  A    between atoms: C_6  and  C_10
REMARK    2  A    between atoms: C_14  and  O_18
REMARK    3  A    between atoms: N_17  and  N_20
REMARK    4  A    between atoms: N_20  and  C_23
REMARK    5  A    between atoms: C_23  and  C_26
REMARK                            x       y       z     vdW  Elec       q    Type
REMARK                         _______ _______ _______ _____ _____    ______ ____
ROOT
ATOM      1  C   UNL     1     -12.399  54.315  49.792  0.00  0.00    +0.000 A 
ATOM      2  C   UNL     1     -12.061  54.116  48.351  0.00  0.00    +0.000 A 
ATOM      3  C   UNL     1     -11.932  53.465  50.722  0.00  0.00    +0.000 A 
ATOM      4  O   UNL     1     -12.552  54.907  47.539  0.00  0.00    +0.000 OA
ATOM      5  N   UNL     1     -11.195  53.072  48.012  0.00  0.00    +0.000 N 
ATOM      6  C   UNL     1     -11.047  52.353  50.343  0.00  0.00    +0.000 A 
ATOM      7  C   UNL     1     -10.690  52.169  48.996  0.00  0.00    +0.000 A 
ATOM      8  C   UNL     1     -10.541  51.478  51.321  0.00  0.00    +0.000 A 
ATOM      9  C   UNL     1      -9.840  51.103  48.655  0.00  0.00    +0.000 A 
ATOM     10  C   UNL     1      -9.690  50.432  50.971  0.00  0.00    +0.000 A 
ATOM     11  C   UNL     1      -9.342  50.243  49.638  0.00  0.00    +0.000 A 
ENDROOT
BRANCH   1  17
ATOM     12  S   UNL     1     -15.339  56.483  51.237  0.00  0.00    +0.000 S 
ATOM     13  O   UNL     1     -15.273  56.616  52.678  0.00  0.00    +0.000 OA
ATOM     14  O   UNL     1     -16.611  56.255  50.578  0.00  0.00    +0.000 OA
ATOM     15  N   UNL     1     -14.339  55.285  50.814  0.00  0.00    +0.000 N 
ATOM     16  C   UNL     1     -14.713  57.983  50.577  0.00  0.00    +0.000 A 
ATOM     17  C   UNL     1     -13.227  55.521  50.180  0.00  0.00    +0.000 C 
ATOM     18  C   UNL     1     -13.487  57.948  49.932  0.00  0.00    +0.000 A 
ATOM     19  C   UNL     1     -15.456  59.160  50.694  0.00  0.00    +0.000 A 
ATOM     20  N   UNL     1     -12.750  56.770  49.835  0.00  0.00    +0.000 N 
ATOM     21  C   UNL     1     -12.956  59.151  49.457  0.00  0.00    +0.000 A 
ATOM     22  C   UNL     1     -14.932  60.345  50.180  0.00  0.00    +0.000 A 
ATOM     23  C   UNL     1     -13.678  60.342  49.571  0.00  0.00    +0.000 A 
ATOM     24  H   UNL     1     -14.577  54.357  51.039  0.00  0.00    +0.000 HD
ATOM     25  H   UNL     1     -11.828  56.833  49.499  0.00  0.00    +0.000 HD
ENDBRANCH   1  17
BRANCH   3  26
ATOM     26  O   UNL     1     -12.201  53.567  52.075  0.00  0.00    +0.000 OA
ATOM     27  H   UNL     1     -13.082  53.488  52.386  0.00  0.00    +0.000 HD
ENDBRANCH   3  26
BRANCH   5  28
ATOM     28  N   UNL     1     -10.862  52.826  46.629  0.00  0.00    +0.000 N 
ATOM     29  H   UNL     1     -11.117  52.002  46.154  0.00  0.00    +0.000 HD
BRANCH  28  30
ATOM     30  C   UNL     1     -10.109  53.914  45.995  0.00  0.00    +0.000 C 
BRANCH  30  31
ATOM     31  C   UNL     1      -8.651  53.793  46.314  0.00  0.00    +0.000 C 
ATOM     32  C   UNL     1      -7.903  54.836  47.099  0.00  0.00    +0.000 C 
ATOM     33  C   UNL     1      -7.674  54.711  45.619  0.00  0.00    +0.000 C 
ENDBRANCH  30  31
ENDBRANCH  28  30
ENDBRANCH   5  28
TORSDOF 5
ENDMDL
MODEL 8
REMARK VINA RESULT:      -7.8      3.059      7.362
REMARK  Name = 
REMARK  5 active torsions:
REMARK  status: ('A' for Active; 'I' for Inactive)
REMARK    1  A    between atoms: C_6  and  C_10
REMARK    2  A    between atoms: C_14  and  O_18
REMARK    3  A    between atoms: N_17  and  N_20
REMARK    4  A    between atoms: N_20  and  C_23
REMARK    5  A    between atoms: C_23  and  C_26
REMARK                            x       y       z     vdW  Elec       q    Type
REMARK                         _______ _______ _______ _____ _____    ______ ____
ROOT
ATOM      1  C   UNL     1      -9.874  54.448  50.938  0.00  0.00    +0.000 A 
ATOM      2  C   UNL     1     -11.037  55.307  51.310  0.00  0.00    +0.000 A 
ATOM      3  C   UNL     1      -9.628  54.161  49.649  0.00  0.00    +0.000 A 
ATOM      4  O   UNL     1     -11.236  55.502  52.514  0.00  0.00    +0.000 OA
ATOM      5  N   UNL     1     -11.810  55.857  50.283  0.00  0.00    +0.000 N 
ATOM      6  C   UNL     1     -10.469  54.723  48.582  0.00  0.00    +0.000 A 
ATOM      7  C   UNL     1     -11.549  55.563  48.910  0.00  0.00    +0.000 A 
ATOM      8  C   UNL     1     -10.196  54.441  47.232  0.00  0.00    +0.000 A 
ATOM      9  C   UNL     1     -12.338  56.094  47.876  0.00  0.00    +0.000 A 
ATOM     10  C   UNL     1     -10.979  54.984  46.216  0.00  0.00    +0.000 A 
ATOM     11  C   UNL     1     -12.052  55.807  46.539  0.00  0.00    +0.000 A 
ENDROOT
BRANCH   1  17
ATOM     12  S   UNL     1      -6.668  53.991  53.161  0.00  0.00    +0.000 S 
ATOM     13  O   UNL     1      -6.482  55.080  54.097  0.00  0.00    +0.000 OA
ATOM     14  O   UNL     1      -5.534  53.438  52.444  0.00  0.00    +0.000 OA
ATOM     15  N   UNL     1      -7.760  54.469  52.070  0.00  0.00    +0.000 N 
ATOM     16  C   UNL     1      -7.353  52.664  54.082  0.00  0.00    +0.000 A 
ATOM     17  C   UNL     1      -8.956  53.958  52.038  0.00  0.00    +0.000 C 
ATOM     18  C   UNL     1      -8.671  52.316  53.838  0.00  0.00    +0.000 A 
ATOM     19  C   UNL     1      -6.566  51.983  55.014  0.00  0.00    +0.000 A 
ATOM     20  N   UNL     1      -9.448  53.013  52.916  0.00  0.00    +0.000 N 
ATOM     21  C   UNL     1      -9.240  51.298  54.611  0.00  0.00    +0.000 A 
ATOM     22  C   UNL     1      -7.135  50.945  55.749  0.00  0.00    +0.000 A 
ATOM     23  C   UNL     1      -8.474  50.610  55.556  0.00  0.00    +0.000 A 
ATOM     24  H   UNL     1      -7.514  55.161  51.414  0.00  0.00    +0.000 HD
ATOM     25  H   UNL     1     -10.412  52.818  52.889  0.00  0.00    +0.000 HD
ENDBRANCH   1  17
BRANCH   3  26
ATOM     26  O   UNL     1      -8.580  53.368  49.214  0.00  0.00    +0.000 OA
ATOM     27  H   UNL     1      -7.949  53.046  49.828  0.00  0.00    +0.000 HD
ENDBRANCH   3  26
BRANCH   5  28
ATOM     28  N   UNL     1     -12.959  56.672  50.596  0.00  0.00    +0.000 N 
ATOM     29  H   UNL     1     -12.933  57.657  50.601  0.00  0.00    +0.000 HD
BRANCH  28  30
ATOM     30  C   UNL     1     -14.169  55.903  50.907  0.00  0.00    +0.000 C 
BRANCH  30  31
ATOM     31  C   UNL     1     -15.292  56.823  51.273  0.00  0.00    +0.000 C 
ATOM     32  C   UNL     1     -15.061  58.191  51.858  0.00  0.00    +0.000 C 
ATOM     33  C   UNL     1     -15.575  57.082  52.734  0.00  0.00    +0.000 C 
ENDBRANCH  30  31
ENDBRANCH  28  30
ENDBRANCH   5  28
TORSDOF 5
ENDMDL
MODEL 9
REMARK VINA RESULT:      -7.7      3.564      4.271
REMARK  Name = 
REMARK  5 active torsions:
REMARK  status: ('A' for Active; 'I' for Inactive)
REMARK    1  A    between atoms: C_6  and  C_10
REMARK    2  A    between atoms: C_14  and  O_18
REMARK    3  A    between atoms: N_17  and  N_20
REMARK    4  A    between atoms: N_20  and  C_23
REMARK    5  A    between atoms: C_23  and  C_26
REMARK                            x       y       z     vdW  Elec       q    Type
REMARK                         _______ _______ _______ _____ _____    ______ ____
ROOT
ATOM      1  C   UNL     1     -11.560  56.002  48.759  0.00  0.00    +0.000 A 
ATOM      2  C   UNL     1     -10.477  55.401  49.594  0.00  0.00    +0.000 A 
ATOM      3  C   UNL     1     -11.704  55.640  47.473  0.00  0.00    +0.000 A 
ATOM      4  O   UNL     1     -10.370  55.804  50.758  0.00  0.00    +0.000 OA
ATOM      5  N   UNL     1      -9.674  54.409  49.024  0.00  0.00    +0.000 N 
ATOM      6  C   UNL     1     -10.830  54.617  46.880  0.00  0.00    +0.000 A 
ATOM      7  C   UNL     1      -9.827  54.015  47.661  0.00  0.00    +0.000 A 
ATOM      8  C   UNL     1     -10.997  54.223  45.541  0.00  0.00    +0.000 A 
ATOM      9  C   UNL     1      -9.004  53.036  47.077  0.00  0.00    +0.000 A 
ATOM     10  C   UNL     1     -10.183  53.243  44.978  0.00  0.00    +0.000 A 
ATOM     11  C   UNL     1      -9.185  52.652  45.745  0.00  0.00    +0.000 A 
ENDROOT
BRANCH   1  17
ATOM     12  S   UNL     1     -13.584  59.294  49.465  0.00  0.00    +0.000 S 
ATOM     13  O   UNL     1     -14.726  59.442  48.586  0.00  0.00    +0.000 OA
ATOM     14  O   UNL     1     -12.749  60.437  49.783  0.00  0.00    +0.000 OA
ATOM     15  N   UNL     1     -12.635  58.143  48.840  0.00  0.00    +0.000 N 
ATOM     16  C   UNL     1     -14.216  58.715  50.997  0.00  0.00    +0.000 A 
ATOM     17  C   UNL     1     -12.516  56.979  49.409  0.00  0.00    +0.000 C 
ATOM     18  C   UNL     1     -13.926  57.413  51.369  0.00  0.00    +0.000 A 
ATOM     19  C   UNL     1     -14.971  59.567  51.806  0.00  0.00    +0.000 A 
ATOM     20  N   UNL     1     -13.183  56.570  50.546  0.00  0.00    +0.000 N 
ATOM     21  C   UNL     1     -14.476  56.928  52.560  0.00  0.00    +0.000 A 
ATOM     22  C   UNL     1     -15.480  59.083  53.009  0.00  0.00    +0.000 A 
ATOM     23  C   UNL     1     -15.242  57.760  53.381  0.00  0.00    +0.000 A 
ATOM     24  H   UNL     1     -12.136  58.329  48.012  0.00  0.00    +0.000 HD
ATOM     25  H   UNL     1     -13.132  55.618  50.792  0.00  0.00    +0.000 HD
ENDBRANCH   1  17
BRANCH   3  26
ATOM     26  O   UNL     1     -12.671  56.149  46.624  0.00  0.00    +0.000 OA
ATOM     27  H   UNL     1     -12.468  56.307  45.723  0.00  0.00    +0.000 HD
ENDBRANCH   3  26
BRANCH   5  28
ATOM     28  N   UNL     1      -8.599  53.820  49.786  0.00  0.00    +0.000 N 
ATOM     29  H   UNL     1      -8.693  52.974  50.281  0.00  0.00    +0.000 HD
BRANCH  28  30
ATOM     30  C   UNL     1      -7.353  54.594  49.756  0.00  0.00    +0.000 C 
BRANCH  30  31
ATOM     31  C   UNL     1      -6.180  53.685  49.554  0.00  0.00    +0.000 C 
ATOM     32  C   UNL     1      -4.761  54.129  49.784  0.00  0.00    +0.000 C 
ATOM     33  C   UNL     1      -5.262  53.930  48.381  0.00  0.00    +0.000 C 
ENDBRANCH  30  31
ENDBRANCH  28  30
ENDBRANCH   5  28
TORSDOF 5
ENDMDL
