MODEL 1
REMARK VINA RESULT:      -9.1      0.000      0.000
REMARK  Name = 
REMARK  5 active torsions:
REMARK  status: ('A' for Active; 'I' for Inactive)
REMARK    1  A    between atoms: C_6  and  C_10
REMARK    2  A    between atoms: C_14  and  O_18
REMARK    3  A    between atoms: N_17  and  N_20
REMARK    4  A    between atoms: N_20  and  C_23
REMARK    5  A    between atoms: C_23  and  C_26
REMARK                            x       y       z     vdW  Elec       q    Type
REMARK                         _______ _______ _______ _____ _____    ______ ____
ROOT
ATOM      1  C   UNL     1      -9.177  54.363  49.891  0.00  0.00    +0.000 A 
ATOM      2  C   UNL     1     -10.231  55.413  49.987  0.00  0.00    +0.000 A 
ATOM      3  C   UNL     1      -9.051  53.617  48.782  0.00  0.00    +0.000 A 
ATOM      4  O   UNL     1     -10.287  56.068  51.034  0.00  0.00    +0.000 OA
ATOM      5  N   UNL     1     -11.065  55.611  48.882  0.00  0.00    +0.000 N 
ATOM      6  C   UNL     1      -9.932  53.840  47.631  0.00  0.00    +0.000 A 
ATOM      7  C   UNL     1     -10.931  54.828  47.696  0.00  0.00    +0.000 A 
ATOM      8  C   UNL     1      -9.773  53.093  46.453  0.00  0.00    +0.000 A 
ATOM      9  C   UNL     1     -11.755  55.037  46.578  0.00  0.00    +0.000 A 
ATOM     10  C   UNL     1     -10.576  53.331  45.341  0.00  0.00    +0.000 A 
ATOM     11  C   UNL     1     -11.568  54.302  45.405  0.00  0.00    +0.000 A 
ENDROOT
BRANCH   1  17
ATOM     12  S   UNL     1      -7.786  54.110  53.550  0.00  0.00    +0.000 S 
ATOM     13  O   UNL     1      -8.015  52.800  54.122  0.00  0.00    +0.000 OA
ATOM     14  O   UNL     1      -7.978  55.305  54.353  0.00  0.00    +0.000 OA
ATOM     15  N   UNL     1      -8.719  54.241  52.235  0.00  0.00    +0.000 N 
ATOM     16  C   UNL     1      -6.107  54.136  53.034  0.00  0.00    +0.000 A 
ATOM     17  C   UNL     1      -8.206  54.200  51.043  0.00  0.00    +0.000 C 
ATOM     18  C   UNL     1      -5.845  54.109  51.676  0.00  0.00    +0.000 A 
ATOM     19  C   UNL     1      -5.090  54.202  53.989  0.00  0.00    +0.000 A 
ATOM     20  N   UNL     1      -6.871  54.030  50.741  0.00  0.00    +0.000 N 
ATOM     21  C   UNL     1      -4.509  54.084  51.262  0.00  0.00    +0.000 A 
ATOM     22  C   UNL     1      -3.764  54.206  53.562  0.00  0.00    +0.000 A 
ATOM     23  C   UNL     1      -3.476  54.138  52.200  0.00  0.00    +0.000 A 
ATOM     24  H   UNL     1      -9.692  54.353  52.340  0.00  0.00    +0.000 HD
ATOM     25  H   UNL     1      -6.630  53.841  49.806  0.00  0.00    +0.000 HD
ENDBRANCH   1  17
BRANCH   3  26
ATOM     26  O   UNL     1      -8.090  52.635  48.603  0.00  0.00    +0.000 OA
ATOM     27  H   UNL     1      -7.479  52.700  47.895  0.00  0.00    +0.000 HD
ENDBRANCH   3  26
BRANCH   5  28
ATOM     28  N   UNL     1     -12.139  56.560  48.936  0.00  0.00    +0.000 N 
ATOM     29  H   UNL     1     -12.059  57.465  48.557  0.00  0.00    +0.000 HD
BRANCH  28  30
ATOM     30  C   UNL     1     -13.366  56.094  49.594  0.00  0.00    +0.000 C 
BRANCH  30  31
ATOM     31  C   UNL     1     -13.820  57.086  50.638  0.00  0.00    +0.000 A 
ATOM     32  C   UNL     1     -13.668  56.802  52.004  0.00  0.00    +0.000 A 
ATOM     33  C   UNL     1     -14.428  58.287  50.254  0.00  0.00    +0.000 A 
ATOM     34  C   UNL     1     -14.125  57.702  52.968  0.00  0.00    +0.000 A 
ATOM     35  C   UNL     1     -14.882  59.185  51.219  0.00  0.00    +0.000 A 
ATOM     36  C   UNL     1     -14.737  58.890  52.573  0.00  0.00    +0.000 A 
ENDBRANCH  30  31
ENDBRANCH  28  30
ENDBRANCH   5  28
TORSDOF 5
ENDMDL
MODEL 2
REMARK VINA RESULT:      -8.9      2.560      7.327
REMARK  Name = 
REMARK  5 active torsions:
REMARK  status: ('A' for Active; 'I' for Inactive)
REMARK    1  A    between atoms: C_6  and  C_10
REMARK    2  A    between atoms: C_14  and  O_18
REMARK    3  A    between atoms: N_17  and  N_20
REMARK    4  A    between atoms: N_20  and  C_23
REMARK    5  A    between atoms: C_23  and  C_26
REMARK                            x       y       z     vdW  Elec       q    Type
REMARK                         _______ _______ _______ _____ _____    ______ ____
ROOT
ATOM      1  C   UNL     1     -11.423  56.080  48.811  0.00  0.00    +0.000 A 
ATOM      2  C   UNL     1     -10.328  55.536  49.665  0.00  0.00    +0.000 A 
ATOM      3  C   UNL     1     -11.551  55.694  47.532  0.00  0.00    +0.000 A 
ATOM      4  O   UNL     1     -10.272  55.927  50.835  0.00  0.00    +0.000 OA
ATOM      5  N   UNL     1      -9.457  54.599  49.099  0.00  0.00    +0.000 N 
ATOM      6  C   UNL     1     -10.630  54.708  46.956  0.00  0.00    +0.000 A 
ATOM      7  C   UNL     1      -9.593  54.177  47.743  0.00  0.00    +0.000 A 
ATOM      8  C   UNL     1     -10.790  54.270  45.631  0.00  0.00    +0.000 A 
ATOM      9  C   UNL     1      -8.731  53.223  47.178  0.00  0.00    +0.000 A 
ATOM     10  C   UNL     1      -9.948  53.300  45.093  0.00  0.00    +0.000 A 
ATOM     11  C   UNL     1      -8.918  52.779  45.866  0.00  0.00    +0.000 A 
ENDROOT
BRANCH   1  17
ATOM     12  S   UNL     1     -13.572  59.297  49.456  0.00  0.00    +0.000 S 
ATOM     13  O   UNL     1     -14.700  59.379  48.553  0.00  0.00    +0.000 OA
ATOM     14  O   UNL     1     -12.800  60.485  49.776  0.00  0.00    +0.000 OA
ATOM     15  N   UNL     1     -12.553  58.186  48.869  0.00  0.00    +0.000 N 
ATOM     16  C   UNL     1     -14.206  58.704  50.983  0.00  0.00    +0.000 A 
ATOM     17  C   UNL     1     -12.430  57.024  49.435  0.00  0.00    +0.000 C 
ATOM     18  C   UNL     1     -13.891  57.410  51.359  0.00  0.00    +0.000 A 
ATOM     19  C   UNL     1     -14.987  59.543  51.782  0.00  0.00    +0.000 A 
ATOM     20  N   UNL     1     -13.124  56.586  50.543  0.00  0.00    +0.000 N 
ATOM     21  C   UNL     1     -14.430  56.919  52.552  0.00  0.00    +0.000 A 
ATOM     22  C   UNL     1     -15.493  59.051  52.983  0.00  0.00    +0.000 A 
ATOM     23  C   UNL     1     -15.222  57.736  53.361  0.00  0.00    +0.000 A 
ATOM     24  H   UNL     1     -12.018  58.395  48.069  0.00  0.00    +0.000 HD
ATOM     25  H   UNL     1     -13.072  55.630  50.771  0.00  0.00    +0.000 HD
ENDBRANCH   1  17
BRANCH   3  26
ATOM     26  O   UNL     1     -12.548  56.136  46.676  0.00  0.00    +0.000 OA
ATOM     27  H   UNL     1     -13.090  56.859  46.923  0.00  0.00    +0.000 HD
ENDBRANCH   3  26
BRANCH   5  28
ATOM     28  N   UNL     1      -8.345  54.088  49.847  0.00  0.00    +0.000 N 
ATOM     29  H   UNL     1      -8.372  53.210  50.293  0.00  0.00    +0.000 HD
BRANCH  28  30
ATOM     30  C   UNL     1      -7.165  54.959  49.907  0.00  0.00    +0.000 C 
BRANCH  30  31
ATOM     31  C   UNL     1      -6.635  55.042  51.318  0.00  0.00    +0.000 A 
ATOM     32  C   UNL     1      -5.492  54.318  51.693  0.00  0.00    +0.000 A 
ATOM     33  C   UNL     1      -7.297  55.816  52.278  0.00  0.00    +0.000 A 
ATOM     34  C   UNL     1      -5.026  54.363  53.007  0.00  0.00    +0.000 A 
ATOM     35  C   UNL     1      -6.829  55.860  53.590  0.00  0.00    +0.000 A 
ATOM     36  C   UNL     1      -5.700  55.130  53.956  0.00  0.00    +0.000 A 
ENDBRANCH  30  31
ENDBRANCH  28  30
ENDBRANCH   5  28
TORSDOF 5
ENDMDL
MODEL 3
REMARK VINA RESULT:      -8.9      3.154      8.557
REMARK  Name = 
REMARK  5 active torsions:
REMARK  status: ('A' for Active; 'I' for Inactive)
REMARK    1  A    between atoms: C_6  and  C_10
REMARK    2  A    between atoms: C_14  and  O_18
REMARK    3  A    between atoms: N_17  and  N_20
REMARK    4  A    between atoms: N_20  and  C_23
REMARK    5  A    between atoms: C_23  and  C_26
REMARK                            x       y       z     vdW  Elec       q    Type
REMARK                         _______ _______ _______ _____ _____    ______ ____
ROOT
ATOM      1  C   UNL     1     -10.100  54.581  52.174  0.00  0.00    +0.000 A 
ATOM      2  C   UNL     1      -8.740  55.156  51.966  0.00  0.00    +0.000 A 
ATOM      3  C   UNL     1     -10.273  53.479  52.921  0.00  0.00    +0.000 A 
ATOM      4  O   UNL     1      -8.653  56.175  51.274  0.00  0.00    +0.000 OA
ATOM      5  N   UNL     1      -7.658  54.526  52.591  0.00  0.00    +0.000 N 
ATOM      6  C   UNL     1      -9.128  52.834  53.571  0.00  0.00    +0.000 A 
ATOM      7  C   UNL     1      -7.835  53.360  53.394  0.00  0.00    +0.000 A 
ATOM      8  C   UNL     1      -9.311  51.708  54.389  0.00  0.00    +0.000 A 
ATOM      9  C   UNL     1      -6.753  52.737  54.037  0.00  0.00    +0.000 A 
ATOM     10  C   UNL     1      -8.234  51.118  55.046  0.00  0.00    +0.000 A 
ATOM     11  C   UNL     1      -6.956  51.632  54.868  0.00  0.00    +0.000 A 
ENDROOT
BRANCH   1  17
ATOM     12  S   UNL     1     -12.572  56.091  49.528  0.00  0.00    +0.000 S 
ATOM     13  O   UNL     1     -13.458  55.083  48.986  0.00  0.00    +0.000 OA
ATOM     14  O   UNL     1     -11.986  57.098  48.660  0.00  0.00    +0.000 OA
ATOM     15  N   UNL     1     -11.364  55.325  50.285  0.00  0.00    +0.000 N 
ATOM     16  C   UNL     1     -13.502  56.969  50.732  0.00  0.00    +0.000 A 
ATOM     17  C   UNL     1     -11.293  55.304  51.582  0.00  0.00    +0.000 C 
ATOM     18  C   UNL     1     -13.189  56.771  52.064  0.00  0.00    +0.000 A 
ATOM     19  C   UNL     1     -14.508  57.848  50.324  0.00  0.00    +0.000 A 
ATOM     20  N   UNL     1     -12.194  55.881  52.451  0.00  0.00    +0.000 N 
ATOM     21  C   UNL     1     -13.957  57.434  53.028  0.00  0.00    +0.000 A 
ATOM     22  C   UNL     1     -15.245  58.525  51.293  0.00  0.00    +0.000 A 
ATOM     23  C   UNL     1     -14.974  58.309  52.643  0.00  0.00    +0.000 A 
ATOM     24  H   UNL     1     -10.672  54.868  49.754  0.00  0.00    +0.000 HD
ATOM     25  H   UNL     1     -12.127  55.649  53.405  0.00  0.00    +0.000 HD
ENDBRANCH   1  17
BRANCH   3  26
ATOM     26  O   UNL     1     -11.501  52.891  53.178  0.00  0.00    +0.000 OA
ATOM     27  H   UNL     1     -11.581  52.251  53.857  0.00  0.00    +0.000 HD
ENDBRANCH   3  26
BRANCH   5  28
ATOM     28  N   UNL     1      -6.318  54.991  52.378  0.00  0.00    +0.000 N 
ATOM     29  H   UNL     1      -5.810  55.463  53.076  0.00  0.00    +0.000 HD
BRANCH  28  30
ATOM     30  C   UNL     1      -5.755  54.719  51.050  0.00  0.00    +0.000 C 
BRANCH  30  31
ATOM     31  C   UNL     1      -5.115  53.351  51.013  0.00  0.00    +0.000 A 
ATOM     32  C   UNL     1      -5.773  52.274  50.399  0.00  0.00    +0.000 A 
ATOM     33  C   UNL     1      -3.872  53.136  51.620  0.00  0.00    +0.000 A 
ATOM     34  C   UNL     1      -5.200  51.002  50.401  0.00  0.00    +0.000 A 
ATOM     35  C   UNL     1      -3.301  51.865  51.619  0.00  0.00    +0.000 A 
ATOM     36  C   UNL     1      -3.966  50.798  51.017  0.00  0.00    +0.000 A 
ENDBRANCH  30  31
ENDBRANCH  28  30
ENDBRANCH   5  28
TORSDOF 5
ENDMDL
MODEL 4
REMARK VINA RESULT:      -8.9      2.099      5.647
REMARK  Name = 
REMARK  5 active torsions:
REMARK  status: ('A' for Active; 'I' for Inactive)
REMARK    1  A    between atoms: C_6  and  C_10
REMARK    2  A    between atoms: C_14  and  O_18
REMARK    3  A    between atoms: N_17  and  N_20
REMARK    4  A    between atoms: N_20  and  C_23
REMARK    5  A    between atoms: C_23  and  C_26
REMARK                            x       y       z     vdW  Elec       q    Type
REMARK                         _______ _______ _______ _____ _____    ______ ____
ROOT
ATOM      1  C   UNL     1     -10.418  55.192  50.947  0.00  0.00    +0.000 A 
ATOM      2  C   UNL     1     -10.116  55.069  49.492  0.00  0.00    +0.000 A 
ATOM      3  C   UNL     1     -11.581  55.718  51.363  0.00  0.00    +0.000 A 
ATOM      4  O   UNL     1      -9.030  54.569  49.178  0.00  0.00    +0.000 OA
ATOM      5  N   UNL     1     -11.086  55.497  48.580  0.00  0.00    +0.000 N 
ATOM      6  C   UNL     1     -12.589  56.158  50.393  0.00  0.00    +0.000 A 
ATOM      7  C   UNL     1     -12.328  56.048  49.015  0.00  0.00    +0.000 A 
ATOM      8  C   UNL     1     -13.824  56.666  50.826  0.00  0.00    +0.000 A 
ATOM      9  C   UNL     1     -13.312  56.461  48.102  0.00  0.00    +0.000 A 
ATOM     10  C   UNL     1     -14.803  57.043  49.910  0.00  0.00    +0.000 A 
ATOM     11  C   UNL     1     -14.545  56.942  48.548  0.00  0.00    +0.000 A 
ENDROOT
BRANCH   1  17
ATOM     12  S   UNL     1      -7.086  54.717  52.961  0.00  0.00    +0.000 S 
ATOM     13  O   UNL     1      -6.948  55.704  54.011  0.00  0.00    +0.000 OA
ATOM     14  O   UNL     1      -5.940  54.340  52.152  0.00  0.00    +0.000 OA
ATOM     15  N   UNL     1      -8.254  55.224  51.962  0.00  0.00    +0.000 N 
ATOM     16  C   UNL     1      -7.636  53.242  53.741  0.00  0.00    +0.000 A 
ATOM     17  C   UNL     1      -9.418  54.648  51.946  0.00  0.00    +0.000 C 
ATOM     18  C   UNL     1      -8.942  52.842  53.526  0.00  0.00    +0.000 A 
ATOM     19  C   UNL     1      -6.751  52.506  54.533  0.00  0.00    +0.000 A 
ATOM     20  N   UNL     1      -9.812  53.595  52.745  0.00  0.00    +0.000 N 
ATOM     21  C   UNL     1      -9.397  51.692  54.180  0.00  0.00    +0.000 A 
ATOM     22  C   UNL     1      -7.209  51.347  55.156  0.00  0.00    +0.000 A 
ATOM     23  C   UNL     1      -8.534  50.947  54.985  0.00  0.00    +0.000 A 
ATOM     24  H   UNL     1      -8.079  55.980  51.357  0.00  0.00    +0.000 HD
ATOM     25  H   UNL     1     -10.768  53.363  52.763  0.00  0.00    +0.000 HD
ENDBRANCH   1  17
BRANCH   3  26
ATOM     26  O   UNL     1     -11.949  55.852  52.693  0.00  0.00    +0.000 OA
ATOM     27  H   UNL     1     -11.986  55.097  53.247  0.00  0.00    +0.000 HD
ENDBRANCH   3  26
BRANCH   5  28
ATOM     28  N   UNL     1     -10.829  55.466  47.169  0.00  0.00    +0.000 N 
ATOM     29  H   UNL     1     -10.285  56.153  46.720  0.00  0.00    +0.000 HD
BRANCH  28  30
ATOM     30  C   UNL     1     -11.430  54.344  46.438  0.00  0.00    +0.000 C 
BRANCH  30  31
ATOM     31  C   UNL     1     -10.473  53.814  45.396  0.00  0.00    +0.000 A 
ATOM     32  C   UNL     1      -9.105  54.121  45.465  0.00  0.00    +0.000 A 
ATOM     33  C   UNL     1     -10.946  53.037  44.332  0.00  0.00    +0.000 A 
ATOM     34  C   UNL     1      -8.228  53.665  44.480  0.00  0.00    +0.000 A 
ATOM     35  C   UNL     1     -10.068  52.582  43.350  0.00  0.00    +0.000 A 
ATOM     36  C   UNL     1      -8.712  52.900  43.420  0.00  0.00    +0.000 A 
ENDBRANCH  30  31
ENDBRANCH  28  30
ENDBRANCH   5  28
TORSDOF 5
ENDMDL
MODEL 5
REMARK VINA RESULT:      -8.9      1.892      2.597
REMARK  Name = 
REMARK  5 active torsions:
REMARK  status: ('A' for Active; 'I' for Inactive)
REMARK    1  A    between atoms: C_6  and  C_10
REMARK    2  A    between atoms: C_14  and  O_18
REMARK    3  A    between atoms: N_17  and  N_20
REMARK    4  A    between atoms: N_20  and  C_23
REMARK    5  A    between atoms: C_23  and  C_26
REMARK                            x       y       z     vdW  Elec       q    Type
REMARK                         _______ _______ _______ _____ _____    ______ ____
ROOT
ATOM      1  C   UNL     1      -9.651  53.990  50.320  0.00  0.00    +0.000 A 
ATOM      2  C   UNL     1     -10.649  55.084  50.496  0.00  0.00    +0.000 A 
ATOM      3  C   UNL     1      -9.474  53.410  49.123  0.00  0.00    +0.000 A 
ATOM      4  O   UNL     1     -10.756  55.580  51.623  0.00  0.00    +0.000 OA
ATOM      5  N   UNL     1     -11.375  55.499  49.375  0.00  0.00    +0.000 N 
ATOM      6  C   UNL     1     -10.242  53.859  47.957  0.00  0.00    +0.000 A 
ATOM      7  C   UNL     1     -11.185  54.892  48.097  0.00  0.00    +0.000 A 
ATOM      8  C   UNL     1     -10.026  53.284  46.694  0.00  0.00    +0.000 A 
ATOM      9  C   UNL     1     -11.900  55.319  46.965  0.00  0.00    +0.000 A 
ATOM     10  C   UNL     1     -10.718  53.738  45.575  0.00  0.00    +0.000 A 
ATOM     11  C   UNL     1     -11.656  54.754  45.712  0.00  0.00    +0.000 A 
ENDROOT
BRANCH   1  17
ATOM     12  S   UNL     1      -6.517  53.581  52.644  0.00  0.00    +0.000 S 
ATOM     13  O   UNL     1      -6.251  54.784  53.403  0.00  0.00    +0.000 OA
ATOM     14  O   UNL     1      -5.423  52.827  52.055  0.00  0.00    +0.000 OA
ATOM     15  N   UNL     1      -7.547  53.967  51.458  0.00  0.00    +0.000 N 
ATOM     16  C   UNL     1      -7.333  52.477  53.740  0.00  0.00    +0.000 A 
ATOM     17  C   UNL     1      -8.791  53.594  51.503  0.00  0.00    +0.000 C 
ATOM     18  C   UNL     1      -8.680  52.238  53.536  0.00  0.00    +0.000 A 
ATOM     19  C   UNL     1      -6.613  51.860  54.765  0.00  0.00    +0.000 A 
ATOM     20  N   UNL     1      -9.383  52.873  52.518  0.00  0.00    +0.000 N 
ATOM     21  C   UNL     1      -9.344  51.395  54.433  0.00  0.00    +0.000 A 
ATOM     22  C   UNL     1      -7.280  51.000  55.634  0.00  0.00    +0.000 A 
ATOM     23  C   UNL     1      -8.647  50.776  55.472  0.00  0.00    +0.000 A 
ATOM     24  H   UNL     1      -7.227  54.493  50.690  0.00  0.00    +0.000 HD
ATOM     25  H   UNL     1     -10.365  52.803  52.522  0.00  0.00    +0.000 HD
ENDBRANCH   1  17
BRANCH   3  26
ATOM     26  O   UNL     1      -8.558  52.401  48.869  0.00  0.00    +0.000 OA
ATOM     27  H   UNL     1      -8.764  51.725  48.254  0.00  0.00    +0.000 HD
ENDBRANCH   3  26
BRANCH   5  28
ATOM     28  N   UNL     1     -12.396  56.500  49.492  0.00  0.00    +0.000 N 
ATOM     29  H   UNL     1     -12.258  57.426  49.190  0.00  0.00    +0.000 HD
BRANCH  28  30
ATOM     30  C   UNL     1     -13.658  56.053  50.094  0.00  0.00    +0.000 C 
BRANCH  30  31
ATOM     31  C   UNL     1     -14.235  57.129  50.982  0.00  0.00    +0.000 A 
ATOM     32  C   UNL     1     -14.439  58.427  50.486  0.00  0.00    +0.000 A 
ATOM     33  C   UNL     1     -14.543  56.853  52.319  0.00  0.00    +0.000 A 
ATOM     34  C   UNL     1     -14.934  59.431  51.319  0.00  0.00    +0.000 A 
ATOM     35  C   UNL     1     -15.039  57.858  53.148  0.00  0.00    +0.000 A 
ATOM     36  C   UNL     1     -15.228  59.147  52.651  0.00  0.00    +0.000 A 
ENDBRANCH  30  31
ENDBRANCH  28  30
ENDBRANCH   5  28
TORSDOF 5
ENDMDL
MODEL 6
REMARK VINA RESULT:      -8.9      2.916      7.637
REMARK  Name = 
REMARK  5 active torsions:
REMARK  status: ('A' for Active; 'I' for Inactive)
REMARK    1  A    between atoms: C_6  and  C_10
REMARK    2  A    between atoms: C_14  and  O_18
REMARK    3  A    between atoms: N_17  and  N_20
REMARK    4  A    between atoms: N_20  and  C_23
REMARK    5  A    between atoms: C_23  and  C_26
REMARK                            x       y       z     vdW  Elec       q    Type
REMARK                         _______ _______ _______ _____ _____    ______ ____
ROOT
ATOM      1  C   UNL     1     -11.177  54.602  50.733  0.00  0.00    +0.000 A 
ATOM      2  C   UNL     1      -9.807  54.981  50.283  0.00  0.00    +0.000 A 
ATOM      3  C   UNL     1     -11.421  53.383  51.238  0.00  0.00    +0.000 A 
ATOM      4  O   UNL     1      -9.651  56.122  49.834  0.00  0.00    +0.000 OA
ATOM      5  N   UNL     1      -8.784  54.037  50.425  0.00  0.00    +0.000 N 
ATOM      6  C   UNL     1     -10.335  52.407  51.383  0.00  0.00    +0.000 A 
ATOM      7  C   UNL     1      -9.034  52.743  50.970  0.00  0.00    +0.000 A 
ATOM      8  C   UNL     1     -10.578  51.147  51.954  0.00  0.00    +0.000 A 
ATOM      9  C   UNL     1      -8.004  51.800  51.132  0.00  0.00    +0.000 A 
ATOM     10  C   UNL     1      -9.543  50.234  52.136  0.00  0.00    +0.000 A 
ATOM     11  C   UNL     1      -8.257  50.561  51.723  0.00  0.00    +0.000 A 
ENDROOT
BRANCH   1  17
ATOM     12  S   UNL     1     -13.673  57.268  49.300  0.00  0.00    +0.000 S 
ATOM     13  O   UNL     1     -14.819  56.646  48.671  0.00  0.00    +0.000 OA
ATOM     14  O   UNL     1     -13.038  58.424  48.692  0.00  0.00    +0.000 OA
ATOM     15  N   UNL     1     -12.543  56.127  49.496  0.00  0.00    +0.000 N 
ATOM     16  C   UNL     1     -14.207  57.788  50.891  0.00  0.00    +0.000 A 
ATOM     17  C   UNL     1     -12.276  55.644  50.672  0.00  0.00    +0.000 C 
ATOM     18  C   UNL     1     -13.737  57.095  51.992  0.00  0.00    +0.000 A 
ATOM     19  C   UNL     1     -15.065  58.883  51.010  0.00  0.00    +0.000 A 
ATOM     20  N   UNL     1     -12.895  55.998  51.852  0.00  0.00    +0.000 N 
ATOM     21  C   UNL     1     -14.195  57.477  53.258  0.00  0.00    +0.000 A 
ATOM     22  C   UNL     1     -15.490  59.272  52.278  0.00  0.00    +0.000 A 
ATOM     23  C   UNL     1     -15.061  58.562  53.399  0.00  0.00    +0.000 A 
ATOM     24  H   UNL     1     -12.049  55.794  48.712  0.00  0.00    +0.000 HD
ATOM     25  H   UNL     1     -12.728  55.439  52.646  0.00  0.00    +0.000 HD
ENDBRANCH   1  17
BRANCH   3  26
ATOM     26  O   UNL     1     -12.658  52.956  51.695  0.00  0.00    +0.000 OA
ATOM     27  H   UNL     1     -13.237  52.498  51.118  0.00  0.00    +0.000 HD
ENDBRANCH   3  26
BRANCH   5  28
ATOM     28  N   UNL     1      -7.459  54.317  49.952  0.00  0.00    +0.000 N 
ATOM     29  H   UNL     1      -7.053  53.819  49.207  0.00  0.00    +0.000 HD
BRANCH  28  30
ATOM     30  C   UNL     1      -6.749  55.395  50.651  0.00  0.00    +0.000 C 
BRANCH  30  31
ATOM     31  C   UNL     1      -6.535  55.038  52.103  0.00  0.00    +0.000 A 
ATOM     32  C   UNL     1      -5.512  54.152  52.474  0.00  0.00    +0.000 A 
ATOM     33  C   UNL     1      -7.377  55.561  53.091  0.00  0.00    +0.000 A 
ATOM     34  C   UNL     1      -5.340  53.791  53.811  0.00  0.00    +0.000 A 
ATOM     35  C   UNL     1      -7.203  55.200  54.426  0.00  0.00    +0.000 A 
ATOM     36  C   UNL     1      -6.191  54.311  54.785  0.00  0.00    +0.000 A 
ENDBRANCH  30  31
ENDBRANCH  28  30
ENDBRANCH   5  28
TORSDOF 5
ENDMDL
MODEL 7
REMARK VINA RESULT:      -8.7      1.866      5.435
REMARK  Name = 
REMARK  5 active torsions:
REMARK  status: ('A' for Active; 'I' for Inactive)
REMARK    1  A    between atoms: C_6  and  C_10
REMARK    2  A    between atoms: C_14  and  O_18
REMARK    3  A    between atoms: N_17  and  N_20
REMARK    4  A    between atoms: N_20  and  C_23
REMARK    5  A    between atoms: C_23  and  C_26
REMARK                            x       y       z     vdW  Elec       q    Type
REMARK                         _______ _______ _______ _____ _____    ______ ____
ROOT
ATOM      1  C   UNL     1     -10.573  54.971  50.689  0.00  0.00    +0.000 A 
ATOM      2  C   UNL     1     -10.324  54.876  49.221  0.00  0.00    +0.000 A 
ATOM      3  C   UNL     1     -11.633  55.647  51.161  0.00  0.00    +0.000 A 
ATOM      4  O   UNL     1      -9.334  54.233  48.854  0.00  0.00    +0.000 OA
ATOM      5  N   UNL     1     -11.237  55.490  48.358  0.00  0.00    +0.000 N 
ATOM      6  C   UNL     1     -12.581  56.282  50.241  0.00  0.00    +0.000 A 
ATOM      7  C   UNL     1     -12.370  56.201  48.853  0.00  0.00    +0.000 A 
ATOM      8  C   UNL     1     -13.715  56.950  50.732  0.00  0.00    +0.000 A 
ATOM      9  C   UNL     1     -13.298  56.803  47.987  0.00  0.00    +0.000 A 
ATOM     10  C   UNL     1     -14.644  57.515  49.862  0.00  0.00    +0.000 A 
ATOM     11  C   UNL     1     -14.434  57.443  48.490  0.00  0.00    +0.000 A 
ENDROOT
BRANCH   1  17
ATOM     12  S   UNL     1      -9.199  52.226  53.130  0.00  0.00    +0.000 S 
ATOM     13  O   UNL     1      -8.677  51.082  52.412  0.00  0.00    +0.000 OA
ATOM     14  O   UNL     1      -9.990  52.039  54.335  0.00  0.00    +0.000 OA
ATOM     15  N   UNL     1     -10.080  53.097  52.089  0.00  0.00    +0.000 N 
ATOM     16  C   UNL     1      -7.807  53.186  53.606  0.00  0.00    +0.000 A 
ATOM     17  C   UNL     1      -9.646  54.234  51.633  0.00  0.00    +0.000 C 
ATOM     18  C   UNL     1      -7.596  54.389  52.958  0.00  0.00    +0.000 A 
ATOM     19  C   UNL     1      -6.968  52.731  54.626  0.00  0.00    +0.000 A 
ATOM     20  N   UNL     1      -8.435  54.819  51.936  0.00  0.00    +0.000 N 
ATOM     21  C   UNL     1      -6.464  55.135  53.303  0.00  0.00    +0.000 A 
ATOM     22  C   UNL     1      -5.861  53.498  54.980  0.00  0.00    +0.000 A 
ATOM     23  C   UNL     1      -5.606  54.694  54.311  0.00  0.00    +0.000 A 
ATOM     24  H   UNL     1     -10.958  52.761  51.798  0.00  0.00    +0.000 HD
ATOM     25  H   UNL     1      -8.147  55.589  51.395  0.00  0.00    +0.000 HD
ENDBRANCH   1  17
BRANCH   3  26
ATOM     26  O   UNL     1     -11.947  55.770  52.506  0.00  0.00    +0.000 OA
ATOM     27  H   UNL     1     -11.322  55.519  53.157  0.00  0.00    +0.000 HD
ENDBRANCH   3  26
BRANCH   5  28
ATOM     28  N   UNL     1     -11.017  55.490  46.940  0.00  0.00    +0.000 N 
ATOM     29  H   UNL     1     -10.522  56.210  46.487  0.00  0.00    +0.000 HD
BRANCH  28  30
ATOM     30  C   UNL     1     -11.580  54.347  46.210  0.00  0.00    +0.000 C 
BRANCH  30  31
ATOM     31  C   UNL     1     -10.566  53.781  45.245  0.00  0.00    +0.000 A 
ATOM     32  C   UNL     1      -9.200  54.069  45.397  0.00  0.00    +0.000 A 
ATOM     33  C   UNL     1     -10.980  52.987  44.169  0.00  0.00    +0.000 A 
ATOM     34  C   UNL     1      -8.269  53.579  44.482  0.00  0.00    +0.000 A 
ATOM     35  C   UNL     1     -10.048  52.497  43.257  0.00  0.00    +0.000 A 
ATOM     36  C   UNL     1      -8.695  52.798  43.409  0.00  0.00    +0.000 A 
ENDBRANCH  30  31
ENDBRANCH  28  30
ENDBRANCH   5  28
TORSDOF 5
ENDMDL
MODEL 8
REMARK VINA RESULT:      -8.6      3.035      6.946
REMARK  Name = 
REMARK  5 active torsions:
REMARK  status: ('A' for Active; 'I' for Inactive)
REMARK    1  A    between atoms: C_6  and  C_10
REMARK    2  A    between atoms: C_14  and  O_18
REMARK    3  A    between atoms: N_17  and  N_20
REMARK    4  A    between atoms: N_20  and  C_23
REMARK    5  A    between atoms: C_23  and  C_26
REMARK                            x       y       z     vdW  Elec       q    Type
REMARK                         _______ _______ _______ _____ _____    ______ ____
ROOT
ATOM      1  C   UNL     1     -11.594  56.155  48.619  0.00  0.00    +0.000 A 
ATOM      2  C   UNL     1     -10.392  55.670  49.356  0.00  0.00    +0.000 A 
ATOM      3  C   UNL     1     -11.857  55.723  47.376  0.00  0.00    +0.000 A 
ATOM      4  O   UNL     1     -10.214  56.103  50.499  0.00  0.00    +0.000 OA
ATOM      5  N   UNL     1      -9.564  54.737  48.722  0.00  0.00    +0.000 N 
ATOM      6  C   UNL     1     -10.980  54.742  46.728  0.00  0.00    +0.000 A 
ATOM      7  C   UNL     1      -9.843  54.266  47.405  0.00  0.00    +0.000 A 
ATOM      8  C   UNL     1     -11.278  54.254  45.445  0.00  0.00    +0.000 A 
ATOM      9  C   UNL     1      -9.024  53.316  46.774  0.00  0.00    +0.000 A 
ATOM     10  C   UNL     1     -10.475  53.289  44.844  0.00  0.00    +0.000 A 
ATOM     11  C   UNL     1      -9.347  52.822  45.508  0.00  0.00    +0.000 A 
ENDROOT
BRANCH   1  17
ATOM     12  S   UNL     1     -13.625  59.393  49.503  0.00  0.00    +0.000 S 
ATOM     13  O   UNL     1     -14.781  59.551  48.647  0.00  0.00    +0.000 OA
ATOM     14  O   UNL     1     -12.807  60.542  49.853  0.00  0.00    +0.000 OA
ATOM     15  N   UNL     1     -12.660  58.286  48.823  0.00  0.00    +0.000 N 
ATOM     16  C   UNL     1     -14.221  58.740  51.021  0.00  0.00    +0.000 A 
ATOM     17  C   UNL     1     -12.551  57.094  49.326  0.00  0.00    +0.000 C 
ATOM     18  C   UNL     1     -13.930  57.421  51.319  0.00  0.00    +0.000 A 
ATOM     19  C   UNL     1     -14.948  59.558  51.889  0.00  0.00    +0.000 A 
ATOM     20  N   UNL     1     -13.217  56.619  50.436  0.00  0.00    +0.000 N 
ATOM     21  C   UNL     1     -14.441  56.885  52.506  0.00  0.00    +0.000 A 
ATOM     22  C   UNL     1     -15.426  59.020  53.081  0.00  0.00    +0.000 A 
ATOM     23  C   UNL     1     -15.179  57.681  53.383  0.00  0.00    +0.000 A 
ATOM     24  H   UNL     1     -12.147  58.520  48.016  0.00  0.00    +0.000 HD
ATOM     25  H   UNL     1     -13.185  55.651  50.614  0.00  0.00    +0.000 HD
ENDBRANCH   1  17
BRANCH   3  26
ATOM     26  O   UNL     1     -12.959  56.109  46.628  0.00  0.00    +0.000 OA
ATOM     27  H   UNL     1     -13.260  56.995  46.662  0.00  0.00    +0.000 HD
ENDBRANCH   3  26
BRANCH   5  28
ATOM     28  N   UNL     1      -8.359  54.282  49.352  0.00  0.00    +0.000 N 
ATOM     29  H   UNL     1      -7.557  54.850  49.422  0.00  0.00    +0.000 HD
BRANCH  28  30
ATOM     30  C   UNL     1      -8.398  52.915  49.885  0.00  0.00    +0.000 C 
BRANCH  30  31
ATOM     31  C   UNL     1      -9.261  52.850  51.122  0.00  0.00    +0.000 A 
ATOM     32  C   UNL     1      -8.813  53.400  52.333  0.00  0.00    +0.000 A 
ATOM     33  C   UNL     1     -10.506  52.211  51.082  0.00  0.00    +0.000 A 
ATOM     34  C   UNL     1      -9.594  53.304  53.485  0.00  0.00    +0.000 A 
ATOM     35  C   UNL     1     -11.285  52.117  52.234  0.00  0.00    +0.000 A 
ATOM     36  C   UNL     1     -10.827  52.657  53.435  0.00  0.00    +0.000 A 
ENDBRANCH  30  31
ENDBRANCH  28  30
ENDBRANCH   5  28
TORSDOF 5
ENDMDL
MODEL 9
REMARK VINA RESULT:      -8.5      2.154      7.395
REMARK  Name = 
REMARK  5 active torsions:
REMARK  status: ('A' for Active; 'I' for Inactive)
REMARK    1  A    between atoms: C_6  and  C_10
REMARK    2  A    between atoms: C_14  and  O_18
REMARK    3  A    between atoms: N_17  and  N_20
REMARK    4  A    between atoms: N_20  and  C_23
REMARK    5  A    between atoms: C_23  and  C_26
REMARK                            x       y       z     vdW  Elec       q    Type
REMARK                         _______ _______ _______ _____ _____    ______ ____
ROOT
ATOM      1  C   UNL     1     -10.954  55.476  48.807  0.00  0.00    +0.000 A 
ATOM      2  C   UNL     1      -9.758  54.942  49.521  0.00  0.00    +0.000 A 
ATOM      3  C   UNL     1     -11.157  55.200  47.509  0.00  0.00    +0.000 A 
ATOM      4  O   UNL     1      -9.636  55.228  50.717  0.00  0.00    +0.000 OA
ATOM      5  N   UNL     1      -8.872  54.130  48.804  0.00  0.00    +0.000 N 
ATOM      6  C   UNL     1     -10.219  54.345  46.774  0.00  0.00    +0.000 A 
ATOM      7  C   UNL     1      -9.087  53.826  47.427  0.00  0.00    +0.000 A 
ATOM      8  C   UNL     1     -10.454  54.018  45.429  0.00  0.00    +0.000 A 
ATOM      9  C   UNL     1      -8.209  52.996  46.710  0.00  0.00    +0.000 A 
ATOM     10  C   UNL     1      -9.593  53.169  44.738  0.00  0.00    +0.000 A 
ATOM     11  C   UNL     1      -8.470  52.660  45.379  0.00  0.00    +0.000 A 
ENDROOT
BRANCH   1  17
ATOM     12  S   UNL     1     -13.663  56.403  51.487  0.00  0.00    +0.000 S 
ATOM     13  O   UNL     1     -13.067  56.716  52.768  0.00  0.00    +0.000 OA
ATOM     14  O   UNL     1     -14.878  55.608  51.418  0.00  0.00    +0.000 OA
ATOM     15  N   UNL     1     -12.538  55.667  50.588  0.00  0.00    +0.000 N 
ATOM     16  C   UNL     1     -14.046  57.942  50.732  0.00  0.00    +0.000 A 
ATOM     17  C   UNL     1     -11.971  56.278  49.592  0.00  0.00    +0.000 C 
ATOM     18  C   UNL     1     -13.281  58.343  49.652  0.00  0.00    +0.000 A 
ATOM     19  C   UNL     1     -15.109  58.707  51.218  0.00  0.00    +0.000 A 
ATOM     20  N   UNL     1     -12.218  57.574  49.191  0.00  0.00    +0.000 N 
ATOM     21  C   UNL     1     -13.553  59.588  49.076  0.00  0.00    +0.000 A 
ATOM     22  C   UNL     1     -15.389  59.931  50.616  0.00  0.00    +0.000 A 
ATOM     23  C   UNL     1     -14.604  60.374  49.552  0.00  0.00    +0.000 A 
ATOM     24  H   UNL     1     -12.278  54.741  50.799  0.00  0.00    +0.000 HD
ATOM     25  H   UNL     1     -11.603  57.980  48.538  0.00  0.00    +0.000 HD
ENDBRANCH   1  17
BRANCH   3  26
ATOM     26  O   UNL     1     -12.248  55.640  46.776  0.00  0.00    +0.000 OA
ATOM     27  H   UNL     1     -12.189  56.432  46.279  0.00  0.00    +0.000 HD
ENDBRANCH   3  26
BRANCH   5  28
ATOM     28  N   UNL     1      -7.671  53.640  49.416  0.00  0.00    +0.000 N 
ATOM     29  H   UNL     1      -7.596  52.721  49.761  0.00  0.00    +0.000 HD
BRANCH  28  30
ATOM     30  C   UNL     1      -6.562  54.599  49.494  0.00  0.00    +0.000 C 
BRANCH  30  31
ATOM     31  C   UNL     1      -5.823  54.452  50.803  0.00  0.00    +0.000 A 
ATOM     32  C   UNL     1      -6.433  54.826  52.011  0.00  0.00    +0.000 A 
ATOM     33  C   UNL     1      -4.509  53.971  50.823  0.00  0.00    +0.000 A 
ATOM     34  C   UNL     1      -5.736  54.728  53.215  0.00  0.00    +0.000 A 
ATOM     35  C   UNL     1      -3.814  53.873  52.028  0.00  0.00    +0.000 A 
ATOM     36  C   UNL     1      -4.424  54.257  53.221  0.00  0.00    +0.000 A 
ENDBRANCH  30  31
ENDBRANCH  28  30
ENDBRANCH   5  28
TORSDOF 5
ENDMDL
