MODEL 1
REMARK VINA RESULT:      -9.6      0.000      0.000
REMARK  Name = 
REMARK  5 active torsions:
REMARK  status: ('A' for Active; 'I' for Inactive)
REMARK    1  A    between atoms: C_6  and  C_10
REMARK    2  A    between atoms: C_14  and  O_18
REMARK    3  A    between atoms: N_17  and  N_20
REMARK    4  A    between atoms: N_20  and  C_23
REMARK    5  A    between atoms: C_23  and  C_26
REMARK                            x       y       z     vdW  Elec       q    Type
REMARK                         _______ _______ _______ _____ _____    ______ ____
ROOT
ATOM      1  C   UNL     1      -9.146  54.521  49.701  0.00  0.00    +0.000 A 
ATOM      2  C   UNL     1     -10.166  55.609  49.690  0.00  0.00    +0.000 A 
ATOM      3  C   UNL     1      -9.102  53.626  48.702  0.00  0.00    +0.000 A 
ATOM      4  O   UNL     1     -10.203  56.338  50.688  0.00  0.00    +0.000 OA
ATOM      5  N   UNL     1     -11.020  55.721  48.579  0.00  0.00    +0.000 N 
ATOM      6  C   UNL     1      -9.980  53.762  47.533  0.00  0.00    +0.000 A 
ATOM      7  C   UNL     1     -10.919  54.809  47.470  0.00  0.00    +0.000 A 
ATOM      8  C   UNL     1      -9.869  52.850  46.467  0.00  0.00    +0.000 A 
ATOM      9  C   UNL     1     -11.708  54.918  46.313  0.00  0.00    +0.000 A 
ATOM     10  C   UNL     1     -10.660  52.975  45.331  0.00  0.00    +0.000 A 
ATOM     11  C   UNL     1     -11.578  54.013  45.253  0.00  0.00    +0.000 A 
ENDROOT
BRANCH   1  17
ATOM     12  S   UNL     1      -7.965  54.185  53.427  0.00  0.00    +0.000 S 
ATOM     13  O   UNL     1      -8.268  52.862  53.935  0.00  0.00    +0.000 OA
ATOM     14  O   UNL     1      -8.169  55.355  54.259  0.00  0.00    +0.000 OA
ATOM     15  N   UNL     1      -8.808  54.414  52.067  0.00  0.00    +0.000 N 
ATOM     16  C   UNL     1      -6.260  54.167  53.022  0.00  0.00    +0.000 A 
ATOM     17  C   UNL     1      -8.229  54.388  50.902  0.00  0.00    +0.000 C 
ATOM     18  C   UNL     1      -5.912  54.152  51.680  0.00  0.00    +0.000 A 
ATOM     19  C   UNL     1      -5.304  54.152  54.042  0.00  0.00    +0.000 A 
ATOM     20  N   UNL     1      -6.877  54.251  50.686  0.00  0.00    +0.000 N 
ATOM     21  C   UNL     1      -4.551  54.140  51.352  0.00  0.00    +0.000 A 
ATOM     22  C   UNL     1      -3.955  54.130  53.700  0.00  0.00    +0.000 A 
ATOM     23  C   UNL     1      -3.579  54.123  52.358  0.00  0.00    +0.000 A 
ATOM     24  H   UNL     1      -9.778  54.576  52.120  0.00  0.00    +0.000 HD
ATOM     25  H   UNL     1      -6.569  54.221  49.751  0.00  0.00    +0.000 HD
ENDBRANCH   1  17
BRANCH   3  26
ATOM     26  O   UNL     1      -8.260  52.527  48.675  0.00  0.00    +0.000 OA
ATOM     27  H   UNL     1      -7.612  52.450  48.004  0.00  0.00    +0.000 HD
ENDBRANCH   3  26
BRANCH   5  28
ATOM     28  N   UNL     1     -12.178  56.590  48.688  0.00  0.00    +0.000 N 
ATOM     29  H   UNL     1     -12.189  57.513  48.348  0.00  0.00    +0.000 HD
BRANCH  28  30
ATOM     30  C   UNL     1     -13.337  55.969  49.352  0.00  0.00    +0.000 C 
BRANCH  30  31
ATOM     31  C   UNL     1     -14.490  56.964  49.636  0.00  0.00    +0.000 C 
ATOM     32  C   UNL     1     -13.960  58.395  49.828  0.00  0.00    +0.000 C 
ATOM     33  C   UNL     1     -15.357  56.430  50.793  0.00  0.00    +0.000 C 
ATOM     34  C   UNL     1     -14.861  59.327  50.638  0.00  0.00    +0.000 C 
ATOM     35  C   UNL     1     -14.771  56.637  52.187  0.00  0.00    +0.000 C 
ATOM     36  C   UNL     1     -14.626  59.211  52.145  0.00  0.00    +0.000 C 
ATOM     37  C   UNL     1     -15.199  57.963  52.809  0.00  0.00    +0.000 C 
ENDBRANCH  30  31
ENDBRANCH  28  30
ENDBRANCH   5  28
TORSDOF 5
ENDMDL
MODEL 2
REMARK VINA RESULT:      -9.4      1.496      2.015
REMARK  Name = 
REMARK  5 active torsions:
REMARK  status: ('A' for Active; 'I' for Inactive)
REMARK    1  A    between atoms: C_6  and  C_10
REMARK    2  A    between atoms: C_14  and  O_18
REMARK    3  A    between atoms: N_17  and  N_20
REMARK    4  A    between atoms: N_20  and  C_23
REMARK    5  A    between atoms: C_23  and  C_26
REMARK                            x       y       z     vdW  Elec       q    Type
REMARK                         _______ _______ _______ _____ _____    ______ ____
ROOT
ATOM      1  C   UNL     1      -9.434  54.253  49.805  0.00  0.00    +0.000 A 
ATOM      2  C   UNL     1     -10.382  55.405  49.798  0.00  0.00    +0.000 A 
ATOM      3  C   UNL     1      -9.390  53.408  48.763  0.00  0.00    +0.000 A 
ATOM      4  O   UNL     1     -10.429  56.084  50.830  0.00  0.00    +0.000 OA
ATOM      5  N   UNL     1     -11.163  55.628  48.650  0.00  0.00    +0.000 N 
ATOM      6  C   UNL     1     -10.190  53.659  47.559  0.00  0.00    +0.000 A 
ATOM      7  C   UNL     1     -11.057  54.768  47.501  0.00  0.00    +0.000 A 
ATOM      8  C   UNL     1     -10.077  52.796  46.453  0.00  0.00    +0.000 A 
ATOM      9  C   UNL     1     -11.771  54.985  46.312  0.00  0.00    +0.000 A 
ATOM     10  C   UNL     1     -10.794  53.028  45.285  0.00  0.00    +0.000 A 
ATOM     11  C   UNL     1     -11.638  54.127  45.213  0.00  0.00    +0.000 A 
ENDROOT
BRANCH   1  17
ATOM     12  S   UNL     1      -6.657  54.700  52.541  0.00  0.00    +0.000 S 
ATOM     13  O   UNL     1      -6.961  55.836  53.386  0.00  0.00    +0.000 OA
ATOM     14  O   UNL     1      -5.297  54.455  52.101  0.00  0.00    +0.000 OA
ATOM     15  N   UNL     1      -7.577  54.792  51.214  0.00  0.00    +0.000 N 
ATOM     16  C   UNL     1      -7.140  53.281  53.448  0.00  0.00    +0.000 A 
ATOM     17  C   UNL     1      -8.596  54.001  51.044  0.00  0.00    +0.000 C 
ATOM     18  C   UNL     1      -8.279  52.605  53.039  0.00  0.00    +0.000 A 
ATOM     19  C   UNL     1      -6.388  52.875  54.555  0.00  0.00    +0.000 A 
ATOM     20  N   UNL     1      -8.962  52.978  51.888  0.00  0.00    +0.000 N 
ATOM     21  C   UNL     1      -8.667  51.470  53.760  0.00  0.00    +0.000 A 
ATOM     22  C   UNL     1      -6.791  51.750  55.267  0.00  0.00    +0.000 A 
ATOM     23  C   UNL     1      -7.929  51.049  54.871  0.00  0.00    +0.000 A 
ATOM     24  H   UNL     1      -7.363  55.458  50.522  0.00  0.00    +0.000 HD
ATOM     25  H   UNL     1      -9.772  52.468  51.657  0.00  0.00    +0.000 HD
ENDBRANCH   1  17
BRANCH   3  26
ATOM     26  O   UNL     1      -8.619  52.258  48.723  0.00  0.00    +0.000 OA
ATOM     27  H   UNL     1      -8.081  52.081  47.977  0.00  0.00    +0.000 HD
ENDBRANCH   3  26
BRANCH   5  28
ATOM     28  N   UNL     1     -12.268  56.564  48.744  0.00  0.00    +0.000 N 
ATOM     29  H   UNL     1     -12.208  57.496  48.433  0.00  0.00    +0.000 HD
BRANCH  28  30
ATOM     30  C   UNL     1     -13.488  55.999  49.344  0.00  0.00    +0.000 C 
BRANCH  30  31
ATOM     31  C   UNL     1     -14.565  57.064  49.671  0.00  0.00    +0.000 C 
ATOM     32  C   UNL     1     -13.930  58.440  49.931  0.00  0.00    +0.000 C 
ATOM     33  C   UNL     1     -15.478  56.543  50.798  0.00  0.00    +0.000 C 
ATOM     34  C   UNL     1     -14.763  59.399  50.781  0.00  0.00    +0.000 C 
ATOM     35  C   UNL     1     -14.887  56.641  52.203  0.00  0.00    +0.000 C 
ATOM     36  C   UNL     1     -14.548  59.195  52.281  0.00  0.00    +0.000 C 
ATOM     37  C   UNL     1     -15.218  57.965  52.884  0.00  0.00    +0.000 C 
ENDBRANCH  30  31
ENDBRANCH  28  30
ENDBRANCH   5  28
TORSDOF 5
ENDMDL
MODEL 3
REMARK VINA RESULT:      -9.1      1.506      1.637
REMARK  Name = 
REMARK  5 active torsions:
REMARK  status: ('A' for Active; 'I' for Inactive)
REMARK    1  A    between atoms: C_6  and  C_10
REMARK    2  A    between atoms: C_14  and  O_18
REMARK    3  A    between atoms: N_17  and  N_20
REMARK    4  A    between atoms: N_20  and  C_23
REMARK    5  A    between atoms: C_23  and  C_26
REMARK                            x       y       z     vdW  Elec       q    Type
REMARK                         _______ _______ _______ _____ _____    ______ ____
ROOT
ATOM      1  C   UNL     1      -9.720  53.628  49.716  0.00  0.00    +0.000 A 
ATOM      2  C   UNL     1     -10.923  54.506  49.797  0.00  0.00    +0.000 A 
ATOM      3  C   UNL     1      -9.387  53.044  48.554  0.00  0.00    +0.000 A 
ATOM      4  O   UNL     1     -11.218  54.933  50.919  0.00  0.00    +0.000 OA
ATOM      5  N   UNL     1     -11.646  54.769  48.620  0.00  0.00    +0.000 N 
ATOM      6  C   UNL     1     -10.131  53.341  47.324  0.00  0.00    +0.000 A 
ATOM      7  C   UNL     1     -11.241  54.207  47.358  0.00  0.00    +0.000 A 
ATOM      8  C   UNL     1      -9.721  52.769  46.105  0.00  0.00    +0.000 A 
ATOM      9  C   UNL     1     -11.894  54.488  46.148  0.00  0.00    +0.000 A 
ATOM     10  C   UNL     1     -10.382  53.060  44.918  0.00  0.00    +0.000 A 
ATOM     11  C   UNL     1     -11.468  53.924  44.939  0.00  0.00    +0.000 A 
ENDROOT
BRANCH   1  17
ATOM     12  S   UNL     1      -8.336  51.688  52.833  0.00  0.00    +0.000 S 
ATOM     13  O   UNL     1      -7.390  50.673  52.415  0.00  0.00    +0.000 OA
ATOM     14  O   UNL     1      -9.303  51.406  53.877  0.00  0.00    +0.000 OA
ATOM     15  N   UNL     1      -9.167  52.175  51.533  0.00  0.00    +0.000 N 
ATOM     16  C   UNL     1      -7.376  53.036  53.408  0.00  0.00    +0.000 A 
ATOM     17  C   UNL     1      -8.942  53.332  50.984  0.00  0.00    +0.000 C 
ATOM     18  C   UNL     1      -7.315  54.174  52.619  0.00  0.00    +0.000 A 
ATOM     19  C   UNL     1      -6.691  52.932  54.623  0.00  0.00    +0.000 A 
ATOM     20  N   UNL     1      -8.070  54.285  51.458  0.00  0.00    +0.000 N 
ATOM     21  C   UNL     1      -6.550  55.253  53.076  0.00  0.00    +0.000 A 
ATOM     22  C   UNL     1      -5.928  54.010  55.060  0.00  0.00    +0.000 A 
ATOM     23  C   UNL     1      -5.856  55.169  54.288  0.00  0.00    +0.000 A 
ATOM     24  H   UNL     1      -9.856  51.584  51.151  0.00  0.00    +0.000 HD
ATOM     25  H   UNL     1      -7.973  55.111  50.933  0.00  0.00    +0.000 HD
ENDBRANCH   1  17
BRANCH   3  26
ATOM     26  O   UNL     1      -8.350  52.137  48.405  0.00  0.00    +0.000 OA
ATOM     27  H   UNL     1      -8.378  51.504  47.717  0.00  0.00    +0.000 HD
ENDBRANCH   3  26
BRANCH   5  28
ATOM     28  N   UNL     1     -12.955  55.384  48.742  0.00  0.00    +0.000 N 
ATOM     29  H   UNL     1     -13.794  54.869  48.717  0.00  0.00    +0.000 HD
BRANCH  28  30
ATOM     30  C   UNL     1     -12.922  56.847  48.907  0.00  0.00    +0.000 C 
BRANCH  30  31
ATOM     31  C   UNL     1     -14.247  57.436  49.451  0.00  0.00    +0.000 C 
ATOM     32  C   UNL     1     -14.066  58.893  49.909  0.00  0.00    +0.000 C 
ATOM     33  C   UNL     1     -14.835  56.487  50.514  0.00  0.00    +0.000 C 
ATOM     34  C   UNL     1     -15.080  59.389  50.940  0.00  0.00    +0.000 C 
ATOM     35  C   UNL     1     -14.178  56.573  51.889  0.00  0.00    +0.000 C 
ATOM     36  C   UNL     1     -14.671  59.057  52.376  0.00  0.00    +0.000 C 
ATOM     37  C   UNL     1     -14.851  57.601  52.793  0.00  0.00    +0.000 C 
ENDBRANCH  30  31
ENDBRANCH  28  30
ENDBRANCH   5  28
TORSDOF 5
ENDMDL
MODEL 4
REMARK VINA RESULT:      -9.1      2.564      8.064
REMARK  Name = 
REMARK  5 active torsions:
REMARK  status: ('A' for Active; 'I' for Inactive)
REMARK    1  A    between atoms: C_6  and  C_10
REMARK    2  A    between atoms: C_14  and  O_18
REMARK    3  A    between atoms: N_17  and  N_20
REMARK    4  A    between atoms: N_20  and  C_23
REMARK    5  A    between atoms: C_23  and  C_26
REMARK                            x       y       z     vdW  Elec       q    Type
REMARK                         _______ _______ _______ _____ _____    ______ ____
ROOT
ATOM      1  C   UNL     1      -9.931  54.592  52.368  0.00  0.00    +0.000 A 
ATOM      2  C   UNL     1      -8.570  55.182  52.210  0.00  0.00    +0.000 A 
ATOM      3  C   UNL     1     -10.095  53.444  53.044  0.00  0.00    +0.000 A 
ATOM      4  O   UNL     1      -8.488  56.189  51.498  0.00  0.00    +0.000 OA
ATOM      5  N   UNL     1      -7.486  54.556  52.849  0.00  0.00    +0.000 N 
ATOM      6  C   UNL     1      -8.963  52.808  53.729  0.00  0.00    +0.000 A 
ATOM      7  C   UNL     1      -7.675  53.369  53.641  0.00  0.00    +0.000 A 
ATOM      8  C   UNL     1      -9.173  51.641  54.488  0.00  0.00    +0.000 A 
ATOM      9  C   UNL     1      -6.634  52.744  54.346  0.00  0.00    +0.000 A 
ATOM     10  C   UNL     1      -8.129  51.037  55.178  0.00  0.00    +0.000 A 
ATOM     11  C   UNL     1      -6.859  51.592  55.110  0.00  0.00    +0.000 A 
ENDROOT
BRANCH   1  17
ATOM     12  S   UNL     1     -12.341  55.775  49.507  0.00  0.00    +0.000 S 
ATOM     13  O   UNL     1     -13.105  54.655  48.997  0.00  0.00    +0.000 OA
ATOM     14  O   UNL     1     -11.799  56.769  48.600  0.00  0.00    +0.000 OA
ATOM     15  N   UNL     1     -11.104  55.195  50.373  0.00  0.00    +0.000 N 
ATOM     16  C   UNL     1     -13.415  56.638  50.591  0.00  0.00    +0.000 A 
ATOM     17  C   UNL     1     -11.104  55.256  51.672  0.00  0.00    +0.000 C 
ATOM     18  C   UNL     1     -13.178  56.540  51.953  0.00  0.00    +0.000 A 
ATOM     19  C   UNL     1     -14.478  57.381  50.069  0.00  0.00    +0.000 A 
ATOM     20  N   UNL     1     -12.067  55.865  52.444  0.00  0.00    +0.000 N 
ATOM     21  C   UNL     1     -14.032  57.229  52.822  0.00  0.00    +0.000 A 
ATOM     22  C   UNL     1     -15.324  58.053  50.945  0.00  0.00    +0.000 A 
ATOM     23  C   UNL     1     -15.102  57.977  52.320  0.00  0.00    +0.000 A 
ATOM     24  H   UNL     1     -10.338  54.789  49.908  0.00  0.00    +0.000 HD
ATOM     25  H   UNL     1     -11.961  55.818  53.421  0.00  0.00    +0.000 HD
ENDBRANCH   1  17
BRANCH   3  26
ATOM     26  O   UNL     1     -11.300  52.770  53.157  0.00  0.00    +0.000 OA
ATOM     27  H   UNL     1     -12.017  53.166  53.610  0.00  0.00    +0.000 HD
ENDBRANCH   3  26
BRANCH   5  28
ATOM     28  N   UNL     1      -6.143  54.960  52.475  0.00  0.00    +0.000 N 
ATOM     29  H   UNL     1      -5.816  55.885  52.568  0.00  0.00    +0.000 HD
BRANCH  28  30
ATOM     30  C   UNL     1      -5.309  53.868  51.945  0.00  0.00    +0.000 C 
BRANCH  30  31
ATOM     31  C   UNL     1      -5.356  53.751  50.401  0.00  0.00    +0.000 C 
ATOM     32  C   UNL     1      -5.921  55.029  49.759  0.00  0.00    +0.000 C 
ATOM     33  C   UNL     1      -6.080  52.448  50.006  0.00  0.00    +0.000 C 
ATOM     34  C   UNL     1      -6.530  54.853  48.369  0.00  0.00    +0.000 C 
ATOM     35  C   UNL     1      -7.603  52.505  50.095  0.00  0.00    +0.000 C 
ATOM     36  C   UNL     1      -7.997  54.423  48.418  0.00  0.00    +0.000 C 
ATOM     37  C   UNL     1      -8.246  52.965  48.791  0.00  0.00    +0.000 C 
ENDBRANCH  30  31
ENDBRANCH  28  30
ENDBRANCH   5  28
TORSDOF 5
ENDMDL
MODEL 5
REMARK VINA RESULT:      -8.9      2.858      6.302
REMARK  Name = 
REMARK  5 active torsions:
REMARK  status: ('A' for Active; 'I' for Inactive)
REMARK    1  A    between atoms: C_6  and  C_10
REMARK    2  A    between atoms: C_14  and  O_18
REMARK    3  A    between atoms: N_17  and  N_20
REMARK    4  A    between atoms: N_20  and  C_23
REMARK    5  A    between atoms: C_23  and  C_26
REMARK                            x       y       z     vdW  Elec       q    Type
REMARK                         _______ _______ _______ _____ _____    ______ ____
ROOT
ATOM      1  C   UNL     1      -9.807  53.195  49.203  0.00  0.00    +0.000 A 
ATOM      2  C   UNL     1     -10.986  53.425  50.087  0.00  0.00    +0.000 A 
ATOM      3  C   UNL     1      -8.573  53.510  49.626  0.00  0.00    +0.000 A 
ATOM      4  O   UNL     1     -12.096  53.197  49.593  0.00  0.00    +0.000 OA
ATOM      5  N   UNL     1     -10.767  53.900  51.392  0.00  0.00    +0.000 N 
ATOM      6  C   UNL     1      -8.348  53.983  50.998  0.00  0.00    +0.000 A 
ATOM      7  C   UNL     1      -9.436  54.161  51.874  0.00  0.00    +0.000 A 
ATOM      8  C   UNL     1      -7.037  54.243  51.440  0.00  0.00    +0.000 A 
ATOM      9  C   UNL     1      -9.163  54.578  53.187  0.00  0.00    +0.000 A 
ATOM     10  C   UNL     1      -6.789  54.655  52.744  0.00  0.00    +0.000 A 
ATOM     11  C   UNL     1      -7.853  54.819  53.619  0.00  0.00    +0.000 A 
ENDROOT
BRANCH   1  17
ATOM     12  S   UNL     1     -11.238  51.088  46.218  0.00  0.00    +0.000 S 
ATOM     13  O   UNL     1     -12.612  51.461  45.952  0.00  0.00    +0.000 OA
ATOM     14  O   UNL     1     -10.835  49.695  46.182  0.00  0.00    +0.000 OA
ATOM     15  N   UNL     1     -10.826  51.666  47.672  0.00  0.00    +0.000 N 
ATOM     16  C   UNL     1     -10.272  51.906  45.007  0.00  0.00    +0.000 A 
ATOM     17  C   UNL     1     -10.037  52.693  47.790  0.00  0.00    +0.000 C 
ATOM     18  C   UNL     1      -9.499  52.984  45.412  0.00  0.00    +0.000 A 
ATOM     19  C   UNL     1     -10.311  51.473  43.678  0.00  0.00    +0.000 A 
ATOM     20  N   UNL     1      -9.412  53.344  46.751  0.00  0.00    +0.000 N 
ATOM     21  C   UNL     1      -8.725  53.639  44.448  0.00  0.00    +0.000 A 
ATOM     22  C   UNL     1      -9.542  52.139  42.729  0.00  0.00    +0.000 A 
ATOM     23  C   UNL     1      -8.751  53.222  43.113  0.00  0.00    +0.000 A 
ATOM     24  H   UNL     1     -11.179  51.232  48.482  0.00  0.00    +0.000 HD
ATOM     25  H   UNL     1      -8.859  54.126  46.974  0.00  0.00    +0.000 HD
ENDBRANCH   1  17
BRANCH   3  26
ATOM     26  O   UNL     1      -7.433  53.427  48.843  0.00  0.00    +0.000 OA
ATOM     27  H   UNL     1      -6.985  54.207  48.584  0.00  0.00    +0.000 HD
ENDBRANCH   3  26
BRANCH   5  28
ATOM     28  N   UNL     1     -11.909  54.382  52.147  0.00  0.00    +0.000 N 
ATOM     29  H   UNL     1     -12.488  53.790  52.680  0.00  0.00    +0.000 HD
BRANCH  28  30
ATOM     30  C   UNL     1     -12.126  55.835  52.050  0.00  0.00    +0.000 C 
BRANCH  30  31
ATOM     31  C   UNL     1     -13.389  56.216  51.238  0.00  0.00    +0.000 C 
ATOM     32  C   UNL     1     -13.038  57.138  50.057  0.00  0.00    +0.000 C 
ATOM     33  C   UNL     1     -14.470  56.762  52.192  0.00  0.00    +0.000 C 
ATOM     34  C   UNL     1     -14.182  58.010  49.542  0.00  0.00    +0.000 C 
ATOM     35  C   UNL     1     -14.264  58.207  52.639  0.00  0.00    +0.000 C 
ATOM     36  C   UNL     1     -14.318  59.322  50.315  0.00  0.00    +0.000 C 
ATOM     37  C   UNL     1     -14.936  59.208  51.705  0.00  0.00    +0.000 C 
ENDBRANCH  30  31
ENDBRANCH  28  30
ENDBRANCH   5  28
TORSDOF 5
ENDMDL
MODEL 6
REMARK VINA RESULT:      -8.8      3.182      7.715
REMARK  Name = 
REMARK  5 active torsions:
REMARK  status: ('A' for Active; 'I' for Inactive)
REMARK    1  A    between atoms: C_6  and  C_10
REMARK    2  A    between atoms: C_14  and  O_18
REMARK    3  A    between atoms: N_17  and  N_20
REMARK    4  A    between atoms: N_20  and  C_23
REMARK    5  A    between atoms: C_23  and  C_26
REMARK                            x       y       z     vdW  Elec       q    Type
REMARK                         _______ _______ _______ _____ _____    ______ ____
ROOT
ATOM      1  C   UNL     1     -11.272  54.561  50.462  0.00  0.00    +0.000 A 
ATOM      2  C   UNL     1      -9.989  54.795  49.737  0.00  0.00    +0.000 A 
ATOM      3  C   UNL     1     -11.534  53.360  51.001  0.00  0.00    +0.000 A 
ATOM      4  O   UNL     1      -9.861  55.896  49.189  0.00  0.00    +0.000 OA
ATOM      5  N   UNL     1      -9.036  53.763  49.705  0.00  0.00    +0.000 N 
ATOM      6  C   UNL     1     -10.525  52.294  50.985  0.00  0.00    +0.000 A 
ATOM      7  C   UNL     1      -9.284  52.502  50.353  0.00  0.00    +0.000 A 
ATOM      8  C   UNL     1     -10.797  51.066  51.616  0.00  0.00    +0.000 A 
ATOM      9  C   UNL     1      -8.339  51.464  50.399  0.00  0.00    +0.000 A 
ATOM     10  C   UNL     1      -9.848  50.051  51.650  0.00  0.00    +0.000 A 
ATOM     11  C   UNL     1      -8.616  50.252  51.044  0.00  0.00    +0.000 A 
ENDROOT
BRANCH   1  17
ATOM     12  S   UNL     1     -13.831  57.260  49.212  0.00  0.00    +0.000 S 
ATOM     13  O   UNL     1     -15.016  56.622  48.676  0.00  0.00    +0.000 OA
ATOM     14  O   UNL     1     -13.253  58.413  48.547  0.00  0.00    +0.000 OA
ATOM     15  N   UNL     1     -12.664  56.147  49.335  0.00  0.00    +0.000 N 
ATOM     16  C   UNL     1     -14.257  57.791  50.826  0.00  0.00    +0.000 A 
ATOM     17  C   UNL     1     -12.310  55.667  50.491  0.00  0.00    +0.000 C 
ATOM     18  C   UNL     1     -13.722  57.098  51.901  0.00  0.00    +0.000 A 
ATOM     19  C   UNL     1     -15.126  58.875  50.994  0.00  0.00    +0.000 A 
ATOM     20  N   UNL     1     -12.797  56.079  51.710  0.00  0.00    +0.000 N 
ATOM     21  C   UNL     1     -14.059  57.521  53.192  0.00  0.00    +0.000 A 
ATOM     22  C   UNL     1     -15.458  59.278  52.283  0.00  0.00    +0.000 A 
ATOM     23  C   UNL     1     -14.927  58.601  53.381  0.00  0.00    +0.000 A 
ATOM     24  H   UNL     1     -12.213  55.827  48.521  0.00  0.00    +0.000 HD
ATOM     25  H   UNL     1     -12.464  55.615  52.511  0.00  0.00    +0.000 HD
ENDBRANCH   1  17
BRANCH   3  26
ATOM     26  O   UNL     1     -12.734  53.019  51.603  0.00  0.00    +0.000 OA
ATOM     27  H   UNL     1     -12.813  53.039  52.535  0.00  0.00    +0.000 HD
ENDBRANCH   3  26
BRANCH   5  28
ATOM     28  N   UNL     1      -7.923  53.886  48.780  0.00  0.00    +0.000 N 
ATOM     29  H   UNL     1      -7.106  54.392  48.990  0.00  0.00    +0.000 HD
BRANCH  28  30
ATOM     30  C   UNL     1      -8.123  53.186  47.500  0.00  0.00    +0.000 C 
BRANCH  30  31
ATOM     31  C   UNL     1      -8.968  53.992  46.482  0.00  0.00    +0.000 C 
ATOM     32  C   UNL     1     -10.436  53.532  46.485  0.00  0.00    +0.000 C 
ATOM     33  C   UNL     1      -8.278  53.964  45.104  0.00  0.00    +0.000 C 
ATOM     34  C   UNL     1     -11.217  53.820  45.203  0.00  0.00    +0.000 C 
ATOM     35  C   UNL     1      -8.472  52.673  44.313  0.00  0.00    +0.000 C 
ATOM     36  C   UNL     1     -11.044  52.724  44.150  0.00  0.00    +0.000 C 
ATOM     37  C   UNL     1      -9.706  52.716  43.418  0.00  0.00    +0.000 C 
ENDBRANCH  30  31
ENDBRANCH  28  30
ENDBRANCH   5  28
TORSDOF 5
ENDMDL
MODEL 7
REMARK VINA RESULT:      -8.6      1.558      2.071
REMARK  Name = 
REMARK  5 active torsions:
REMARK  status: ('A' for Active; 'I' for Inactive)
REMARK    1  A    between atoms: C_6  and  C_10
REMARK    2  A    between atoms: C_14  and  O_18
REMARK    3  A    between atoms: N_17  and  N_20
REMARK    4  A    between atoms: N_20  and  C_23
REMARK    5  A    between atoms: C_23  and  C_26
REMARK                            x       y       z     vdW  Elec       q    Type
REMARK                         _______ _______ _______ _____ _____    ______ ____
ROOT
ATOM      1  C   UNL     1      -8.813  54.294  48.905  0.00  0.00    +0.000 A 
ATOM      2  C   UNL     1      -9.786  55.424  48.961  0.00  0.00    +0.000 A 
ATOM      3  C   UNL     1      -8.939  53.339  47.971  0.00  0.00    +0.000 A 
ATOM      4  O   UNL     1      -9.659  56.212  49.905  0.00  0.00    +0.000 OA
ATOM      5  N   UNL     1     -10.780  55.506  47.971  0.00  0.00    +0.000 N 
ATOM      6  C   UNL     1      -9.964  53.443  46.926  0.00  0.00    +0.000 A 
ATOM      7  C   UNL     1     -10.866  54.524  46.922  0.00  0.00    +0.000 A 
ATOM      8  C   UNL     1     -10.034  52.463  45.918  0.00  0.00    +0.000 A 
ATOM      9  C   UNL     1     -11.802  54.597  45.878  0.00  0.00    +0.000 A 
ATOM     10  C   UNL     1     -10.970  52.554  44.893  0.00  0.00    +0.000 A 
ATOM     11  C   UNL     1     -11.852  53.624  44.872  0.00  0.00    +0.000 A 
ENDROOT
BRANCH   1  17
ATOM     12  S   UNL     1      -5.347  53.616  50.615  0.00  0.00    +0.000 S 
ATOM     13  O   UNL     1      -4.385  54.627  50.224  0.00  0.00    +0.000 OA
ATOM     14  O   UNL     1      -4.951  52.223  50.703  0.00  0.00    +0.000 OA
ATOM     15  N   UNL     1      -6.605  53.691  49.601  0.00  0.00    +0.000 N 
ATOM     16  C   UNL     1      -5.900  54.069  52.214  0.00  0.00    +0.000 A 
ATOM     17  C   UNL     1      -7.744  54.194  49.978  0.00  0.00    +0.000 C 
ATOM     18  C   UNL     1      -7.184  54.578  52.338  0.00  0.00    +0.000 A 
ATOM     19  C   UNL     1      -5.045  53.925  53.311  0.00  0.00    +0.000 A 
ATOM     20  N   UNL     1      -8.043  54.634  51.247  0.00  0.00    +0.000 N 
ATOM     21  C   UNL     1      -7.630  54.939  53.614  0.00  0.00    +0.000 A 
ATOM     22  C   UNL     1      -5.500  54.297  54.573  0.00  0.00    +0.000 A 
ATOM     23  C   UNL     1      -6.790  54.804  54.724  0.00  0.00    +0.000 A 
ATOM     24  H   UNL     1      -6.507  53.349  48.683  0.00  0.00    +0.000 HD
ATOM     25  H   UNL     1      -8.937  55.018  51.394  0.00  0.00    +0.000 HD
ENDBRANCH   1  17
BRANCH   3  26
ATOM     26  O   UNL     1      -8.148  52.204  47.903  0.00  0.00    +0.000 OA
ATOM     27  H   UNL     1      -8.101  51.622  48.635  0.00  0.00    +0.000 HD
ENDBRANCH   3  26
BRANCH   5  28
ATOM     28  N   UNL     1     -11.881  56.429  48.179  0.00  0.00    +0.000 N 
ATOM     29  H   UNL     1     -11.926  57.314  47.748  0.00  0.00    +0.000 HD
BRANCH  28  30
ATOM     30  C   UNL     1     -12.925  55.929  49.088  0.00  0.00    +0.000 C 
BRANCH  30  31
ATOM     31  C   UNL     1     -14.093  56.926  49.293  0.00  0.00    +0.000 C 
ATOM     32  C   UNL     1     -13.574  58.344  49.585  0.00  0.00    +0.000 C 
ATOM     33  C   UNL     1     -15.074  56.362  50.340  0.00  0.00    +0.000 C 
ATOM     34  C   UNL     1     -14.544  59.257  50.334  0.00  0.00    +0.000 C 
ATOM     35  C   UNL     1     -14.625  56.516  51.791  0.00  0.00    +0.000 C 
ATOM     36  C   UNL     1     -14.459  59.088  51.852  0.00  0.00    +0.000 C 
ATOM     37  C   UNL     1     -15.103  57.824  52.413  0.00  0.00    +0.000 C 
ENDBRANCH  30  31
ENDBRANCH  28  30
ENDBRANCH   5  28
TORSDOF 5
ENDMDL
MODEL 8
REMARK VINA RESULT:      -8.6      2.014      5.796
REMARK  Name = 
REMARK  5 active torsions:
REMARK  status: ('A' for Active; 'I' for Inactive)
REMARK    1  A    between atoms: C_6  and  C_10
REMARK    2  A    between atoms: C_14  and  O_18
REMARK    3  A    between atoms: N_17  and  N_20
REMARK    4  A    between atoms: N_20  and  C_23
REMARK    5  A    between atoms: C_23  and  C_26
REMARK                            x       y       z     vdW  Elec       q    Type
REMARK                         _______ _______ _______ _____ _____    ______ ____
ROOT
ATOM      1  C   UNL     1     -10.363  55.046  50.967  0.00  0.00    +0.000 A 
ATOM      2  C   UNL     1     -10.100  55.042  49.499  0.00  0.00    +0.000 A 
ATOM      3  C   UNL     1     -11.503  55.566  51.448  0.00  0.00    +0.000 A 
ATOM      4  O   UNL     1      -8.990  54.631  49.141  0.00  0.00    +0.000 OA
ATOM      5  N   UNL     1     -11.100  55.518  48.634  0.00  0.00    +0.000 N 
ATOM      6  C   UNL     1     -12.554  56.040  50.539  0.00  0.00    +0.000 A 
ATOM      7  C   UNL     1     -12.356  56.002  49.146  0.00  0.00    +0.000 A 
ATOM      8  C   UNL     1     -13.768  56.519  51.066  0.00  0.00    +0.000 A 
ATOM      9  C   UNL     1     -13.407  56.430  48.319  0.00  0.00    +0.000 A 
ATOM     10  C   UNL     1     -14.796  56.939  50.230  0.00  0.00    +0.000 A 
ATOM     11  C   UNL     1     -14.616  56.891  48.855  0.00  0.00    +0.000 A 
ENDROOT
BRANCH   1  17
ATOM     12  S   UNL     1      -6.959  54.838  52.908  0.00  0.00    +0.000 S 
ATOM     13  O   UNL     1      -6.895  55.868  53.925  0.00  0.00    +0.000 OA
ATOM     14  O   UNL     1      -5.794  54.529  52.102  0.00  0.00    +0.000 OA
ATOM     15  N   UNL     1      -8.161  55.202  51.889  0.00  0.00    +0.000 N 
ATOM     16  C   UNL     1      -7.379  53.357  53.746  0.00  0.00    +0.000 A 
ATOM     17  C   UNL     1      -9.283  54.544  51.906  0.00  0.00    +0.000 C 
ATOM     18  C   UNL     1      -8.660  52.857  53.579  0.00  0.00    +0.000 A 
ATOM     19  C   UNL     1      -6.433  52.731  54.564  0.00  0.00    +0.000 A 
ATOM     20  N   UNL     1      -9.554  53.451  52.697  0.00  0.00    +0.000 N 
ATOM     21  C   UNL     1      -8.998  51.673  54.245  0.00  0.00    +0.000 A 
ATOM     22  C   UNL     1      -6.786  51.560  55.227  0.00  0.00    +0.000 A 
ATOM     23  C   UNL     1      -8.067  51.032  55.069  0.00  0.00    +0.000 A 
ATOM     24  H   UNL     1      -8.042  55.936  51.244  0.00  0.00    +0.000 HD
ATOM     25  H   UNL     1     -10.454  53.058  52.632  0.00  0.00    +0.000 HD
ENDBRANCH   1  17
BRANCH   3  26
ATOM     26  O   UNL     1     -11.790  55.705  52.796  0.00  0.00    +0.000 OA
ATOM     27  H   UNL     1     -11.252  55.282  53.435  0.00  0.00    +0.000 HD
ENDBRANCH   3  26
BRANCH   5  28
ATOM     28  N   UNL     1     -10.746  55.772  47.249  0.00  0.00    +0.000 N 
ATOM     29  H   UNL     1     -10.220  56.555  46.966  0.00  0.00    +0.000 HD
BRANCH  28  30
ATOM     30  C   UNL     1     -11.242  54.758  46.304  0.00  0.00    +0.000 C 
BRANCH  30  31
ATOM     31  C   UNL     1     -10.264  53.574  46.102  0.00  0.00    +0.000 C 
ATOM     32  C   UNL     1      -8.945  54.040  45.462  0.00  0.00    +0.000 C 
ATOM     33  C   UNL     1     -10.983  52.433  45.356  0.00  0.00    +0.000 C 
ATOM     34  C   UNL     1      -8.159  52.961  44.717  0.00  0.00    +0.000 C 
ATOM     35  C   UNL     1     -11.122  52.636  43.849  0.00  0.00    +0.000 C 
ATOM     36  C   UNL     1      -8.616  52.795  43.267  0.00  0.00    +0.000 C 
ATOM     37  C   UNL     1      -9.941  52.065  43.072  0.00  0.00    +0.000 C 
ENDBRANCH  30  31
ENDBRANCH  28  30
ENDBRANCH   5  28
TORSDOF 5
ENDMDL
MODEL 9
REMARK VINA RESULT:      -8.6      2.890      8.272
REMARK  Name = 
REMARK  5 active torsions:
REMARK  status: ('A' for Active; 'I' for Inactive)
REMARK    1  A    between atoms: C_6  and  C_10
REMARK    2  A    between atoms: C_14  and  O_18
REMARK    3  A    between atoms: N_17  and  N_20
REMARK    4  A    between atoms: N_20  and  C_23
REMARK    5  A    between atoms: C_23  and  C_26
REMARK                            x       y       z     vdW  Elec       q    Type
REMARK                         _______ _______ _______ _____ _____    ______ ____
ROOT
ATOM      1  C   UNL     1     -10.112  54.676  52.226  0.00  0.00    +0.000 A 
ATOM      2  C   UNL     1      -8.751  55.285  52.174  0.00  0.00    +0.000 A 
ATOM      3  C   UNL     1     -10.305  53.503  52.849  0.00  0.00    +0.000 A 
ATOM      4  O   UNL     1      -8.636  56.318  51.504  0.00  0.00    +0.000 OA
ATOM      5  N   UNL     1      -7.701  54.647  52.858  0.00  0.00    +0.000 N 
ATOM      6  C   UNL     1      -9.210  52.854  53.581  0.00  0.00    +0.000 A 
ATOM      7  C   UNL     1      -7.926  53.431  53.594  0.00  0.00    +0.000 A 
ATOM      8  C   UNL     1      -9.453  51.659  54.283  0.00  0.00    +0.000 A 
ATOM      9  C   UNL     1      -6.924  52.791  54.341  0.00  0.00    +0.000 A 
ATOM     10  C   UNL     1      -8.447  51.041  55.016  0.00  0.00    +0.000 A 
ATOM     11  C   UNL     1      -7.182  51.610  55.048  0.00  0.00    +0.000 A 
ENDROOT
BRANCH   1  17
ATOM     12  S   UNL     1     -13.497  56.545  51.558  0.00  0.00    +0.000 S 
ATOM     13  O   UNL     1     -13.407  57.923  51.995  0.00  0.00    +0.000 OA
ATOM     14  O   UNL     1     -14.700  55.774  51.807  0.00  0.00    +0.000 OA
ATOM     15  N   UNL     1     -12.263  55.724  52.204  0.00  0.00    +0.000 N 
ATOM     16  C   UNL     1     -13.288  56.575  49.819  0.00  0.00    +0.000 A 
ATOM     17  C   UNL     1     -11.247  55.355  51.481  0.00  0.00    +0.000 C 
ATOM     18  C   UNL     1     -12.092  56.103  49.300  0.00  0.00    +0.000 A 
ATOM     19  C   UNL     1     -14.307  57.078  49.005  0.00  0.00    +0.000 A 
ATOM     20  N   UNL     1     -11.128  55.531  50.121  0.00  0.00    +0.000 N 
ATOM     21  C   UNL     1     -11.922  56.123  47.911  0.00  0.00    +0.000 A 
ATOM     22  C   UNL     1     -14.120  57.100  47.627  0.00  0.00    +0.000 A 
ATOM     23  C   UNL     1     -12.929  56.625  47.080  0.00  0.00    +0.000 A 
ATOM     24  H   UNL     1     -12.280  55.500  53.163  0.00  0.00    +0.000 HD
ATOM     25  H   UNL     1     -10.294  55.228  49.697  0.00  0.00    +0.000 HD
ENDBRANCH   1  17
BRANCH   3  26
ATOM     26  O   UNL     1     -11.506  52.815  52.862  0.00  0.00    +0.000 OA
ATOM     27  H   UNL     1     -11.934  52.604  52.057  0.00  0.00    +0.000 HD
ENDBRANCH   3  26
BRANCH   5  28
ATOM     28  N   UNL     1      -6.342  55.077  52.583  0.00  0.00    +0.000 N 
ATOM     29  H   UNL     1      -5.933  55.863  53.012  0.00  0.00    +0.000 HD
BRANCH  28  30
ATOM     30  C   UNL     1      -5.628  54.236  51.609  0.00  0.00    +0.000 C 
BRANCH  30  31
ATOM     31  C   UNL     1      -6.375  54.086  50.260  0.00  0.00    +0.000 C 
ATOM     32  C   UNL     1      -6.714  52.615  49.968  0.00  0.00    +0.000 C 
ATOM     33  C   UNL     1      -5.582  54.805  49.151  0.00  0.00    +0.000 C 
ATOM     34  C   UNL     1      -6.922  52.268  48.494  0.00  0.00    +0.000 C 
ATOM     35  C   UNL     1      -4.373  54.037  48.621  0.00  0.00    +0.000 C 
ATOM     36  C   UNL     1      -5.613  51.941  47.774  0.00  0.00    +0.000 C 
ATOM     37  C   UNL     1      -4.726  53.136  47.441  0.00  0.00    +0.000 C 
ENDBRANCH  30  31
ENDBRANCH  28  30
ENDBRANCH   5  28
TORSDOF 5
ENDMDL
