MODEL 1
REMARK VINA RESULT:      -9.6      0.000      0.000
REMARK  Name = 
REMARK  6 active torsions:
REMARK  status: ('A' for Active; 'I' for Inactive)
REMARK    1  A    between atoms: C_6  and  C_10
REMARK    2  A    between atoms: C_14  and  O_18
REMARK    3  A    between atoms: N_17  and  N_20
REMARK    4  A    between atoms: N_20  and  C_23
REMARK    5  A    between atoms: C_23  and  C_26
REMARK    6  A    between atoms: C_23  and  C_27
REMARK                            x       y       z     vdW  Elec       q    Type
REMARK                         _______ _______ _______ _____ _____    ______ ____
ROOT
ATOM      1  C   UNL     1      -9.145  54.443  49.970  0.00  0.00    +0.000 A 
ATOM      2  C   UNL     1     -10.242  55.457  50.094  0.00  0.00    +0.000 A 
ATOM      3  C   UNL     1      -9.074  53.681  48.863  0.00  0.00    +0.000 A 
ATOM      4  O   UNL     1     -10.462  55.904  51.225  0.00  0.00    +0.000 OA
ATOM      5  N   UNL     1     -10.916  55.840  48.921  0.00  0.00    +0.000 N 
ATOM      6  C   UNL     1      -9.979  53.912  47.732  0.00  0.00    +0.000 A 
ATOM      7  C   UNL     1     -10.854  55.010  47.747  0.00  0.00    +0.000 A 
ATOM      8  C   UNL     1      -9.937  53.060  46.612  0.00  0.00    +0.000 A 
ATOM      9  C   UNL     1     -11.663  55.230  46.616  0.00  0.00    +0.000 A 
ATOM     10  C   UNL     1     -10.739  53.296  45.501  0.00  0.00    +0.000 A 
ATOM     11  C   UNL     1     -11.599  54.385  45.502  0.00  0.00    +0.000 A 
ENDROOT
BRANCH   1  17
ATOM     12  S   UNL     1      -7.682  54.136  53.617  0.00  0.00    +0.000 S 
ATOM     13  O   UNL     1      -7.943  52.821  54.171  0.00  0.00    +0.000 OA
ATOM     14  O   UNL     1      -7.829  55.321  54.438  0.00  0.00    +0.000 OA
ATOM     15  N   UNL     1      -8.621  54.327  52.315  0.00  0.00    +0.000 N 
ATOM     16  C   UNL     1      -6.013  54.112  53.086  0.00  0.00    +0.000 A 
ATOM     17  C   UNL     1      -8.137  54.285  51.106  0.00  0.00    +0.000 C 
ATOM     18  C   UNL     1      -5.766  54.097  51.722  0.00  0.00    +0.000 A 
ATOM     19  C   UNL     1      -4.987  54.110  54.035  0.00  0.00    +0.000 A 
ATOM     20  N   UNL     1      -6.806  54.098  50.798  0.00  0.00    +0.000 N 
ATOM     21  C   UNL     1      -4.435  54.025  51.301  0.00  0.00    +0.000 A 
ATOM     22  C   UNL     1      -3.667  54.069  53.600  0.00  0.00    +0.000 A 
ATOM     23  C   UNL     1      -3.390  54.018  52.233  0.00  0.00    +0.000 A 
ATOM     24  H   UNL     1      -9.585  54.478  52.439  0.00  0.00    +0.000 HD
ATOM     25  H   UNL     1      -6.575  53.955  49.852  0.00  0.00    +0.000 HD
ENDBRANCH   1  17
BRANCH   3  26
ATOM     26  O   UNL     1      -8.160  52.662  48.663  0.00  0.00    +0.000 OA
ATOM     27  H   UNL     1      -7.362  52.832  48.203  0.00  0.00    +0.000 HD
ENDBRANCH   3  26
BRANCH   5  28
ATOM     28  N   UNL     1     -11.887  56.921  48.928  0.00  0.00    +0.000 N 
ATOM     29  H   UNL     1     -11.626  57.839  48.687  0.00  0.00    +0.000 HD
BRANCH  28  30
ATOM     30  C   UNL     1     -13.284  56.596  49.306  0.00  0.00    +0.000 C 
ATOM     31  C   UNL     1     -14.181  56.901  48.093  0.00  0.00    +0.000 C 
BRANCH  30  32
ATOM     32  C   UNL     1     -13.780  57.356  50.530  0.00  0.00    +0.000 A 
ATOM     33  C   UNL     1     -13.664  56.829  51.826  0.00  0.00    +0.000 A 
ATOM     34  C   UNL     1     -14.361  58.627  50.380  0.00  0.00    +0.000 A 
ATOM     35  C   UNL     1     -14.116  57.548  52.934  0.00  0.00    +0.000 A 
ATOM     36  C   UNL     1     -14.825  59.340  51.487  0.00  0.00    +0.000 A 
ATOM     37  C   UNL     1     -14.701  58.800  52.765  0.00  0.00    +0.000 A 
ENDBRANCH  30  32
ENDBRANCH  28  30
ENDBRANCH   5  28
TORSDOF 5
ENDMDL
MODEL 2
REMARK VINA RESULT:      -9.4      3.369      7.506
REMARK  Name = 
REMARK  6 active torsions:
REMARK  status: ('A' for Active; 'I' for Inactive)
REMARK    1  A    between atoms: C_6  and  C_10
REMARK    2  A    between atoms: C_14  and  O_18
REMARK    3  A    between atoms: N_17  and  N_20
REMARK    4  A    between atoms: N_20  and  C_23
REMARK    5  A    between atoms: C_23  and  C_26
REMARK    6  A    between atoms: C_23  and  C_27
REMARK                            x       y       z     vdW  Elec       q    Type
REMARK                         _______ _______ _______ _____ _____    ______ ____
ROOT
ATOM      1  C   UNL     1     -12.352  54.385  49.599  0.00  0.00    +0.000 A 
ATOM      2  C   UNL     1     -11.717  54.372  48.240  0.00  0.00    +0.000 A 
ATOM      3  C   UNL     1     -12.150  53.346  50.429  0.00  0.00    +0.000 A 
ATOM      4  O   UNL     1     -12.168  55.166  47.407  0.00  0.00    +0.000 OA
ATOM      5  N   UNL     1     -10.650  53.484  48.025  0.00  0.00    +0.000 N 
ATOM      6  C   UNL     1     -11.227  52.265  50.072  0.00  0.00    +0.000 A 
ATOM      7  C   UNL     1     -10.452  52.362  48.905  0.00  0.00    +0.000 A 
ATOM      8  C   UNL     1     -11.083  51.152  50.922  0.00  0.00    +0.000 A 
ATOM      9  C   UNL     1      -9.534  51.331  48.629  0.00  0.00    +0.000 A 
ATOM     10  C   UNL     1     -10.166  50.146  50.638  0.00  0.00    +0.000 A 
ATOM     11  C   UNL     1      -9.388  50.238  49.493  0.00  0.00    +0.000 A 
ENDROOT
BRANCH   1  17
ATOM     12  S   UNL     1     -15.337  56.432  51.159  0.00  0.00    +0.000 S 
ATOM     13  O   UNL     1     -15.214  56.508  52.603  0.00  0.00    +0.000 OA
ATOM     14  O   UNL     1     -16.628  56.199  50.544  0.00  0.00    +0.000 OA
ATOM     15  N   UNL     1     -14.332  55.281  50.631  0.00  0.00    +0.000 N 
ATOM     16  C   UNL     1     -14.773  57.973  50.547  0.00  0.00    +0.000 A 
ATOM     17  C   UNL     1     -13.224  55.570  50.008  0.00  0.00    +0.000 C 
ATOM     18  C   UNL     1     -13.554  58.001  49.887  0.00  0.00    +0.000 A 
ATOM     19  C   UNL     1     -15.553  59.117  50.733  0.00  0.00    +0.000 A 
ATOM     20  N   UNL     1     -12.796  56.847  49.715  0.00  0.00    +0.000 N 
ATOM     21  C   UNL     1     -13.081  59.240  49.443  0.00  0.00    +0.000 A 
ATOM     22  C   UNL     1     -15.083  60.337  50.261  0.00  0.00    +0.000 A 
ATOM     23  C   UNL     1     -13.843  60.401  49.623  0.00  0.00    +0.000 A 
ATOM     24  H   UNL     1     -14.562  54.337  50.785  0.00  0.00    +0.000 HD
ATOM     25  H   UNL     1     -11.885  56.950  49.357  0.00  0.00    +0.000 HD
ENDBRANCH   1  17
BRANCH   3  26
ATOM     26  O   UNL     1     -12.740  53.204  51.673  0.00  0.00    +0.000 OA
ATOM     27  H   UNL     1     -13.326  52.492  51.835  0.00  0.00    +0.000 HD
ENDBRANCH   3  26
BRANCH   5  28
ATOM     28  N   UNL     1      -9.884  53.510  46.790  0.00  0.00    +0.000 N 
ATOM     29  H   UNL     1      -9.972  52.792  46.123  0.00  0.00    +0.000 HD
BRANCH  28  30
ATOM     30  C   UNL     1      -8.968  54.655  46.566  0.00  0.00    +0.000 C 
ATOM     31  C   UNL     1      -8.159  54.365  45.289  0.00  0.00    +0.000 C 
BRANCH  30  32
ATOM     32  C   UNL     1      -8.027  54.926  47.734  0.00  0.00    +0.000 A 
ATOM     33  C   UNL     1      -8.395  55.758  48.803  0.00  0.00    +0.000 A 
ATOM     34  C   UNL     1      -6.757  54.325  47.766  0.00  0.00    +0.000 A 
ATOM     35  C   UNL     1      -7.521  55.983  49.867  0.00  0.00    +0.000 A 
ATOM     36  C   UNL     1      -5.878  54.561  48.825  0.00  0.00    +0.000 A 
ATOM     37  C   UNL     1      -6.262  55.390  49.877  0.00  0.00    +0.000 A 
ENDBRANCH  30  32
ENDBRANCH  28  30
ENDBRANCH   5  28
TORSDOF 5
ENDMDL
MODEL 3
REMARK VINA RESULT:      -9.3      1.582      2.250
REMARK  Name = 
REMARK  6 active torsions:
REMARK  status: ('A' for Active; 'I' for Inactive)
REMARK    1  A    between atoms: C_6  and  C_10
REMARK    2  A    between atoms: C_14  and  O_18
REMARK    3  A    between atoms: N_17  and  N_20
REMARK    4  A    between atoms: N_20  and  C_23
REMARK    5  A    between atoms: C_23  and  C_26
REMARK    6  A    between atoms: C_23  and  C_27
REMARK                            x       y       z     vdW  Elec       q    Type
REMARK                         _______ _______ _______ _____ _____    ______ ____
ROOT
ATOM      1  C   UNL     1      -9.695  54.208  50.149  0.00  0.00    +0.000 A 
ATOM      2  C   UNL     1     -10.707  55.315  50.165  0.00  0.00    +0.000 A 
ATOM      3  C   UNL     1      -9.569  53.448  49.046  0.00  0.00    +0.000 A 
ATOM      4  O   UNL     1     -11.011  55.774  51.271  0.00  0.00    +0.000 OA
ATOM      5  N   UNL     1     -11.210  55.760  48.931  0.00  0.00    +0.000 N 
ATOM      6  C   UNL     1     -10.319  53.762  47.826  0.00  0.00    +0.000 A 
ATOM      7  C   UNL     1     -11.091  54.934  47.759  0.00  0.00    +0.000 A 
ATOM      8  C   UNL     1     -10.227  52.915  46.705  0.00  0.00    +0.000 A 
ATOM      9  C   UNL     1     -11.747  55.229  46.549  0.00  0.00    +0.000 A 
ATOM     10  C   UNL     1     -10.877  53.226  45.515  0.00  0.00    +0.000 A 
ATOM     11  C   UNL     1     -11.634  54.386  45.437  0.00  0.00    +0.000 A 
ENDROOT
BRANCH   1  17
ATOM     12  S   UNL     1      -6.893  54.681  52.879  0.00  0.00    +0.000 S 
ATOM     13  O   UNL     1      -7.240  55.748  53.799  0.00  0.00    +0.000 OA
ATOM     14  O   UNL     1      -5.534  54.545  52.393  0.00  0.00    +0.000 OA
ATOM     15  N   UNL     1      -7.861  54.796  51.589  0.00  0.00    +0.000 N 
ATOM     16  C   UNL     1      -7.267  53.186  53.711  0.00  0.00    +0.000 A 
ATOM     17  C   UNL     1      -8.837  53.958  51.387  0.00  0.00    +0.000 C 
ATOM     18  C   UNL     1      -8.362  52.457  53.273  0.00  0.00    +0.000 A 
ATOM     19  C   UNL     1      -6.467  52.771  54.778  0.00  0.00    +0.000 A 
ATOM     20  N   UNL     1      -9.144  52.894  52.208  0.00  0.00    +0.000 N 
ATOM     21  C   UNL     1      -8.691  51.291  53.971  0.00  0.00    +0.000 A 
ATOM     22  C   UNL     1      -6.789  51.594  55.444  0.00  0.00    +0.000 A 
ATOM     23  C   UNL     1      -7.905  50.857  55.046  0.00  0.00    +0.000 A 
ATOM     24  H   UNL     1      -7.709  55.520  50.941  0.00  0.00    +0.000 HD
ATOM     25  H   UNL     1      -9.979  52.406  52.026  0.00  0.00    +0.000 HD
ENDBRANCH   1  17
BRANCH   3  26
ATOM     26  O   UNL     1      -8.730  52.354  48.933  0.00  0.00    +0.000 OA
ATOM     27  H   UNL     1      -8.842  51.749  48.226  0.00  0.00    +0.000 HD
ENDBRANCH   3  26
BRANCH   5  28
ATOM     28  N   UNL     1     -12.078  56.923  48.846  0.00  0.00    +0.000 N 
ATOM     29  H   UNL     1     -11.712  57.818  48.664  0.00  0.00    +0.000 HD
BRANCH  28  30
ATOM     30  C   UNL     1     -13.535  56.717  49.039  0.00  0.00    +0.000 C 
ATOM     31  C   UNL     1     -14.257  57.297  47.809  0.00  0.00    +0.000 C 
BRANCH  30  32
ATOM     32  C   UNL     1     -14.080  57.347  50.314  0.00  0.00    +0.000 A 
ATOM     33  C   UNL     1     -14.278  58.732  50.430  0.00  0.00    +0.000 A 
ATOM     34  C   UNL     1     -14.415  56.534  51.411  0.00  0.00    +0.000 A 
ATOM     35  C   UNL     1     -14.789  59.285  51.605  0.00  0.00    +0.000 A 
ATOM     36  C   UNL     1     -14.915  57.090  52.591  0.00  0.00    +0.000 A 
ATOM     37  C   UNL     1     -15.103  58.467  52.686  0.00  0.00    +0.000 A 
ENDBRANCH  30  32
ENDBRANCH  28  30
ENDBRANCH   5  28
TORSDOF 5
ENDMDL
MODEL 4
REMARK VINA RESULT:      -9.3      2.869      7.676
REMARK  Name = 
REMARK  6 active torsions:
REMARK  status: ('A' for Active; 'I' for Inactive)
REMARK    1  A    between atoms: C_6  and  C_10
REMARK    2  A    between atoms: C_14  and  O_18
REMARK    3  A    between atoms: N_17  and  N_20
REMARK    4  A    between atoms: N_20  and  C_23
REMARK    5  A    between atoms: C_23  and  C_26
REMARK    6  A    between atoms: C_23  and  C_27
REMARK                            x       y       z     vdW  Elec       q    Type
REMARK                         _______ _______ _______ _____ _____    ______ ____
ROOT
ATOM      1  C   UNL     1     -11.257  54.412  50.541  0.00  0.00    +0.000 A 
ATOM      2  C   UNL     1      -9.940  54.647  49.864  0.00  0.00    +0.000 A 
ATOM      3  C   UNL     1     -11.495  53.223  51.124  0.00  0.00    +0.000 A 
ATOM      4  O   UNL     1      -9.877  55.605  49.086  0.00  0.00    +0.000 OA
ATOM      5  N   UNL     1      -8.877  53.783  50.182  0.00  0.00    +0.000 N 
ATOM      6  C   UNL     1     -10.445  52.203  51.209  0.00  0.00    +0.000 A 
ATOM      7  C   UNL     1      -9.140  52.503  50.786  0.00  0.00    +0.000 A 
ATOM      8  C   UNL     1     -10.733  50.940  51.760  0.00  0.00    +0.000 A 
ATOM      9  C   UNL     1      -8.148  51.517  50.940  0.00  0.00    +0.000 A 
ATOM     10  C   UNL     1      -9.739  49.979  51.911  0.00  0.00    +0.000 A 
ATOM     11  C   UNL     1      -8.445  50.270  51.505  0.00  0.00    +0.000 A 
ENDROOT
BRANCH   1  17
ATOM     12  S   UNL     1     -13.763  57.154  49.225  0.00  0.00    +0.000 S 
ATOM     13  O   UNL     1     -14.958  56.543  48.674  0.00  0.00    +0.000 OA
ATOM     14  O   UNL     1     -13.143  58.283  48.560  0.00  0.00    +0.000 OA
ATOM     15  N   UNL     1     -12.638  56.004  49.381  0.00  0.00    +0.000 N 
ATOM     16  C   UNL     1     -14.202  57.710  50.827  0.00  0.00    +0.000 A 
ATOM     17  C   UNL     1     -12.307  55.521  50.545  0.00  0.00    +0.000 C 
ATOM     18  C   UNL     1     -13.683  57.026  51.915  0.00  0.00    +0.000 A 
ATOM     19  C   UNL     1     -15.048  58.812  50.967  0.00  0.00    +0.000 A 
ATOM     20  N   UNL     1     -12.842  55.930  51.748  0.00  0.00    +0.000 N 
ATOM     21  C   UNL     1     -14.075  57.438  53.192  0.00  0.00    +0.000 A 
ATOM     22  C   UNL     1     -15.406  59.230  52.244  0.00  0.00    +0.000 A 
ATOM     23  C   UNL     1     -14.926  58.538  53.357  0.00  0.00    +0.000 A 
ATOM     24  H   UNL     1     -12.192  55.659  48.575  0.00  0.00    +0.000 HD
ATOM     25  H   UNL     1     -12.612  55.406  52.549  0.00  0.00    +0.000 HD
ENDBRANCH   1  17
BRANCH   3  26
ATOM     26  O   UNL     1     -12.693  52.857  51.711  0.00  0.00    +0.000 OA
ATOM     27  H   UNL     1     -13.120  52.065  51.450  0.00  0.00    +0.000 HD
ENDBRANCH   3  26
BRANCH   5  28
ATOM     28  N   UNL     1      -7.533  54.028  49.687  0.00  0.00    +0.000 N 
ATOM     29  H   UNL     1      -7.169  53.513  48.931  0.00  0.00    +0.000 HD
BRANCH  28  30
ATOM     30  C   UNL     1      -6.729  55.080  50.355  0.00  0.00    +0.000 C 
ATOM     31  C   UNL     1      -5.322  55.062  49.730  0.00  0.00    +0.000 C 
BRANCH  30  32
ATOM     32  C   UNL     1      -6.634  54.913  51.867  0.00  0.00    +0.000 A 
ATOM     33  C   UNL     1      -7.442  55.651  52.745  0.00  0.00    +0.000 A 
ATOM     34  C   UNL     1      -5.728  53.989  52.416  0.00  0.00    +0.000 A 
ATOM     35  C   UNL     1      -7.345  55.473  54.127  0.00  0.00    +0.000 A 
ATOM     36  C   UNL     1      -5.623  53.821  53.798  0.00  0.00    +0.000 A 
ATOM     37  C   UNL     1      -6.433  54.563  54.653  0.00  0.00    +0.000 A 
ENDBRANCH  30  32
ENDBRANCH  28  30
ENDBRANCH   5  28
TORSDOF 5
ENDMDL
MODEL 5
REMARK VINA RESULT:      -9.2      2.075      5.654
REMARK  Name = 
REMARK  6 active torsions:
REMARK  status: ('A' for Active; 'I' for Inactive)
REMARK    1  A    between atoms: C_6  and  C_10
REMARK    2  A    between atoms: C_14  and  O_18
REMARK    3  A    between atoms: N_17  and  N_20
REMARK    4  A    between atoms: N_20  and  C_23
REMARK    5  A    between atoms: C_23  and  C_26
REMARK    6  A    between atoms: C_23  and  C_27
REMARK                            x       y       z     vdW  Elec       q    Type
REMARK                         _______ _______ _______ _____ _____    ______ ____
ROOT
ATOM      1  C   UNL     1     -10.361  55.271  50.943  0.00  0.00    +0.000 A 
ATOM      2  C   UNL     1     -10.022  55.332  49.483  0.00  0.00    +0.000 A 
ATOM      3  C   UNL     1     -11.546  55.750  51.364  0.00  0.00    +0.000 A 
ATOM      4  O   UNL     1      -8.833  55.181  49.181  0.00  0.00    +0.000 OA
ATOM      5  N   UNL     1     -11.076  55.529  48.574  0.00  0.00    +0.000 N 
ATOM      6  C   UNL     1     -12.552  56.218  50.405  0.00  0.00    +0.000 A 
ATOM      7  C   UNL     1     -12.334  56.062  49.027  0.00  0.00    +0.000 A 
ATOM      8  C   UNL     1     -13.757  56.781  50.868  0.00  0.00    +0.000 A 
ATOM      9  C   UNL     1     -13.350  56.470  48.142  0.00  0.00    +0.000 A 
ATOM     10  C   UNL     1     -14.753  57.173  49.980  0.00  0.00    +0.000 A 
ATOM     11  C   UNL     1     -14.551  57.013  48.617  0.00  0.00    +0.000 A 
ENDROOT
BRANCH   1  17
ATOM     12  S   UNL     1      -7.032  54.770  52.991  0.00  0.00    +0.000 S 
ATOM     13  O   UNL     1      -6.929  55.744  54.060  0.00  0.00    +0.000 OA
ATOM     14  O   UNL     1      -5.869  54.427  52.197  0.00  0.00    +0.000 OA
ATOM     15  N   UNL     1      -8.188  55.261  51.973  0.00  0.00    +0.000 N 
ATOM     16  C   UNL     1      -7.565  53.282  53.745  0.00  0.00    +0.000 A 
ATOM     17  C   UNL     1      -9.352  54.678  51.923  0.00  0.00    +0.000 C 
ATOM     18  C   UNL     1      -8.865  52.862  53.504  0.00  0.00    +0.000 A 
ATOM     19  C   UNL     1      -6.684  52.565  54.558  0.00  0.00    +0.000 A 
ATOM     20  N   UNL     1      -9.724  53.595  52.691  0.00  0.00    +0.000 N 
ATOM     21  C   UNL     1      -9.306  51.702  54.148  0.00  0.00    +0.000 A 
ATOM     22  C   UNL     1      -7.127  51.397  55.168  0.00  0.00    +0.000 A 
ATOM     23  C   UNL     1      -8.441  50.969  54.970  0.00  0.00    +0.000 A 
ATOM     24  H   UNL     1      -8.008  56.022  51.376  0.00  0.00    +0.000 HD
ATOM     25  H   UNL     1     -10.668  53.320  52.661  0.00  0.00    +0.000 HD
ENDBRANCH   1  17
BRANCH   3  26
ATOM     26  O   UNL     1     -11.943  55.821  52.687  0.00  0.00    +0.000 OA
ATOM     27  H   UNL     1     -11.895  55.061  53.232  0.00  0.00    +0.000 HD
ENDBRANCH   3  26
BRANCH   5  28
ATOM     28  N   UNL     1     -10.858  55.453  47.139  0.00  0.00    +0.000 N 
ATOM     29  H   UNL     1     -10.372  56.163  46.661  0.00  0.00    +0.000 HD
BRANCH  28  30
ATOM     30  C   UNL     1     -11.387  54.270  46.418  0.00  0.00    +0.000 C 
ATOM     31  C   UNL     1     -11.644  53.164  47.458  0.00  0.00    +0.000 C 
BRANCH  30  32
ATOM     32  C   UNL     1     -10.463  53.755  45.321  0.00  0.00    +0.000 A 
ATOM     33  C   UNL     1     -10.943  52.984  44.251  0.00  0.00    +0.000 A 
ATOM     34  C   UNL     1      -9.092  54.062  45.357  0.00  0.00    +0.000 A 
ATOM     35  C   UNL     1     -10.079  52.532  43.252  0.00  0.00    +0.000 A 
ATOM     36  C   UNL     1      -8.227  53.599  44.364  0.00  0.00    +0.000 A 
ATOM     37  C   UNL     1      -8.722  52.835  43.310  0.00  0.00    +0.000 A 
ENDBRANCH  30  32
ENDBRANCH  28  30
ENDBRANCH   5  28
TORSDOF 5
ENDMDL
MODEL 6
REMARK VINA RESULT:      -9.1      3.047      8.587
REMARK  Name = 
REMARK  6 active torsions:
REMARK  status: ('A' for Active; 'I' for Inactive)
REMARK    1  A    between atoms: C_6  and  C_10
REMARK    2  A    between atoms: C_14  and  O_18
REMARK    3  A    between atoms: N_17  and  N_20
REMARK    4  A    between atoms: N_20  and  C_23
REMARK    5  A    between atoms: C_23  and  C_26
REMARK    6  A    between atoms: C_23  and  C_27
REMARK                            x       y       z     vdW  Elec       q    Type
REMARK                         _______ _______ _______ _____ _____    ______ ____
ROOT
ATOM      1  C   UNL     1     -10.009  54.422  52.349  0.00  0.00    +0.000 A 
ATOM      2  C   UNL     1      -8.597  54.894  52.168  0.00  0.00    +0.000 A 
ATOM      3  C   UNL     1     -10.246  53.320  53.083  0.00  0.00    +0.000 A 
ATOM      4  O   UNL     1      -8.393  55.699  51.253  0.00  0.00    +0.000 OA
ATOM      5  N   UNL     1      -7.625  54.409  53.059  0.00  0.00    +0.000 N 
ATOM      6  C   UNL     1      -9.159  52.646  53.802  0.00  0.00    +0.000 A 
ATOM      7  C   UNL     1      -7.876  53.216  53.826  0.00  0.00    +0.000 A 
ATOM      8  C   UNL     1      -9.413  51.454  54.507  0.00  0.00    +0.000 A 
ATOM      9  C   UNL     1      -6.876  52.570  54.577  0.00  0.00    +0.000 A 
ATOM     10  C   UNL     1      -8.415  50.833  55.249  0.00  0.00    +0.000 A 
ATOM     11  C   UNL     1      -7.147  51.394  55.287  0.00  0.00    +0.000 A 
ENDROOT
BRANCH   1  17
ATOM     12  S   UNL     1     -12.326  55.942  49.547  0.00  0.00    +0.000 S 
ATOM     13  O   UNL     1     -13.191  54.924  48.981  0.00  0.00    +0.000 OA
ATOM     14  O   UNL     1     -11.690  56.923  48.691  0.00  0.00    +0.000 OA
ATOM     15  N   UNL     1     -11.160  55.200  50.386  0.00  0.00    +0.000 N 
ATOM     16  C   UNL     1     -13.319  56.845  50.673  0.00  0.00    +0.000 A 
ATOM     17  C   UNL     1     -11.149  55.194  51.689  0.00  0.00    +0.000 C 
ATOM     18  C   UNL     1     -13.080  56.674  52.028  0.00  0.00    +0.000 A 
ATOM     19  C   UNL     1     -14.310  57.701  50.188  0.00  0.00    +0.000 A 
ATOM     20  N   UNL     1     -12.086  55.814  52.487  0.00  0.00    +0.000 N 
ATOM     21  C   UNL     1     -13.906  57.356  52.927  0.00  0.00    +0.000 A 
ATOM     22  C   UNL     1     -15.105  58.395  51.093  0.00  0.00    +0.000 A 
ATOM     23  C   UNL     1     -14.909  58.216  52.463  0.00  0.00    +0.000 A 
ATOM     24  H   UNL     1     -10.440  54.739  49.899  0.00  0.00    +0.000 HD
ATOM     25  H   UNL     1     -12.050  55.635  53.454  0.00  0.00    +0.000 HD
ENDBRANCH   1  17
BRANCH   3  26
ATOM     26  O   UNL     1     -11.490  52.741  53.261  0.00  0.00    +0.000 OA
ATOM     27  H   UNL     1     -11.921  52.804  54.090  0.00  0.00    +0.000 HD
ENDBRANCH   3  26
BRANCH   5  28
ATOM     28  N   UNL     1      -6.267  54.926  53.048  0.00  0.00    +0.000 N 
ATOM     29  H   UNL     1      -6.082  55.870  53.255  0.00  0.00    +0.000 HD
BRANCH  28  30
ATOM     30  C   UNL     1      -5.169  53.984  52.720  0.00  0.00    +0.000 C 
ATOM     31  C   UNL     1      -3.869  54.554  53.317  0.00  0.00    +0.000 C 
BRANCH  30  32
ATOM     32  C   UNL     1      -4.997  53.738  51.226  0.00  0.00    +0.000 A 
ATOM     33  C   UNL     1      -5.211  54.753  50.280  0.00  0.00    +0.000 A 
ATOM     34  C   UNL     1      -4.601  52.472  50.764  0.00  0.00    +0.000 A 
ATOM     35  C   UNL     1      -5.037  54.507  48.916  0.00  0.00    +0.000 A 
ATOM     36  C   UNL     1      -4.440  52.223  49.399  0.00  0.00    +0.000 A 
ATOM     37  C   UNL     1      -4.657  53.242  48.476  0.00  0.00    +0.000 A 
ENDBRANCH  30  32
ENDBRANCH  28  30
ENDBRANCH   5  28
TORSDOF 5
ENDMDL
MODEL 7
REMARK VINA RESULT:      -9.1      2.177      5.487
REMARK  Name = 
REMARK  6 active torsions:
REMARK  status: ('A' for Active; 'I' for Inactive)
REMARK    1  A    between atoms: C_6  and  C_10
REMARK    2  A    between atoms: C_14  and  O_18
REMARK    3  A    between atoms: N_17  and  N_20
REMARK    4  A    between atoms: N_20  and  C_23
REMARK    5  A    between atoms: C_23  and  C_26
REMARK    6  A    between atoms: C_23  and  C_27
REMARK                            x       y       z     vdW  Elec       q    Type
REMARK                         _______ _______ _______ _____ _____    ______ ____
ROOT
ATOM      1  C   UNL     1      -9.815  55.254  50.562  0.00  0.00    +0.000 A 
ATOM      2  C   UNL     1      -9.278  55.369  49.167  0.00  0.00    +0.000 A 
ATOM      3  C   UNL     1     -11.076  55.650  50.817  0.00  0.00    +0.000 A 
ATOM      4  O   UNL     1      -8.051  55.299  49.035  0.00  0.00    +0.000 OA
ATOM      5  N   UNL     1     -10.203  55.522  48.120  0.00  0.00    +0.000 N 
ATOM      6  C   UNL     1     -11.964  56.078  49.732  0.00  0.00    +0.000 A 
ATOM      7  C   UNL     1     -11.544  55.966  48.396  0.00  0.00    +0.000 A 
ATOM      8  C   UNL     1     -13.256  56.555  50.026  0.00  0.00    +0.000 A 
ATOM      9  C   UNL     1     -12.449  56.330  47.382  0.00  0.00    +0.000 A 
ATOM     10  C   UNL     1     -14.140  56.905  49.011  0.00  0.00    +0.000 A 
ATOM     11  C   UNL     1     -13.737  56.788  47.688  0.00  0.00    +0.000 A 
ENDROOT
BRANCH   1  17
ATOM     12  S   UNL     1      -6.744  54.865  53.001  0.00  0.00    +0.000 S 
ATOM     13  O   UNL     1      -6.787  55.863  54.053  0.00  0.00    +0.000 OA
ATOM     14  O   UNL     1      -5.489  54.532  52.358  0.00  0.00    +0.000 OA
ATOM     15  N   UNL     1      -7.780  55.312  51.843  0.00  0.00    +0.000 N 
ATOM     16  C   UNL     1      -7.335  53.382  53.720  0.00  0.00    +0.000 A 
ATOM     17  C   UNL     1      -8.918  54.703  51.668  0.00  0.00    +0.000 C 
ATOM     18  C   UNL     1      -8.588  52.929  53.336  0.00  0.00    +0.000 A 
ATOM     19  C   UNL     1      -6.543  52.700  54.647  0.00  0.00    +0.000 A 
ATOM     20  N   UNL     1      -9.358  53.628  52.411  0.00  0.00    +0.000 N 
ATOM     21  C   UNL     1      -9.081  51.773  53.949  0.00  0.00    +0.000 A 
ATOM     22  C   UNL     1      -7.034  51.535  55.226  0.00  0.00    +0.000 A 
ATOM     23  C   UNL     1      -8.306  51.076  54.884  0.00  0.00    +0.000 A 
ATOM     24  H   UNL     1      -7.544  56.064  51.255  0.00  0.00    +0.000 HD
ATOM     25  H   UNL     1     -10.287  53.332  52.276  0.00  0.00    +0.000 HD
ENDBRANCH   1  17
BRANCH   3  26
ATOM     26  O   UNL     1     -11.660  55.667  52.071  0.00  0.00    +0.000 OA
ATOM     27  H   UNL     1     -11.392  56.303  52.704  0.00  0.00    +0.000 HD
ENDBRANCH   3  26
BRANCH   5  28
ATOM     28  N   UNL     1      -9.780  55.492  46.730  0.00  0.00    +0.000 N 
ATOM     29  H   UNL     1      -9.985  56.238  46.121  0.00  0.00    +0.000 HD
BRANCH  28  30
ATOM     30  C   UNL     1      -9.028  54.303  46.259  0.00  0.00    +0.000 C 
ATOM     31  C   UNL     1      -7.907  54.798  45.326  0.00  0.00    +0.000 C 
BRANCH  30  32
ATOM     32  C   UNL     1      -9.892  53.274  45.542  0.00  0.00    +0.000 A 
ATOM     33  C   UNL     1     -11.284  53.226  45.716  0.00  0.00    +0.000 A 
ATOM     34  C   UNL     1      -9.301  52.347  44.667  0.00  0.00    +0.000 A 
ATOM     35  C   UNL     1     -12.058  52.280  45.041  0.00  0.00    +0.000 A 
ATOM     36  C   UNL     1     -10.073  51.393  44.001  0.00  0.00    +0.000 A 
ATOM     37  C   UNL     1     -11.453  51.362  44.187  0.00  0.00    +0.000 A 
ENDBRANCH  30  32
ENDBRANCH  28  30
ENDBRANCH   5  28
TORSDOF 5
ENDMDL
MODEL 8
REMARK VINA RESULT:      -9.0      2.514      7.444
REMARK  Name = 
REMARK  6 active torsions:
REMARK  status: ('A' for Active; 'I' for Inactive)
REMARK    1  A    between atoms: C_6  and  C_10
REMARK    2  A    between atoms: C_14  and  O_18
REMARK    3  A    between atoms: N_17  and  N_20
REMARK    4  A    between atoms: N_20  and  C_23
REMARK    5  A    between atoms: C_23  and  C_26
REMARK    6  A    between atoms: C_23  and  C_27
REMARK                            x       y       z     vdW  Elec       q    Type
REMARK                         _______ _______ _______ _____ _____    ______ ____
ROOT
ATOM      1  C   UNL     1     -11.112  56.005  48.933  0.00  0.00    +0.000 A 
ATOM      2  C   UNL     1      -9.933  55.596  49.763  0.00  0.00    +0.000 A 
ATOM      3  C   UNL     1     -11.216  55.554  47.670  0.00  0.00    +0.000 A 
ATOM      4  O   UNL     1      -9.709  56.263  50.780  0.00  0.00    +0.000 OA
ATOM      5  N   UNL     1      -9.190  54.480  49.342  0.00  0.00    +0.000 N 
ATOM      6  C   UNL     1     -10.258  54.580  47.137  0.00  0.00    +0.000 A 
ATOM      7  C   UNL     1      -9.289  54.015  47.983  0.00  0.00    +0.000 A 
ATOM      8  C   UNL     1     -10.342  54.173  45.792  0.00  0.00    +0.000 A 
ATOM      9  C   UNL     1      -8.428  53.039  47.448  0.00  0.00    +0.000 A 
ATOM     10  C   UNL     1      -9.487  53.203  45.281  0.00  0.00    +0.000 A 
ATOM     11  C   UNL     1      -8.533  52.632  46.112  0.00  0.00    +0.000 A 
ENDROOT
BRANCH   1  17
ATOM     12  S   UNL     1     -13.469  59.128  49.405  0.00  0.00    +0.000 S 
ATOM     13  O   UNL     1     -14.583  59.083  48.476  0.00  0.00    +0.000 OA
ATOM     14  O   UNL     1     -12.785  60.378  49.669  0.00  0.00    +0.000 OA
ATOM     15  N   UNL     1     -12.359  58.062  48.910  0.00  0.00    +0.000 N 
ATOM     16  C   UNL     1     -14.103  58.582  50.943  0.00  0.00    +0.000 A 
ATOM     17  C   UNL     1     -12.166  56.934  49.533  0.00  0.00    +0.000 C 
ATOM     18  C   UNL     1     -13.713  57.333  51.399  0.00  0.00    +0.000 A 
ATOM     19  C   UNL     1     -14.972  59.406  51.664  0.00  0.00    +0.000 A 
ATOM     20  N   UNL     1     -12.846  56.531  50.662  0.00  0.00    +0.000 N 
ATOM     21  C   UNL     1     -14.260  56.876  52.602  0.00  0.00    +0.000 A 
ATOM     22  C   UNL     1     -15.485  58.951  52.873  0.00  0.00    +0.000 A 
ATOM     23  C   UNL     1     -15.135  57.683  53.339  0.00  0.00    +0.000 A 
ATOM     24  H   UNL     1     -11.816  58.270  48.117  0.00  0.00    +0.000 HD
ATOM     25  H   UNL     1     -12.709  55.606  50.970  0.00  0.00    +0.000 HD
ENDBRANCH   1  17
BRANCH   3  26
ATOM     26  O   UNL     1     -12.211  55.919  46.780  0.00  0.00    +0.000 OA
ATOM     27  H   UNL     1     -12.875  55.303  46.542  0.00  0.00    +0.000 HD
ENDBRANCH   3  26
BRANCH   5  28
ATOM     28  N   UNL     1      -8.126  53.928  50.163  0.00  0.00    +0.000 N 
ATOM     29  H   UNL     1      -8.167  52.999  50.488  0.00  0.00    +0.000 HD
BRANCH  28  30
ATOM     30  C   UNL     1      -6.977  54.805  50.492  0.00  0.00    +0.000 C 
ATOM     31  C   UNL     1      -5.798  54.392  49.592  0.00  0.00    +0.000 C 
BRANCH  30  32
ATOM     32  C   UNL     1      -6.563  54.751  51.958  0.00  0.00    +0.000 A 
ATOM     33  C   UNL     1      -7.417  55.182  52.985  0.00  0.00    +0.000 A 
ATOM     34  C   UNL     1      -5.301  54.244  52.312  0.00  0.00    +0.000 A 
ATOM     35  C   UNL     1      -7.021  55.113  54.321  0.00  0.00    +0.000 A 
ATOM     36  C   UNL     1      -4.900  54.187  53.649  0.00  0.00    +0.000 A 
ATOM     37  C   UNL     1      -5.762  54.620  54.653  0.00  0.00    +0.000 A 
ENDBRANCH  30  32
ENDBRANCH  28  30
ENDBRANCH   5  28
TORSDOF 5
ENDMDL
MODEL 9
REMARK VINA RESULT:      -9.0      1.933      5.470
REMARK  Name = 
REMARK  6 active torsions:
REMARK  status: ('A' for Active; 'I' for Inactive)
REMARK    1  A    between atoms: C_6  and  C_10
REMARK    2  A    between atoms: C_14  and  O_18
REMARK    3  A    between atoms: N_17  and  N_20
REMARK    4  A    between atoms: N_20  and  C_23
REMARK    5  A    between atoms: C_23  and  C_26
REMARK    6  A    between atoms: C_23  and  C_27
REMARK                            x       y       z     vdW  Elec       q    Type
REMARK                         _______ _______ _______ _____ _____    ______ ____
ROOT
ATOM      1  C   UNL     1     -10.570  55.121  50.742  0.00  0.00    +0.000 A 
ATOM      2  C   UNL     1     -10.216  55.191  49.287  0.00  0.00    +0.000 A 
ATOM      3  C   UNL     1     -11.687  55.732  51.177  0.00  0.00    +0.000 A 
ATOM      4  O   UNL     1      -9.054  54.900  48.982  0.00  0.00    +0.000 OA
ATOM      5  N   UNL     1     -11.229  55.554  48.382  0.00  0.00    +0.000 N 
ATOM      6  C   UNL     1     -12.618  56.360  50.234  0.00  0.00    +0.000 A 
ATOM      7  C   UNL     1     -12.412  56.226  48.851  0.00  0.00    +0.000 A 
ATOM      8  C   UNL     1     -13.745  57.055  50.714  0.00  0.00    +0.000 A 
ATOM      9  C   UNL     1     -13.361  56.793  47.980  0.00  0.00    +0.000 A 
ATOM     10  C   UNL     1     -14.676  57.603  49.839  0.00  0.00    +0.000 A 
ATOM     11  C   UNL     1     -14.486  57.467  48.471  0.00  0.00    +0.000 A 
ENDROOT
BRANCH   1  17
ATOM     12  S   UNL     1      -9.177  52.262  53.070  0.00  0.00    +0.000 S 
ATOM     13  O   UNL     1      -8.615  51.180  52.283  0.00  0.00    +0.000 OA
ATOM     14  O   UNL     1      -9.983  51.977  54.240  0.00  0.00    +0.000 OA
ATOM     15  N   UNL     1     -10.061  53.192  52.086  0.00  0.00    +0.000 N 
ATOM     16  C   UNL     1      -7.813  53.206  53.633  0.00  0.00    +0.000 A 
ATOM     17  C   UNL     1      -9.652  54.368  51.702  0.00  0.00    +0.000 C 
ATOM     18  C   UNL     1      -7.615  54.458  53.071  0.00  0.00    +0.000 A 
ATOM     19  C   UNL     1      -6.973  52.684  54.619  0.00  0.00    +0.000 A 
ATOM     20  N   UNL     1      -8.466  54.955  52.089  0.00  0.00    +0.000 N 
ATOM     21  C   UNL     1      -6.496  55.189  53.485  0.00  0.00    +0.000 A 
ATOM     22  C   UNL     1      -5.881  53.435  55.042  0.00  0.00    +0.000 A 
ATOM     23  C   UNL     1      -5.638  54.684  54.469  0.00  0.00    +0.000 A 
ATOM     24  H   UNL     1     -10.930  52.860  51.767  0.00  0.00    +0.000 HD
ATOM     25  H   UNL     1      -8.202  55.788  51.637  0.00  0.00    +0.000 HD
ENDBRANCH   1  17
BRANCH   3  26
ATOM     26  O   UNL     1     -12.082  55.805  52.501  0.00  0.00    +0.000 OA
ATOM     27  H   UNL     1     -11.632  56.375  53.093  0.00  0.00    +0.000 HD
ENDBRANCH   3  26
BRANCH   5  28
ATOM     28  N   UNL     1     -11.012  55.502  46.946  0.00  0.00    +0.000 N 
ATOM     29  H   UNL     1     -10.531  56.224  46.480  0.00  0.00    +0.000 HD
BRANCH  28  30
ATOM     30  C   UNL     1     -11.534  54.327  46.207  0.00  0.00    +0.000 C 
ATOM     31  C   UNL     1     -11.947  53.267  47.244  0.00  0.00    +0.000 C 
BRANCH  30  32
ATOM     32  C   UNL     1     -10.541  53.734  45.216  0.00  0.00    +0.000 A 
ATOM     33  C   UNL     1     -10.955  52.918  44.151  0.00  0.00    +0.000 A 
ATOM     34  C   UNL     1      -9.169  54.012  45.345  0.00  0.00    +0.000 A 
ATOM     35  C   UNL     1     -10.027  52.395  43.249  0.00  0.00    +0.000 A 
ATOM     36  C   UNL     1      -8.241  53.478  44.449  0.00  0.00    +0.000 A 
ATOM     37  C   UNL     1      -8.671  52.670  43.400  0.00  0.00    +0.000 A 
ENDBRANCH  30  32
ENDBRANCH  28  30
ENDBRANCH   5  28
TORSDOF 5
ENDMDL
