MODEL 1
REMARK VINA RESULT:      -8.5      0.000      0.000
REMARK  Name = 
REMARK  6 active torsions:
REMARK  status: ('A' for Active; 'I' for Inactive)
REMARK    1  A    between atoms: C_6  and  C_10
REMARK    2  A    between atoms: C_14  and  O_18
REMARK    3  A    between atoms: N_17  and  N_20
REMARK    4  A    between atoms: N_20  and  C_23
REMARK    5  A    between atoms: C_23  and  C_26
REMARK    6  A    between atoms: C_23  and  C_27
REMARK                            x       y       z     vdW  Elec       q    Type
REMARK                         _______ _______ _______ _____ _____    ______ ____
ROOT
ATOM      1  C   UNL     1     -10.098  54.506  52.227  0.00  0.00    +0.000 A 
ATOM      2  C   UNL     1      -8.712  55.041  52.052  0.00  0.00    +0.000 A 
ATOM      3  C   UNL     1     -10.307  53.413  52.986  0.00  0.00    +0.000 A 
ATOM      4  O   UNL     1      -8.535  55.989  51.279  0.00  0.00    +0.000 OA
ATOM      5  N   UNL     1      -7.696  54.469  52.819  0.00  0.00    +0.000 N 
ATOM      6  C   UNL     1      -9.191  52.744  53.669  0.00  0.00    +0.000 A 
ATOM      7  C   UNL     1      -7.902  53.294  53.595  0.00  0.00    +0.000 A 
ATOM      8  C   UNL     1      -9.401  51.577  54.425  0.00  0.00    +0.000 A 
ATOM      9  C   UNL     1      -6.848  52.670  54.282  0.00  0.00    +0.000 A 
ATOM     10  C   UNL     1      -8.347  50.967  55.104  0.00  0.00    +0.000 A 
ATOM     11  C   UNL     1      -7.073  51.515  55.033  0.00  0.00    +0.000 A 
ENDROOT
BRANCH   1  17
ATOM     12  S   UNL     1     -12.540  56.018  49.549  0.00  0.00    +0.000 S 
ATOM     13  O   UNL     1     -13.415  55.004  48.995  0.00  0.00    +0.000 OA
ATOM     14  O   UNL     1     -11.948  57.025  48.687  0.00  0.00    +0.000 OA
ATOM     15  N   UNL     1     -11.343  55.260  50.325  0.00  0.00    +0.000 N 
ATOM     16  C   UNL     1     -13.497  56.894  50.731  0.00  0.00    +0.000 A 
ATOM     17  C   UNL     1     -11.265  55.262  51.624  0.00  0.00    +0.000 C 
ATOM     18  C   UNL     1     -13.186  56.721  52.071  0.00  0.00    +0.000 A 
ATOM     19  C   UNL     1     -14.528  57.733  50.305  0.00  0.00    +0.000 A 
ATOM     20  N   UNL     1     -12.157  55.875  52.479  0.00  0.00    +0.000 N 
ATOM     21  C   UNL     1     -13.997  57.357  53.018  0.00  0.00    +0.000 A 
ATOM     22  C   UNL     1     -15.299  58.392  51.258  0.00  0.00    +0.000 A 
ATOM     23  C   UNL     1     -15.042  58.194  52.614  0.00  0.00    +0.000 A 
ATOM     24  H   UNL     1     -10.657  54.784  49.803  0.00  0.00    +0.000 HD
ATOM     25  H   UNL     1     -12.060  55.704  53.443  0.00  0.00    +0.000 HD
ENDBRANCH   1  17
BRANCH   3  26
ATOM     26  O   UNL     1     -11.550  52.857  53.233  0.00  0.00    +0.000 OA
ATOM     27  H   UNL     1     -11.991  53.034  54.040  0.00  0.00    +0.000 HD
ENDBRANCH   3  26
BRANCH   5  28
ATOM     28  N   UNL     1      -6.375  55.016  52.755  0.00  0.00    +0.000 N 
ATOM     29  H   UNL     1      -6.107  55.830  53.239  0.00  0.00    +0.000 HD
BRANCH  28  30
ATOM     30  C   UNL     1      -5.452  54.248  51.894  0.00  0.00    +0.000 C 
ATOM     31  C   UNL     1      -5.430  54.732  50.443  0.00  0.00    +0.000 C 
ATOM     32  C   UNL     1      -4.045  54.357  52.488  0.00  0.00    +0.000 C 
ENDBRANCH  28  30
ENDBRANCH   5  28
TORSDOF 4
ENDMDL
MODEL 2
REMARK VINA RESULT:      -8.3      1.899      2.575
REMARK  Name = 
REMARK  6 active torsions:
REMARK  status: ('A' for Active; 'I' for Inactive)
REMARK    1  A    between atoms: C_6  and  C_10
REMARK    2  A    between atoms: C_14  and  O_18
REMARK    3  A    between atoms: N_17  and  N_20
REMARK    4  A    between atoms: N_20  and  C_23
REMARK    5  A    between atoms: C_23  and  C_26
REMARK    6  A    between atoms: C_23  and  C_27
REMARK                            x       y       z     vdW  Elec       q    Type
REMARK                         _______ _______ _______ _____ _____    ______ ____
ROOT
ATOM      1  C   UNL     1     -11.323  54.025  51.557  0.00  0.00    +0.000 A 
ATOM      2  C   UNL     1     -10.336  54.157  52.673  0.00  0.00    +0.000 A 
ATOM      3  C   UNL     1     -11.498  52.836  50.950  0.00  0.00    +0.000 A 
ATOM      4  O   UNL     1     -10.129  55.278  53.153  0.00  0.00    +0.000 OA
ATOM      5  N   UNL     1      -9.739  52.989  53.151  0.00  0.00    +0.000 N 
ATOM      6  C   UNL     1     -10.746  51.650  51.383  0.00  0.00    +0.000 A 
ATOM      7  C   UNL     1      -9.891  51.737  52.493  0.00  0.00    +0.000 A 
ATOM      8  C   UNL     1     -10.893  50.418  50.721  0.00  0.00    +0.000 A 
ATOM      9  C   UNL     1      -9.204  50.590  52.924  0.00  0.00    +0.000 A 
ATOM     10  C   UNL     1     -10.208  49.286  51.159  0.00  0.00    +0.000 A 
ATOM     11  C   UNL     1      -9.365  49.373  52.260  0.00  0.00    +0.000 A 
ENDROOT
BRANCH   1  17
ATOM     12  S   UNL     1     -13.019  56.842  49.410  0.00  0.00    +0.000 S 
ATOM     13  O   UNL     1     -14.076  56.309  48.573  0.00  0.00    +0.000 OA
ATOM     14  O   UNL     1     -12.105  57.841  48.888  0.00  0.00    +0.000 OA
ATOM     15  N   UNL     1     -12.143  55.595  49.944  0.00  0.00    +0.000 N 
ATOM     16  C   UNL     1     -13.817  57.585  50.786  0.00  0.00    +0.000 A 
ATOM     17  C   UNL     1     -12.188  55.214  51.188  0.00  0.00    +0.000 C 
ATOM     18  C   UNL     1     -13.689  56.967  52.019  0.00  0.00    +0.000 A 
ATOM     19  C   UNL     1     -14.546  58.764  50.611  0.00  0.00    +0.000 A 
ATOM     20  N   UNL     1     -12.962  55.789  52.174  0.00  0.00    +0.000 N 
ATOM     21  C   UNL     1     -14.388  57.515  53.101  0.00  0.00    +0.000 A 
ATOM     22  C   UNL     1     -15.201  59.320  51.706  0.00  0.00    +0.000 A 
ATOM     23  C   UNL     1     -15.132  58.690  52.948  0.00  0.00    +0.000 A 
ATOM     24  H   UNL     1     -11.561  55.111  49.314  0.00  0.00    +0.000 HD
ATOM     25  H   UNL     1     -13.004  55.336  53.047  0.00  0.00    +0.000 HD
ENDBRANCH   1  17
BRANCH   3  26
ATOM     26  O   UNL     1     -12.403  52.602  49.930  0.00  0.00    +0.000 OA
ATOM     27  H   UNL     1     -12.149  52.093  49.185  0.00  0.00    +0.000 HD
ENDBRANCH   3  26
BRANCH   5  28
ATOM     28  N   UNL     1      -8.864  53.060  54.280  0.00  0.00    +0.000 N 
ATOM     29  H   UNL     1      -9.171  52.928  55.206  0.00  0.00    +0.000 HD
BRANCH  28  30
ATOM     30  C   UNL     1      -7.459  53.351  53.930  0.00  0.00    +0.000 C 
ATOM     31  C   UNL     1      -7.019  54.767  54.309  0.00  0.00    +0.000 C 
ATOM     32  C   UNL     1      -6.568  52.333  54.648  0.00  0.00    +0.000 C 
ENDBRANCH  28  30
ENDBRANCH   5  28
TORSDOF 4
ENDMDL
MODEL 3
REMARK VINA RESULT:      -8.3      2.963      7.212
REMARK  Name = 
REMARK  6 active torsions:
REMARK  status: ('A' for Active; 'I' for Inactive)
REMARK    1  A    between atoms: C_6  and  C_10
REMARK    2  A    between atoms: C_14  and  O_18
REMARK    3  A    between atoms: N_17  and  N_20
REMARK    4  A    between atoms: N_20  and  C_23
REMARK    5  A    between atoms: C_23  and  C_26
REMARK    6  A    between atoms: C_23  and  C_27
REMARK                            x       y       z     vdW  Elec       q    Type
REMARK                         _______ _______ _______ _____ _____    ______ ____
ROOT
ATOM      1  C   UNL     1     -10.195  55.289  50.742  0.00  0.00    +0.000 A 
ATOM      2  C   UNL     1      -9.760  55.347  49.312  0.00  0.00    +0.000 A 
ATOM      3  C   UNL     1     -11.440  55.673  51.083  0.00  0.00    +0.000 A 
ATOM      4  O   UNL     1      -8.586  55.076  49.038  0.00  0.00    +0.000 OA
ATOM      5  N   UNL     1     -10.727  55.657  48.353  0.00  0.00    +0.000 N 
ATOM      6  C   UNL     1     -12.394  56.133  50.064  0.00  0.00    +0.000 A 
ATOM      7  C   UNL     1     -12.032  56.098  48.708  0.00  0.00    +0.000 A 
ATOM      8  C   UNL     1     -13.679  56.577  50.424  0.00  0.00    +0.000 A 
ATOM      9  C   UNL     1     -12.962  56.503  47.738  0.00  0.00    +0.000 A 
ATOM     10  C   UNL     1     -14.594  56.975  49.451  0.00  0.00    +0.000 A 
ATOM     11  C   UNL     1     -14.236  56.937  48.110  0.00  0.00    +0.000 A 
ENDROOT
BRANCH   1  17
ATOM     12  S   UNL     1      -7.024  54.797  53.005  0.00  0.00    +0.000 S 
ATOM     13  O   UNL     1      -6.988  55.760  54.087  0.00  0.00    +0.000 OA
ATOM     14  O   UNL     1      -5.810  54.459  52.284  0.00  0.00    +0.000 OA
ATOM     15  N   UNL     1      -8.116  55.308  51.931  0.00  0.00    +0.000 N 
ATOM     16  C   UNL     1      -7.603  53.296  53.709  0.00  0.00    +0.000 A 
ATOM     17  C   UNL     1      -9.258  54.702  51.778  0.00  0.00    +0.000 C 
ATOM     18  C   UNL     1      -8.873  52.866  53.359  0.00  0.00    +0.000 A 
ATOM     19  C   UNL     1      -6.786  52.580  54.586  0.00  0.00    +0.000 A 
ATOM     20  N   UNL     1      -9.678  53.596  52.487  0.00  0.00    +0.000 N 
ATOM     21  C   UNL     1      -9.366  51.712  53.979  0.00  0.00    +0.000 A 
ATOM     22  C   UNL     1      -7.275  51.411  55.162  0.00  0.00    +0.000 A 
ATOM     23  C   UNL     1      -8.569  50.984  54.868  0.00  0.00    +0.000 A 
ATOM     24  H   UNL     1      -7.914  56.098  51.378  0.00  0.00    +0.000 HD
ATOM     25  H   UNL     1     -10.609  53.302  52.368  0.00  0.00    +0.000 HD
ENDBRANCH   1  17
BRANCH   3  26
ATOM     26  O   UNL     1     -11.948  55.631  52.370  0.00  0.00    +0.000 OA
ATOM     27  H   UNL     1     -12.281  54.826  52.716  0.00  0.00    +0.000 HD
ENDBRANCH   3  26
BRANCH   5  28
ATOM     28  N   UNL     1     -10.374  55.628  46.967  0.00  0.00    +0.000 N 
ATOM     29  H   UNL     1     -10.139  56.436  46.456  0.00  0.00    +0.000 HD
BRANCH  28  30
ATOM     30  C   UNL     1     -10.395  54.275  46.374  0.00  0.00    +0.000 C 
ATOM     31  C   UNL     1     -11.564  54.053  45.411  0.00  0.00    +0.000 C 
ATOM     32  C   UNL     1      -9.075  54.061  45.629  0.00  0.00    +0.000 C 
ENDBRANCH  28  30
ENDBRANCH   5  28
TORSDOF 4
ENDMDL
MODEL 4
REMARK VINA RESULT:      -8.3      3.847      5.458
REMARK  Name = 
REMARK  6 active torsions:
REMARK  status: ('A' for Active; 'I' for Inactive)
REMARK    1  A    between atoms: C_6  and  C_10
REMARK    2  A    between atoms: C_14  and  O_18
REMARK    3  A    between atoms: N_17  and  N_20
REMARK    4  A    between atoms: N_20  and  C_23
REMARK    5  A    between atoms: C_23  and  C_26
REMARK    6  A    between atoms: C_23  and  C_27
REMARK                            x       y       z     vdW  Elec       q    Type
REMARK                         _______ _______ _______ _____ _____    ______ ____
ROOT
ATOM      1  C   UNL     1     -10.676  55.630  48.072  0.00  0.00    +0.000 A 
ATOM      2  C   UNL     1      -9.205  55.799  48.287  0.00  0.00    +0.000 A 
ATOM      3  C   UNL     1     -11.126  54.911  47.026  0.00  0.00    +0.000 A 
ATOM      4  O   UNL     1      -8.820  56.536  49.202  0.00  0.00    +0.000 OA
ATOM      5  N   UNL     1      -8.343  55.065  47.470  0.00  0.00    +0.000 N 
ATOM      6  C   UNL     1     -10.189  54.267  46.095  0.00  0.00    +0.000 A 
ATOM      7  C   UNL     1      -8.808  54.334  46.342  0.00  0.00    +0.000 A 
ATOM      8  C   UNL     1     -10.655  53.554  44.976  0.00  0.00    +0.000 A 
ATOM      9  C   UNL     1      -7.921  53.683  45.469  0.00  0.00    +0.000 A 
ATOM     10  C   UNL     1      -9.765  52.911  44.117  0.00  0.00    +0.000 A 
ATOM     11  C   UNL     1      -8.400  52.975  44.365  0.00  0.00    +0.000 A 
ENDROOT
BRANCH   1  17
ATOM     12  S   UNL     1     -12.968  55.870  51.251  0.00  0.00    +0.000 S 
ATOM     13  O   UNL     1     -12.188  56.067  52.456  0.00  0.00    +0.000 OA
ATOM     14  O   UNL     1     -14.100  54.962  51.254  0.00  0.00    +0.000 OA
ATOM     15  N   UNL     1     -11.955  55.401  50.084  0.00  0.00    +0.000 N 
ATOM     16  C   UNL     1     -13.612  57.446  50.824  0.00  0.00    +0.000 A 
ATOM     17  C   UNL     1     -11.644  56.189  49.096  0.00  0.00    +0.000 C 
ATOM     18  C   UNL     1     -13.102  58.069  49.696  0.00  0.00    +0.000 A 
ATOM     19  C   UNL     1     -14.607  58.027  51.613  0.00  0.00    +0.000 A 
ATOM     20  N   UNL     1     -12.105  57.477  48.923  0.00  0.00    +0.000 N 
ATOM     21  C   UNL     1     -13.558  59.358  49.398  0.00  0.00    +0.000 A 
ATOM     22  C   UNL     1     -15.080  59.292  51.280  0.00  0.00    +0.000 A 
ATOM     23  C   UNL     1     -14.547  59.963  50.180  0.00  0.00    +0.000 A 
ATOM     24  H   UNL     1     -11.564  54.498  50.121  0.00  0.00    +0.000 HD
ATOM     25  H   UNL     1     -11.703  58.016  48.204  0.00  0.00    +0.000 HD
ENDBRANCH   1  17
BRANCH   3  26
ATOM     26  O   UNL     1     -12.461  54.673  46.755  0.00  0.00    +0.000 OA
ATOM     27  H   UNL     1     -13.123  55.188  47.171  0.00  0.00    +0.000 HD
ENDBRANCH   3  26
BRANCH   5  28
ATOM     28  N   UNL     1      -6.934  55.123  47.707  0.00  0.00    +0.000 N 
ATOM     29  H   UNL     1      -6.323  55.686  47.178  0.00  0.00    +0.000 HD
BRANCH  28  30
ATOM     30  C   UNL     1      -6.479  54.262  48.817  0.00  0.00    +0.000 C 
ATOM     31  C   UNL     1      -5.751  53.000  48.348  0.00  0.00    +0.000 C 
ATOM     32  C   UNL     1      -5.545  55.085  49.708  0.00  0.00    +0.000 C 
ENDBRANCH  28  30
ENDBRANCH   5  28
TORSDOF 4
ENDMDL
MODEL 5
REMARK VINA RESULT:      -8.1      2.611      7.714
REMARK  Name = 
REMARK  6 active torsions:
REMARK  status: ('A' for Active; 'I' for Inactive)
REMARK    1  A    between atoms: C_6  and  C_10
REMARK    2  A    between atoms: C_14  and  O_18
REMARK    3  A    between atoms: N_17  and  N_20
REMARK    4  A    between atoms: N_20  and  C_23
REMARK    5  A    between atoms: C_23  and  C_26
REMARK    6  A    between atoms: C_23  and  C_27
REMARK                            x       y       z     vdW  Elec       q    Type
REMARK                         _______ _______ _______ _____ _____    ______ ____
ROOT
ATOM      1  C   UNL     1     -10.443  54.944  50.936  0.00  0.00    +0.000 A 
ATOM      2  C   UNL     1     -11.633  55.708  51.423  0.00  0.00    +0.000 A 
ATOM      3  C   UNL     1     -10.248  54.772  49.615  0.00  0.00    +0.000 A 
ATOM      4  O   UNL     1     -11.838  55.775  52.641  0.00  0.00    +0.000 OA
ATOM      5  N   UNL     1     -12.423  56.353  50.470  0.00  0.00    +0.000 N 
ATOM      6  C   UNL     1     -11.180  55.344  48.634  0.00  0.00    +0.000 A 
ATOM      7  C   UNL     1     -12.245  56.147  49.073  0.00  0.00    +0.000 A 
ATOM      8  C   UNL     1     -11.004  55.127  47.256  0.00  0.00    +0.000 A 
ATOM      9  C   UNL     1     -13.109  56.722  48.128  0.00  0.00    +0.000 A 
ATOM     10  C   UNL     1     -11.867  55.704  46.326  0.00  0.00    +0.000 A 
ATOM     11  C   UNL     1     -12.918  56.501  46.762  0.00  0.00    +0.000 A 
ENDROOT
BRANCH   1  17
ATOM     12  S   UNL     1      -7.121  54.725  53.018  0.00  0.00    +0.000 S 
ATOM     13  O   UNL     1      -7.073  55.741  54.051  0.00  0.00    +0.000 OA
ATOM     14  O   UNL     1      -5.936  54.416  52.240  0.00  0.00    +0.000 OA
ATOM     15  N   UNL     1      -8.301  55.128  51.992  0.00  0.00    +0.000 N 
ATOM     16  C   UNL     1      -7.575  53.233  53.824  0.00  0.00    +0.000 A 
ATOM     17  C   UNL     1      -9.415  54.457  51.938  0.00  0.00    +0.000 C 
ATOM     18  C   UNL     1      -8.839  52.722  53.574  0.00  0.00    +0.000 A 
ATOM     19  C   UNL     1      -6.669  52.603  54.681  0.00  0.00    +0.000 A 
ATOM     20  N   UNL     1      -9.732  53.366  52.721  0.00  0.00    +0.000 N 
ATOM     21  C   UNL     1      -9.231  51.575  54.274  0.00  0.00    +0.000 A 
ATOM     22  C   UNL     1      -7.059  51.440  55.338  0.00  0.00    +0.000 A 
ATOM     23  C   UNL     1      -8.344  50.934  55.145  0.00  0.00    +0.000 A 
ATOM     24  H   UNL     1      -8.175  55.899  51.393  0.00  0.00    +0.000 HD
ATOM     25  H   UNL     1     -10.652  53.020  52.673  0.00  0.00    +0.000 HD
ENDBRANCH   1  17
BRANCH   3  26
ATOM     26  O   UNL     1      -9.168  54.107  49.063  0.00  0.00    +0.000 OA
ATOM     27  H   UNL     1      -9.074  53.182  49.184  0.00  0.00    +0.000 HD
ENDBRANCH   3  26
BRANCH   5  28
ATOM     28  N   UNL     1     -13.513  57.174  50.901  0.00  0.00    +0.000 N 
ATOM     29  H   UNL     1     -13.511  58.155  50.817  0.00  0.00    +0.000 HD
BRANCH  28  30
ATOM     30  C   UNL     1     -14.639  56.415  51.481  0.00  0.00    +0.000 C 
ATOM     31  C   UNL     1     -15.233  57.071  52.730  0.00  0.00    +0.000 C 
ATOM     32  C   UNL     1     -15.725  56.281  50.411  0.00  0.00    +0.000 C 
ENDBRANCH  28  30
ENDBRANCH   5  28
TORSDOF 4
ENDMDL
MODEL 6
REMARK VINA RESULT:      -8.0      3.105      7.273
REMARK  Name = 
REMARK  6 active torsions:
REMARK  status: ('A' for Active; 'I' for Inactive)
REMARK    1  A    between atoms: C_6  and  C_10
REMARK    2  A    between atoms: C_14  and  O_18
REMARK    3  A    between atoms: N_17  and  N_20
REMARK    4  A    between atoms: N_20  and  C_23
REMARK    5  A    between atoms: C_23  and  C_26
REMARK    6  A    between atoms: C_23  and  C_27
REMARK                            x       y       z     vdW  Elec       q    Type
REMARK                         _______ _______ _______ _____ _____    ______ ____
ROOT
ATOM      1  C   UNL     1     -10.376  54.997  50.508  0.00  0.00    +0.000 A 
ATOM      2  C   UNL     1      -9.900  55.076  49.092  0.00  0.00    +0.000 A 
ATOM      3  C   UNL     1     -11.596  55.464  50.836  0.00  0.00    +0.000 A 
ATOM      4  O   UNL     1      -8.744  54.724  48.834  0.00  0.00    +0.000 OA
ATOM      5  N   UNL     1     -10.814  55.498  48.125  0.00  0.00    +0.000 N 
ATOM      6  C   UNL     1     -12.484  56.037  49.814  0.00  0.00    +0.000 A 
ATOM      7  C   UNL     1     -12.091  56.025  48.467  0.00  0.00    +0.000 A 
ATOM      8  C   UNL     1     -13.740  56.566  50.161  0.00  0.00    +0.000 A 
ATOM      9  C   UNL     1     -12.960  56.539  47.491  0.00  0.00    +0.000 A 
ATOM     10  C   UNL     1     -14.596  57.072  49.184  0.00  0.00    +0.000 A 
ATOM     11  C   UNL     1     -14.206  57.057  47.851  0.00  0.00    +0.000 A 
ENDROOT
BRANCH   1  17
ATOM     12  S   UNL     1      -9.124  52.288  53.059  0.00  0.00    +0.000 S 
ATOM     13  O   UNL     1      -8.556  51.140  52.380  0.00  0.00    +0.000 OA
ATOM     14  O   UNL     1      -9.978  52.104  54.218  0.00  0.00    +0.000 OA
ATOM     15  N   UNL     1      -9.945  53.146  51.965  0.00  0.00    +0.000 N 
ATOM     16  C   UNL     1      -7.763  53.251  53.608  0.00  0.00    +0.000 A 
ATOM     17  C   UNL     1      -9.515  54.299  51.541  0.00  0.00    +0.000 C 
ATOM     18  C   UNL     1      -7.535  54.465  52.981  0.00  0.00    +0.000 A 
ATOM     19  C   UNL     1      -6.956  52.783  54.648  0.00  0.00    +0.000 A 
ATOM     20  N   UNL     1      -8.347  54.914  51.941  0.00  0.00    +0.000 N 
ATOM     21  C   UNL     1      -6.406  55.198  53.364  0.00  0.00    +0.000 A 
ATOM     22  C   UNL     1      -5.861  53.544  55.046  0.00  0.00    +0.000 A 
ATOM     23  C   UNL     1      -5.578  54.744  54.396  0.00  0.00    +0.000 A 
ATOM     24  H   UNL     1     -10.792  52.789  51.610  0.00  0.00    +0.000 HD
ATOM     25  H   UNL     1      -8.068  55.725  51.459  0.00  0.00    +0.000 HD
ENDBRANCH   1  17
BRANCH   3  26
ATOM     26  O   UNL     1     -12.140  55.413  52.107  0.00  0.00    +0.000 OA
ATOM     27  H   UNL     1     -13.018  55.112  52.229  0.00  0.00    +0.000 HD
ENDBRANCH   3  26
BRANCH   5  28
ATOM     28  N   UNL     1     -10.429  55.494  46.747  0.00  0.00    +0.000 N 
ATOM     29  H   UNL     1     -10.197  56.313  46.252  0.00  0.00    +0.000 HD
BRANCH  28  30
ATOM     30  C   UNL     1     -10.411  54.149  46.135  0.00  0.00    +0.000 C 
ATOM     31  C   UNL     1     -11.604  53.886  45.213  0.00  0.00    +0.000 C 
ATOM     32  C   UNL     1      -9.111  54.005  45.339  0.00  0.00    +0.000 C 
ENDBRANCH  28  30
ENDBRANCH   5  28
TORSDOF 4
ENDMDL
MODEL 7
REMARK VINA RESULT:      -7.9      3.543      5.241
REMARK  Name = 
REMARK  6 active torsions:
REMARK  status: ('A' for Active; 'I' for Inactive)
REMARK    1  A    between atoms: C_6  and  C_10
REMARK    2  A    between atoms: C_14  and  O_18
REMARK    3  A    between atoms: N_17  and  N_20
REMARK    4  A    between atoms: N_20  and  C_23
REMARK    5  A    between atoms: C_23  and  C_26
REMARK    6  A    between atoms: C_23  and  C_27
REMARK                            x       y       z     vdW  Elec       q    Type
REMARK                         _______ _______ _______ _____ _____    ______ ____
ROOT
ATOM      1  C   UNL     1     -11.534  56.080  48.690  0.00  0.00    +0.000 A 
ATOM      2  C   UNL     1     -10.372  55.509  49.440  0.00  0.00    +0.000 A 
ATOM      3  C   UNL     1     -11.791  55.673  47.433  0.00  0.00    +0.000 A 
ATOM      4  O   UNL     1     -10.105  55.964  50.557  0.00  0.00    +0.000 OA
ATOM      5  N   UNL     1      -9.683  54.447  48.852  0.00  0.00    +0.000 N 
ATOM      6  C   UNL     1     -10.956  54.651  46.786  0.00  0.00    +0.000 A 
ATOM      7  C   UNL     1      -9.925  54.035  47.512  0.00  0.00    +0.000 A 
ATOM      8  C   UNL     1     -11.194  54.257  45.457  0.00  0.00    +0.000 A 
ATOM      9  C   UNL     1      -9.156  53.033  46.899  0.00  0.00    +0.000 A 
ATOM     10  C   UNL     1     -10.425  53.260  44.859  0.00  0.00    +0.000 A 
ATOM     11  C   UNL     1      -9.408  52.648  45.581  0.00  0.00    +0.000 A 
ENDROOT
BRANCH   1  17
ATOM     12  S   UNL     1     -13.585  59.334  49.483  0.00  0.00    +0.000 S 
ATOM     13  O   UNL     1     -14.740  59.459  48.616  0.00  0.00    +0.000 OA
ATOM     14  O   UNL     1     -12.778  60.498  49.799  0.00  0.00    +0.000 OA
ATOM     15  N   UNL     1     -12.614  58.213  48.844  0.00  0.00    +0.000 N 
ATOM     16  C   UNL     1     -14.190  58.732  51.016  0.00  0.00    +0.000 A 
ATOM     17  C   UNL     1     -12.469  57.043  49.396  0.00  0.00    +0.000 C 
ATOM     18  C   UNL     1     -13.871  57.431  51.372  0.00  0.00    +0.000 A 
ATOM     19  C   UNL     1     -14.962  59.561  51.832  0.00  0.00    +0.000 A 
ATOM     20  N   UNL     1     -13.103  56.614  50.543  0.00  0.00    +0.000 N 
ATOM     21  C   UNL     1     -14.416  56.923  52.557  0.00  0.00    +0.000 A 
ATOM     22  C   UNL     1     -15.462  59.055  53.028  0.00  0.00    +0.000 A 
ATOM     23  C   UNL     1     -15.200  57.733  53.384  0.00  0.00    +0.000 A 
ATOM     24  H   UNL     1     -12.119  58.419  48.017  0.00  0.00    +0.000 HD
ATOM     25  H   UNL     1     -13.008  55.668  50.793  0.00  0.00    +0.000 HD
ENDBRANCH   1  17
BRANCH   3  26
ATOM     26  O   UNL     1     -12.854  56.118  46.667  0.00  0.00    +0.000 OA
ATOM     27  H   UNL     1     -12.730  56.302  45.756  0.00  0.00    +0.000 HD
ENDBRANCH   3  26
BRANCH   5  28
ATOM     28  N   UNL     1      -8.628  53.808  49.578  0.00  0.00    +0.000 N 
ATOM     29  H   UNL     1      -7.676  54.008  49.429  0.00  0.00    +0.000 HD
BRANCH  28  30
ATOM     30  C   UNL     1      -9.099  52.822  50.572  0.00  0.00    +0.000 C 
ATOM     31  C   UNL     1      -8.860  51.371  50.148  0.00  0.00    +0.000 C 
ATOM     32  C   UNL     1      -8.374  53.092  51.892  0.00  0.00    +0.000 C 
ENDBRANCH  28  30
ENDBRANCH   5  28
TORSDOF 4
ENDMDL
MODEL 8
REMARK VINA RESULT:      -7.9      1.582      2.314
REMARK  Name = 
REMARK  6 active torsions:
REMARK  status: ('A' for Active; 'I' for Inactive)
REMARK    1  A    between atoms: C_6  and  C_10
REMARK    2  A    between atoms: C_14  and  O_18
REMARK    3  A    between atoms: N_17  and  N_20
REMARK    4  A    between atoms: N_20  and  C_23
REMARK    5  A    between atoms: C_23  and  C_26
REMARK    6  A    between atoms: C_23  and  C_27
REMARK                            x       y       z     vdW  Elec       q    Type
REMARK                         _______ _______ _______ _____ _____    ______ ____
ROOT
ATOM      1  C   UNL     1     -10.123  54.483  52.077  0.00  0.00    +0.000 A 
ATOM      2  C   UNL     1      -8.720  54.992  51.970  0.00  0.00    +0.000 A 
ATOM      3  C   UNL     1     -10.392  53.407  52.840  0.00  0.00    +0.000 A 
ATOM      4  O   UNL     1      -8.485  55.924  51.193  0.00  0.00    +0.000 OA
ATOM      5  N   UNL     1      -7.757  54.415  52.800  0.00  0.00    +0.000 N 
ATOM      6  C   UNL     1      -9.327  52.730  53.593  0.00  0.00    +0.000 A 
ATOM      7  C   UNL     1      -8.026  53.257  53.581  0.00  0.00    +0.000 A 
ATOM      8  C   UNL     1      -9.598  51.579  54.355  0.00  0.00    +0.000 A 
ATOM      9  C   UNL     1      -7.022  52.627  54.333  0.00  0.00    +0.000 A 
ATOM     10  C   UNL     1      -8.593  50.963  55.099  0.00  0.00    +0.000 A 
ATOM     11  C   UNL     1      -7.307  51.487  55.089  0.00  0.00    +0.000 A 
ENDROOT
BRANCH   1  17
ATOM     12  S   UNL     1     -13.460  56.493  51.588  0.00  0.00    +0.000 S 
ATOM     13  O   UNL     1     -13.330  57.861  52.050  0.00  0.00    +0.000 OA
ATOM     14  O   UNL     1     -14.669  55.739  51.863  0.00  0.00    +0.000 OA
ATOM     15  N   UNL     1     -12.207  55.658  52.172  0.00  0.00    +0.000 N 
ATOM     16  C   UNL     1     -13.315  56.555  49.839  0.00  0.00    +0.000 A 
ATOM     17  C   UNL     1     -11.242  55.249  51.400  0.00  0.00    +0.000 C 
ATOM     18  C   UNL     1     -12.170  56.026  49.266  0.00  0.00    +0.000 A 
ATOM     19  C   UNL     1     -14.340  57.121  49.077  0.00  0.00    +0.000 A 
ATOM     20  N   UNL     1     -11.155  55.470  50.042  0.00  0.00    +0.000 N 
ATOM     21  C   UNL     1     -12.017  56.144  47.880  0.00  0.00    +0.000 A 
ATOM     22  C   UNL     1     -14.192  57.193  47.695  0.00  0.00    +0.000 A 
ATOM     23  C   UNL     1     -13.026  56.716  47.098  0.00  0.00    +0.000 A 
ATOM     24  H   UNL     1     -12.173  55.454  53.135  0.00  0.00    +0.000 HD
ATOM     25  H   UNL     1     -10.318  55.217  49.590  0.00  0.00    +0.000 HD
ENDBRANCH   1  17
BRANCH   3  26
ATOM     26  O   UNL     1     -11.656  52.875  53.027  0.00  0.00    +0.000 OA
ATOM     27  H   UNL     1     -12.088  52.434  52.323  0.00  0.00    +0.000 HD
ENDBRANCH   3  26
BRANCH   5  28
ATOM     28  N   UNL     1      -6.426  54.939  52.799  0.00  0.00    +0.000 N 
ATOM     29  H   UNL     1      -6.168  55.751  53.291  0.00  0.00    +0.000 HD
BRANCH  28  30
ATOM     30  C   UNL     1      -5.474  54.149  51.991  0.00  0.00    +0.000 C 
ATOM     31  C   UNL     1      -5.384  54.611  50.535  0.00  0.00    +0.000 C 
ATOM     32  C   UNL     1      -4.094  54.253  52.644  0.00  0.00    +0.000 C 
ENDBRANCH  28  30
ENDBRANCH   5  28
TORSDOF 4
ENDMDL
MODEL 9
REMARK VINA RESULT:      -7.8      1.232      3.297
REMARK  Name = 
REMARK  6 active torsions:
REMARK  status: ('A' for Active; 'I' for Inactive)
REMARK    1  A    between atoms: C_6  and  C_10
REMARK    2  A    between atoms: C_14  and  O_18
REMARK    3  A    between atoms: N_17  and  N_20
REMARK    4  A    between atoms: N_20  and  C_23
REMARK    5  A    between atoms: C_23  and  C_26
REMARK    6  A    between atoms: C_23  and  C_27
REMARK                            x       y       z     vdW  Elec       q    Type
REMARK                         _______ _______ _______ _____ _____    ______ ____
ROOT
ATOM      1  C   UNL     1      -9.327  54.539  51.979  0.00  0.00    +0.000 A 
ATOM      2  C   UNL     1      -9.400  53.711  53.222  0.00  0.00    +0.000 A 
ATOM      3  C   UNL     1      -8.133  54.803  51.414  0.00  0.00    +0.000 A 
ATOM      4  O   UNL     1     -10.498  53.559  53.770  0.00  0.00    +0.000 OA
ATOM      5  N   UNL     1      -8.223  53.107  53.667  0.00  0.00    +0.000 N 
ATOM      6  C   UNL     1      -6.891  54.269  51.991  0.00  0.00    +0.000 A 
ATOM      7  C   UNL     1      -6.954  53.408  53.098  0.00  0.00    +0.000 A 
ATOM      8  C   UNL     1      -5.640  54.580  51.430  0.00  0.00    +0.000 A 
ATOM      9  C   UNL     1      -5.767  52.872  53.621  0.00  0.00    +0.000 A 
ATOM     10  C   UNL     1      -4.468  54.040  51.956  0.00  0.00    +0.000 A 
ATOM     11  C   UNL     1      -4.532  53.186  53.049  0.00  0.00    +0.000 A 
ENDROOT
BRANCH   1  17
ATOM     12  S   UNL     1     -12.015  55.200  49.193  0.00  0.00    +0.000 S 
ATOM     13  O   UNL     1     -12.709  53.982  48.825  0.00  0.00    +0.000 OA
ATOM     14  O   UNL     1     -11.611  56.150  48.173  0.00  0.00    +0.000 OA
ATOM     15  N   UNL     1     -10.700  54.778  50.031  0.00  0.00    +0.000 N 
ATOM     16  C   UNL     1     -13.097  56.071  50.267  0.00  0.00    +0.000 A 
ATOM     17  C   UNL     1     -10.612  54.990  51.312  0.00  0.00    +0.000 C 
ATOM     18  C   UNL     1     -12.750  56.157  51.605  0.00  0.00    +0.000 A 
ATOM     19  C   UNL     1     -14.261  56.652  49.757  0.00  0.00    +0.000 A 
ATOM     20  N   UNL     1     -11.587  55.566  52.098  0.00  0.00    +0.000 N 
ATOM     21  C   UNL     1     -13.649  56.783  52.476  0.00  0.00    +0.000 A 
ATOM     22  C   UNL     1     -15.124  57.308  50.629  0.00  0.00    +0.000 A 
ATOM     23  C   UNL     1     -14.825  57.363  51.989  0.00  0.00    +0.000 A 
ATOM     24  H   UNL     1      -9.947  54.351  49.561  0.00  0.00    +0.000 HD
ATOM     25  H   UNL     1     -11.454  55.561  53.072  0.00  0.00    +0.000 HD
ENDBRANCH   1  17
BRANCH   3  26
ATOM     26  O   UNL     1      -7.960  55.533  50.251  0.00  0.00    +0.000 OA
ATOM     27  H   UNL     1      -8.416  56.343  50.135  0.00  0.00    +0.000 HD
ENDBRANCH   3  26
BRANCH   5  28
ATOM     28  N   UNL     1      -8.269  52.229  54.796  0.00  0.00    +0.000 N 
ATOM     29  H   UNL     1      -7.815  52.424  55.647  0.00  0.00    +0.000 HD
BRANCH  28  30
ATOM     30  C   UNL     1      -9.060  51.002  54.567  0.00  0.00    +0.000 C 
ATOM     31  C   UNL     1      -8.629  50.226  53.320  0.00  0.00    +0.000 C 
ATOM     32  C   UNL     1      -8.916  50.105  55.798  0.00  0.00    +0.000 C 
ENDBRANCH  28  30
ENDBRANCH   5  28
TORSDOF 4
ENDMDL
