MODEL 1
REMARK VINA RESULT:      -9.7      0.000      0.000
REMARK  Name = 
REMARK  6 active torsions:
REMARK  status: ('A' for Active; 'I' for Inactive)
REMARK    1  A    between atoms: C_6  and  C_10
REMARK    2  A    between atoms: C_14  and  O_18
REMARK    3  A    between atoms: N_17  and  N_20
REMARK    4  A    between atoms: N_20  and  C_23
REMARK    5  A    between atoms: C_23  and  C_26
REMARK    6  A    between atoms: C_28  and  C_31
REMARK                            x       y       z     vdW  Elec       q    Type
REMARK                         _______ _______ _______ _____ _____    ______ ____
ROOT
ATOM      1  C   UNL     1      -9.064  54.693  50.115  0.00  0.00    +0.000 A 
ATOM      2  C   UNL     1     -10.442  55.209  50.371  0.00  0.00    +0.000 A 
ATOM      3  C   UNL     1      -8.719  54.244  48.897  0.00  0.00    +0.000 A 
ATOM      4  O   UNL     1     -10.673  55.629  51.510  0.00  0.00    +0.000 OA
ATOM      5  N   UNL     1     -11.359  55.201  49.313  0.00  0.00    +0.000 N 
ATOM      6  C   UNL     1      -9.679  54.288  47.785  0.00  0.00    +0.000 A 
ATOM      7  C   UNL     1     -10.982  54.769  48.004  0.00  0.00    +0.000 A 
ATOM      8  C   UNL     1      -9.302  53.879  46.494  0.00  0.00    +0.000 A 
ATOM      9  C   UNL     1     -11.877  54.830  46.920  0.00  0.00    +0.000 A 
ATOM     10  C   UNL     1     -10.195  53.957  45.427  0.00  0.00    +0.000 A 
ATOM     11  C   UNL     1     -11.483  54.433  45.640  0.00  0.00    +0.000 A 
ENDROOT
BRANCH   1  17
ATOM     12  S   UNL     1      -7.199  55.863  53.370  0.00  0.00    +0.000 S 
ATOM     13  O   UNL     1      -7.849  55.396  54.578  0.00  0.00    +0.000 OA
ATOM     14  O   UNL     1      -6.671  57.212  53.295  0.00  0.00    +0.000 OA
ATOM     15  N   UNL     1      -8.241  55.670  52.144  0.00  0.00    +0.000 N 
ATOM     16  C   UNL     1      -5.831  54.794  53.110  0.00  0.00    +0.000 A 
ATOM     17  C   UNL     1      -8.053  54.750  51.247  0.00  0.00    +0.000 C 
ATOM     18  C   UNL     1      -5.895  53.908  52.046  0.00  0.00    +0.000 A 
ATOM     19  C   UNL     1      -4.715  54.864  53.951  0.00  0.00    +0.000 A 
ATOM     20  N   UNL     1      -7.019  53.837  51.230  0.00  0.00    +0.000 N 
ATOM     21  C   UNL     1      -4.833  53.014  51.866  0.00  0.00    +0.000 A 
ATOM     22  C   UNL     1      -3.651  53.991  53.734  0.00  0.00    +0.000 A 
ATOM     23  C   UNL     1      -3.713  53.062  52.699  0.00  0.00    +0.000 A 
ATOM     24  H   UNL     1      -9.028  56.258  52.080  0.00  0.00    +0.000 HD
ATOM     25  H   UNL     1      -7.082  53.085  50.598  0.00  0.00    +0.000 HD
ENDBRANCH   1  17
BRANCH   3  26
ATOM     26  O   UNL     1      -7.465  53.759  48.571  0.00  0.00    +0.000 OA
ATOM     27  H   UNL     1      -7.198  53.717  47.675  0.00  0.00    +0.000 HD
ENDBRANCH   3  26
BRANCH   5  28
ATOM     28  N   UNL     1     -12.717  55.645  49.482  0.00  0.00    +0.000 N 
ATOM     29  H   UNL     1     -13.451  55.007  49.633  0.00  0.00    +0.000 HD
BRANCH  28  30
ATOM     30  C   UNL     1     -12.960  57.091  49.418  0.00  0.00    +0.000 C 
BRANCH  30  31
ATOM     31  C   UNL     1     -13.759  57.573  50.609  0.00  0.00    +0.000 A 
ATOM     32  C   UNL     1     -14.102  58.929  50.790  0.00  0.00    +0.000 A 
ATOM     33  C   UNL     1     -14.151  56.629  51.578  0.00  0.00    +0.000 A 
ATOM     34  C   UNL     1     -14.840  59.297  51.927  0.00  0.00    +0.000 A 
ATOM     35  C   UNL     1     -13.714  60.017  49.825  0.00  0.00    +0.000 C 
ATOM     36  C   UNL     1     -14.881  57.012  52.700  0.00  0.00    +0.000 A 
ATOM     37  C   UNL     1     -15.230  58.347  52.872  0.00  0.00    +0.000 A 
ENDBRANCH  30  31
ENDBRANCH  28  30
ENDBRANCH   5  28
TORSDOF 5
ENDMDL
MODEL 2
REMARK VINA RESULT:      -9.6      1.821      1.923
REMARK  Name = 
REMARK  6 active torsions:
REMARK  status: ('A' for Active; 'I' for Inactive)
REMARK    1  A    between atoms: C_6  and  C_10
REMARK    2  A    between atoms: C_14  and  O_18
REMARK    3  A    between atoms: N_17  and  N_20
REMARK    4  A    between atoms: N_20  and  C_23
REMARK    5  A    between atoms: C_23  and  C_26
REMARK    6  A    between atoms: C_28  and  C_31
REMARK                            x       y       z     vdW  Elec       q    Type
REMARK                         _______ _______ _______ _____ _____    ______ ____
ROOT
ATOM      1  C   UNL     1      -9.642  54.096  50.190  0.00  0.00    +0.000 A 
ATOM      2  C   UNL     1     -10.938  54.817  50.365  0.00  0.00    +0.000 A 
ATOM      3  C   UNL     1      -9.253  53.679  48.975  0.00  0.00    +0.000 A 
ATOM      4  O   UNL     1     -11.212  55.193  51.510  0.00  0.00    +0.000 OA
ATOM      5  N   UNL     1     -11.733  55.034  49.234  0.00  0.00    +0.000 N 
ATOM      6  C   UNL     1     -10.076  53.958  47.790  0.00  0.00    +0.000 A 
ATOM      7  C   UNL     1     -11.301  54.634  47.931  0.00  0.00    +0.000 A 
ATOM      8  C   UNL     1      -9.642  53.578  46.507  0.00  0.00    +0.000 A 
ATOM      9  C   UNL     1     -12.061  54.916  46.782  0.00  0.00    +0.000 A 
ATOM     10  C   UNL     1     -10.399  53.876  45.376  0.00  0.00    +0.000 A 
ATOM     11  C   UNL     1     -11.610  54.546  45.513  0.00  0.00    +0.000 A 
ENDROOT
BRANCH   1  17
ATOM     12  S   UNL     1      -6.651  54.519  52.704  0.00  0.00    +0.000 S 
ATOM     13  O   UNL     1      -6.806  55.680  53.557  0.00  0.00    +0.000 OA
ATOM     14  O   UNL     1      -5.356  54.189  52.140  0.00  0.00    +0.000 OA
ATOM     15  N   UNL     1      -7.702  54.665  51.479  0.00  0.00    +0.000 N 
ATOM     16  C   UNL     1      -7.120  53.135  53.676  0.00  0.00    +0.000 A 
ATOM     17  C   UNL     1      -8.754  53.908  51.407  0.00  0.00    +0.000 C 
ATOM     18  C   UNL     1      -8.309  52.494  53.359  0.00  0.00    +0.000 A 
ATOM     19  C   UNL     1      -6.298  52.699  54.720  0.00  0.00    +0.000 A 
ATOM     20  N   UNL     1      -9.125  52.951  52.330  0.00  0.00    +0.000 N 
ATOM     21  C   UNL     1      -8.718  51.425  54.164  0.00  0.00    +0.000 A 
ATOM     22  C   UNL     1      -6.705  51.609  55.489  0.00  0.00    +0.000 A 
ATOM     23  C   UNL     1      -7.916  50.979  55.217  0.00  0.00    +0.000 A 
ATOM     24  H   UNL     1      -7.539  55.338  50.779  0.00  0.00    +0.000 HD
ATOM     25  H   UNL     1     -10.028  52.567  52.254  0.00  0.00    +0.000 HD
ENDBRANCH   1  17
BRANCH   3  26
ATOM     26  O   UNL     1      -8.066  53.013  48.721  0.00  0.00    +0.000 OA
ATOM     27  H   UNL     1      -7.720  52.417  49.355  0.00  0.00    +0.000 HD
ENDBRANCH   3  26
BRANCH   5  28
ATOM     28  N   UNL     1     -13.013  55.687  49.318  0.00  0.00    +0.000 N 
ATOM     29  H   UNL     1     -13.853  55.174  49.311  0.00  0.00    +0.000 HD
BRANCH  28  30
ATOM     30  C   UNL     1     -13.011  57.152  49.415  0.00  0.00    +0.000 C 
BRANCH  30  31
ATOM     31  C   UNL     1     -13.813  57.632  50.604  0.00  0.00    +0.000 A 
ATOM     32  C   UNL     1     -14.091  58.996  50.826  0.00  0.00    +0.000 A 
ATOM     33  C   UNL     1     -14.276  56.674  51.528  0.00  0.00    +0.000 A 
ATOM     34  C   UNL     1     -14.838  59.360  51.959  0.00  0.00    +0.000 A 
ATOM     35  C   UNL     1     -13.626  60.096  49.911  0.00  0.00    +0.000 C 
ATOM     36  C   UNL     1     -15.013  57.055  52.647  0.00  0.00    +0.000 A 
ATOM     37  C   UNL     1     -15.298  58.399  52.860  0.00  0.00    +0.000 A 
ENDBRANCH  30  31
ENDBRANCH  28  30
ENDBRANCH   5  28
TORSDOF 5
ENDMDL
MODEL 3
REMARK VINA RESULT:      -9.5      2.794      7.865
REMARK  Name = 
REMARK  6 active torsions:
REMARK  status: ('A' for Active; 'I' for Inactive)
REMARK    1  A    between atoms: C_6  and  C_10
REMARK    2  A    between atoms: C_14  and  O_18
REMARK    3  A    between atoms: N_17  and  N_20
REMARK    4  A    between atoms: N_20  and  C_23
REMARK    5  A    between atoms: C_23  and  C_26
REMARK    6  A    between atoms: C_28  and  C_31
REMARK                            x       y       z     vdW  Elec       q    Type
REMARK                         _______ _______ _______ _____ _____    ______ ____
ROOT
ATOM      1  C   UNL     1     -11.178  54.602  50.739  0.00  0.00    +0.000 A 
ATOM      2  C   UNL     1      -9.814  54.992  50.273  0.00  0.00    +0.000 A 
ATOM      3  C   UNL     1     -11.400  53.383  51.257  0.00  0.00    +0.000 A 
ATOM      4  O   UNL     1      -9.686  56.140  49.834  0.00  0.00    +0.000 OA
ATOM      5  N   UNL     1      -8.783  54.052  50.382  0.00  0.00    +0.000 N 
ATOM      6  C   UNL     1     -10.296  52.425  51.410  0.00  0.00    +0.000 A 
ATOM      7  C   UNL     1      -9.003  52.770  50.976  0.00  0.00    +0.000 A 
ATOM      8  C   UNL     1     -10.510  51.171  52.009  0.00  0.00    +0.000 A 
ATOM      9  C   UNL     1      -7.955  51.850  51.156  0.00  0.00    +0.000 A 
ATOM     10  C   UNL     1      -9.460  50.274  52.193  0.00  0.00    +0.000 A 
ATOM     11  C   UNL     1      -8.181  50.614  51.767  0.00  0.00    +0.000 A 
ENDROOT
BRANCH   1  17
ATOM     12  S   UNL     1     -13.698  57.253  49.301  0.00  0.00    +0.000 S 
ATOM     13  O   UNL     1     -14.854  56.637  48.681  0.00  0.00    +0.000 OA
ATOM     14  O   UNL     1     -13.059  58.401  48.686  0.00  0.00    +0.000 OA
ATOM     15  N   UNL     1     -12.572  56.103  49.493  0.00  0.00    +0.000 N 
ATOM     16  C   UNL     1     -14.224  57.786  50.889  0.00  0.00    +0.000 A 
ATOM     17  C   UNL     1     -12.284  55.640  50.671  0.00  0.00    +0.000 C 
ATOM     18  C   UNL     1     -13.736  57.106  51.994  0.00  0.00    +0.000 A 
ATOM     19  C   UNL     1     -15.092  58.875  51.011  0.00  0.00    +0.000 A 
ATOM     20  N   UNL     1     -12.887  56.013  51.855  0.00  0.00    +0.000 N 
ATOM     21  C   UNL     1     -14.194  57.489  53.260  0.00  0.00    +0.000 A 
ATOM     22  C   UNL     1     -15.509  59.266  52.283  0.00  0.00    +0.000 A 
ATOM     23  C   UNL     1     -15.068  58.569  53.404  0.00  0.00    +0.000 A 
ATOM     24  H   UNL     1     -12.099  55.752  48.704  0.00  0.00    +0.000 HD
ATOM     25  H   UNL     1     -12.705  55.468  52.654  0.00  0.00    +0.000 HD
ENDBRANCH   1  17
BRANCH   3  26
ATOM     26  O   UNL     1     -12.627  52.944  51.720  0.00  0.00    +0.000 OA
ATOM     27  H   UNL     1     -12.927  53.202  52.569  0.00  0.00    +0.000 HD
ENDBRANCH   3  26
BRANCH   5  28
ATOM     28  N   UNL     1      -7.448  54.330  49.923  0.00  0.00    +0.000 N 
ATOM     29  H   UNL     1      -7.046  53.831  49.176  0.00  0.00    +0.000 HD
BRANCH  28  30
ATOM     30  C   UNL     1      -6.711  55.393  50.618  0.00  0.00    +0.000 C 
BRANCH  30  31
ATOM     31  C   UNL     1      -6.445  55.032  52.063  0.00  0.00    +0.000 A 
ATOM     32  C   UNL     1      -5.337  54.254  52.456  0.00  0.00    +0.000 A 
ATOM     33  C   UNL     1      -7.357  55.475  53.041  0.00  0.00    +0.000 A 
ATOM     34  C   UNL     1      -5.164  53.957  53.818  0.00  0.00    +0.000 A 
ATOM     35  C   UNL     1      -4.318  53.716  51.488  0.00  0.00    +0.000 C 
ATOM     36  C   UNL     1      -7.171  55.169  54.387  0.00  0.00    +0.000 A 
ATOM     37  C   UNL     1      -6.071  54.413  54.776  0.00  0.00    +0.000 A 
ENDBRANCH  30  31
ENDBRANCH  28  30
ENDBRANCH   5  28
TORSDOF 5
ENDMDL
MODEL 4
REMARK VINA RESULT:      -9.5      2.870      8.656
REMARK  Name = 
REMARK  6 active torsions:
REMARK  status: ('A' for Active; 'I' for Inactive)
REMARK    1  A    between atoms: C_6  and  C_10
REMARK    2  A    between atoms: C_14  and  O_18
REMARK    3  A    between atoms: N_17  and  N_20
REMARK    4  A    between atoms: N_20  and  C_23
REMARK    5  A    between atoms: C_23  and  C_26
REMARK    6  A    between atoms: C_28  and  C_31
REMARK                            x       y       z     vdW  Elec       q    Type
REMARK                         _______ _______ _______ _____ _____    ______ ____
ROOT
ATOM      1  C   UNL     1     -10.111  54.555  52.130  0.00  0.00    +0.000 A 
ATOM      2  C   UNL     1      -8.756  55.137  51.897  0.00  0.00    +0.000 A 
ATOM      3  C   UNL     1     -10.261  53.456  52.887  0.00  0.00    +0.000 A 
ATOM      4  O   UNL     1      -8.705  56.164  51.212  0.00  0.00    +0.000 OA
ATOM      5  N   UNL     1      -7.654  54.501  52.479  0.00  0.00    +0.000 N 
ATOM      6  C   UNL     1      -9.098  52.829  53.531  0.00  0.00    +0.000 A 
ATOM      7  C   UNL     1      -7.812  53.359  53.324  0.00  0.00    +0.000 A 
ATOM      8  C   UNL     1      -9.258  51.716  54.376  0.00  0.00    +0.000 A 
ATOM      9  C   UNL     1      -6.716  52.761  53.972  0.00  0.00    +0.000 A 
ATOM     10  C   UNL     1      -8.164  51.142  55.021  0.00  0.00    +0.000 A 
ATOM     11  C   UNL     1      -6.893  51.665  54.819  0.00  0.00    +0.000 A 
ENDROOT
BRANCH   1  17
ATOM     12  S   UNL     1     -12.620  56.062  49.507  0.00  0.00    +0.000 S 
ATOM     13  O   UNL     1     -13.523  55.065  48.970  0.00  0.00    +0.000 OA
ATOM     14  O   UNL     1     -12.034  57.066  48.639  0.00  0.00    +0.000 OA
ATOM     15  N   UNL     1     -11.410  55.281  50.250  0.00  0.00    +0.000 N 
ATOM     16  C   UNL     1     -13.536  56.946  50.717  0.00  0.00    +0.000 A 
ATOM     17  C   UNL     1     -11.313  55.275  51.544  0.00  0.00    +0.000 C 
ATOM     18  C   UNL     1     -13.200  56.756  52.049  0.00  0.00    +0.000 A 
ATOM     19  C   UNL     1     -14.554  57.821  50.326  0.00  0.00    +0.000 A 
ATOM     20  N   UNL     1     -12.197  55.868  52.423  0.00  0.00    +0.000 N 
ATOM     21  C   UNL     1     -13.961  57.414  53.022  0.00  0.00    +0.000 A 
ATOM     22  C   UNL     1     -15.279  58.495  51.308  0.00  0.00    +0.000 A 
ATOM     23  C   UNL     1     -14.989  58.285  52.653  0.00  0.00    +0.000 A 
ATOM     24  H   UNL     1     -10.738  54.804  49.710  0.00  0.00    +0.000 HD
ATOM     25  H   UNL     1     -12.111  55.648  53.378  0.00  0.00    +0.000 HD
ENDBRANCH   1  17
BRANCH   3  26
ATOM     26  O   UNL     1     -11.478  52.857  53.162  0.00  0.00    +0.000 OA
ATOM     27  H   UNL     1     -12.175  53.362  53.532  0.00  0.00    +0.000 HD
ENDBRANCH   3  26
BRANCH   5  28
ATOM     28  N   UNL     1      -6.309  54.972  52.276  0.00  0.00    +0.000 N 
ATOM     29  H   UNL     1      -5.820  55.451  52.983  0.00  0.00    +0.000 HD
BRANCH  28  30
ATOM     30  C   UNL     1      -5.699  54.707  50.967  0.00  0.00    +0.000 C 
BRANCH  30  31
ATOM     31  C   UNL     1      -5.133  53.306  50.891  0.00  0.00    +0.000 A 
ATOM     32  C   UNL     1      -5.825  52.244  50.273  0.00  0.00    +0.000 A 
ATOM     33  C   UNL     1      -3.878  53.059  51.483  0.00  0.00    +0.000 A 
ATOM     34  C   UNL     1      -5.233  50.970  50.251  0.00  0.00    +0.000 A 
ATOM     35  C   UNL     1      -7.177  52.399  49.632  0.00  0.00    +0.000 C 
ATOM     36  C   UNL     1      -3.308  51.789  51.452  0.00  0.00    +0.000 A 
ATOM     37  C   UNL     1      -3.984  50.745  50.832  0.00  0.00    +0.000 A 
ENDBRANCH  30  31
ENDBRANCH  28  30
ENDBRANCH   5  28
TORSDOF 5
ENDMDL
MODEL 5
REMARK VINA RESULT:      -9.3      3.736      7.848
REMARK  Name = 
REMARK  6 active torsions:
REMARK  status: ('A' for Active; 'I' for Inactive)
REMARK    1  A    between atoms: C_6  and  C_10
REMARK    2  A    between atoms: C_14  and  O_18
REMARK    3  A    between atoms: N_17  and  N_20
REMARK    4  A    between atoms: N_20  and  C_23
REMARK    5  A    between atoms: C_23  and  C_26
REMARK    6  A    between atoms: C_28  and  C_31
REMARK                            x       y       z     vdW  Elec       q    Type
REMARK                         _______ _______ _______ _____ _____    ______ ____
ROOT
ATOM      1  C   UNL     1     -12.502  54.290  49.674  0.00  0.00    +0.000 A 
ATOM      2  C   UNL     1     -11.976  54.254  48.277  0.00  0.00    +0.000 A 
ATOM      3  C   UNL     1     -12.213  53.304  50.538  0.00  0.00    +0.000 A 
ATOM      4  O   UNL     1     -12.265  55.212  47.552  0.00  0.00    +0.000 OA
ATOM      5  N   UNL     1     -11.186  53.164  47.895  0.00  0.00    +0.000 N 
ATOM      6  C   UNL     1     -11.341  52.191  50.136  0.00  0.00    +0.000 A 
ATOM      7  C   UNL     1     -10.835  52.135  48.824  0.00  0.00    +0.000 A 
ATOM      8  C   UNL     1     -10.983  51.189  51.055  0.00  0.00    +0.000 A 
ATOM      9  C   UNL     1      -9.980  51.078  48.467  0.00  0.00    +0.000 A 
ATOM     10  C   UNL     1     -10.125  50.154  50.691  0.00  0.00    +0.000 A 
ATOM     11  C   UNL     1      -9.622  50.098  49.396  0.00  0.00    +0.000 A 
ENDROOT
BRANCH   1  17
ATOM     12  S   UNL     1     -15.413  56.461  51.177  0.00  0.00    +0.000 S 
ATOM     13  O   UNL     1     -15.340  56.560  52.621  0.00  0.00    +0.000 OA
ATOM     14  O   UNL     1     -16.691  56.273  50.517  0.00  0.00    +0.000 OA
ATOM     15  N   UNL     1     -14.434  55.255  50.716  0.00  0.00    +0.000 N 
ATOM     16  C   UNL     1     -14.766  57.970  50.553  0.00  0.00    +0.000 A 
ATOM     17  C   UNL     1     -13.315  55.498  50.105  0.00  0.00    +0.000 C 
ATOM     18  C   UNL     1     -13.534  57.932  49.919  0.00  0.00    +0.000 A 
ATOM     19  C   UNL     1     -15.495  59.155  50.687  0.00  0.00    +0.000 A 
ATOM     20  N   UNL     1     -12.811  56.748  49.810  0.00  0.00    +0.000 N 
ATOM     21  C   UNL     1     -12.985  59.139  49.468  0.00  0.00    +0.000 A 
ATOM     22  C   UNL     1     -14.949  60.342  50.200  0.00  0.00    +0.000 A 
ATOM     23  C   UNL     1     -13.693  60.335  49.601  0.00  0.00    +0.000 A 
ATOM     24  H   UNL     1     -14.693  54.324  50.903  0.00  0.00    +0.000 HD
ATOM     25  H   UNL     1     -11.878  56.806  49.502  0.00  0.00    +0.000 HD
ENDBRANCH   1  17
BRANCH   3  26
ATOM     26  O   UNL     1     -12.650  53.262  51.850  0.00  0.00    +0.000 OA
ATOM     27  H   UNL     1     -13.544  53.056  52.039  0.00  0.00    +0.000 HD
ENDBRANCH   3  26
BRANCH   5  28
ATOM     28  N   UNL     1     -10.669  53.031  46.559  0.00  0.00    +0.000 N 
ATOM     29  H   UNL     1     -10.950  52.294  45.970  0.00  0.00    +0.000 HD
BRANCH  28  30
ATOM     30  C   UNL     1      -9.703  54.042  46.112  0.00  0.00    +0.000 C 
BRANCH  30  31
ATOM     31  C   UNL     1      -8.381  53.907  46.835  0.00  0.00    +0.000 A 
ATOM     32  C   UNL     1      -7.996  54.779  47.874  0.00  0.00    +0.000 A 
ATOM     33  C   UNL     1      -7.501  52.883  46.433  0.00  0.00    +0.000 A 
ATOM     34  C   UNL     1      -6.748  54.590  48.491  0.00  0.00    +0.000 A 
ATOM     35  C   UNL     1      -8.854  55.914  48.363  0.00  0.00    +0.000 C 
ATOM     36  C   UNL     1      -6.267  52.712  47.056  0.00  0.00    +0.000 A 
ATOM     37  C   UNL     1      -5.892  53.564  48.088  0.00  0.00    +0.000 A 
ENDBRANCH  30  31
ENDBRANCH  28  30
ENDBRANCH   5  28
TORSDOF 5
ENDMDL
MODEL 6
REMARK VINA RESULT:      -9.2      1.906      2.271
REMARK  Name = 
REMARK  6 active torsions:
REMARK  status: ('A' for Active; 'I' for Inactive)
REMARK    1  A    between atoms: C_6  and  C_10
REMARK    2  A    between atoms: C_14  and  O_18
REMARK    3  A    between atoms: N_17  and  N_20
REMARK    4  A    between atoms: N_20  and  C_23
REMARK    5  A    between atoms: C_23  and  C_26
REMARK    6  A    between atoms: C_28  and  C_31
REMARK                            x       y       z     vdW  Elec       q    Type
REMARK                         _______ _______ _______ _____ _____    ______ ____
ROOT
ATOM      1  C   UNL     1      -9.737  53.725  49.815  0.00  0.00    +0.000 A 
ATOM      2  C   UNL     1     -10.589  54.948  49.891  0.00  0.00    +0.000 A 
ATOM      3  C   UNL     1      -9.671  53.008  48.681  0.00  0.00    +0.000 A 
ATOM      4  O   UNL     1     -10.574  55.568  50.960  0.00  0.00    +0.000 OA
ATOM      5  N   UNL     1     -11.320  55.317  48.756  0.00  0.00    +0.000 N 
ATOM      6  C   UNL     1     -10.408  53.436  47.483  0.00  0.00    +0.000 A 
ATOM      7  C   UNL     1     -11.218  54.585  47.533  0.00  0.00    +0.000 A 
ATOM      8  C   UNL     1     -10.293  52.725  46.276  0.00  0.00    +0.000 A 
ATOM      9  C   UNL     1     -11.892  54.994  46.368  0.00  0.00    +0.000 A 
ATOM     10  C   UNL     1     -10.956  53.150  45.126  0.00  0.00    +0.000 A 
ATOM     11  C   UNL     1     -11.756  54.286  45.173  0.00  0.00    +0.000 A 
ENDROOT
BRANCH   1  17
ATOM     12  S   UNL     1      -8.351  51.713  52.894  0.00  0.00    +0.000 S 
ATOM     13  O   UNL     1      -7.429  50.667  52.501  0.00  0.00    +0.000 OA
ATOM     14  O   UNL     1      -9.335  51.473  53.932  0.00  0.00    +0.000 OA
ATOM     15  N   UNL     1      -9.142  52.197  51.565  0.00  0.00    +0.000 N 
ATOM     16  C   UNL     1      -7.361  53.045  53.466  0.00  0.00    +0.000 A 
ATOM     17  C   UNL     1      -8.901  53.354  51.027  0.00  0.00    +0.000 C 
ATOM     18  C   UNL     1      -7.298  54.188  52.683  0.00  0.00    +0.000 A 
ATOM     19  C   UNL     1      -6.681  52.942  54.684  0.00  0.00    +0.000 A 
ATOM     20  N   UNL     1      -7.965  54.269  51.465  0.00  0.00    +0.000 N 
ATOM     21  C   UNL     1      -6.467  55.232  53.105  0.00  0.00    +0.000 A 
ATOM     22  C   UNL     1      -5.886  54.007  55.105  0.00  0.00    +0.000 A 
ATOM     23  C   UNL     1      -5.772  55.146  54.313  0.00  0.00    +0.000 A 
ATOM     24  H   UNL     1      -9.815  51.604  51.159  0.00  0.00    +0.000 HD
ATOM     25  H   UNL     1      -7.756  55.029  50.876  0.00  0.00    +0.000 HD
ENDBRANCH   1  17
BRANCH   3  26
ATOM     26  O   UNL     1      -8.902  51.869  48.521  0.00  0.00    +0.000 OA
ATOM     27  H   UNL     1      -8.162  51.722  49.075  0.00  0.00    +0.000 HD
ENDBRANCH   3  26
BRANCH   5  28
ATOM     28  N   UNL     1     -12.195  56.460  48.754  0.00  0.00    +0.000 N 
ATOM     29  H   UNL     1     -11.893  57.338  48.429  0.00  0.00    +0.000 HD
BRANCH  28  30
ATOM     30  C   UNL     1     -13.559  56.258  49.257  0.00  0.00    +0.000 C 
BRANCH  30  31
ATOM     31  C   UNL     1     -13.863  57.173  50.423  0.00  0.00    +0.000 A 
ATOM     32  C   UNL     1     -14.163  58.540  50.252  0.00  0.00    +0.000 A 
ATOM     33  C   UNL     1     -13.821  56.634  51.724  0.00  0.00    +0.000 A 
ATOM     34  C   UNL     1     -14.427  59.324  51.387  0.00  0.00    +0.000 A 
ATOM     35  C   UNL     1     -14.213  59.215  48.908  0.00  0.00    +0.000 C 
ATOM     36  C   UNL     1     -14.084  57.427  52.838  0.00  0.00    +0.000 A 
ATOM     37  C   UNL     1     -14.391  58.772  52.669  0.00  0.00    +0.000 A 
ENDBRANCH  30  31
ENDBRANCH  28  30
ENDBRANCH   5  28
TORSDOF 5
ENDMDL
MODEL 7
REMARK VINA RESULT:      -9.2      2.002      5.472
REMARK  Name = 
REMARK  6 active torsions:
REMARK  status: ('A' for Active; 'I' for Inactive)
REMARK    1  A    between atoms: C_6  and  C_10
REMARK    2  A    between atoms: C_14  and  O_18
REMARK    3  A    between atoms: N_17  and  N_20
REMARK    4  A    between atoms: N_20  and  C_23
REMARK    5  A    between atoms: C_23  and  C_26
REMARK    6  A    between atoms: C_28  and  C_31
REMARK                            x       y       z     vdW  Elec       q    Type
REMARK                         _______ _______ _______ _____ _____    ______ ____
ROOT
ATOM      1  C   UNL     1     -10.074  54.089  51.086  0.00  0.00    +0.000 A 
ATOM      2  C   UNL     1     -10.526  53.784  49.696  0.00  0.00    +0.000 A 
ATOM      3  C   UNL     1     -10.792  54.906  51.874  0.00  0.00    +0.000 A 
ATOM      4  O   UNL     1      -9.825  53.002  49.045  0.00  0.00    +0.000 OA
ATOM      5  N   UNL     1     -11.707  54.380  49.239  0.00  0.00    +0.000 N 
ATOM      6  C   UNL     1     -12.055  55.485  51.395  0.00  0.00    +0.000 A 
ATOM      7  C   UNL     1     -12.499  55.213  50.088  0.00  0.00    +0.000 A 
ATOM      8  C   UNL     1     -12.842  56.290  52.237  0.00  0.00    +0.000 A 
ATOM      9  C   UNL     1     -13.725  55.753  49.658  0.00  0.00    +0.000 A 
ATOM     10  C   UNL     1     -14.060  56.808  51.802  0.00  0.00    +0.000 A 
ATOM     11  C   UNL     1     -14.502  56.539  50.512  0.00  0.00    +0.000 A 
ENDROOT
BRANCH   1  17
ATOM     12  S   UNL     1      -7.739  51.669  53.120  0.00  0.00    +0.000 S 
ATOM     13  O   UNL     1      -7.688  50.339  52.548  0.00  0.00    +0.000 OA
ATOM     14  O   UNL     1      -7.813  51.848  54.557  0.00  0.00    +0.000 OA
ATOM     15  N   UNL     1      -9.000  52.442  52.459  0.00  0.00    +0.000 N 
ATOM     16  C   UNL     1      -6.264  52.474  52.609  0.00  0.00    +0.000 A 
ATOM     17  C   UNL     1      -8.823  53.401  51.603  0.00  0.00    +0.000 C 
ATOM     18  C   UNL     1      -6.374  53.495  51.677  0.00  0.00    +0.000 A 
ATOM     19  C   UNL     1      -5.033  52.094  53.151  0.00  0.00    +0.000 A 
ATOM     20  N   UNL     1      -7.605  53.849  51.133  0.00  0.00    +0.000 N 
ATOM     21  C   UNL     1      -5.199  54.104  51.223  0.00  0.00    +0.000 A 
ATOM     22  C   UNL     1      -3.876  52.737  52.713  0.00  0.00    +0.000 A 
ATOM     23  C   UNL     1      -3.958  53.733  51.745  0.00  0.00    +0.000 A 
ATOM     24  H   UNL     1      -9.915  52.179  52.711  0.00  0.00    +0.000 HD
ATOM     25  H   UNL     1      -7.607  54.460  50.361  0.00  0.00    +0.000 HD
ENDBRANCH   1  17
BRANCH   3  26
ATOM     26  O   UNL     1     -10.452  55.235  53.174  0.00  0.00    +0.000 OA
ATOM     27  H   UNL     1     -10.144  54.571  53.759  0.00  0.00    +0.000 HD
ENDBRANCH   3  26
BRANCH   5  28
ATOM     28  N   UNL     1     -12.195  54.171  47.901  0.00  0.00    +0.000 N 
ATOM     29  H   UNL     1     -12.848  53.464  47.697  0.00  0.00    +0.000 HD
BRANCH  28  30
ATOM     30  C   UNL     1     -11.676  55.059  46.854  0.00  0.00    +0.000 C 
BRANCH  30  31
ATOM     31  C   UNL     1     -10.790  54.314  45.881  0.00  0.00    +0.000 A 
ATOM     32  C   UNL     1      -9.387  54.450  45.880  0.00  0.00    +0.000 A 
ATOM     33  C   UNL     1     -11.402  53.474  44.929  0.00  0.00    +0.000 A 
ATOM     34  C   UNL     1      -8.636  53.728  44.938  0.00  0.00    +0.000 A 
ATOM     35  C   UNL     1      -8.641  55.337  46.840  0.00  0.00    +0.000 C 
ATOM     36  C   UNL     1     -10.640  52.767  44.002  0.00  0.00    +0.000 A 
ATOM     37  C   UNL     1      -9.256  52.891  44.009  0.00  0.00    +0.000 A 
ENDBRANCH  30  31
ENDBRANCH  28  30
ENDBRANCH   5  28
TORSDOF 5
ENDMDL
MODEL 8
REMARK VINA RESULT:      -9.2      2.949      7.230
REMARK  Name = 
REMARK  6 active torsions:
REMARK  status: ('A' for Active; 'I' for Inactive)
REMARK    1  A    between atoms: C_6  and  C_10
REMARK    2  A    between atoms: C_14  and  O_18
REMARK    3  A    between atoms: N_17  and  N_20
REMARK    4  A    between atoms: N_20  and  C_23
REMARK    5  A    between atoms: C_23  and  C_26
REMARK    6  A    between atoms: C_28  and  C_31
REMARK                            x       y       z     vdW  Elec       q    Type
REMARK                         _______ _______ _______ _____ _____    ______ ____
ROOT
ATOM      1  C   UNL     1     -11.252  54.729  48.315  0.00  0.00    +0.000 A 
ATOM      2  C   UNL     1     -11.011  54.290  49.721  0.00  0.00    +0.000 A 
ATOM      3  C   UNL     1     -12.154  55.686  48.043  0.00  0.00    +0.000 A 
ATOM      4  O   UNL     1     -10.145  53.424  49.891  0.00  0.00    +0.000 OA
ATOM      5  N   UNL     1     -11.756  54.894  50.740  0.00  0.00    +0.000 N 
ATOM      6  C   UNL     1     -12.894  56.344  49.130  0.00  0.00    +0.000 A 
ATOM      7  C   UNL     1     -12.684  55.945  50.462  0.00  0.00    +0.000 A 
ATOM      8  C   UNL     1     -13.793  57.390  48.856  0.00  0.00    +0.000 A 
ATOM      9  C   UNL     1     -13.380  56.607  51.489  0.00  0.00    +0.000 A 
ATOM     10  C   UNL     1     -14.467  58.045  49.885  0.00  0.00    +0.000 A 
ATOM     11  C   UNL     1     -14.260  57.654  51.203  0.00  0.00    +0.000 A 
ENDROOT
BRANCH   1  17
ATOM     12  S   UNL     1      -8.187  53.964  45.977  0.00  0.00    +0.000 S 
ATOM     13  O   UNL     1      -7.231  53.066  46.594  0.00  0.00    +0.000 OA
ATOM     14  O   UNL     1      -7.730  55.107  45.210  0.00  0.00    +0.000 OA
ATOM     15  N   UNL     1      -9.172  54.510  47.142  0.00  0.00    +0.000 N 
ATOM     16  C   UNL     1      -9.129  52.983  44.867  0.00  0.00    +0.000 A 
ATOM     17  C   UNL     1     -10.406  54.113  47.214  0.00  0.00    +0.000 C 
ATOM     18  C   UNL     1     -10.452  52.726  45.195  0.00  0.00    +0.000 A 
ATOM     19  C   UNL     1      -8.550  52.503  43.688  0.00  0.00    +0.000 A 
ATOM     20  N   UNL     1     -11.009  53.195  46.380  0.00  0.00    +0.000 N 
ATOM     21  C   UNL     1     -11.194  51.899  44.343  0.00  0.00    +0.000 A 
ATOM     22  C   UNL     1      -9.316  51.710  42.834  0.00  0.00    +0.000 A 
ATOM     23  C   UNL     1     -10.631  51.402  43.166  0.00  0.00    +0.000 A 
ATOM     24  H   UNL     1      -8.829  55.153  47.804  0.00  0.00    +0.000 HD
ATOM     25  H   UNL     1     -11.892  52.848  46.641  0.00  0.00    +0.000 HD
ENDBRANCH   1  17
BRANCH   3  26
ATOM     26  O   UNL     1     -12.433  56.158  46.773  0.00  0.00    +0.000 OA
ATOM     27  H   UNL     1     -12.500  57.079  46.621  0.00  0.00    +0.000 HD
ENDBRANCH   3  26
BRANCH   5  28
ATOM     28  N   UNL     1     -11.615  54.505  52.119  0.00  0.00    +0.000 N 
ATOM     29  H   UNL     1     -12.258  53.896  52.549  0.00  0.00    +0.000 HD
BRANCH  28  30
ATOM     30  C   UNL     1     -10.470  55.055  52.854  0.00  0.00    +0.000 C 
BRANCH  30  31
ATOM     31  C   UNL     1      -9.553  53.961  53.355  0.00  0.00    +0.000 A 
ATOM     32  C   UNL     1      -8.181  54.177  53.595  0.00  0.00    +0.000 A 
ATOM     33  C   UNL     1     -10.095  52.678  53.563  0.00  0.00    +0.000 A 
ATOM     34  C   UNL     1      -7.395  53.107  54.053  0.00  0.00    +0.000 A 
ATOM     35  C   UNL     1      -7.502  55.504  53.384  0.00  0.00    +0.000 C 
ATOM     36  C   UNL     1      -9.300  51.628  54.016  0.00  0.00    +0.000 A 
ATOM     37  C   UNL     1      -7.950  51.844  54.265  0.00  0.00    +0.000 A 
ENDBRANCH  30  31
ENDBRANCH  28  30
ENDBRANCH   5  28
TORSDOF 5
ENDMDL
MODEL 9
REMARK VINA RESULT:      -9.0      3.094      7.418
REMARK  Name = 
REMARK  6 active torsions:
REMARK  status: ('A' for Active; 'I' for Inactive)
REMARK    1  A    between atoms: C_6  and  C_10
REMARK    2  A    between atoms: C_14  and  O_18
REMARK    3  A    between atoms: N_17  and  N_20
REMARK    4  A    between atoms: N_20  and  C_23
REMARK    5  A    between atoms: C_23  and  C_26
REMARK    6  A    between atoms: C_28  and  C_31
REMARK                            x       y       z     vdW  Elec       q    Type
REMARK                         _______ _______ _______ _____ _____    ______ ____
ROOT
ATOM      1  C   UNL     1     -12.047  55.035  49.012  0.00  0.00    +0.000 A 
ATOM      2  C   UNL     1     -11.439  54.615  50.309  0.00  0.00    +0.000 A 
ATOM      3  C   UNL     1     -13.025  55.955  48.982  0.00  0.00    +0.000 A 
ATOM      4  O   UNL     1     -10.526  53.784  50.250  0.00  0.00    +0.000 OA
ATOM      5  N   UNL     1     -11.922  55.198  51.486  0.00  0.00    +0.000 N 
ATOM      6  C   UNL     1     -13.487  56.593  50.223  0.00  0.00    +0.000 A 
ATOM      7  C   UNL     1     -12.930  56.212  51.457  0.00  0.00    +0.000 A 
ATOM      8  C   UNL     1     -14.466  57.602  50.191  0.00  0.00    +0.000 A 
ATOM      9  C   UNL     1     -13.365  56.855  52.629  0.00  0.00    +0.000 A 
ATOM     10  C   UNL     1     -14.879  58.239  51.359  0.00  0.00    +0.000 A 
ATOM     11  C   UNL     1     -14.328  57.866  52.579  0.00  0.00    +0.000 A 
ENDROOT
BRANCH   1  17
ATOM     12  S   UNL     1     -11.539  52.630  45.945  0.00  0.00    +0.000 S 
ATOM     13  O   UNL     1     -12.488  52.885  44.880  0.00  0.00    +0.000 OA
ATOM     14  O   UNL     1     -11.196  51.270  46.313  0.00  0.00    +0.000 OA
ATOM     15  N   UNL     1     -12.079  53.382  47.275  0.00  0.00    +0.000 N 
ATOM     16  C   UNL     1     -10.036  53.390  45.449  0.00  0.00    +0.000 A 
ATOM     17  C   UNL     1     -11.486  54.443  47.730  0.00  0.00    +0.000 C 
ATOM     18  C   UNL     1      -9.627  54.524  46.135  0.00  0.00    +0.000 A 
ATOM     19  C   UNL     1      -9.283  52.843  44.406  0.00  0.00    +0.000 A 
ATOM     20  N   UNL     1     -10.396  55.068  47.159  0.00  0.00    +0.000 N 
ATOM     21  C   UNL     1      -8.459  55.168  45.711  0.00  0.00    +0.000 A 
ATOM     22  C   UNL     1      -8.103  53.478  44.020  0.00  0.00    +0.000 A 
ATOM     23  C   UNL     1      -7.697  54.642  44.665  0.00  0.00    +0.000 A 
ATOM     24  H   UNL     1     -12.869  53.028  47.744  0.00  0.00    +0.000 HD
ATOM     25  H   UNL     1     -10.148  55.957  47.498  0.00  0.00    +0.000 HD
ENDBRANCH   1  17
BRANCH   3  26
ATOM     26  O   UNL     1     -13.636  56.407  47.827  0.00  0.00    +0.000 OA
ATOM     27  H   UNL     1     -13.964  55.794  47.200  0.00  0.00    +0.000 HD
ENDBRANCH   3  26
BRANCH   5  28
ATOM     28  N   UNL     1     -11.419  54.825  52.782  0.00  0.00    +0.000 N 
ATOM     29  H   UNL     1     -11.985  54.356  53.437  0.00  0.00    +0.000 HD
BRANCH  28  30
ATOM     30  C   UNL     1     -10.025  55.172  53.083  0.00  0.00    +0.000 C 
BRANCH  30  31
ATOM     31  C   UNL     1      -9.234  53.962  53.529  0.00  0.00    +0.000 A 
ATOM     32  C   UNL     1      -7.852  54.022  53.799  0.00  0.00    +0.000 A 
ATOM     33  C   UNL     1      -9.908  52.732  53.653  0.00  0.00    +0.000 A 
ATOM     34  C   UNL     1      -7.188  52.851  54.202  0.00  0.00    +0.000 A 
ATOM     35  C   UNL     1      -7.037  55.281  53.677  0.00  0.00    +0.000 C 
ATOM     36  C   UNL     1      -9.233  51.581  54.052  0.00  0.00    +0.000 A 
ATOM     37  C   UNL     1      -7.873  51.642  54.330  0.00  0.00    +0.000 A 
ENDBRANCH  30  31
ENDBRANCH  28  30
ENDBRANCH   5  28
TORSDOF 5
ENDMDL
