MODEL 1
REMARK VINA RESULT:      -8.5      0.000      0.000
REMARK  Name = 
REMARK  5 active torsions:
REMARK  status: ('A' for Active; 'I' for Inactive)
REMARK    1  A    between atoms: C_6  and  C_10
REMARK    2  A    between atoms: C_14  and  O_18
REMARK    3  A    between atoms: N_17  and  N_20
REMARK    4  A    between atoms: N_20  and  C_23
REMARK    5  A    between atoms: C_23  and  C_26
REMARK                            x       y       z     vdW  Elec       q    Type
REMARK                         _______ _______ _______ _____ _____    ______ ____
ROOT
ATOM      1  C   UNL     1     -10.125  54.562  52.210  0.00  0.00    +0.000 A 
ATOM      2  C   UNL     1      -8.758  55.127  52.013  0.00  0.00    +0.000 A 
ATOM      3  C   UNL     1     -10.302  53.457  52.956  0.00  0.00    +0.000 A 
ATOM      4  O   UNL     1      -8.657  56.130  51.298  0.00  0.00    +0.000 OA
ATOM      5  N   UNL     1      -7.685  54.512  52.665  0.00  0.00    +0.000 N 
ATOM      6  C   UNL     1      -9.160  52.812  53.619  0.00  0.00    +0.000 A 
ATOM      7  C   UNL     1      -7.866  53.342  53.463  0.00  0.00    +0.000 A 
ATOM      8  C   UNL     1      -9.350  51.674  54.423  0.00  0.00    +0.000 A 
ATOM      9  C   UNL     1      -6.789  52.711  54.106  0.00  0.00    +0.000 A 
ATOM     10  C   UNL     1      -8.275  51.069  55.069  0.00  0.00    +0.000 A 
ATOM     11  C   UNL     1      -6.995  51.585  54.909  0.00  0.00    +0.000 A 
ENDROOT
BRANCH   1  17
ATOM     12  S   UNL     1     -12.569  56.086  49.539  0.00  0.00    +0.000 S 
ATOM     13  O   UNL     1     -13.465  55.088  48.987  0.00  0.00    +0.000 OA
ATOM     14  O   UNL     1     -11.962  57.083  48.681  0.00  0.00    +0.000 OA
ATOM     15  N   UNL     1     -11.378  55.300  50.306  0.00  0.00    +0.000 N 
ATOM     16  C   UNL     1     -13.504  56.975  50.729  0.00  0.00    +0.000 A 
ATOM     17  C   UNL     1     -11.307  55.293  51.604  0.00  0.00    +0.000 C 
ATOM     18  C   UNL     1     -13.199  56.782  52.067  0.00  0.00    +0.000 A 
ATOM     19  C   UNL     1     -14.509  57.852  50.316  0.00  0.00    +0.000 A 
ATOM     20  N   UNL     1     -12.203  55.893  52.464  0.00  0.00    +0.000 N 
ATOM     21  C   UNL     1     -13.981  57.439  53.023  0.00  0.00    +0.000 A 
ATOM     22  C   UNL     1     -15.255  58.527  51.277  0.00  0.00    +0.000 A 
ATOM     23  C   UNL     1     -14.999  58.313  52.631  0.00  0.00    +0.000 A 
ATOM     24  H   UNL     1     -10.697  54.821  49.781  0.00  0.00    +0.000 HD
ATOM     25  H   UNL     1     -12.136  55.678  53.422  0.00  0.00    +0.000 HD
ENDBRANCH   1  17
BRANCH   3  26
ATOM     26  O   UNL     1     -11.530  52.863  53.189  0.00  0.00    +0.000 OA
ATOM     27  H   UNL     1     -12.287  53.148  52.715  0.00  0.00    +0.000 HD
ENDBRANCH   3  26
BRANCH   5  28
ATOM     28  N   UNL     1      -6.338  54.996  52.468  0.00  0.00    +0.000 N 
ATOM     29  H   UNL     1      -5.837  55.476  53.166  0.00  0.00    +0.000 HD
BRANCH  28  30
ATOM     30  C   UNL     1      -5.780  54.712  51.139  0.00  0.00    +0.000 C 
BRANCH  30  31
ATOM     31  C   UNL     1      -4.956  53.473  51.194  0.00  0.00    +0.000 A 
ATOM     32  C   UNL     1      -5.271  52.253  50.623  0.00  0.00    +0.000 A 
ATOM     33  C   UNL     1      -3.667  53.292  51.771  0.00  0.00    +0.000 A 
ATOM     34  O   UNL     1      -4.274  51.355  50.813  0.00  0.00    +0.000 OA
ATOM     35  C   UNL     1      -3.301  51.994  51.509  0.00  0.00    +0.000 A 
ENDBRANCH  30  31
ENDBRANCH  28  30
ENDBRANCH   5  28
TORSDOF 5
ENDMDL
MODEL 2
REMARK VINA RESULT:      -8.3      2.393      3.327
REMARK  Name = 
REMARK  5 active torsions:
REMARK  status: ('A' for Active; 'I' for Inactive)
REMARK    1  A    between atoms: C_6  and  C_10
REMARK    2  A    between atoms: C_14  and  O_18
REMARK    3  A    between atoms: N_17  and  N_20
REMARK    4  A    between atoms: N_20  and  C_23
REMARK    5  A    between atoms: C_23  and  C_26
REMARK                            x       y       z     vdW  Elec       q    Type
REMARK                         _______ _______ _______ _____ _____    ______ ____
ROOT
ATOM      1  C   UNL     1     -11.724  54.024  51.275  0.00  0.00    +0.000 A 
ATOM      2  C   UNL     1     -10.901  54.012  52.519  0.00  0.00    +0.000 A 
ATOM      3  C   UNL     1     -11.760  52.945  50.474  0.00  0.00    +0.000 A 
ATOM      4  O   UNL     1     -10.889  55.042  53.202  0.00  0.00    +0.000 OA
ATOM      5  N   UNL     1     -10.220  52.837  52.853  0.00  0.00    +0.000 N 
ATOM      6  C   UNL     1     -11.023  51.724  50.830  0.00  0.00    +0.000 A 
ATOM      7  C   UNL     1     -10.258  51.685  52.010  0.00  0.00    +0.000 A 
ATOM      8  C   UNL     1     -11.085  50.586  50.007  0.00  0.00    +0.000 A 
ATOM      9  C   UNL     1      -9.562  50.510  52.333  0.00  0.00    +0.000 A 
ATOM     10  C   UNL     1     -10.404  49.421  50.349  0.00  0.00    +0.000 A 
ATOM     11  C   UNL     1      -9.640  49.382  51.509  0.00  0.00    +0.000 A 
ENDROOT
BRANCH   1  17
ATOM     12  S   UNL     1     -13.298  57.045  49.319  0.00  0.00    +0.000 S 
ATOM     13  O   UNL     1     -14.391  56.629  48.460  0.00  0.00    +0.000 OA
ATOM     14  O   UNL     1     -12.332  58.020  48.856  0.00  0.00    +0.000 OA
ATOM     15  N   UNL     1     -12.488  55.712  49.756  0.00  0.00    +0.000 N 
ATOM     16  C   UNL     1     -14.040  57.738  50.750  0.00  0.00    +0.000 A 
ATOM     17  C   UNL     1     -12.559  55.252  50.969  0.00  0.00    +0.000 C 
ATOM     18  C   UNL     1     -13.950  57.025  51.935  0.00  0.00    +0.000 A 
ATOM     19  C   UNL     1     -14.684  58.975  50.674  0.00  0.00    +0.000 A 
ATOM     20  N   UNL     1     -13.317  55.787  51.990  0.00  0.00    +0.000 N 
ATOM     21  C   UNL     1     -14.593  57.542  53.066  0.00  0.00    +0.000 A 
ATOM     22  C   UNL     1     -15.288  59.494  51.816  0.00  0.00    +0.000 A 
ATOM     23  C   UNL     1     -15.252  58.773  53.009  0.00  0.00    +0.000 A 
ATOM     24  H   UNL     1     -11.933  55.243  49.092  0.00  0.00    +0.000 HD
ATOM     25  H   UNL     1     -13.419  55.256  52.813  0.00  0.00    +0.000 HD
ENDBRANCH   1  17
BRANCH   3  26
ATOM     26  O   UNL     1     -12.492  52.869  49.301  0.00  0.00    +0.000 OA
ATOM     27  H   UNL     1     -12.179  52.350  48.586  0.00  0.00    +0.000 HD
ENDBRANCH   3  26
BRANCH   5  28
ATOM     28  N   UNL     1      -9.375  52.793  54.024  0.00  0.00    +0.000 N 
ATOM     29  H   UNL     1      -9.733  52.706  54.937  0.00  0.00    +0.000 HD
BRANCH  28  30
ATOM     30  C   UNL     1      -7.936  52.887  53.739  0.00  0.00    +0.000 C 
BRANCH  30  31
ATOM     31  C   UNL     1      -7.593  54.282  53.342  0.00  0.00    +0.000 A 
ATOM     32  C   UNL     1      -7.384  55.349  54.197  0.00  0.00    +0.000 A 
ATOM     33  C   UNL     1      -7.344  54.795  52.038  0.00  0.00    +0.000 A 
ATOM     34  O   UNL     1      -7.030  56.461  53.508  0.00  0.00    +0.000 OA
ATOM     35  C   UNL     1      -7.005  56.117  52.197  0.00  0.00    +0.000 A 
ENDBRANCH  30  31
ENDBRANCH  28  30
ENDBRANCH   5  28
TORSDOF 5
ENDMDL
MODEL 3
REMARK VINA RESULT:      -8.2      2.047      2.415
REMARK  Name = 
REMARK  5 active torsions:
REMARK  status: ('A' for Active; 'I' for Inactive)
REMARK    1  A    between atoms: C_6  and  C_10
REMARK    2  A    between atoms: C_14  and  O_18
REMARK    3  A    between atoms: N_17  and  N_20
REMARK    4  A    between atoms: N_20  and  C_23
REMARK    5  A    between atoms: C_23  and  C_26
REMARK                            x       y       z     vdW  Elec       q    Type
REMARK                         _______ _______ _______ _____ _____    ______ ____
ROOT
ATOM      1  C   UNL     1     -11.160  54.653  50.911  0.00  0.00    +0.000 A 
ATOM      2  C   UNL     1      -9.756  55.048  50.598  0.00  0.00    +0.000 A 
ATOM      3  C   UNL     1     -11.435  53.408  51.338  0.00  0.00    +0.000 A 
ATOM      4  O   UNL     1      -9.569  56.199  50.188  0.00  0.00    +0.000 OA
ATOM      5  N   UNL     1      -8.739  54.113  50.812  0.00  0.00    +0.000 N 
ATOM      6  C   UNL     1     -10.356  52.430  51.540  0.00  0.00    +0.000 A 
ATOM      7  C   UNL     1      -9.023  52.791  51.271  0.00  0.00    +0.000 A 
ATOM      8  C   UNL     1     -10.641  51.138  52.014  0.00  0.00    +0.000 A 
ATOM      9  C   UNL     1      -8.007  51.843  51.470  0.00  0.00    +0.000 A 
ATOM     10  C   UNL     1      -9.621  50.214  52.225  0.00  0.00    +0.000 A 
ATOM     11  C   UNL     1      -8.305  50.564  51.950  0.00  0.00    +0.000 A 
ENDROOT
BRANCH   1  17
ATOM     12  S   UNL     1     -13.579  57.332  49.362  0.00  0.00    +0.000 S 
ATOM     13  O   UNL     1     -14.699  56.721  48.671  0.00  0.00    +0.000 OA
ATOM     14  O   UNL     1     -12.905  58.482  48.795  0.00  0.00    +0.000 OA
ATOM     15  N   UNL     1     -12.469  56.177  49.607  0.00  0.00    +0.000 N 
ATOM     16  C   UNL     1     -14.194  57.851  50.922  0.00  0.00    +0.000 A 
ATOM     17  C   UNL     1     -12.252  55.698  50.795  0.00  0.00    +0.000 C 
ATOM     18  C   UNL     1     -13.776  57.155  52.045  0.00  0.00    +0.000 A 
ATOM     19  C   UNL     1     -15.064  58.940  51.003  0.00  0.00    +0.000 A 
ATOM     20  N   UNL     1     -12.919  56.063  51.946  0.00  0.00    +0.000 N 
ATOM     21  C   UNL     1     -14.311  57.524  53.285  0.00  0.00    +0.000 A 
ATOM     22  C   UNL     1     -15.560  59.318  52.247  0.00  0.00    +0.000 A 
ATOM     23  C   UNL     1     -15.192  58.604  53.387  0.00  0.00    +0.000 A 
ATOM     24  H   UNL     1     -11.952  55.833  48.844  0.00  0.00    +0.000 HD
ATOM     25  H   UNL     1     -12.782  55.513  52.751  0.00  0.00    +0.000 HD
ENDBRANCH   1  17
BRANCH   3  26
ATOM     26  O   UNL     1     -12.706  52.953  51.648  0.00  0.00    +0.000 OA
ATOM     27  H   UNL     1     -12.861  52.516  52.462  0.00  0.00    +0.000 HD
ENDBRANCH   3  26
BRANCH   5  28
ATOM     28  N   UNL     1      -7.370  54.436  50.481  0.00  0.00    +0.000 N 
ATOM     29  H   UNL     1      -6.877  53.988  49.756  0.00  0.00    +0.000 HD
BRANCH  28  30
ATOM     30  C   UNL     1      -6.777  55.491  51.315  0.00  0.00    +0.000 C 
BRANCH  30  31
ATOM     31  C   UNL     1      -6.426  54.937  52.652  0.00  0.00    +0.000 A 
ATOM     32  C   UNL     1      -5.315  54.171  52.956  0.00  0.00    +0.000 A 
ATOM     33  C   UNL     1      -7.100  55.125  53.892  0.00  0.00    +0.000 A 
ATOM     34  O   UNL     1      -5.270  53.883  54.279  0.00  0.00    +0.000 OA
ATOM     35  C   UNL     1      -6.356  54.469  54.843  0.00  0.00    +0.000 A 
ENDBRANCH  30  31
ENDBRANCH  28  30
ENDBRANCH   5  28
TORSDOF 5
ENDMDL
MODEL 4
REMARK VINA RESULT:      -8.2      3.771      5.270
REMARK  Name = 
REMARK  5 active torsions:
REMARK  status: ('A' for Active; 'I' for Inactive)
REMARK    1  A    between atoms: C_6  and  C_10
REMARK    2  A    between atoms: C_14  and  O_18
REMARK    3  A    between atoms: N_17  and  N_20
REMARK    4  A    between atoms: N_20  and  C_23
REMARK    5  A    between atoms: C_23  and  C_26
REMARK                            x       y       z     vdW  Elec       q    Type
REMARK                         _______ _______ _______ _____ _____    ______ ____
ROOT
ATOM      1  C   UNL     1     -10.675  55.582  48.113  0.00  0.00    +0.000 A 
ATOM      2  C   UNL     1      -9.208  55.640  48.374  0.00  0.00    +0.000 A 
ATOM      3  C   UNL     1     -11.146  54.968  47.013  0.00  0.00    +0.000 A 
ATOM      4  O   UNL     1      -8.835  56.239  49.389  0.00  0.00    +0.000 OA
ATOM      5  N   UNL     1      -8.348  54.995  47.480  0.00  0.00    +0.000 N 
ATOM      6  C   UNL     1     -10.226  54.311  46.073  0.00  0.00    +0.000 A 
ATOM      7  C   UNL     1      -8.840  54.335  46.313  0.00  0.00    +0.000 A 
ATOM      8  C   UNL     1     -10.721  53.642  44.939  0.00  0.00    +0.000 A 
ATOM      9  C   UNL     1      -7.979  53.701  45.403  0.00  0.00    +0.000 A 
ATOM     10  C   UNL     1      -9.856  53.002  44.055  0.00  0.00    +0.000 A 
ATOM     11  C   UNL     1      -8.486  53.034  44.284  0.00  0.00    +0.000 A 
ENDROOT
BRANCH   1  17
ATOM     12  S   UNL     1     -12.987  55.913  51.272  0.00  0.00    +0.000 S 
ATOM     13  O   UNL     1     -12.225  56.149  52.483  0.00  0.00    +0.000 OA
ATOM     14  O   UNL     1     -14.114  55.002  51.279  0.00  0.00    +0.000 OA
ATOM     15  N   UNL     1     -11.949  55.408  50.134  0.00  0.00    +0.000 N 
ATOM     16  C   UNL     1     -13.627  57.472  50.786  0.00  0.00    +0.000 A 
ATOM     17  C   UNL     1     -11.620  56.176  49.139  0.00  0.00    +0.000 C 
ATOM     18  C   UNL     1     -13.090  58.068  49.656  0.00  0.00    +0.000 A 
ATOM     19  C   UNL     1     -14.652  58.067  51.524  0.00  0.00    +0.000 A 
ATOM     20  N   UNL     1     -12.059  57.469  48.939  0.00  0.00    +0.000 N 
ATOM     21  C   UNL     1     -13.552  59.340  49.299  0.00  0.00    +0.000 A 
ATOM     22  C   UNL     1     -15.127  59.317  51.136  0.00  0.00    +0.000 A 
ATOM     23  C   UNL     1     -14.570  59.958  50.030  0.00  0.00    +0.000 A 
ATOM     24  H   UNL     1     -11.562  54.505  50.198  0.00  0.00    +0.000 HD
ATOM     25  H   UNL     1     -11.612  58.003  48.245  0.00  0.00    +0.000 HD
ENDBRANCH   1  17
BRANCH   3  26
ATOM     26  O   UNL     1     -12.488  54.869  46.689  0.00  0.00    +0.000 OA
ATOM     27  H   UNL     1     -12.757  54.896  45.791  0.00  0.00    +0.000 HD
ENDBRANCH   3  26
BRANCH   5  28
ATOM     28  N   UNL     1      -6.917  55.062  47.668  0.00  0.00    +0.000 N 
ATOM     29  H   UNL     1      -6.387  55.862  47.445  0.00  0.00    +0.000 HD
BRANCH  28  30
ATOM     30  C   UNL     1      -6.319  53.838  48.219  0.00  0.00    +0.000 C 
BRANCH  30  31
ATOM     31  C   UNL     1      -6.356  53.887  49.708  0.00  0.00    +0.000 A 
ATOM     32  C   UNL     1      -5.621  54.732  50.518  0.00  0.00    +0.000 A 
ATOM     33  C   UNL     1      -7.181  53.142  50.596  0.00  0.00    +0.000 A 
ATOM     34  O   UNL     1      -5.940  54.553  51.823  0.00  0.00    +0.000 OA
ATOM     35  C   UNL     1      -6.891  53.587  51.864  0.00  0.00    +0.000 A 
ENDBRANCH  30  31
ENDBRANCH  28  30
ENDBRANCH   5  28
TORSDOF 5
ENDMDL
MODEL 5
REMARK VINA RESULT:      -8.2      4.135      5.267
REMARK  Name = 
REMARK  5 active torsions:
REMARK  status: ('A' for Active; 'I' for Inactive)
REMARK    1  A    between atoms: C_6  and  C_10
REMARK    2  A    between atoms: C_14  and  O_18
REMARK    3  A    between atoms: N_17  and  N_20
REMARK    4  A    between atoms: N_20  and  C_23
REMARK    5  A    between atoms: C_23  and  C_26
REMARK                            x       y       z     vdW  Elec       q    Type
REMARK                         _______ _______ _______ _____ _____    ______ ____
ROOT
ATOM      1  C   UNL     1     -12.259  54.320  50.086  0.00  0.00    +0.000 A 
ATOM      2  C   UNL     1     -11.943  54.025  48.658  0.00  0.00    +0.000 A 
ATOM      3  C   UNL     1     -11.740  53.561  51.067  0.00  0.00    +0.000 A 
ATOM      4  O   UNL     1     -12.469  54.743  47.801  0.00  0.00    +0.000 OA
ATOM      5  N   UNL     1     -11.056  52.981  48.376  0.00  0.00    +0.000 N 
ATOM      6  C   UNL     1     -10.824  52.455  50.752  0.00  0.00    +0.000 A 
ATOM      7  C   UNL     1     -10.497  52.175  49.413  0.00  0.00    +0.000 A 
ATOM      8  C   UNL     1     -10.258  51.681  51.780  0.00  0.00    +0.000 A 
ATOM      9  C   UNL     1      -9.620  51.115  49.133  0.00  0.00    +0.000 A 
ATOM     10  C   UNL     1      -9.376  50.644  51.489  0.00  0.00    +0.000 A 
ATOM     11  C   UNL     1      -9.059  50.358  50.167  0.00  0.00    +0.000 A 
ENDROOT
BRANCH   1  17
ATOM     12  S   UNL     1     -15.286  56.480  51.352  0.00  0.00    +0.000 S 
ATOM     13  O   UNL     1     -15.254  56.675  52.788  0.00  0.00    +0.000 OA
ATOM     14  O   UNL     1     -16.537  56.201  50.676  0.00  0.00    +0.000 OA
ATOM     15  N   UNL     1     -14.254  55.282  50.999  0.00  0.00    +0.000 N 
ATOM     16  C   UNL     1     -14.674  57.965  50.645  0.00  0.00    +0.000 A 
ATOM     17  C   UNL     1     -13.124  55.524  50.404  0.00  0.00    +0.000 C 
ATOM     18  C   UNL     1     -13.422  57.931  50.052  0.00  0.00    +0.000 A 
ATOM     19  C   UNL     1     -15.447  59.127  50.681  0.00  0.00    +0.000 A 
ATOM     20  N   UNL     1     -12.657  56.769  50.037  0.00  0.00    +0.000 N 
ATOM     21  C   UNL     1     -12.901  59.126  49.542  0.00  0.00    +0.000 A 
ATOM     22  C   UNL     1     -14.932  60.300  50.138  0.00  0.00    +0.000 A 
ATOM     23  C   UNL     1     -13.654  60.303  49.578  0.00  0.00    +0.000 A 
ATOM     24  H   UNL     1     -14.486  54.356  51.240  0.00  0.00    +0.000 HD
ATOM     25  H   UNL     1     -11.720  56.840  49.746  0.00  0.00    +0.000 HD
ENDBRANCH   1  17
BRANCH   3  26
ATOM     26  O   UNL     1     -11.981  53.759  52.416  0.00  0.00    +0.000 OA
ATOM     27  H   UNL     1     -11.829  54.600  52.801  0.00  0.00    +0.000 HD
ENDBRANCH   3  26
BRANCH   5  28
ATOM     28  N   UNL     1     -10.756  52.630  47.007  0.00  0.00    +0.000 N 
ATOM     29  H   UNL     1     -11.188  51.877  46.543  0.00  0.00    +0.000 HD
BRANCH  28  30
ATOM     30  C   UNL     1      -9.753  53.491  46.366  0.00  0.00    +0.000 C 
BRANCH  30  31
ATOM     31  C   UNL     1      -9.616  53.121  44.929  0.00  0.00    +0.000 A 
ATOM     32  C   UNL     1     -10.628  52.676  44.099  0.00  0.00    +0.000 A 
ATOM     33  C   UNL     1      -8.463  53.206  44.100  0.00  0.00    +0.000 A 
ATOM     34  O   UNL     1     -10.172  52.486  42.836  0.00  0.00    +0.000 OA
ATOM     35  C   UNL     1      -8.856  52.813  42.843  0.00  0.00    +0.000 A 
ENDBRANCH  30  31
ENDBRANCH  28  30
ENDBRANCH   5  28
TORSDOF 5
ENDMDL
MODEL 6
REMARK VINA RESULT:      -8.1      2.944      8.347
REMARK  Name = 
REMARK  5 active torsions:
REMARK  status: ('A' for Active; 'I' for Inactive)
REMARK    1  A    between atoms: C_6  and  C_10
REMARK    2  A    between atoms: C_14  and  O_18
REMARK    3  A    between atoms: N_17  and  N_20
REMARK    4  A    between atoms: N_20  and  C_23
REMARK    5  A    between atoms: C_23  and  C_26
REMARK                            x       y       z     vdW  Elec       q    Type
REMARK                         _______ _______ _______ _____ _____    ______ ____
ROOT
ATOM      1  C   UNL     1      -9.912  54.482  50.698  0.00  0.00    +0.000 A 
ATOM      2  C   UNL     1     -11.229  55.113  51.003  0.00  0.00    +0.000 A 
ATOM      3  C   UNL     1      -9.544  54.261  49.423  0.00  0.00    +0.000 A 
ATOM      4  O   UNL     1     -11.521  55.268  52.194  0.00  0.00    +0.000 OA
ATOM      5  N   UNL     1     -12.036  55.515  49.934  0.00  0.00    +0.000 N 
ATOM      6  C   UNL     1     -10.413  54.673  48.312  0.00  0.00    +0.000 A 
ATOM      7  C   UNL     1     -11.649  55.290  48.578  0.00  0.00    +0.000 A 
ATOM      8  C   UNL     1     -10.014  54.469  46.979  0.00  0.00    +0.000 A 
ATOM      9  C   UNL     1     -12.464  55.676  47.503  0.00  0.00    +0.000 A 
ATOM     10  C   UNL     1     -10.824  54.874  45.922  0.00  0.00    +0.000 A 
ATOM     11  C   UNL     1     -12.050  55.474  46.182  0.00  0.00    +0.000 A 
ENDROOT
BRANCH   1  17
ATOM     12  S   UNL     1      -6.818  54.600  53.114  0.00  0.00    +0.000 S 
ATOM     13  O   UNL     1      -6.924  55.672  54.085  0.00  0.00    +0.000 OA
ATOM     14  O   UNL     1      -5.551  54.316  52.470  0.00  0.00    +0.000 OA
ATOM     15  N   UNL     1      -7.912  54.883  51.954  0.00  0.00    +0.000 N 
ATOM     16  C   UNL     1      -7.272  53.130  53.958  0.00  0.00    +0.000 A 
ATOM     17  C   UNL     1      -8.981  54.152  51.848  0.00  0.00    +0.000 C 
ATOM     18  C   UNL     1      -8.483  52.544  53.630  0.00  0.00    +0.000 A 
ATOM     19  C   UNL     1      -6.417  52.583  54.918  0.00  0.00    +0.000 A 
ATOM     20  N   UNL     1      -9.330  53.110  52.681  0.00  0.00    +0.000 N 
ATOM     21  C   UNL     1      -8.881  51.407  54.343  0.00  0.00    +0.000 A 
ATOM     22  C   UNL     1      -6.809  51.431  55.594  0.00  0.00    +0.000 A 
ATOM     23  C   UNL     1      -8.045  50.849  55.315  0.00  0.00    +0.000 A 
ATOM     24  H   UNL     1      -7.765  55.621  51.319  0.00  0.00    +0.000 HD
ATOM     25  H   UNL     1     -10.240  52.742  52.601  0.00  0.00    +0.000 HD
ENDBRANCH   1  17
BRANCH   3  26
ATOM     26  O   UNL     1      -8.345  53.679  49.048  0.00  0.00    +0.000 OA
ATOM     27  H   UNL     1      -7.902  53.973  48.276  0.00  0.00    +0.000 HD
ENDBRANCH   3  26
BRANCH   5  28
ATOM     28  N   UNL     1     -13.339  56.090  50.181  0.00  0.00    +0.000 N 
ATOM     29  H   UNL     1     -14.148  55.543  50.302  0.00  0.00    +0.000 HD
BRANCH  28  30
ATOM     30  C   UNL     1     -13.353  57.558  50.236  0.00  0.00    +0.000 C 
BRANCH  30  31
ATOM     31  C   UNL     1     -14.119  58.009  51.432  0.00  0.00    +0.000 A 
ATOM     32  C   UNL     1     -14.669  59.263  51.627  0.00  0.00    +0.000 A 
ATOM     33  C   UNL     1     -14.500  57.252  52.575  0.00  0.00    +0.000 A 
ATOM     34  O   UNL     1     -15.350  59.317  52.798  0.00  0.00    +0.000 OA
ATOM     35  C   UNL     1     -15.246  58.091  53.368  0.00  0.00    +0.000 A 
ENDBRANCH  30  31
ENDBRANCH  28  30
ENDBRANCH   5  28
TORSDOF 5
ENDMDL
MODEL 7
REMARK VINA RESULT:      -8.1      3.723      7.362
REMARK  Name = 
REMARK  5 active torsions:
REMARK  status: ('A' for Active; 'I' for Inactive)
REMARK    1  A    between atoms: C_6  and  C_10
REMARK    2  A    between atoms: C_14  and  O_18
REMARK    3  A    between atoms: N_17  and  N_20
REMARK    4  A    between atoms: N_20  and  C_23
REMARK    5  A    between atoms: C_23  and  C_26
REMARK                            x       y       z     vdW  Elec       q    Type
REMARK                         _______ _______ _______ _____ _____    ______ ____
ROOT
ATOM      1  C   UNL     1     -10.315  55.239  50.732  0.00  0.00    +0.000 A 
ATOM      2  C   UNL     1      -9.944  55.127  49.292  0.00  0.00    +0.000 A 
ATOM      3  C   UNL     1     -11.499  55.766  51.090  0.00  0.00    +0.000 A 
ATOM      4  O   UNL     1      -8.832  54.656  49.027  0.00  0.00    +0.000 OA
ATOM      5  N   UNL     1     -10.878  55.532  48.332  0.00  0.00    +0.000 N 
ATOM      6  C   UNL     1     -12.462  56.204  50.069  0.00  0.00    +0.000 A 
ATOM      7  C   UNL     1     -12.140  56.087  48.705  0.00  0.00    +0.000 A 
ATOM      8  C   UNL     1     -13.712  56.727  50.443  0.00  0.00    +0.000 A 
ATOM      9  C   UNL     1     -13.073  56.510  47.745  0.00  0.00    +0.000 A 
ATOM     10  C   UNL     1     -14.635  57.126  49.481  0.00  0.00    +0.000 A 
ATOM     11  C   UNL     1     -14.316  57.021  48.133  0.00  0.00    +0.000 A 
ENDROOT
BRANCH   1  17
ATOM     12  S   UNL     1      -7.068  54.746  52.888  0.00  0.00    +0.000 S 
ATOM     13  O   UNL     1      -6.960  55.733  53.945  0.00  0.00    +0.000 OA
ATOM     14  O   UNL     1      -5.900  54.361  52.122  0.00  0.00    +0.000 OA
ATOM     15  N   UNL     1      -8.195  55.269  51.847  0.00  0.00    +0.000 N 
ATOM     16  C   UNL     1      -7.654  53.278  53.649  0.00  0.00    +0.000 A 
ATOM     17  C   UNL     1      -9.357  54.692  51.773  0.00  0.00    +0.000 C 
ATOM     18  C   UNL     1      -8.954  52.882  53.376  0.00  0.00    +0.000 A 
ATOM     19  C   UNL     1      -6.815  52.543  54.489  0.00  0.00    +0.000 A 
ATOM     20  N   UNL     1      -9.782  53.634  52.548  0.00  0.00    +0.000 N 
ATOM     21  C   UNL     1      -9.449  51.747  54.029  0.00  0.00    +0.000 A 
ATOM     22  C   UNL     1      -7.309  51.396  55.104  0.00  0.00    +0.000 A 
ATOM     23  C   UNL     1      -8.629  51.004  54.882  0.00  0.00    +0.000 A 
ATOM     24  H   UNL     1      -7.995  56.035  51.262  0.00  0.00    +0.000 HD
ATOM     25  H   UNL     1     -10.737  53.394  52.514  0.00  0.00    +0.000 HD
ENDBRANCH   1  17
BRANCH   3  26
ATOM     26  O   UNL     1     -11.924  55.911  52.400  0.00  0.00    +0.000 OA
ATOM     27  H   UNL     1     -12.653  56.465  52.597  0.00  0.00    +0.000 HD
ENDBRANCH   3  26
BRANCH   5  28
ATOM     28  N   UNL     1     -10.546  55.485  46.927  0.00  0.00    +0.000 N 
ATOM     29  H   UNL     1      -9.944  56.136  46.500  0.00  0.00    +0.000 HD
BRANCH  28  30
ATOM     30  C   UNL     1     -11.181  54.383  46.190  0.00  0.00    +0.000 C 
BRANCH  30  31
ATOM     31  C   UNL     1     -10.182  53.733  45.297  0.00  0.00    +0.000 A 
ATOM     32  C   UNL     1      -8.807  53.773  45.439  0.00  0.00    +0.000 A 
ATOM     33  C   UNL     1     -10.417  52.896  44.170  0.00  0.00    +0.000 A 
ATOM     34  O   UNL     1      -8.198  53.025  44.487  0.00  0.00    +0.000 OA
ATOM     35  C   UNL     1      -9.182  52.493  43.720  0.00  0.00    +0.000 A 
ENDBRANCH  30  31
ENDBRANCH  28  30
ENDBRANCH   5  28
TORSDOF 5
ENDMDL
MODEL 8
REMARK VINA RESULT:      -8.0      3.311      8.351
REMARK  Name = 
REMARK  5 active torsions:
REMARK  status: ('A' for Active; 'I' for Inactive)
REMARK    1  A    between atoms: C_6  and  C_10
REMARK    2  A    between atoms: C_14  and  O_18
REMARK    3  A    between atoms: N_17  and  N_20
REMARK    4  A    between atoms: N_20  and  C_23
REMARK    5  A    between atoms: C_23  and  C_26
REMARK                            x       y       z     vdW  Elec       q    Type
REMARK                         _______ _______ _______ _____ _____    ______ ____
ROOT
ATOM      1  C   UNL     1      -9.088  54.322  49.908  0.00  0.00    +0.000 A 
ATOM      2  C   UNL     1     -10.125  55.390  50.003  0.00  0.00    +0.000 A 
ATOM      3  C   UNL     1      -8.992  53.565  48.801  0.00  0.00    +0.000 A 
ATOM      4  O   UNL     1     -10.178  56.037  51.056  0.00  0.00    +0.000 OA
ATOM      5  N   UNL     1     -10.950  55.616  48.897  0.00  0.00    +0.000 N 
ATOM      6  C   UNL     1      -9.880  53.803  47.653  0.00  0.00    +0.000 A 
ATOM      7  C   UNL     1     -10.850  54.820  47.715  0.00  0.00    +0.000 A 
ATOM      8  C   UNL     1      -9.760  53.031  46.485  0.00  0.00    +0.000 A 
ATOM      9  C   UNL     1     -11.687  55.032  46.609  0.00  0.00    +0.000 A 
ATOM     10  C   UNL     1     -10.585  53.264  45.388  0.00  0.00    +0.000 A 
ATOM     11  C   UNL     1     -11.550  54.262  45.450  0.00  0.00    +0.000 A 
ENDROOT
BRANCH   1  17
ATOM     12  S   UNL     1      -7.675  54.056  53.564  0.00  0.00    +0.000 S 
ATOM     13  O   UNL     1      -7.907  52.747  54.145  0.00  0.00    +0.000 OA
ATOM     14  O   UNL     1      -7.856  55.254  54.358  0.00  0.00    +0.000 OA
ATOM     15  N   UNL     1      -8.620  54.182  52.253  0.00  0.00    +0.000 N 
ATOM     16  C   UNL     1      -5.999  54.068  53.043  0.00  0.00    +0.000 A 
ATOM     17  C   UNL     1      -8.114  54.151  51.057  0.00  0.00    +0.000 C 
ATOM     18  C   UNL     1      -5.745  54.045  51.681  0.00  0.00    +0.000 A 
ATOM     19  C   UNL     1      -4.974  54.113  53.990  0.00  0.00    +0.000 A 
ATOM     20  N   UNL     1      -6.779  53.986  50.751  0.00  0.00    +0.000 N 
ATOM     21  C   UNL     1      -4.411  53.991  51.260  0.00  0.00    +0.000 A 
ATOM     22  C   UNL     1      -3.651  54.096  53.556  0.00  0.00    +0.000 A 
ATOM     23  C   UNL     1      -3.370  54.024  52.191  0.00  0.00    +0.000 A 
ATOM     24  H   UNL     1      -9.593  54.283  52.366  0.00  0.00    +0.000 HD
ATOM     25  H   UNL     1      -6.541  53.814  49.811  0.00  0.00    +0.000 HD
ENDBRANCH   1  17
BRANCH   3  26
ATOM     26  O   UNL     1      -8.066  52.552  48.627  0.00  0.00    +0.000 OA
ATOM     27  H   UNL     1      -7.919  51.928  49.311  0.00  0.00    +0.000 HD
ENDBRANCH   3  26
BRANCH   5  28
ATOM     28  N   UNL     1     -11.997  56.609  48.959  0.00  0.00    +0.000 N 
ATOM     29  H   UNL     1     -11.880  57.528  48.626  0.00  0.00    +0.000 HD
BRANCH  28  30
ATOM     30  C   UNL     1     -13.250  56.133  49.560  0.00  0.00    +0.000 C 
BRANCH  30  31
ATOM     31  C   UNL     1     -13.597  56.977  50.737  0.00  0.00    +0.000 A 
ATOM     32  C   UNL     1     -14.111  58.260  50.702  0.00  0.00    +0.000 A 
ATOM     33  C   UNL     1     -13.540  56.636  52.118  0.00  0.00    +0.000 A 
ATOM     34  O   UNL     1     -14.367  58.716  51.953  0.00  0.00    +0.000 OA
ATOM     35  C   UNL     1     -14.020  57.723  52.809  0.00  0.00    +0.000 A 
ENDBRANCH  30  31
ENDBRANCH  28  30
ENDBRANCH   5  28
TORSDOF 5
ENDMDL
MODEL 9
REMARK VINA RESULT:      -8.0      3.775      4.650
REMARK  Name = 
REMARK  5 active torsions:
REMARK  status: ('A' for Active; 'I' for Inactive)
REMARK    1  A    between atoms: C_6  and  C_10
REMARK    2  A    between atoms: C_14  and  O_18
REMARK    3  A    between atoms: N_17  and  N_20
REMARK    4  A    between atoms: N_20  and  C_23
REMARK    5  A    between atoms: C_23  and  C_26
REMARK                            x       y       z     vdW  Elec       q    Type
REMARK                         _______ _______ _______ _____ _____    ______ ____
ROOT
ATOM      1  C   UNL     1     -12.378  54.451  49.517  0.00  0.00    +0.000 A 
ATOM      2  C   UNL     1     -11.935  54.431  48.093  0.00  0.00    +0.000 A 
ATOM      3  C   UNL     1     -11.986  53.483  50.364  0.00  0.00    +0.000 A 
ATOM      4  O   UNL     1     -12.348  55.335  47.358  0.00  0.00    +0.000 OA
ATOM      5  N   UNL     1     -11.064  53.416  47.682  0.00  0.00    +0.000 N 
ATOM      6  C   UNL     1     -11.085  52.413  49.911  0.00  0.00    +0.000 A 
ATOM      7  C   UNL     1     -10.639  52.389  48.577  0.00  0.00    +0.000 A 
ATOM      8  C   UNL     1     -10.651  51.418  50.805  0.00  0.00    +0.000 A 
ATOM      9  C   UNL     1      -9.778  51.359  48.165  0.00  0.00    +0.000 A 
ATOM     10  C   UNL     1      -9.783  50.413  50.387  0.00  0.00    +0.000 A 
ATOM     11  C   UNL     1      -9.349  50.380  49.067  0.00  0.00    +0.000 A 
ENDROOT
BRANCH   1  17
ATOM     12  S   UNL     1     -15.323  56.460  51.167  0.00  0.00    +0.000 S 
ATOM     13  O   UNL     1     -15.197  56.527  52.610  0.00  0.00    +0.000 OA
ATOM     14  O   UNL     1     -16.615  56.229  50.553  0.00  0.00    +0.000 OA
ATOM     15  N   UNL     1     -14.312  55.308  50.642  0.00  0.00    +0.000 N 
ATOM     16  C   UNL     1     -14.766  58.008  50.556  0.00  0.00    +0.000 A 
ATOM     17  C   UNL     1     -13.225  55.613  49.998  0.00  0.00    +0.000 C 
ATOM     18  C   UNL     1     -13.556  58.039  49.881  0.00  0.00    +0.000 A 
ATOM     19  C   UNL     1     -15.540  59.154  50.746  0.00  0.00    +0.000 A 
ATOM     20  N   UNL     1     -12.789  56.890  49.712  0.00  0.00    +0.000 N 
ATOM     21  C   UNL     1     -13.075  59.280  49.447  0.00  0.00    +0.000 A 
ATOM     22  C   UNL     1     -15.067  60.376  50.277  0.00  0.00    +0.000 A 
ATOM     23  C   UNL     1     -13.830  60.441  49.637  0.00  0.00    +0.000 A 
ATOM     24  H   UNL     1     -14.524  54.362  50.814  0.00  0.00    +0.000 HD
ATOM     25  H   UNL     1     -11.873  56.996  49.368  0.00  0.00    +0.000 HD
ENDBRANCH   1  17
BRANCH   3  26
ATOM     26  O   UNL     1     -12.350  53.419  51.698  0.00  0.00    +0.000 OA
ATOM     27  H   UNL     1     -13.145  52.990  51.947  0.00  0.00    +0.000 HD
ENDBRANCH   3  26
BRANCH   5  28
ATOM     28  N   UNL     1     -10.644  53.331  46.302  0.00  0.00    +0.000 N 
ATOM     29  H   UNL     1     -10.982  52.643  45.685  0.00  0.00    +0.000 HD
BRANCH  28  30
ATOM     30  C   UNL     1      -9.673  54.357  45.899  0.00  0.00    +0.000 C 
BRANCH  30  31
ATOM     31  C   UNL     1      -8.360  54.090  46.549  0.00  0.00    +0.000 A 
ATOM     32  C   UNL     1      -7.447  53.119  46.183  0.00  0.00    +0.000 A 
ATOM     33  C   UNL     1      -7.742  54.799  47.618  0.00  0.00    +0.000 A 
ATOM     34  O   UNL     1      -6.330  53.188  46.947  0.00  0.00    +0.000 OA
ATOM     35  C   UNL     1      -6.514  54.214  47.816  0.00  0.00    +0.000 A 
ENDBRANCH  30  31
ENDBRANCH  28  30
ENDBRANCH   5  28
TORSDOF 5
ENDMDL
