MODEL 1
REMARK VINA RESULT:      -8.4      0.000      0.000
REMARK  Name = 
REMARK  5 active torsions:
REMARK  status: ('A' for Active; 'I' for Inactive)
REMARK    1  A    between atoms: C_6  and  C_10
REMARK    2  A    between atoms: C_14  and  O_18
REMARK    3  A    between atoms: N_17  and  N_20
REMARK    4  A    between atoms: N_20  and  C_23
REMARK    5  A    between atoms: C_23  and  C_26
REMARK                            x       y       z     vdW  Elec       q    Type
REMARK                         _______ _______ _______ _____ _____    ______ ____
ROOT
ATOM      1  C   UNL     1     -11.411  55.981  48.914  0.00  0.00    +0.000 A 
ATOM      2  C   UNL     1     -10.381  55.371  49.808  0.00  0.00    +0.000 A 
ATOM      3  C   UNL     1     -11.484  55.623  47.621  0.00  0.00    +0.000 A 
ATOM      4  O   UNL     1     -10.356  55.747  50.986  0.00  0.00    +0.000 OA
ATOM      5  N   UNL     1      -9.542  54.389  49.277  0.00  0.00    +0.000 N 
ATOM      6  C   UNL     1     -10.575  54.604  47.073  0.00  0.00    +0.000 A 
ATOM      7  C   UNL     1      -9.611  54.005  47.903  0.00  0.00    +0.000 A 
ATOM      8  C   UNL     1     -10.672  54.206  45.729  0.00  0.00    +0.000 A 
ATOM      9  C   UNL     1      -8.750  53.034  47.362  0.00  0.00    +0.000 A 
ATOM     10  C   UNL     1      -9.824  53.228  45.209  0.00  0.00    +0.000 A 
ATOM     11  C   UNL     1      -8.862  52.648  46.025  0.00  0.00    +0.000 A 
ENDROOT
BRANCH   1  17
ATOM     12  S   UNL     1     -13.551  59.228  49.467  0.00  0.00    +0.000 S 
ATOM     13  O   UNL     1     -14.679  59.305  48.562  0.00  0.00    +0.000 OA
ATOM     14  O   UNL     1     -12.765  60.410  49.760  0.00  0.00    +0.000 OA
ATOM     15  N   UNL     1     -12.547  58.090  48.904  0.00  0.00    +0.000 N 
ATOM     16  C   UNL     1     -14.197  58.683  51.006  0.00  0.00    +0.000 A 
ATOM     17  C   UNL     1     -12.411  56.950  49.515  0.00  0.00    +0.000 C 
ATOM     18  C   UNL     1     -13.880  57.403  51.425  0.00  0.00    +0.000 A 
ATOM     19  C   UNL     1     -14.995  59.538  51.773  0.00  0.00    +0.000 A 
ATOM     20  N   UNL     1     -13.093  56.557  50.645  0.00  0.00    +0.000 N 
ATOM     21  C   UNL     1     -14.443  56.939  52.618  0.00  0.00    +0.000 A 
ATOM     22  C   UNL     1     -15.518  59.074  52.978  0.00  0.00    +0.000 A 
ATOM     23  C   UNL     1     -15.251  57.771  53.394  0.00  0.00    +0.000 A 
ATOM     24  H   UNL     1     -12.029  58.263  48.084  0.00  0.00    +0.000 HD
ATOM     25  H   UNL     1     -13.020  55.615  50.921  0.00  0.00    +0.000 HD
ENDBRANCH   1  17
BRANCH   3  26
ATOM     26  O   UNL     1     -12.406  56.129  46.721  0.00  0.00    +0.000 OA
ATOM     27  H   UNL     1     -13.048  56.749  47.009  0.00  0.00    +0.000 HD
ENDBRANCH   3  26
BRANCH   5  28
ATOM     28  N   UNL     1      -8.538  53.767  50.102  0.00  0.00    +0.000 N 
ATOM     29  H   UNL     1      -8.653  52.873  50.498  0.00  0.00    +0.000 HD
BRANCH  28  30
ATOM     30  C   UNL     1      -7.324  54.581  50.303  0.00  0.00    +0.000 C 
BRANCH  30  31
ATOM     31  C   UNL     1      -7.064  54.867  51.757  0.00  0.00    +0.000 A 
ATOM     32  S   UNL     1      -6.591  53.595  52.817  0.00  0.00    +0.000 S 
ATOM     33  N   UNL     1      -7.266  56.037  52.334  0.00  0.00    +0.000 NA
ATOM     34  C   UNL     1      -6.684  54.678  54.141  0.00  0.00    +0.000 A 
ATOM     35  C   UNL     1      -7.053  55.927  53.694  0.00  0.00    +0.000 A 
ENDBRANCH  30  31
ENDBRANCH  28  30
ENDBRANCH   5  28
TORSDOF 5
ENDMDL
MODEL 2
REMARK VINA RESULT:      -8.3      3.229      4.844
REMARK  Name = 
REMARK  5 active torsions:
REMARK  status: ('A' for Active; 'I' for Inactive)
REMARK    1  A    between atoms: C_6  and  C_10
REMARK    2  A    between atoms: C_14  and  O_18
REMARK    3  A    between atoms: N_17  and  N_20
REMARK    4  A    between atoms: N_20  and  C_23
REMARK    5  A    between atoms: C_23  and  C_26
REMARK                            x       y       z     vdW  Elec       q    Type
REMARK                         _______ _______ _______ _____ _____    ______ ____
ROOT
ATOM      1  C   UNL     1     -10.106  54.538  52.176  0.00  0.00    +0.000 A 
ATOM      2  C   UNL     1      -8.739  55.102  51.970  0.00  0.00    +0.000 A 
ATOM      3  C   UNL     1     -10.280  53.443  52.936  0.00  0.00    +0.000 A 
ATOM      4  O   UNL     1      -8.640  56.106  51.253  0.00  0.00    +0.000 OA
ATOM      5  N   UNL     1      -7.666  54.496  52.626  0.00  0.00    +0.000 N 
ATOM      6  C   UNL     1      -9.134  52.802  53.601  0.00  0.00    +0.000 A 
ATOM      7  C   UNL     1      -7.842  53.330  53.433  0.00  0.00    +0.000 A 
ATOM      8  C   UNL     1      -9.320  51.676  54.420  0.00  0.00    +0.000 A 
ATOM      9  C   UNL     1      -6.759  52.704  54.074  0.00  0.00    +0.000 A 
ATOM     10  C   UNL     1      -8.239  51.076  55.066  0.00  0.00    +0.000 A 
ATOM     11  C   UNL     1      -6.960  51.587  54.888  0.00  0.00    +0.000 A 
ENDROOT
BRANCH   1  17
ATOM     12  S   UNL     1     -12.573  56.035  49.511  0.00  0.00    +0.000 S 
ATOM     13  O   UNL     1     -13.472  55.035  48.970  0.00  0.00    +0.000 OA
ATOM     14  O   UNL     1     -11.973  57.027  48.642  0.00  0.00    +0.000 OA
ATOM     15  N   UNL     1     -11.379  55.256  50.279  0.00  0.00    +0.000 N 
ATOM     16  C   UNL     1     -13.502  56.932  50.701  0.00  0.00    +0.000 A 
ATOM     17  C   UNL     1     -11.292  55.269  51.576  0.00  0.00    +0.000 C 
ATOM     18  C   UNL     1     -13.184  56.758  52.037  0.00  0.00    +0.000 A 
ATOM     19  C   UNL     1     -14.519  57.799  50.287  0.00  0.00    +0.000 A 
ATOM     20  N   UNL     1     -12.176  55.883  52.435  0.00  0.00    +0.000 N 
ATOM     21  C   UNL     1     -13.961  57.419  52.993  0.00  0.00    +0.000 A 
ATOM     22  C   UNL     1     -15.260  58.479  51.250  0.00  0.00    +0.000 A 
ATOM     23  C   UNL     1     -14.989  58.281  52.603  0.00  0.00    +0.000 A 
ATOM     24  H   UNL     1     -10.706  54.764  49.754  0.00  0.00    +0.000 HD
ATOM     25  H   UNL     1     -12.090  55.690  53.397  0.00  0.00    +0.000 HD
ENDBRANCH   1  17
BRANCH   3  26
ATOM     26  O   UNL     1     -11.507  52.854  53.188  0.00  0.00    +0.000 OA
ATOM     27  H   UNL     1     -12.145  52.794  52.505  0.00  0.00    +0.000 HD
ENDBRANCH   3  26
BRANCH   5  28
ATOM     28  N   UNL     1      -6.330  55.008  52.464  0.00  0.00    +0.000 N 
ATOM     29  H   UNL     1      -5.854  55.492  53.177  0.00  0.00    +0.000 HD
BRANCH  28  30
ATOM     30  C   UNL     1      -5.735  54.747  51.139  0.00  0.00    +0.000 C 
BRANCH  30  31
ATOM     31  C   UNL     1      -4.911  53.488  51.123  0.00  0.00    +0.000 A 
ATOM     32  S   UNL     1      -5.558  52.041  50.449  0.00  0.00    +0.000 S 
ATOM     33  N   UNL     1      -3.724  53.367  51.688  0.00  0.00    +0.000 NA
ATOM     34  C   UNL     1      -4.165  51.190  50.968  0.00  0.00    +0.000 A 
ATOM     35  C   UNL     1      -3.301  52.055  51.602  0.00  0.00    +0.000 A 
ENDBRANCH  30  31
ENDBRANCH  28  30
ENDBRANCH   5  28
TORSDOF 5
ENDMDL
MODEL 3
REMARK VINA RESULT:      -8.3      2.468      3.200
REMARK  Name = 
REMARK  5 active torsions:
REMARK  status: ('A' for Active; 'I' for Inactive)
REMARK    1  A    between atoms: C_6  and  C_10
REMARK    2  A    between atoms: C_14  and  O_18
REMARK    3  A    between atoms: N_17  and  N_20
REMARK    4  A    between atoms: N_20  and  C_23
REMARK    5  A    between atoms: C_23  and  C_26
REMARK                            x       y       z     vdW  Elec       q    Type
REMARK                         _______ _______ _______ _____ _____    ______ ____
ROOT
ATOM      1  C   UNL     1     -11.176  54.619  50.837  0.00  0.00    +0.000 A 
ATOM      2  C   UNL     1      -9.778  55.006  50.485  0.00  0.00    +0.000 A 
ATOM      3  C   UNL     1     -11.445  53.381  51.287  0.00  0.00    +0.000 A 
ATOM      4  O   UNL     1      -9.593  56.155  50.068  0.00  0.00    +0.000 OA
ATOM      5  N   UNL     1      -8.761  54.070  50.686  0.00  0.00    +0.000 N 
ATOM      6  C   UNL     1     -10.364  52.399  51.470  0.00  0.00    +0.000 A 
ATOM      7  C   UNL     1      -9.039  52.751  51.161  0.00  0.00    +0.000 A 
ATOM      8  C   UNL     1     -10.641  51.116  51.969  0.00  0.00    +0.000 A 
ATOM      9  C   UNL     1      -8.019  51.800  51.341  0.00  0.00    +0.000 A 
ATOM     10  C   UNL     1      -9.617  50.188  52.161  0.00  0.00    +0.000 A 
ATOM     11  C   UNL     1      -8.310  50.529  51.841  0.00  0.00    +0.000 A 
ENDROOT
BRANCH   1  17
ATOM     12  S   UNL     1     -13.628  57.295  49.335  0.00  0.00    +0.000 S 
ATOM     13  O   UNL     1     -14.765  56.690  48.672  0.00  0.00    +0.000 OA
ATOM     14  O   UNL     1     -12.963  58.442  48.748  0.00  0.00    +0.000 OA
ATOM     15  N   UNL     1     -12.518  56.138  49.561  0.00  0.00    +0.000 N 
ATOM     16  C   UNL     1     -14.205  57.823  50.907  0.00  0.00    +0.000 A 
ATOM     17  C   UNL     1     -12.265  55.671  50.748  0.00  0.00    +0.000 C 
ATOM     18  C   UNL     1     -13.758  57.139  52.025  0.00  0.00    +0.000 A 
ATOM     19  C   UNL     1     -15.078  58.911  51.004  0.00  0.00    +0.000 A 
ATOM     20  N   UNL     1     -12.896  56.050  51.912  0.00  0.00    +0.000 N 
ATOM     21  C   UNL     1     -14.262  57.512  53.274  0.00  0.00    +0.000 A 
ATOM     22  C   UNL     1     -15.544  59.294  52.260  0.00  0.00    +0.000 A 
ATOM     23  C   UNL     1     -15.144  58.587  53.393  0.00  0.00    +0.000 A 
ATOM     24  H   UNL     1     -12.027  55.780  48.786  0.00  0.00    +0.000 HD
ATOM     25  H   UNL     1     -12.726  55.515  52.721  0.00  0.00    +0.000 HD
ENDBRANCH   1  17
BRANCH   3  26
ATOM     26  O   UNL     1     -12.706  52.936  51.642  0.00  0.00    +0.000 OA
ATOM     27  H   UNL     1     -13.160  52.328  51.092  0.00  0.00    +0.000 HD
ENDBRANCH   3  26
BRANCH   5  28
ATOM     28  N   UNL     1      -7.395  54.399  50.368  0.00  0.00    +0.000 N 
ATOM     29  H   UNL     1      -6.899  53.966  49.637  0.00  0.00    +0.000 HD
BRANCH  28  30
ATOM     30  C   UNL     1      -6.803  55.439  51.231  0.00  0.00    +0.000 C 
BRANCH  30  31
ATOM     31  C   UNL     1      -6.394  54.899  52.576  0.00  0.00    +0.000 A 
ATOM     32  S   UNL     1      -7.361  55.217  53.964  0.00  0.00    +0.000 S 
ATOM     33  N   UNL     1      -5.263  54.259  52.808  0.00  0.00    +0.000 NA
ATOM     34  C   UNL     1      -6.176  54.465  54.947  0.00  0.00    +0.000 A 
ATOM     35  C   UNL     1      -5.138  54.015  54.162  0.00  0.00    +0.000 A 
ENDBRANCH  30  31
ENDBRANCH  28  30
ENDBRANCH   5  28
TORSDOF 5
ENDMDL
MODEL 4
REMARK VINA RESULT:      -8.2      2.618      3.435
REMARK  Name = 
REMARK  5 active torsions:
REMARK  status: ('A' for Active; 'I' for Inactive)
REMARK    1  A    between atoms: C_6  and  C_10
REMARK    2  A    between atoms: C_14  and  O_18
REMARK    3  A    between atoms: N_17  and  N_20
REMARK    4  A    between atoms: N_20  and  C_23
REMARK    5  A    between atoms: C_23  and  C_26
REMARK                            x       y       z     vdW  Elec       q    Type
REMARK                         _______ _______ _______ _____ _____    ______ ____
ROOT
ATOM      1  C   UNL     1     -10.327  54.893  47.681  0.00  0.00    +0.000 A 
ATOM      2  C   UNL     1      -8.839  55.012  47.660  0.00  0.00    +0.000 A 
ATOM      3  C   UNL     1     -10.977  54.337  46.644  0.00  0.00    +0.000 A 
ATOM      4  O   UNL     1      -8.296  55.541  48.637  0.00  0.00    +0.000 OA
ATOM      5  N   UNL     1      -8.147  54.485  46.567  0.00  0.00    +0.000 N 
ATOM      6  C   UNL     1     -10.234  53.809  45.489  0.00  0.00    +0.000 A 
ATOM      7  C   UNL     1      -8.831  53.895  45.460  0.00  0.00    +0.000 A 
ATOM      8  C   UNL     1     -10.912  53.199  44.420  0.00  0.00    +0.000 A 
ATOM      9  C   UNL     1      -8.138  53.387  44.347  0.00  0.00    +0.000 A 
ATOM     10  C   UNL     1     -10.210  52.681  43.331  0.00  0.00    +0.000 A 
ATOM     11  C   UNL     1      -8.826  52.781  43.293  0.00  0.00    +0.000 A 
ENDROOT
BRANCH   1  17
ATOM     12  S   UNL     1     -11.709  54.944  51.357  0.00  0.00    +0.000 S 
ATOM     13  O   UNL     1     -10.726  55.420  52.308  0.00  0.00    +0.000 OA
ATOM     14  O   UNL     1     -12.559  53.817  51.684  0.00  0.00    +0.000 OA
ATOM     15  N   UNL     1     -10.932  54.599  49.979  0.00  0.00    +0.000 N 
ATOM     16  C   UNL     1     -12.790  56.295  51.058  0.00  0.00    +0.000 A 
ATOM     17  C   UNL     1     -11.074  55.342  48.922  0.00  0.00    +0.000 C 
ATOM     18  C   UNL     1     -12.736  56.907  49.817  0.00  0.00    +0.000 A 
ATOM     19  C   UNL     1     -13.680  56.713  52.052  0.00  0.00    +0.000 A 
ATOM     20  N   UNL     1     -11.836  56.486  48.839  0.00  0.00    +0.000 N 
ATOM     21  C   UNL     1     -13.548  58.022  49.594  0.00  0.00    +0.000 A 
ATOM     22  C   UNL     1     -14.510  57.804  51.802  0.00  0.00    +0.000 A 
ATOM     23  C   UNL     1     -14.435  58.466  50.576  0.00  0.00    +0.000 A 
ATOM     24  H   UNL     1     -10.340  53.813  49.941  0.00  0.00    +0.000 HD
ATOM     25  H   UNL     1     -11.740  57.045  48.035  0.00  0.00    +0.000 HD
ENDBRANCH   1  17
BRANCH   3  26
ATOM     26  O   UNL     1     -12.351  54.180  46.577  0.00  0.00    +0.000 OA
ATOM     27  H   UNL     1     -12.856  54.723  46.005  0.00  0.00    +0.000 HD
ENDBRANCH   3  26
BRANCH   5  28
ATOM     28  N   UNL     1      -6.711  54.569  46.505  0.00  0.00    +0.000 N 
ATOM     29  H   UNL     1      -6.238  55.351  46.139  0.00  0.00    +0.000 HD
BRANCH  28  30
ATOM     30  C   UNL     1      -6.008  53.386  47.035  0.00  0.00    +0.000 C 
BRANCH  30  31
ATOM     31  C   UNL     1      -5.673  53.528  48.496  0.00  0.00    +0.000 A 
ATOM     32  S   UNL     1      -6.423  52.502  49.658  0.00  0.00    +0.000 S 
ATOM     33  N   UNL     1      -4.895  54.472  48.993  0.00  0.00    +0.000 NA
ATOM     34  C   UNL     1      -5.673  53.395  50.913  0.00  0.00    +0.000 A 
ATOM     35  C   UNL     1      -4.899  54.397  50.372  0.00  0.00    +0.000 A 
ENDBRANCH  30  31
ENDBRANCH  28  30
ENDBRANCH   5  28
TORSDOF 5
ENDMDL
MODEL 5
REMARK VINA RESULT:      -8.1      3.025      7.271
REMARK  Name = 
REMARK  5 active torsions:
REMARK  status: ('A' for Active; 'I' for Inactive)
REMARK    1  A    between atoms: C_6  and  C_10
REMARK    2  A    between atoms: C_14  and  O_18
REMARK    3  A    between atoms: N_17  and  N_20
REMARK    4  A    between atoms: N_20  and  C_23
REMARK    5  A    between atoms: C_23  and  C_26
REMARK                            x       y       z     vdW  Elec       q    Type
REMARK                         _______ _______ _______ _____ _____    ______ ____
ROOT
ATOM      1  C   UNL     1     -10.335  55.199  50.824  0.00  0.00    +0.000 A 
ATOM      2  C   UNL     1      -9.969  55.107  49.379  0.00  0.00    +0.000 A 
ATOM      3  C   UNL     1     -11.524  55.708  51.191  0.00  0.00    +0.000 A 
ATOM      4  O   UNL     1      -8.858  54.638  49.102  0.00  0.00    +0.000 OA
ATOM      5  N   UNL     1     -10.910  55.512  48.430  0.00  0.00    +0.000 N 
ATOM      6  C   UNL     1     -12.494  56.154  50.178  0.00  0.00    +0.000 A 
ATOM      7  C   UNL     1     -12.174  56.058  48.812  0.00  0.00    +0.000 A 
ATOM      8  C   UNL     1     -13.748  56.657  50.561  0.00  0.00    +0.000 A 
ATOM      9  C   UNL     1     -13.113  56.489  47.858  0.00  0.00    +0.000 A 
ATOM     10  C   UNL     1     -14.678  57.064  49.604  0.00  0.00    +0.000 A 
ATOM     11  C   UNL     1     -14.356  56.985  48.255  0.00  0.00    +0.000 A 
ENDROOT
BRANCH   1  17
ATOM     12  S   UNL     1      -7.078  54.684  52.957  0.00  0.00    +0.000 S 
ATOM     13  O   UNL     1      -6.951  55.666  54.015  0.00  0.00    +0.000 OA
ATOM     14  O   UNL     1      -5.919  54.291  52.180  0.00  0.00    +0.000 OA
ATOM     15  N   UNL     1      -8.210  55.214  51.929  0.00  0.00    +0.000 N 
ATOM     16  C   UNL     1      -7.667  53.218  53.722  0.00  0.00    +0.000 A 
ATOM     17  C   UNL     1      -9.373  54.638  51.853  0.00  0.00    +0.000 C 
ATOM     18  C   UNL     1      -8.967  52.824  53.453  0.00  0.00    +0.000 A 
ATOM     19  C   UNL     1      -6.828  52.480  54.563  0.00  0.00    +0.000 A 
ATOM     20  N   UNL     1      -9.796  53.576  52.622  0.00  0.00    +0.000 N 
ATOM     21  C   UNL     1      -9.465  51.694  54.108  0.00  0.00    +0.000 A 
ATOM     22  C   UNL     1      -7.327  51.335  55.180  0.00  0.00    +0.000 A 
ATOM     23  C   UNL     1      -8.649  50.949  54.961  0.00  0.00    +0.000 A 
ATOM     24  H   UNL     1      -8.015  55.987  51.350  0.00  0.00    +0.000 HD
ATOM     25  H   UNL     1     -10.748  53.330  52.581  0.00  0.00    +0.000 HD
ENDBRANCH   1  17
BRANCH   3  26
ATOM     26  O   UNL     1     -11.950  55.828  52.502  0.00  0.00    +0.000 OA
ATOM     27  H   UNL     1     -11.722  55.170  53.129  0.00  0.00    +0.000 HD
ENDBRANCH   3  26
BRANCH   5  28
ATOM     28  N   UNL     1     -10.606  55.436  47.024  0.00  0.00    +0.000 N 
ATOM     29  H   UNL     1      -9.988  56.059  46.578  0.00  0.00    +0.000 HD
BRANCH  28  30
ATOM     30  C   UNL     1     -11.298  54.346  46.310  0.00  0.00    +0.000 C 
BRANCH  30  31
ATOM     31  C   UNL     1     -10.418  53.692  45.278  0.00  0.00    +0.000 A 
ATOM     32  S   UNL     1      -8.711  53.911  45.334  0.00  0.00    +0.000 S 
ATOM     33  N   UNL     1     -10.868  53.017  44.236  0.00  0.00    +0.000 NA
ATOM     34  C   UNL     1      -8.566  53.062  43.853  0.00  0.00    +0.000 A 
ATOM     35  C   UNL     1      -9.811  52.661  43.422  0.00  0.00    +0.000 A 
ENDBRANCH  30  31
ENDBRANCH  28  30
ENDBRANCH   5  28
TORSDOF 5
ENDMDL
MODEL 6
REMARK VINA RESULT:      -8.0      2.124      7.157
REMARK  Name = 
REMARK  5 active torsions:
REMARK  status: ('A' for Active; 'I' for Inactive)
REMARK    1  A    between atoms: C_6  and  C_10
REMARK    2  A    between atoms: C_14  and  O_18
REMARK    3  A    between atoms: N_17  and  N_20
REMARK    4  A    between atoms: N_20  and  C_23
REMARK    5  A    between atoms: C_23  and  C_26
REMARK                            x       y       z     vdW  Elec       q    Type
REMARK                         _______ _______ _______ _____ _____    ______ ____
ROOT
ATOM      1  C   UNL     1      -9.102  54.349  49.948  0.00  0.00    +0.000 A 
ATOM      2  C   UNL     1     -10.180  55.374  50.077  0.00  0.00    +0.000 A 
ATOM      3  C   UNL     1      -8.974  53.639  48.813  0.00  0.00    +0.000 A 
ATOM      4  O   UNL     1     -10.255  55.989  51.148  0.00  0.00    +0.000 OA
ATOM      5  N   UNL     1     -11.007  55.608  48.977  0.00  0.00    +0.000 N 
ATOM      6  C   UNL     1      -9.871  53.882  47.672  0.00  0.00    +0.000 A 
ATOM      7  C   UNL     1     -10.879  54.857  47.769  0.00  0.00    +0.000 A 
ATOM      8  C   UNL     1      -9.717  53.163  46.475  0.00  0.00    +0.000 A 
ATOM      9  C   UNL     1     -11.728  55.074  46.669  0.00  0.00    +0.000 A 
ATOM     10  C   UNL     1     -10.553  53.402  45.385  0.00  0.00    +0.000 A 
ATOM     11  C   UNL     1     -11.560  54.353  45.485  0.00  0.00    +0.000 A 
ENDROOT
BRANCH   1  17
ATOM     12  S   UNL     1      -7.668  54.082  53.595  0.00  0.00    +0.000 S 
ATOM     13  O   UNL     1      -7.901  52.780  54.185  0.00  0.00    +0.000 OA
ATOM     14  O   UNL     1      -7.838  55.285  54.386  0.00  0.00    +0.000 OA
ATOM     15  N   UNL     1      -8.617  54.206  52.289  0.00  0.00    +0.000 N 
ATOM     16  C   UNL     1      -5.994  54.084  53.064  0.00  0.00    +0.000 A 
ATOM     17  C   UNL     1      -8.117  54.182  51.089  0.00  0.00    +0.000 C 
ATOM     18  C   UNL     1      -5.746  54.064  51.703  0.00  0.00    +0.000 A 
ATOM     19  C   UNL     1      -4.961  54.117  54.006  0.00  0.00    +0.000 A 
ATOM     20  N   UNL     1      -6.786  54.020  50.776  0.00  0.00    +0.000 N 
ATOM     21  C   UNL     1      -4.417  54.001  51.273  0.00  0.00    +0.000 A 
ATOM     22  C   UNL     1      -3.641  54.091  53.562  0.00  0.00    +0.000 A 
ATOM     23  C   UNL     1      -3.369  54.021  52.196  0.00  0.00    +0.000 A 
ATOM     24  H   UNL     1      -9.590  54.301  52.405  0.00  0.00    +0.000 HD
ATOM     25  H   UNL     1      -6.553  53.862  49.832  0.00  0.00    +0.000 HD
ENDBRANCH   1  17
BRANCH   3  26
ATOM     26  O   UNL     1      -8.005  52.674  48.601  0.00  0.00    +0.000 OA
ATOM     27  H   UNL     1      -7.436  52.421  49.302  0.00  0.00    +0.000 HD
ENDBRANCH   3  26
BRANCH   5  28
ATOM     28  N   UNL     1     -12.056  56.593  49.051  0.00  0.00    +0.000 N 
ATOM     29  H   UNL     1     -11.946  57.514  48.724  0.00  0.00    +0.000 HD
BRANCH  28  30
ATOM     30  C   UNL     1     -13.308  56.104  49.659  0.00  0.00    +0.000 C 
BRANCH  30  31
ATOM     31  C   UNL     1     -13.742  56.948  50.827  0.00  0.00    +0.000 A 
ATOM     32  S   UNL     1     -14.299  58.558  50.571  0.00  0.00    +0.000 S 
ATOM     33  N   UNL     1     -13.640  56.580  52.091  0.00  0.00    +0.000 NA
ATOM     34  C   UNL     1     -14.388  58.785  52.266  0.00  0.00    +0.000 A 
ATOM     35  C   UNL     1     -14.005  57.629  52.911  0.00  0.00    +0.000 A 
ENDBRANCH  30  31
ENDBRANCH  28  30
ENDBRANCH   5  28
TORSDOF 5
ENDMDL
MODEL 7
REMARK VINA RESULT:      -8.0      2.905      6.936
REMARK  Name = 
REMARK  5 active torsions:
REMARK  status: ('A' for Active; 'I' for Inactive)
REMARK    1  A    between atoms: C_6  and  C_10
REMARK    2  A    between atoms: C_14  and  O_18
REMARK    3  A    between atoms: N_17  and  N_20
REMARK    4  A    between atoms: N_20  and  C_23
REMARK    5  A    between atoms: C_23  and  C_26
REMARK                            x       y       z     vdW  Elec       q    Type
REMARK                         _______ _______ _______ _____ _____    ______ ____
ROOT
ATOM      1  C   UNL     1     -11.313  54.591  48.443  0.00  0.00    +0.000 A 
ATOM      2  C   UNL     1     -11.126  54.069  49.829  0.00  0.00    +0.000 A 
ATOM      3  C   UNL     1     -12.176  55.595  48.208  0.00  0.00    +0.000 A 
ATOM      4  O   UNL     1     -10.326  53.138  49.983  0.00  0.00    +0.000 OA
ATOM      5  N   UNL     1     -11.827  54.683  50.869  0.00  0.00    +0.000 N 
ATOM      6  C   UNL     1     -12.925  56.215  49.313  0.00  0.00    +0.000 A 
ATOM      7  C   UNL     1     -12.747  55.748  50.627  0.00  0.00    +0.000 A 
ATOM      8  C   UNL     1     -13.803  57.285  49.071  0.00  0.00    +0.000 A 
ATOM      9  C   UNL     1     -13.472  56.351  51.670  0.00  0.00    +0.000 A 
ATOM     10  C   UNL     1     -14.501  57.887  50.118  0.00  0.00    +0.000 A 
ATOM     11  C   UNL     1     -14.339  57.416  51.414  0.00  0.00    +0.000 A 
ENDROOT
BRANCH   1  17
ATOM     12  S   UNL     1      -8.202  53.880  46.154  0.00  0.00    +0.000 S 
ATOM     13  O   UNL     1      -7.281  52.936  46.753  0.00  0.00    +0.000 OA
ATOM     14  O   UNL     1      -7.702  55.049  45.456  0.00  0.00    +0.000 OA
ATOM     15  N   UNL     1      -9.211  54.386  47.314  0.00  0.00    +0.000 N 
ATOM     16  C   UNL     1      -9.130  52.972  44.972  0.00  0.00    +0.000 A 
ATOM     17  C   UNL     1     -10.458  54.019  47.329  0.00  0.00    +0.000 C 
ATOM     18  C   UNL     1     -10.465  52.728  45.244  0.00  0.00    +0.000 A 
ATOM     19  C   UNL     1      -8.521  52.530  43.793  0.00  0.00    +0.000 A 
ATOM     20  N   UNL     1     -11.055  53.165  46.429  0.00  0.00    +0.000 N 
ATOM     21  C   UNL     1     -11.193  51.951  44.339  0.00  0.00    +0.000 A 
ATOM     22  C   UNL     1      -9.270  51.787  42.883  0.00  0.00    +0.000 A 
ATOM     23  C   UNL     1     -10.603  51.489  43.161  0.00  0.00    +0.000 A 
ATOM     24  H   UNL     1      -8.874  54.982  48.022  0.00  0.00    +0.000 HD
ATOM     25  H   UNL     1     -11.962  52.841  46.635  0.00  0.00    +0.000 HD
ENDBRANCH   1  17
BRANCH   3  26
ATOM     26  O   UNL     1     -12.411  56.147  46.960  0.00  0.00    +0.000 OA
ATOM     27  H   UNL     1     -13.250  56.047  46.555  0.00  0.00    +0.000 HD
ENDBRANCH   3  26
BRANCH   5  28
ATOM     28  N   UNL     1     -11.674  54.218  52.224  0.00  0.00    +0.000 N 
ATOM     29  H   UNL     1     -12.340  53.648  52.670  0.00  0.00    +0.000 HD
BRANCH  28  30
ATOM     30  C   UNL     1     -10.435  54.670  52.886  0.00  0.00    +0.000 C 
BRANCH  30  31
ATOM     31  C   UNL     1      -9.667  53.530  53.499  0.00  0.00    +0.000 A 
ATOM     32  S   UNL     1      -7.946  53.523  53.452  0.00  0.00    +0.000 S 
ATOM     33  N   UNL     1     -10.224  52.445  54.005  0.00  0.00    +0.000 NA
ATOM     34  C   UNL     1      -7.945  51.953  54.136  0.00  0.00    +0.000 A 
ATOM     35  C   UNL     1      -9.240  51.544  54.365  0.00  0.00    +0.000 A 
ENDBRANCH  30  31
ENDBRANCH  28  30
ENDBRANCH   5  28
TORSDOF 5
ENDMDL
MODEL 8
REMARK VINA RESULT:      -8.0      3.311      5.432
REMARK  Name = 
REMARK  5 active torsions:
REMARK  status: ('A' for Active; 'I' for Inactive)
REMARK    1  A    between atoms: C_6  and  C_10
REMARK    2  A    between atoms: C_14  and  O_18
REMARK    3  A    between atoms: N_17  and  N_20
REMARK    4  A    between atoms: N_20  and  C_23
REMARK    5  A    between atoms: C_23  and  C_26
REMARK                            x       y       z     vdW  Elec       q    Type
REMARK                         _______ _______ _______ _____ _____    ______ ____
ROOT
ATOM      1  C   UNL     1     -12.275  54.249  50.200  0.00  0.00    +0.000 A 
ATOM      2  C   UNL     1     -12.042  53.841  48.782  0.00  0.00    +0.000 A 
ATOM      3  C   UNL     1     -11.687  53.576  51.204  0.00  0.00    +0.000 A 
ATOM      4  O   UNL     1     -12.617  54.492  47.902  0.00  0.00    +0.000 OA
ATOM      5  N   UNL     1     -11.163  52.785  48.533  0.00  0.00    +0.000 N 
ATOM      6  C   UNL     1     -10.782  52.450  50.924  0.00  0.00    +0.000 A 
ATOM      7  C   UNL     1     -10.537  52.063  49.594  0.00  0.00    +0.000 A 
ATOM      8  C   UNL     1     -10.144  51.766  51.971  0.00  0.00    +0.000 A 
ATOM      9  C   UNL     1      -9.671  50.984  49.345  0.00  0.00    +0.000 A 
ATOM     10  C   UNL     1      -9.272  50.709  51.709  0.00  0.00    +0.000 A 
ATOM     11  C   UNL     1      -9.041  50.316  50.398  0.00  0.00    +0.000 A 
ENDROOT
BRANCH   1  17
ATOM     12  S   UNL     1     -15.272  56.493  51.387  0.00  0.00    +0.000 S 
ATOM     13  O   UNL     1     -15.253  56.726  52.817  0.00  0.00    +0.000 OA
ATOM     14  O   UNL     1     -16.522  56.218  50.706  0.00  0.00    +0.000 OA
ATOM     15  N   UNL     1     -14.256  55.272  51.076  0.00  0.00    +0.000 N 
ATOM     16  C   UNL     1     -14.629  57.950  50.648  0.00  0.00    +0.000 A 
ATOM     17  C   UNL     1     -13.122  55.477  50.473  0.00  0.00    +0.000 C 
ATOM     18  C   UNL     1     -13.378  57.880  50.059  0.00  0.00    +0.000 A 
ATOM     19  C   UNL     1     -15.380  59.130  50.655  0.00  0.00    +0.000 A 
ATOM     20  N   UNL     1     -12.636  56.701  50.069  0.00  0.00    +0.000 N 
ATOM     21  C   UNL     1     -12.832  59.051  49.525  0.00  0.00    +0.000 A 
ATOM     22  C   UNL     1     -14.838  60.280  50.086  0.00  0.00    +0.000 A 
ATOM     23  C   UNL     1     -13.559  60.243  49.531  0.00  0.00    +0.000 A 
ATOM     24  H   UNL     1     -14.500  54.357  51.348  0.00  0.00    +0.000 HD
ATOM     25  H   UNL     1     -11.700  56.746  49.766  0.00  0.00    +0.000 HD
ENDBRANCH   1  17
BRANCH   3  26
ATOM     26  O   UNL     1     -11.839  53.884  52.545  0.00  0.00    +0.000 OA
ATOM     27  H   UNL     1     -12.328  54.643  52.798  0.00  0.00    +0.000 HD
ENDBRANCH   3  26
BRANCH   5  28
ATOM     28  N   UNL     1     -10.901  52.360  47.181  0.00  0.00    +0.000 N 
ATOM     29  H   UNL     1     -11.369  51.604  46.760  0.00  0.00    +0.000 HD
BRANCH  28  30
ATOM     30  C   UNL     1      -9.873  53.154  46.482  0.00  0.00    +0.000 C 
BRANCH  30  31
ATOM     31  C   UNL     1      -9.593  52.632  45.098  0.00  0.00    +0.000 A 
ATOM     32  S   UNL     1      -8.186  51.686  44.799  0.00  0.00    +0.000 S 
ATOM     33  N   UNL     1     -10.313  52.929  44.031  0.00  0.00    +0.000 NA
ATOM     34  C   UNL     1      -8.552  51.692  43.125  0.00  0.00    +0.000 A 
ATOM     35  C   UNL     1      -9.716  52.395  42.906  0.00  0.00    +0.000 A 
ENDBRANCH  30  31
ENDBRANCH  28  30
ENDBRANCH   5  28
TORSDOF 5
ENDMDL
MODEL 9
REMARK VINA RESULT:      -7.9      3.011      7.467
REMARK  Name = 
REMARK  5 active torsions:
REMARK  status: ('A' for Active; 'I' for Inactive)
REMARK    1  A    between atoms: C_6  and  C_10
REMARK    2  A    between atoms: C_14  and  O_18
REMARK    3  A    between atoms: N_17  and  N_20
REMARK    4  A    between atoms: N_20  and  C_23
REMARK    5  A    between atoms: C_23  and  C_26
REMARK                            x       y       z     vdW  Elec       q    Type
REMARK                         _______ _______ _______ _____ _____    ______ ____
ROOT
ATOM      1  C   UNL     1     -10.331  54.874  50.245  0.00  0.00    +0.000 A 
ATOM      2  C   UNL     1     -10.104  54.720  48.777  0.00  0.00    +0.000 A 
ATOM      3  C   UNL     1     -11.377  55.587  50.698  0.00  0.00    +0.000 A 
ATOM      4  O   UNL     1      -9.120  54.062  48.420  0.00  0.00    +0.000 OA
ATOM      5  N   UNL     1     -11.032  55.287  47.900  0.00  0.00    +0.000 N 
ATOM      6  C   UNL     1     -12.331  56.198  49.759  0.00  0.00    +0.000 A 
ATOM      7  C   UNL     1     -12.144  56.048  48.374  0.00  0.00    +0.000 A 
ATOM      8  C   UNL     1     -13.442  56.916  50.233  0.00  0.00    +0.000 A 
ATOM      9  C   UNL     1     -13.065  56.640  47.491  0.00  0.00    +0.000 A 
ATOM     10  C   UNL     1     -14.359  57.482  49.347  0.00  0.00    +0.000 A 
ATOM     11  C   UNL     1     -14.166  57.348  47.978  0.00  0.00    +0.000 A 
ENDROOT
BRANCH   1  17
ATOM     12  S   UNL     1      -8.658  51.978  52.304  0.00  0.00    +0.000 S 
ATOM     13  O   UNL     1      -7.729  51.202  51.508  0.00  0.00    +0.000 OA
ATOM     14  O   UNL     1      -9.555  51.319  53.232  0.00  0.00    +0.000 OA
ATOM     15  N   UNL     1      -9.556  52.862  51.287  0.00  0.00    +0.000 N 
ATOM     16  C   UNL     1      -7.679  53.069  53.270  0.00  0.00    +0.000 A 
ATOM     17  C   UNL     1      -9.405  54.151  51.203  0.00  0.00    +0.000 C 
ATOM     18  C   UNL     1      -7.716  54.418  52.961  0.00  0.00    +0.000 A 
ATOM     19  C   UNL     1      -6.904  52.570  54.321  0.00  0.00    +0.000 A 
ATOM     20  N   UNL     1      -8.485  54.900  51.903  0.00  0.00    +0.000 N 
ATOM     21  C   UNL     1      -6.891  55.285  53.683  0.00  0.00    +0.000 A 
ATOM     22  C   UNL     1      -6.114  53.452  55.056  0.00  0.00    +0.000 A 
ATOM     23  C   UNL     1      -6.099  54.807  54.730  0.00  0.00    +0.000 A 
ATOM     24  H   UNL     1     -10.227  52.416  50.721  0.00  0.00    +0.000 HD
ATOM     25  H   UNL     1      -8.362  55.840  51.639  0.00  0.00    +0.000 HD
ENDBRANCH   1  17
BRANCH   3  26
ATOM     26  O   UNL     1     -11.669  55.779  52.037  0.00  0.00    +0.000 OA
ATOM     27  H   UNL     1     -12.541  56.005  52.298  0.00  0.00    +0.000 HD
ENDBRANCH   3  26
BRANCH   5  28
ATOM     28  N   UNL     1     -10.860  55.159  46.476  0.00  0.00    +0.000 N 
ATOM     29  H   UNL     1     -10.438  55.857  45.925  0.00  0.00    +0.000 HD
BRANCH  28  30
ATOM     30  C   UNL     1     -11.368  53.893  45.913  0.00  0.00    +0.000 C 
BRANCH  30  31
ATOM     31  C   UNL     1     -10.454  53.331  44.858  0.00  0.00    +0.000 A 
ATOM     32  S   UNL     1      -8.771  53.694  44.889  0.00  0.00    +0.000 S 
ATOM     33  N   UNL     1     -10.862  52.633  43.814  0.00  0.00    +0.000 NA
ATOM     34  C   UNL     1      -8.579  52.881  43.394  0.00  0.00    +0.000 A 
ATOM     35  C   UNL     1      -9.793  52.380  42.978  0.00  0.00    +0.000 A 
ENDBRANCH  30  31
ENDBRANCH  28  30
ENDBRANCH   5  28
TORSDOF 5
ENDMDL
