MODEL 1
REMARK VINA RESULT:      -8.0      0.000      0.000
REMARK  Name = 
REMARK  8 active torsions:
REMARK  status: ('A' for Active; 'I' for Inactive)
REMARK    1  A    between atoms: C_6  and  C_10
REMARK    2  A    between atoms: C_14  and  O_18
REMARK    3  A    between atoms: N_17  and  C_21
REMARK    4  A    between atoms: C_21  and  C_24
REMARK    5  A    between atoms: C_24  and  C_27
REMARK    6  A    between atoms: C_24  and  C_28
REMARK    7  A    between atoms: C_27  and  C_29
REMARK    8  A    between atoms: C_28  and  C_30
REMARK                            x       y       z     vdW  Elec       q    Type
REMARK                         _______ _______ _______ _____ _____    ______ ____
ROOT
ATOM      1  C   UNL     1     -10.207  55.345  50.800  0.00  0.00    +0.000 A 
ATOM      2  C   UNL     1      -9.836  55.571  49.369  0.00  0.00    +0.000 A 
ATOM      3  C   UNL     1     -11.463  55.638  51.185  0.00  0.00    +0.000 A 
ATOM      4  O   UNL     1      -8.642  55.648  49.070  0.00  0.00    +0.000 OA
ATOM      5  N   UNL     1     -10.864  55.589  48.446  0.00  0.00    +0.000 N 
ATOM      6  C   UNL     1     -12.429  56.146  50.211  0.00  0.00    +0.000 A 
ATOM      7  C   UNL     1     -12.143  56.067  48.845  0.00  0.00    +0.000 A 
ATOM      8  C   UNL     1     -13.659  56.692  50.597  0.00  0.00    +0.000 A 
ATOM      9  N   UNL     1     -13.012  56.488  47.893  0.00  0.00    +0.000 NA
ATOM     10  C   UNL     1     -14.541  57.161  49.633  0.00  0.00    +0.000 A 
ATOM     11  C   UNL     1     -14.175  57.038  48.307  0.00  0.00    +0.000 A 
ENDROOT
BRANCH   1  17
ATOM     12  S   UNL     1      -6.911  54.996  52.905  0.00  0.00    +0.000 S 
ATOM     13  O   UNL     1      -6.897  55.969  53.980  0.00  0.00    +0.000 OA
ATOM     14  O   UNL     1      -5.707  54.732  52.143  0.00  0.00    +0.000 OA
ATOM     15  N   UNL     1      -8.065  55.436  51.860  0.00  0.00    +0.000 N 
ATOM     16  C   UNL     1      -7.375  53.472  53.637  0.00  0.00    +0.000 A 
ATOM     17  C   UNL     1      -9.173  54.765  51.750  0.00  0.00    +0.000 C 
ATOM     18  C   UNL     1      -8.621  52.953  53.323  0.00  0.00    +0.000 A 
ATOM     19  C   UNL     1      -6.497  52.835  54.517  0.00  0.00    +0.000 A 
ATOM     20  N   UNL     1      -9.474  53.610  52.442  0.00  0.00    +0.000 N 
ATOM     21  C   UNL     1      -9.006  51.759  53.939  0.00  0.00    +0.000 A 
ATOM     22  C   UNL     1      -6.888  51.639  55.112  0.00  0.00    +0.000 A 
ATOM     23  C   UNL     1      -8.143  51.104  54.826  0.00  0.00    +0.000 A 
ATOM     24  H   UNL     1      -7.924  56.230  51.295  0.00  0.00    +0.000 HD
ATOM     25  H   UNL     1     -10.366  53.219  52.300  0.00  0.00    +0.000 HD
ENDBRANCH   1  17
BRANCH   3  26
ATOM     26  O   UNL     1     -11.957  55.482  52.466  0.00  0.00    +0.000 OA
ATOM     27  H   UNL     1     -12.368  54.678  52.715  0.00  0.00    +0.000 HD
ENDBRANCH   3  26
BRANCH   5  28
ATOM     28  C   UNL     1     -10.565  55.482  47.017  0.00  0.00    +0.000 C 
BRANCH  28  29
ATOM     29  C   UNL     1     -10.551  54.024  46.473  0.00  0.00    +0.000 C 
BRANCH  29  30
ATOM     30  C   UNL     1     -11.549  53.784  45.315  0.00  0.00    +0.000 C 
ATOM     31  C   UNL     1     -11.088  52.824  44.229  0.00  0.00    +0.000 C 
ENDBRANCH  29  30
BRANCH  29  32
ATOM     32  C   UNL     1      -9.126  53.583  46.078  0.00  0.00    +0.000 C 
ATOM     33  C   UNL     1      -8.208  54.748  45.732  0.00  0.00    +0.000 C 
ENDBRANCH  29  32
ENDBRANCH  28  29
ENDBRANCH   5  28
TORSDOF 6
ENDMDL
MODEL 2
REMARK VINA RESULT:      -8.0      1.569      2.123
REMARK  Name = 
REMARK  8 active torsions:
REMARK  status: ('A' for Active; 'I' for Inactive)
REMARK    1  A    between atoms: C_6  and  C_10
REMARK    2  A    between atoms: C_14  and  O_18
REMARK    3  A    between atoms: N_17  and  C_21
REMARK    4  A    between atoms: C_21  and  C_24
REMARK    5  A    between atoms: C_24  and  C_27
REMARK    6  A    between atoms: C_24  and  C_28
REMARK    7  A    between atoms: C_27  and  C_29
REMARK    8  A    between atoms: C_28  and  C_30
REMARK                            x       y       z     vdW  Elec       q    Type
REMARK                         _______ _______ _______ _____ _____    ______ ____
ROOT
ATOM      1  C   UNL     1     -10.516  55.156  50.568  0.00  0.00    +0.000 A 
ATOM      2  C   UNL     1      -9.954  55.446  49.212  0.00  0.00    +0.000 A 
ATOM      3  C   UNL     1     -11.802  55.475  50.805  0.00  0.00    +0.000 A 
ATOM      4  O   UNL     1      -8.729  55.494  49.076  0.00  0.00    +0.000 OA
ATOM      5  N   UNL     1     -10.851  55.553  48.168  0.00  0.00    +0.000 N 
ATOM      6  C   UNL     1     -12.616  56.071  49.746  0.00  0.00    +0.000 A 
ATOM      7  C   UNL     1     -12.156  56.056  48.426  0.00  0.00    +0.000 A 
ATOM      8  C   UNL     1     -13.869  56.641  50.002  0.00  0.00    +0.000 A 
ATOM      9  N   UNL     1     -12.880  56.560  47.396  0.00  0.00    +0.000 NA
ATOM     10  C   UNL     1     -14.603  57.195  48.962  0.00  0.00    +0.000 A 
ATOM     11  C   UNL     1     -14.070  57.130  47.689  0.00  0.00    +0.000 A 
ENDROOT
BRANCH   1  17
ATOM     12  S   UNL     1      -9.071  52.401  52.964  0.00  0.00    +0.000 S 
ATOM     13  O   UNL     1      -8.424  51.355  52.195  0.00  0.00    +0.000 OA
ATOM     14  O   UNL     1      -9.902  52.062  54.102  0.00  0.00    +0.000 OA
ATOM     15  N   UNL     1      -9.970  53.276  51.944  0.00  0.00    +0.000 N 
ATOM     16  C   UNL     1      -7.781  53.416  53.581  0.00  0.00    +0.000 A 
ATOM     17  C   UNL     1      -9.632  54.486  51.607  0.00  0.00    +0.000 C 
ATOM     18  C   UNL     1      -7.658  54.696  53.064  0.00  0.00    +0.000 A 
ATOM     19  C   UNL     1      -6.913  52.913  54.553  0.00  0.00    +0.000 A 
ATOM     20  N   UNL     1      -8.539  55.170  52.096  0.00  0.00    +0.000 N 
ATOM     21  C   UNL     1      -6.605  55.490  53.527  0.00  0.00    +0.000 A 
ATOM     22  C   UNL     1      -5.878  53.720  55.015  0.00  0.00    +0.000 A 
ATOM     23  C   UNL     1      -5.722  55.006  54.499  0.00  0.00    +0.000 A 
ATOM     24  H   UNL     1     -10.792  52.884  51.569  0.00  0.00    +0.000 HD
ATOM     25  H   UNL     1      -8.367  56.068  51.730  0.00  0.00    +0.000 HD
ENDBRANCH   1  17
BRANCH   3  26
ATOM     26  O   UNL     1     -12.463  55.267  52.000  0.00  0.00    +0.000 OA
ATOM     27  H   UNL     1     -12.033  54.821  52.702  0.00  0.00    +0.000 HD
ENDBRANCH   3  26
BRANCH   5  28
ATOM     28  C   UNL     1     -10.371  55.513  46.786  0.00  0.00    +0.000 C 
BRANCH  28  29
ATOM     29  C   UNL     1     -10.389  54.096  46.142  0.00  0.00    +0.000 C 
BRANCH  29  30
ATOM     30  C   UNL     1     -11.646  53.820  45.282  0.00  0.00    +0.000 C 
ATOM     31  C   UNL     1     -11.946  52.357  44.994  0.00  0.00    +0.000 C 
ENDBRANCH  29  30
BRANCH  29  32
ATOM     32  C   UNL     1      -9.098  53.824  45.341  0.00  0.00    +0.000 C 
ATOM     33  C   UNL     1      -7.972  54.798  45.663  0.00  0.00    +0.000 C 
ENDBRANCH  29  32
ENDBRANCH  28  29
ENDBRANCH   5  28
TORSDOF 6
ENDMDL
MODEL 3
REMARK VINA RESULT:      -7.7      3.730      6.795
REMARK  Name = 
REMARK  8 active torsions:
REMARK  status: ('A' for Active; 'I' for Inactive)
REMARK    1  A    between atoms: C_6  and  C_10
REMARK    2  A    between atoms: C_14  and  O_18
REMARK    3  A    between atoms: N_17  and  C_21
REMARK    4  A    between atoms: C_21  and  C_24
REMARK    5  A    between atoms: C_24  and  C_27
REMARK    6  A    between atoms: C_24  and  C_28
REMARK    7  A    between atoms: C_27  and  C_29
REMARK    8  A    between atoms: C_28  and  C_30
REMARK                            x       y       z     vdW  Elec       q    Type
REMARK                         _______ _______ _______ _____ _____    ______ ____
ROOT
ATOM      1  C   UNL     1     -12.326  54.265  49.809  0.00  0.00    +0.000 A 
ATOM      2  C   UNL     1     -11.774  54.076  48.432  0.00  0.00    +0.000 A 
ATOM      3  C   UNL     1     -11.989  53.370  50.757  0.00  0.00    +0.000 A 
ATOM      4  O   UNL     1     -12.324  54.650  47.488  0.00  0.00    +0.000 OA
ATOM      5  N   UNL     1     -10.614  53.336  48.313  0.00  0.00    +0.000 N 
ATOM      6  C   UNL     1     -11.091  52.261  50.433  0.00  0.00    +0.000 A 
ATOM      7  C   UNL     1     -10.370  52.281  49.236  0.00  0.00    +0.000 A 
ATOM      8  C   UNL     1     -10.904  51.178  51.300  0.00  0.00    +0.000 A 
ATOM      9  N   UNL     1      -9.496  51.301  48.896  0.00  0.00    +0.000 NA
ATOM     10  C   UNL     1     -10.040  50.150  50.945  0.00  0.00    +0.000 A 
ATOM     11  C   UNL     1      -9.366  50.257  49.744  0.00  0.00    +0.000 A 
ENDROOT
BRANCH   1  17
ATOM     12  S   UNL     1     -15.320  56.406  51.176  0.00  0.00    +0.000 S 
ATOM     13  O   UNL     1     -15.242  56.513  52.620  0.00  0.00    +0.000 OA
ATOM     14  O   UNL     1     -16.597  56.182  50.529  0.00  0.00    +0.000 OA
ATOM     15  N   UNL     1     -14.323  55.217  50.718  0.00  0.00    +0.000 N 
ATOM     16  C   UNL     1     -14.707  57.921  50.544  0.00  0.00    +0.000 A 
ATOM     17  C   UNL     1     -13.210  55.467  50.094  0.00  0.00    +0.000 C 
ATOM     18  C   UNL     1     -13.488  57.904  49.883  0.00  0.00    +0.000 A 
ATOM     19  C   UNL     1     -15.442  59.094  50.731  0.00  0.00    +0.000 A 
ATOM     20  N   UNL     1     -12.779  56.720  49.711  0.00  0.00    +0.000 N 
ATOM     21  C   UNL     1     -12.981  59.120  49.415  0.00  0.00    +0.000 A 
ATOM     22  C   UNL     1     -14.931  60.295  50.247  0.00  0.00    +0.000 A 
ATOM     23  C   UNL     1     -13.700  60.308  49.594  0.00  0.00    +0.000 A 
ATOM     24  H   UNL     1     -14.565  54.284  50.916  0.00  0.00    +0.000 HD
ATOM     25  H   UNL     1     -11.895  56.781  49.281  0.00  0.00    +0.000 HD
ENDBRANCH   1  17
BRANCH   3  26
ATOM     26  O   UNL     1     -12.414  53.410  52.071  0.00  0.00    +0.000 OA
ATOM     27  H   UNL     1     -12.443  54.226  52.530  0.00  0.00    +0.000 HD
ENDBRANCH   3  26
BRANCH   5  28
ATOM     28  C   UNL     1      -9.846  53.376  47.068  0.00  0.00    +0.000 C 
BRANCH  28  29
ATOM     29  C   UNL     1      -8.596  54.302  47.115  0.00  0.00    +0.000 C 
BRANCH  29  30
ATOM     30  C   UNL     1      -8.105  54.754  45.719  0.00  0.00    +0.000 C 
ATOM     31  C   UNL     1      -8.405  53.804  44.569  0.00  0.00    +0.000 C 
ENDBRANCH  29  30
BRANCH  29  32
ATOM     32  C   UNL     1      -8.827  55.514  48.042  0.00  0.00    +0.000 C 
ATOM     33  C   UNL     1      -7.938  55.505  49.279  0.00  0.00    +0.000 C 
ENDBRANCH  29  32
ENDBRANCH  28  29
ENDBRANCH   5  28
TORSDOF 6
ENDMDL
MODEL 4
REMARK VINA RESULT:      -7.6      2.268      2.758
REMARK  Name = 
REMARK  8 active torsions:
REMARK  status: ('A' for Active; 'I' for Inactive)
REMARK    1  A    between atoms: C_6  and  C_10
REMARK    2  A    between atoms: C_14  and  O_18
REMARK    3  A    between atoms: N_17  and  C_21
REMARK    4  A    between atoms: C_21  and  C_24
REMARK    5  A    between atoms: C_24  and  C_27
REMARK    6  A    between atoms: C_24  and  C_28
REMARK    7  A    between atoms: C_27  and  C_29
REMARK    8  A    between atoms: C_28  and  C_30
REMARK                            x       y       z     vdW  Elec       q    Type
REMARK                         _______ _______ _______ _____ _____    ______ ____
ROOT
ATOM      1  C   UNL     1      -9.442  55.340  50.585  0.00  0.00    +0.000 A 
ATOM      2  C   UNL     1      -9.786  55.631  49.159  0.00  0.00    +0.000 A 
ATOM      3  C   UNL     1     -10.427  55.390  51.500  0.00  0.00    +0.000 A 
ATOM      4  O   UNL     1      -8.879  55.932  48.379  0.00  0.00    +0.000 OA
ATOM      5  N   UNL     1     -11.102  55.454  48.779  0.00  0.00    +0.000 N 
ATOM      6  C   UNL     1     -11.796  55.706  51.088  0.00  0.00    +0.000 A 
ATOM      7  C   UNL     1     -12.133  55.681  49.732  0.00  0.00    +0.000 A 
ATOM      8  C   UNL     1     -12.801  56.010  52.014  0.00  0.00    +0.000 A 
ATOM      9  N   UNL     1     -13.391  55.929  49.290  0.00  0.00    +0.000 NA
ATOM     10  C   UNL     1     -14.084  56.303  51.571  0.00  0.00    +0.000 A 
ATOM     11  C   UNL     1     -14.326  56.250  50.211  0.00  0.00    +0.000 A 
ENDROOT
BRANCH   1  17
ATOM     12  S   UNL     1      -5.775  53.987  50.205  0.00  0.00    +0.000 S 
ATOM     13  O   UNL     1      -5.003  54.864  49.346  0.00  0.00    +0.000 OA
ATOM     14  O   UNL     1      -5.648  52.549  50.082  0.00  0.00    +0.000 OA
ATOM     15  N   UNL     1      -7.337  54.359  50.009  0.00  0.00    +0.000 N 
ATOM     16  C   UNL     1      -5.310  54.384  51.848  0.00  0.00    +0.000 A 
ATOM     17  C   UNL     1      -8.012  54.966  50.940  0.00  0.00    +0.000 C 
ATOM     18  C   UNL     1      -6.245  55.014  52.654  0.00  0.00    +0.000 A 
ATOM     19  C   UNL     1      -4.023  54.074  52.294  0.00  0.00    +0.000 A 
ATOM     20  N   UNL     1      -7.520  55.310  52.182  0.00  0.00    +0.000 N 
ATOM     21  C   UNL     1      -5.860  55.367  53.950  0.00  0.00    +0.000 A 
ATOM     22  C   UNL     1      -3.658  54.418  53.591  0.00  0.00    +0.000 A 
ATOM     23  C   UNL     1      -4.574  55.068  54.417  0.00  0.00    +0.000 A 
ATOM     24  H   UNL     1      -7.786  54.120  49.166  0.00  0.00    +0.000 HD
ATOM     25  H   UNL     1      -8.121  55.805  52.784  0.00  0.00    +0.000 HD
ENDBRANCH   1  17
BRANCH   3  26
ATOM     26  O   UNL     1     -10.270  55.145  52.850  0.00  0.00    +0.000 OA
ATOM     27  H   UNL     1     -10.650  55.725  53.480  0.00  0.00    +0.000 HD
ENDBRANCH   3  26
BRANCH   5  28
ATOM     28  C   UNL     1     -11.452  55.404  47.359  0.00  0.00    +0.000 C 
BRANCH  28  29
ATOM     29  C   UNL     1     -11.273  54.004  46.703  0.00  0.00    +0.000 C 
BRANCH  29  30
ATOM     30  C   UNL     1     -12.039  52.874  47.432  0.00  0.00    +0.000 C 
ATOM     31  C   UNL     1     -11.187  51.913  48.247  0.00  0.00    +0.000 C 
ENDBRANCH  29  30
BRANCH  29  32
ATOM     32  C   UNL     1     -11.626  54.035  45.201  0.00  0.00    +0.000 C 
ATOM     33  C   UNL     1     -10.895  52.975  44.387  0.00  0.00    +0.000 C 
ENDBRANCH  29  32
ENDBRANCH  28  29
ENDBRANCH   5  28
TORSDOF 6
ENDMDL
MODEL 5
REMARK VINA RESULT:      -7.6      1.378      4.273
REMARK  Name = 
REMARK  8 active torsions:
REMARK  status: ('A' for Active; 'I' for Inactive)
REMARK    1  A    between atoms: C_6  and  C_10
REMARK    2  A    between atoms: C_14  and  O_18
REMARK    3  A    between atoms: N_17  and  C_21
REMARK    4  A    between atoms: C_21  and  C_24
REMARK    5  A    between atoms: C_24  and  C_27
REMARK    6  A    between atoms: C_24  and  C_28
REMARK    7  A    between atoms: C_27  and  C_29
REMARK    8  A    between atoms: C_28  and  C_30
REMARK                            x       y       z     vdW  Elec       q    Type
REMARK                         _______ _______ _______ _____ _____    ______ ____
ROOT
ATOM      1  C   UNL     1     -10.095  54.610  50.727  0.00  0.00    +0.000 A 
ATOM      2  C   UNL     1     -11.527  54.734  51.141  0.00  0.00    +0.000 A 
ATOM      3  C   UNL     1      -9.775  54.892  49.451  0.00  0.00    +0.000 A 
ATOM      4  O   UNL     1     -11.900  54.163  52.169  0.00  0.00    +0.000 OA
ATOM      5  N   UNL     1     -12.332  55.565  50.386  0.00  0.00    +0.000 N 
ATOM      6  C   UNL     1     -10.812  55.324  48.513  0.00  0.00    +0.000 A 
ATOM      7  C   UNL     1     -12.065  55.708  48.996  0.00  0.00    +0.000 A 
ATOM      8  C   UNL     1     -10.585  55.392  47.133  0.00  0.00    +0.000 A 
ATOM      9  N   UNL     1     -13.055  56.152  48.181  0.00  0.00    +0.000 NA
ATOM     10  C   UNL     1     -11.603  55.808  46.285  0.00  0.00    +0.000 A 
ATOM     11  C   UNL     1     -12.809  56.173  46.852  0.00  0.00    +0.000 A 
ENDROOT
BRANCH   1  17
ATOM     12  S   UNL     1      -6.880  54.742  52.978  0.00  0.00    +0.000 S 
ATOM     13  O   UNL     1      -7.000  55.800  53.963  0.00  0.00    +0.000 OA
ATOM     14  O   UNL     1      -5.624  54.527  52.289  0.00  0.00    +0.000 OA
ATOM     15  N   UNL     1      -8.019  54.986  51.856  0.00  0.00    +0.000 N 
ATOM     16  C   UNL     1      -7.241  53.249  53.823  0.00  0.00    +0.000 A 
ATOM     17  C   UNL     1      -9.058  54.209  51.763  0.00  0.00    +0.000 C 
ATOM     18  C   UNL     1      -8.421  52.594  53.508  0.00  0.00    +0.000 A 
ATOM     19  C   UNL     1      -6.352  52.771  54.788  0.00  0.00    +0.000 A 
ATOM     20  N   UNL     1      -9.288  53.094  52.542  0.00  0.00    +0.000 N 
ATOM     21  C   UNL     1      -8.728  51.425  54.212  0.00  0.00    +0.000 A 
ATOM     22  C   UNL     1      -6.663  51.599  55.470  0.00  0.00    +0.000 A 
ATOM     23  C   UNL     1      -7.852  50.929  55.185  0.00  0.00    +0.000 A 
ATOM     24  H   UNL     1      -7.923  55.739  51.229  0.00  0.00    +0.000 HD
ATOM     25  H   UNL     1     -10.135  52.612  52.401  0.00  0.00    +0.000 HD
ENDBRANCH   1  17
BRANCH   3  26
ATOM     26  O   UNL     1      -8.501  54.827  48.920  0.00  0.00    +0.000 OA
ATOM     27  H   UNL     1      -7.765  55.099  49.433  0.00  0.00    +0.000 HD
ENDBRANCH   3  26
BRANCH   5  28
ATOM     28  C   UNL     1     -13.634  55.987  50.902  0.00  0.00    +0.000 C 
BRANCH  28  29
ATOM     29  C   UNL     1     -13.674  57.454  51.419  0.00  0.00    +0.000 C 
BRANCH  29  30
ATOM     30  C   UNL     1     -14.663  58.359  50.646  0.00  0.00    +0.000 C 
ATOM     31  C   UNL     1     -14.066  59.607  50.013  0.00  0.00    +0.000 C 
ENDBRANCH  29  30
BRANCH  29  32
ATOM     32  C   UNL     1     -13.942  57.509  52.938  0.00  0.00    +0.000 C 
ATOM     33  C   UNL     1     -15.262  58.180  53.294  0.00  0.00    +0.000 C 
ENDBRANCH  29  32
ENDBRANCH  28  29
ENDBRANCH   5  28
TORSDOF 6
ENDMDL
MODEL 6
REMARK VINA RESULT:      -7.5      2.754      6.584
REMARK  Name = 
REMARK  8 active torsions:
REMARK  status: ('A' for Active; 'I' for Inactive)
REMARK    1  A    between atoms: C_6  and  C_10
REMARK    2  A    between atoms: C_14  and  O_18
REMARK    3  A    between atoms: N_17  and  C_21
REMARK    4  A    between atoms: C_21  and  C_24
REMARK    5  A    between atoms: C_24  and  C_27
REMARK    6  A    between atoms: C_24  and  C_28
REMARK    7  A    between atoms: C_27  and  C_29
REMARK    8  A    between atoms: C_28  and  C_30
REMARK                            x       y       z     vdW  Elec       q    Type
REMARK                         _______ _______ _______ _____ _____    ______ ____
ROOT
ATOM      1  C   UNL     1     -11.645  54.793  50.772  0.00  0.00    +0.000 A 
ATOM      2  C   UNL     1     -11.650  54.023  49.490  0.00  0.00    +0.000 A 
ATOM      3  C   UNL     1     -10.744  54.456  51.713  0.00  0.00    +0.000 A 
ATOM      4  O   UNL     1     -12.654  54.066  48.775  0.00  0.00    +0.000 OA
ATOM      5  N   UNL     1     -10.481  53.378  49.138  0.00  0.00    +0.000 N 
ATOM      6  C   UNL     1      -9.790  53.375  51.461  0.00  0.00    +0.000 A 
ATOM      7  C   UNL     1      -9.629  52.882  50.164  0.00  0.00    +0.000 A 
ATOM      8  C   UNL     1      -9.003  52.825  52.480  0.00  0.00    +0.000 A 
ATOM      9  N   UNL     1      -8.736  51.906  49.861  0.00  0.00    +0.000 NA
ATOM     10  C   UNL     1      -8.114  51.799  52.189  0.00  0.00    +0.000 A 
ATOM     11  C   UNL     1      -8.018  51.379  50.877  0.00  0.00    +0.000 A 
ENDROOT
BRANCH   1  17
ATOM     12  S   UNL     1     -14.406  57.075  52.381  0.00  0.00    +0.000 S 
ATOM     13  O   UNL     1     -13.876  57.758  53.546  0.00  0.00    +0.000 OA
ATOM     14  O   UNL     1     -15.743  56.517  52.408  0.00  0.00    +0.000 OA
ATOM     15  N   UNL     1     -13.383  55.880  52.006  0.00  0.00    +0.000 N 
ATOM     16  C   UNL     1     -14.389  58.251  51.081  0.00  0.00    +0.000 A 
ATOM     17  C   UNL     1     -12.626  55.940  50.950  0.00  0.00    +0.000 C 
ATOM     18  C   UNL     1     -13.489  58.060  50.044  0.00  0.00    +0.000 A 
ATOM     19  C   UNL     1     -15.259  59.342  51.127  0.00  0.00    +0.000 A 
ATOM     20  N   UNL     1     -12.635  56.962  50.025  0.00  0.00    +0.000 N 
ATOM     21  C   UNL     1     -13.448  59.020  49.028  0.00  0.00    +0.000 A 
ATOM     22  C   UNL     1     -15.218  60.282  50.102  0.00  0.00    +0.000 A 
ATOM     23  C   UNL     1     -14.310  60.123  49.055  0.00  0.00    +0.000 A 
ATOM     24  H   UNL     1     -13.332  55.089  52.591  0.00  0.00    +0.000 HD
ATOM     25  H   UNL     1     -11.982  56.911  49.289  0.00  0.00    +0.000 HD
ENDBRANCH   1  17
BRANCH   3  26
ATOM     26  O   UNL     1     -10.613  55.072  52.943  0.00  0.00    +0.000 OA
ATOM     27  H   UNL     1     -10.739  55.997  53.019  0.00  0.00    +0.000 HD
ENDBRANCH   3  26
BRANCH   5  28
ATOM     28  C   UNL     1     -10.302  52.883  47.772  0.00  0.00    +0.000 C 
BRANCH  28  29
ATOM     29  C   UNL     1      -9.828  53.962  46.756  0.00  0.00    +0.000 C 
BRANCH  29  30
ATOM     30  C   UNL     1     -10.955  54.484  45.833  0.00  0.00    +0.000 C 
ATOM     31  C   UNL     1     -11.631  53.442  44.955  0.00  0.00    +0.000 C 
ENDBRANCH  29  30
BRANCH  29  32
ATOM     32  C   UNL     1      -9.107  55.128  47.466  0.00  0.00    +0.000 C 
ATOM     33  C   UNL     1      -7.603  54.921  47.589  0.00  0.00    +0.000 C 
ENDBRANCH  29  32
ENDBRANCH  28  29
ENDBRANCH   5  28
TORSDOF 6
ENDMDL
MODEL 7
REMARK VINA RESULT:      -7.4      3.060      6.384
REMARK  Name = 
REMARK  8 active torsions:
REMARK  status: ('A' for Active; 'I' for Inactive)
REMARK    1  A    between atoms: C_6  and  C_10
REMARK    2  A    between atoms: C_14  and  O_18
REMARK    3  A    between atoms: N_17  and  C_21
REMARK    4  A    between atoms: C_21  and  C_24
REMARK    5  A    between atoms: C_24  and  C_27
REMARK    6  A    between atoms: C_24  and  C_28
REMARK    7  A    between atoms: C_27  and  C_29
REMARK    8  A    between atoms: C_28  and  C_30
REMARK                            x       y       z     vdW  Elec       q    Type
REMARK                         _______ _______ _______ _____ _____    ______ ____
ROOT
ATOM      1  C   UNL     1     -10.980  54.750  49.733  0.00  0.00    +0.000 A 
ATOM      2  C   UNL     1     -11.124  53.793  48.593  0.00  0.00    +0.000 A 
ATOM      3  C   UNL     1      -9.858  54.691  50.476  0.00  0.00    +0.000 A 
ATOM      4  O   UNL     1     -12.249  53.586  48.130  0.00  0.00    +0.000 OA
ATOM      5  N   UNL     1      -9.964  53.261  48.065  0.00  0.00    +0.000 N 
ATOM      6  C   UNL     1      -8.813  53.720  50.149  0.00  0.00    +0.000 A 
ATOM      7  C   UNL     1      -8.846  53.053  48.921  0.00  0.00    +0.000 A 
ATOM      8  C   UNL     1      -7.750  53.449  51.019  0.00  0.00    +0.000 A 
ATOM      9  N   UNL     1      -7.888  52.170  48.545  0.00  0.00    +0.000 NA
ATOM     10  C   UNL     1      -6.784  52.519  50.662  0.00  0.00    +0.000 A 
ATOM     11  C   UNL     1      -6.896  51.912  49.426  0.00  0.00    +0.000 A 
ENDROOT
BRANCH   1  17
ATOM     12  S   UNL     1     -13.867  57.319  49.038  0.00  0.00    +0.000 S 
ATOM     13  O   UNL     1     -15.047  56.629  48.557  0.00  0.00    +0.000 OA
ATOM     14  O   UNL     1     -13.458  58.572  48.436  0.00  0.00    +0.000 OA
ATOM     15  N   UNL     1     -12.620  56.294  48.929  0.00  0.00    +0.000 N 
ATOM     16  C   UNL     1     -14.161  57.659  50.733  0.00  0.00    +0.000 A 
ATOM     17  C   UNL     1     -12.078  55.769  49.988  0.00  0.00    +0.000 C 
ATOM     18  C   UNL     1     -13.412  56.969  51.673  0.00  0.00    +0.000 A 
ATOM     19  C   UNL     1     -15.138  58.591  51.089  0.00  0.00    +0.000 A 
ATOM     20  N   UNL     1     -12.444  56.046  51.288  0.00  0.00    +0.000 N 
ATOM     21  C   UNL     1     -13.675  57.211  53.024  0.00  0.00    +0.000 A 
ATOM     22  C   UNL     1     -15.379  58.832  52.438  0.00  0.00    +0.000 A 
ATOM     23  C   UNL     1     -14.652  58.140  53.405  0.00  0.00    +0.000 A 
ATOM     24  H   UNL     1     -12.265  56.062  48.040  0.00  0.00    +0.000 HD
ATOM     25  H   UNL     1     -11.983  55.550  52.002  0.00  0.00    +0.000 HD
ENDBRANCH   1  17
BRANCH   3  26
ATOM     26  O   UNL     1      -9.577  55.506  51.555  0.00  0.00    +0.000 OA
ATOM     27  H   UNL     1     -10.263  56.001  51.959  0.00  0.00    +0.000 HD
ENDBRANCH   3  26
BRANCH   5  28
ATOM     28  C   UNL     1      -9.995  52.584  46.768  0.00  0.00    +0.000 C 
BRANCH  28  29
ATOM     29  C   UNL     1     -10.014  53.544  45.544  0.00  0.00    +0.000 C 
BRANCH  29  30
ATOM     30  C   UNL     1      -8.648  53.664  44.826  0.00  0.00    +0.000 C 
ATOM     31  C   UNL     1      -7.741  54.787  45.308  0.00  0.00    +0.000 C 
ENDBRANCH  29  30
BRANCH  29  32
ATOM     32  C   UNL     1     -11.133  53.168  44.549  0.00  0.00    +0.000 C 
ATOM     33  C   UNL     1     -11.940  51.950  44.982  0.00  0.00    +0.000 C 
ENDBRANCH  29  32
ENDBRANCH  28  29
ENDBRANCH   5  28
TORSDOF 6
ENDMDL
MODEL 8
REMARK VINA RESULT:      -7.4      3.002      6.730
REMARK  Name = 
REMARK  8 active torsions:
REMARK  status: ('A' for Active; 'I' for Inactive)
REMARK    1  A    between atoms: C_6  and  C_10
REMARK    2  A    between atoms: C_14  and  O_18
REMARK    3  A    between atoms: N_17  and  C_21
REMARK    4  A    between atoms: C_21  and  C_24
REMARK    5  A    between atoms: C_24  and  C_27
REMARK    6  A    between atoms: C_24  and  C_28
REMARK    7  A    between atoms: C_27  and  C_29
REMARK    8  A    between atoms: C_28  and  C_30
REMARK                            x       y       z     vdW  Elec       q    Type
REMARK                         _______ _______ _______ _____ _____    ______ ____
ROOT
ATOM      1  C   UNL     1     -11.367  54.739  49.798  0.00  0.00    +0.000 A 
ATOM      2  C   UNL     1     -11.509  53.758  48.677  0.00  0.00    +0.000 A 
ATOM      3  C   UNL     1     -10.240  54.704  50.533  0.00  0.00    +0.000 A 
ATOM      4  O   UNL     1     -12.635  53.533  48.226  0.00  0.00    +0.000 OA
ATOM      5  N   UNL     1     -10.348  53.228  48.151  0.00  0.00    +0.000 N 
ATOM      6  C   UNL     1      -9.187  53.737  50.218  0.00  0.00    +0.000 A 
ATOM      7  C   UNL     1      -9.223  53.047  49.003  0.00  0.00    +0.000 A 
ATOM      8  C   UNL     1      -8.117  53.493  51.086  0.00  0.00    +0.000 A 
ATOM      9  N   UNL     1      -8.258  52.166  48.637  0.00  0.00    +0.000 NA
ATOM     10  C   UNL     1      -7.143  52.565  50.740  0.00  0.00    +0.000 A 
ATOM     11  C   UNL     1      -7.258  51.934  49.516  0.00  0.00    +0.000 A 
ENDROOT
BRANCH   1  17
ATOM     12  S   UNL     1     -14.791  56.256  50.977  0.00  0.00    +0.000 S 
ATOM     13  O   UNL     1     -14.837  56.324  52.425  0.00  0.00    +0.000 OA
ATOM     14  O   UNL     1     -15.955  55.830  50.229  0.00  0.00    +0.000 OA
ATOM     15  N   UNL     1     -13.564  55.283  50.571  0.00  0.00    +0.000 N 
ATOM     16  C   UNL     1     -14.419  57.879  50.428  0.00  0.00    +0.000 A 
ATOM     17  C   UNL     1     -12.473  55.751  50.040  0.00  0.00    +0.000 C 
ATOM     18  C   UNL     1     -13.173  58.105  49.864  0.00  0.00    +0.000 A 
ATOM     19  C   UNL     1     -15.366  58.893  50.585  0.00  0.00    +0.000 A 
ATOM     20  N   UNL     1     -12.250  57.074  49.721  0.00  0.00    +0.000 N 
ATOM     21  C   UNL     1     -12.863  59.408  49.464  0.00  0.00    +0.000 A 
ATOM     22  C   UNL     1     -15.049  60.183  50.168  0.00  0.00    +0.000 A 
ATOM     23  C   UNL     1     -13.797  60.441  49.613  0.00  0.00    +0.000 A 
ATOM     24  H   UNL     1     -13.646  54.315  50.729  0.00  0.00    +0.000 HD
ATOM     25  H   UNL     1     -11.364  57.309  49.361  0.00  0.00    +0.000 HD
ENDBRANCH   1  17
BRANCH   3  26
ATOM     26  O   UNL     1      -9.960  55.542  51.595  0.00  0.00    +0.000 OA
ATOM     27  H   UNL     1      -9.567  56.378  51.441  0.00  0.00    +0.000 HD
ENDBRANCH   3  26
BRANCH   5  28
ATOM     28  C   UNL     1     -10.381  52.526  46.867  0.00  0.00    +0.000 C 
BRANCH  28  29
ATOM     29  C   UNL     1     -10.185  53.447  45.628  0.00  0.00    +0.000 C 
BRANCH  29  30
ATOM     30  C   UNL     1      -8.701  53.691  45.263  0.00  0.00    +0.000 C 
ATOM     31  C   UNL     1      -8.047  54.901  45.912  0.00  0.00    +0.000 C 
ENDBRANCH  29  30
BRANCH  29  32
ATOM     32  C   UNL     1     -10.979  52.930  44.410  0.00  0.00    +0.000 C 
ATOM     33  C   UNL     1     -10.099  52.607  43.209  0.00  0.00    +0.000 C 
ENDBRANCH  29  32
ENDBRANCH  28  29
ENDBRANCH   5  28
TORSDOF 6
ENDMDL
MODEL 9
REMARK VINA RESULT:      -7.2      1.997      2.402
REMARK  Name = 
REMARK  8 active torsions:
REMARK  status: ('A' for Active; 'I' for Inactive)
REMARK    1  A    between atoms: C_6  and  C_10
REMARK    2  A    between atoms: C_14  and  O_18
REMARK    3  A    between atoms: N_17  and  C_21
REMARK    4  A    between atoms: C_21  and  C_24
REMARK    5  A    between atoms: C_24  and  C_27
REMARK    6  A    between atoms: C_24  and  C_28
REMARK    7  A    between atoms: C_27  and  C_29
REMARK    8  A    between atoms: C_28  and  C_30
REMARK                            x       y       z     vdW  Elec       q    Type
REMARK                         _______ _______ _______ _____ _____    ______ ____
ROOT
ATOM      1  C   UNL     1      -8.811  54.991  51.365  0.00  0.00    +0.000 A 
ATOM      2  C   UNL     1      -8.810  55.496  49.957  0.00  0.00    +0.000 A 
ATOM      3  C   UNL     1      -9.960  55.057  52.063  0.00  0.00    +0.000 A 
ATOM      4  O   UNL     1      -7.731  55.771  49.426  0.00  0.00    +0.000 OA
ATOM      5  N   UNL     1     -10.025  55.539  49.301  0.00  0.00    +0.000 N 
ATOM      6  C   UNL     1     -11.169  55.595  51.438  0.00  0.00    +0.000 A 
ATOM      7  C   UNL     1     -11.208  55.780  50.053  0.00  0.00    +0.000 A 
ATOM      8  C   UNL     1     -12.313  55.911  52.180  0.00  0.00    +0.000 A 
ATOM      9  N   UNL     1     -12.311  56.241  49.411  0.00  0.00    +0.000 NA
ATOM     10  C   UNL     1     -13.434  56.420  51.539  0.00  0.00    +0.000 A 
ATOM     11  C   UNL     1     -13.384  56.565  50.166  0.00  0.00    +0.000 A 
ENDROOT
BRANCH   1  17
ATOM     12  S   UNL     1      -5.890  54.242  53.879  0.00  0.00    +0.000 S 
ATOM     13  O   UNL     1      -6.385  53.483  55.012  0.00  0.00    +0.000 OA
ATOM     14  O   UNL     1      -4.946  55.323  54.082  0.00  0.00    +0.000 OA
ATOM     15  N   UNL     1      -7.170  54.850  53.100  0.00  0.00    +0.000 N 
ATOM     16  C   UNL     1      -5.096  53.085  52.829  0.00  0.00    +0.000 A 
ATOM     17  C   UNL     1      -7.537  54.395  51.938  0.00  0.00    +0.000 C 
ATOM     18  C   UNL     1      -5.694  52.795  51.613  0.00  0.00    +0.000 A 
ATOM     19  C   UNL     1      -3.907  52.481  53.243  0.00  0.00    +0.000 A 
ATOM     20  N   UNL     1      -6.879  53.413  51.227  0.00  0.00    +0.000 N 
ATOM     21  C   UNL     1      -5.081  51.842  50.794  0.00  0.00    +0.000 A 
ATOM     22  C   UNL     1      -3.300  51.545  52.411  0.00  0.00    +0.000 A 
ATOM     23  C   UNL     1      -3.889  51.222  51.190  0.00  0.00    +0.000 A 
ATOM     24  H   UNL     1      -7.683  55.581  53.514  0.00  0.00    +0.000 HD
ATOM     25  H   UNL     1      -7.282  53.125  50.376  0.00  0.00    +0.000 HD
ENDBRANCH   1  17
BRANCH   3  26
ATOM     26  O   UNL     1     -10.121  54.629  53.367  0.00  0.00    +0.000 OA
ATOM     27  H   UNL     1      -9.682  55.076  54.064  0.00  0.00    +0.000 HD
ENDBRANCH   3  26
BRANCH   5  28
ATOM     28  C   UNL     1     -10.065  55.709  47.848  0.00  0.00    +0.000 C 
BRANCH  28  29
ATOM     29  C   UNL     1     -10.320  54.394  47.056  0.00  0.00    +0.000 C 
BRANCH  29  30
ATOM     30  C   UNL     1     -11.382  54.537  45.939  0.00  0.00    +0.000 C 
ATOM     31  C   UNL     1     -11.617  53.301  45.084  0.00  0.00    +0.000 C 
ENDBRANCH  29  30
BRANCH  29  32
ATOM     32  C   UNL     1      -9.006  53.807  46.500  0.00  0.00    +0.000 C 
ATOM     33  C   UNL     1      -8.132  54.840  45.800  0.00  0.00    +0.000 C 
ENDBRANCH  29  32
ENDBRANCH  28  29
ENDBRANCH   5  28
TORSDOF 6
ENDMDL
