MODEL 1
REMARK VINA RESULT:      -8.0      0.000      0.000
REMARK  Name = 
REMARK  8 active torsions:
REMARK  status: ('A' for Active; 'I' for Inactive)
REMARK    1  A    between atoms: C_6  and  C_10
REMARK    2  A    between atoms: C_14  and  O_18
REMARK    3  A    between atoms: N_17  and  N_20
REMARK    4  A    between atoms: N_20  and  C_23
REMARK    5  A    between atoms: C_23  and  C_26
REMARK    6  A    between atoms: C_23  and  C_27
REMARK    7  A    between atoms: C_26  and  C_29
REMARK    8  A    between atoms: C_27  and  C_30
REMARK                            x       y       z     vdW  Elec       q    Type
REMARK                         _______ _______ _______ _____ _____    ______ ____
ROOT
ATOM      1  C   UNL     1     -10.104  55.485  50.695  0.00  0.00    +0.000 A 
ATOM      2  C   UNL     1      -9.630  55.669  49.282  0.00  0.00    +0.000 A 
ATOM      3  C   UNL     1     -11.352  55.874  51.026  0.00  0.00    +0.000 A 
ATOM      4  O   UNL     1      -8.416  55.655  49.052  0.00  0.00    +0.000 OA
ATOM      5  N   UNL     1     -10.634  55.767  48.309  0.00  0.00    +0.000 N 
ATOM      6  C   UNL     1     -12.287  56.334  49.996  0.00  0.00    +0.000 A 
ATOM      7  C   UNL     1     -11.941  56.207  48.648  0.00  0.00    +0.000 A 
ATOM      8  C   UNL     1     -13.571  56.783  50.338  0.00  0.00    +0.000 A 
ATOM      9  C   UNL     1     -12.886  56.522  47.659  0.00  0.00    +0.000 A 
ATOM     10  C   UNL     1     -14.514  57.053  49.350  0.00  0.00    +0.000 A 
ATOM     11  C   UNL     1     -14.176  56.913  48.009  0.00  0.00    +0.000 A 
ENDROOT
BRANCH   1  17
ATOM     12  S   UNL     1      -7.016  54.772  53.012  0.00  0.00    +0.000 S 
ATOM     13  O   UNL     1      -7.012  55.728  54.092  0.00  0.00    +0.000 OA
ATOM     14  O   UNL     1      -5.777  54.408  52.356  0.00  0.00    +0.000 OA
ATOM     15  N   UNL     1      -8.033  55.300  51.870  0.00  0.00    +0.000 N 
ATOM     16  C   UNL     1      -7.679  53.293  53.666  0.00  0.00    +0.000 A 
ATOM     17  C   UNL     1      -9.221  54.786  51.713  0.00  0.00    +0.000 C 
ATOM     18  C   UNL     1      -8.977  52.943  53.308  0.00  0.00    +0.000 A 
ATOM     19  C   UNL     1      -6.904  52.523  54.531  0.00  0.00    +0.000 A 
ATOM     20  N   UNL     1      -9.722  53.714  52.421  0.00  0.00    +0.000 N 
ATOM     21  C   UNL     1      -9.512  51.788  53.874  0.00  0.00    +0.000 A 
ATOM     22  C   UNL     1      -7.448  51.364  55.078  0.00  0.00    +0.000 A 
ATOM     23  C   UNL     1      -8.757  51.003  54.749  0.00  0.00    +0.000 A 
ATOM     24  H   UNL     1      -7.746  56.029  51.274  0.00  0.00    +0.000 HD
ATOM     25  H   UNL     1     -10.668  53.478  52.288  0.00  0.00    +0.000 HD
ENDBRANCH   1  17
BRANCH   3  26
ATOM     26  O   UNL     1     -11.905  55.787  52.291  0.00  0.00    +0.000 OA
ATOM     27  H   UNL     1     -12.192  56.563  52.731  0.00  0.00    +0.000 HD
ENDBRANCH   3  26
BRANCH   5  28
ATOM     28  N   UNL     1     -10.381  55.542  46.936  0.00  0.00    +0.000 N 
ATOM     29  H   UNL     1     -10.169  56.282  46.323  0.00  0.00    +0.000 HD
BRANCH  28  30
ATOM     30  C   UNL     1     -10.450  54.152  46.466  0.00  0.00    +0.000 C 
BRANCH  30  31
ATOM     31  C   UNL     1     -11.478  53.989  45.319  0.00  0.00    +0.000 C 
ATOM     32  C   UNL     1     -11.807  52.549  44.939  0.00  0.00    +0.000 C 
ENDBRANCH  30  31
BRANCH  30  33
ATOM     33  C   UNL     1      -9.042  53.704  46.014  0.00  0.00    +0.000 C 
ATOM     34  C   UNL     1      -8.129  54.862  45.626  0.00  0.00    +0.000 C 
ENDBRANCH  30  33
ENDBRANCH  28  30
ENDBRANCH   5  28
TORSDOF 6
ENDMDL
MODEL 2
REMARK VINA RESULT:      -7.9      3.790      6.811
REMARK  Name = 
REMARK  8 active torsions:
REMARK  status: ('A' for Active; 'I' for Inactive)
REMARK    1  A    between atoms: C_6  and  C_10
REMARK    2  A    between atoms: C_14  and  O_18
REMARK    3  A    between atoms: N_17  and  N_20
REMARK    4  A    between atoms: N_20  and  C_23
REMARK    5  A    between atoms: C_23  and  C_26
REMARK    6  A    between atoms: C_23  and  C_27
REMARK    7  A    between atoms: C_26  and  C_29
REMARK    8  A    between atoms: C_27  and  C_30
REMARK                            x       y       z     vdW  Elec       q    Type
REMARK                         _______ _______ _______ _____ _____    ______ ____
ROOT
ATOM      1  C   UNL     1     -12.408  54.340  49.541  0.00  0.00    +0.000 A 
ATOM      2  C   UNL     1     -11.777  54.256  48.181  0.00  0.00    +0.000 A 
ATOM      3  C   UNL     1     -12.151  53.375  50.447  0.00  0.00    +0.000 A 
ATOM      4  O   UNL     1     -12.266  54.909  47.254  0.00  0.00    +0.000 OA
ATOM      5  N   UNL     1     -10.611  53.482  48.096  0.00  0.00    +0.000 N 
ATOM      6  C   UNL     1     -11.157  52.335  50.165  0.00  0.00    +0.000 A 
ATOM      7  C   UNL     1     -10.352  52.443  49.028  0.00  0.00    +0.000 A 
ATOM      8  C   UNL     1     -10.917  51.300  51.082  0.00  0.00    +0.000 A 
ATOM      9  C   UNL     1      -9.312  51.521  48.827  0.00  0.00    +0.000 A 
ATOM     10  C   UNL     1      -9.857  50.418  50.895  0.00  0.00    +0.000 A 
ATOM     11  C   UNL     1      -9.047  50.534  49.772  0.00  0.00    +0.000 A 
ENDROOT
BRANCH   1  17
ATOM     12  S   UNL     1     -15.307  56.442  51.151  0.00  0.00    +0.000 S 
ATOM     13  O   UNL     1     -15.111  56.490  52.579  0.00  0.00    +0.000 OA
ATOM     14  O   UNL     1     -16.633  56.253  50.601  0.00  0.00    +0.000 OA
ATOM     15  N   UNL     1     -14.360  55.277  50.546  0.00  0.00    +0.000 N 
ATOM     16  C   UNL     1     -14.728  57.968  50.523  0.00  0.00    +0.000 A 
ATOM     17  C   UNL     1     -13.249  55.545  49.921  0.00  0.00    +0.000 C 
ATOM     18  C   UNL     1     -13.512  57.980  49.848  0.00  0.00    +0.000 A 
ATOM     19  C   UNL     1     -15.485  59.119  50.730  0.00  0.00    +0.000 A 
ATOM     20  N   UNL     1     -12.787  56.812  49.631  0.00  0.00    +0.000 N 
ATOM     21  C   UNL     1     -13.038  59.210  49.397  0.00  0.00    +0.000 A 
ATOM     22  C   UNL     1     -15.004  60.339  50.260  0.00  0.00    +0.000 A 
ATOM     23  C   UNL     1     -13.776  60.379  49.597  0.00  0.00    +0.000 A 
ATOM     24  H   UNL     1     -14.633  54.337  50.653  0.00  0.00    +0.000 HD
ATOM     25  H   UNL     1     -11.886  56.894  49.245  0.00  0.00    +0.000 HD
ENDBRANCH   1  17
BRANCH   3  26
ATOM     26  O   UNL     1     -12.683  53.314  51.721  0.00  0.00    +0.000 OA
ATOM     27  H   UNL     1     -13.409  52.750  51.900  0.00  0.00    +0.000 HD
ENDBRANCH   3  26
BRANCH   5  28
ATOM     28  N   UNL     1      -9.691  53.616  47.030  0.00  0.00    +0.000 N 
ATOM     29  H   UNL     1      -9.530  52.883  46.393  0.00  0.00    +0.000 HD
BRANCH  28  30
ATOM     30  C   UNL     1      -8.984  54.898  46.918  0.00  0.00    +0.000 C 
BRANCH  30  31
ATOM     31  C   UNL     1      -8.204  55.235  48.212  0.00  0.00    +0.000 C 
ATOM     32  C   UNL     1      -6.789  54.670  48.286  0.00  0.00    +0.000 C 
ENDBRANCH  30  31
BRANCH  30  33
ATOM     33  C   UNL     1      -8.036  54.845  45.699  0.00  0.00    +0.000 C 
ATOM     34  C   UNL     1      -8.436  53.801  44.661  0.00  0.00    +0.000 C 
ENDBRANCH  30  33
ENDBRANCH  28  30
ENDBRANCH   5  28
TORSDOF 6
ENDMDL
MODEL 3
REMARK VINA RESULT:      -7.8      1.479      2.092
REMARK  Name = 
REMARK  8 active torsions:
REMARK  status: ('A' for Active; 'I' for Inactive)
REMARK    1  A    between atoms: C_6  and  C_10
REMARK    2  A    between atoms: C_14  and  O_18
REMARK    3  A    between atoms: N_17  and  N_20
REMARK    4  A    between atoms: N_20  and  C_23
REMARK    5  A    between atoms: C_23  and  C_26
REMARK    6  A    between atoms: C_23  and  C_27
REMARK    7  A    between atoms: C_26  and  C_29
REMARK    8  A    between atoms: C_27  and  C_30
REMARK                            x       y       z     vdW  Elec       q    Type
REMARK                         _______ _______ _______ _____ _____    ______ ____
ROOT
ATOM      1  C   UNL     1     -10.227  55.364  50.510  0.00  0.00    +0.000 A 
ATOM      2  C   UNL     1      -9.708  55.527  49.111  0.00  0.00    +0.000 A 
ATOM      3  C   UNL     1     -11.462  55.816  50.811  0.00  0.00    +0.000 A 
ATOM      4  O   UNL     1      -8.491  55.450  48.912  0.00  0.00    +0.000 OA
ATOM      5  N   UNL     1     -10.680  55.681  48.113  0.00  0.00    +0.000 N 
ATOM      6  C   UNL     1     -12.344  56.328  49.759  0.00  0.00    +0.000 A 
ATOM      7  C   UNL     1     -11.971  56.188  48.420  0.00  0.00    +0.000 A 
ATOM      8  C   UNL     1     -13.612  56.844  50.070  0.00  0.00    +0.000 A 
ATOM      9  C   UNL     1     -12.872  56.556  47.408  0.00  0.00    +0.000 A 
ATOM     10  C   UNL     1     -14.513  57.166  49.059  0.00  0.00    +0.000 A 
ATOM     11  C   UNL     1     -14.148  57.012  47.727  0.00  0.00    +0.000 A 
ENDROOT
BRANCH   1  17
ATOM     12  S   UNL     1      -9.075  52.466  52.896  0.00  0.00    +0.000 S 
ATOM     13  O   UNL     1      -8.504  51.407  52.101  0.00  0.00    +0.000 OA
ATOM     14  O   UNL     1      -9.943  52.155  54.012  0.00  0.00    +0.000 OA
ATOM     15  N   UNL     1      -9.888  53.460  51.910  0.00  0.00    +0.000 N 
ATOM     16  C   UNL     1      -7.729  53.366  53.557  0.00  0.00    +0.000 A 
ATOM     17  C   UNL     1      -9.409  54.616  51.548  0.00  0.00    +0.000 C 
ATOM     18  C   UNL     1      -7.444  54.614  53.011  0.00  0.00    +0.000 A 
ATOM     19  C   UNL     1      -6.978  52.807  54.588  0.00  0.00    +0.000 A 
ATOM     20  N   UNL     1      -8.226  55.163  51.999  0.00  0.00    +0.000 N 
ATOM     21  C   UNL     1      -6.340  55.299  53.512  0.00  0.00    +0.000 A 
ATOM     22  C   UNL     1      -5.885  53.511  55.088  0.00  0.00    +0.000 A 
ATOM     23  C   UNL     1      -5.568  54.756  54.542  0.00  0.00    +0.000 A 
ATOM     24  H   UNL     1     -10.771  53.183  51.576  0.00  0.00    +0.000 HD
ATOM     25  H   UNL     1      -7.916  55.996  51.578  0.00  0.00    +0.000 HD
ENDBRANCH   1  17
BRANCH   3  26
ATOM     26  O   UNL     1     -12.051  55.755  52.060  0.00  0.00    +0.000 OA
ATOM     27  H   UNL     1     -11.819  56.379  52.719  0.00  0.00    +0.000 HD
ENDBRANCH   3  26
BRANCH   5  28
ATOM     28  N   UNL     1     -10.404  55.446  46.746  0.00  0.00    +0.000 N 
ATOM     29  H   UNL     1     -10.193  56.184  46.129  0.00  0.00    +0.000 HD
BRANCH  28  30
ATOM     30  C   UNL     1     -10.448  54.052  46.287  0.00  0.00    +0.000 C 
BRANCH  30  31
ATOM     31  C   UNL     1     -11.478  53.859  45.147  0.00  0.00    +0.000 C 
ATOM     32  C   UNL     1     -11.931  52.421  44.914  0.00  0.00    +0.000 C 
ENDBRANCH  30  31
BRANCH  30  33
ATOM     33  C   UNL     1      -9.033  53.628  45.832  0.00  0.00    +0.000 C 
ATOM     34  C   UNL     1      -8.112  54.805  45.529  0.00  0.00    +0.000 C 
ENDBRANCH  30  33
ENDBRANCH  28  30
ENDBRANCH   5  28
TORSDOF 6
ENDMDL
MODEL 4
REMARK VINA RESULT:      -7.6      2.946      6.760
REMARK  Name = 
REMARK  8 active torsions:
REMARK  status: ('A' for Active; 'I' for Inactive)
REMARK    1  A    between atoms: C_6  and  C_10
REMARK    2  A    between atoms: C_14  and  O_18
REMARK    3  A    between atoms: N_17  and  N_20
REMARK    4  A    between atoms: N_20  and  C_23
REMARK    5  A    between atoms: C_23  and  C_26
REMARK    6  A    between atoms: C_23  and  C_27
REMARK    7  A    between atoms: C_26  and  C_29
REMARK    8  A    between atoms: C_27  and  C_30
REMARK                            x       y       z     vdW  Elec       q    Type
REMARK                         _______ _______ _______ _____ _____    ______ ____
ROOT
ATOM      1  C   UNL     1     -11.910  54.380  48.173  0.00  0.00    +0.000 A 
ATOM      2  C   UNL     1     -12.076  53.550  49.414  0.00  0.00    +0.000 A 
ATOM      3  C   UNL     1     -12.558  55.558  48.078  0.00  0.00    +0.000 A 
ATOM      4  O   UNL     1     -11.792  52.349  49.372  0.00  0.00    +0.000 OA
ATOM      5  N   UNL     1     -12.478  54.245  50.564  0.00  0.00    +0.000 N 
ATOM      6  C   UNL     1     -13.298  56.097  49.223  0.00  0.00    +0.000 A 
ATOM      7  C   UNL     1     -13.189  55.471  50.467  0.00  0.00    +0.000 A 
ATOM      8  C   UNL     1     -14.013  57.299  49.118  0.00  0.00    +0.000 A 
ATOM      9  C   UNL     1     -13.788  56.059  51.593  0.00  0.00    +0.000 A 
ATOM     10  C   UNL     1     -14.567  57.895  50.247  0.00  0.00    +0.000 A 
ATOM     11  C   UNL     1     -14.446  57.281  51.487  0.00  0.00    +0.000 A 
ENDROOT
BRANCH   1  17
ATOM     12  S   UNL     1      -8.583  54.037  46.117  0.00  0.00    +0.000 S 
ATOM     13  O   UNL     1      -7.656  53.220  46.862  0.00  0.00    +0.000 OA
ATOM     14  O   UNL     1      -8.119  55.221  45.424  0.00  0.00    +0.000 OA
ATOM     15  N   UNL     1      -9.773  54.494  47.114  0.00  0.00    +0.000 N 
ATOM     16  C   UNL     1      -9.286  52.999  44.899  0.00  0.00    +0.000 A 
ATOM     17  C   UNL     1     -10.952  53.939  47.081  0.00  0.00    +0.000 C 
ATOM     18  C   UNL     1     -10.596  52.568  45.083  0.00  0.00    +0.000 A 
ATOM     19  C   UNL     1      -8.518  52.622  43.800  0.00  0.00    +0.000 A 
ATOM     20  N   UNL     1     -11.353  52.980  46.176  0.00  0.00    +0.000 N 
ATOM     21  C   UNL     1     -11.129  51.701  44.131  0.00  0.00    +0.000 A 
ATOM     22  C   UNL     1      -9.069  51.766  42.850  0.00  0.00    +0.000 A 
ATOM     23  C   UNL     1     -10.375  51.304  43.023  0.00  0.00    +0.000 A 
ATOM     24  H   UNL     1      -9.602  55.213  47.764  0.00  0.00    +0.000 HD
ATOM     25  H   UNL     1     -12.232  52.560  46.311  0.00  0.00    +0.000 HD
ENDBRANCH   1  17
BRANCH   3  26
ATOM     26  O   UNL     1     -12.515  56.406  46.986  0.00  0.00    +0.000 OA
ATOM     27  H   UNL     1     -11.785  56.980  46.866  0.00  0.00    +0.000 HD
ENDBRANCH   3  26
BRANCH   5  28
ATOM     28  N   UNL     1     -12.297  53.722  51.865  0.00  0.00    +0.000 N 
ATOM     29  H   UNL     1     -13.062  53.498  52.442  0.00  0.00    +0.000 HD
BRANCH  28  30
ATOM     30  C   UNL     1     -10.913  53.529  52.319  0.00  0.00    +0.000 C 
BRANCH  30  31
ATOM     31  C   UNL     1     -10.248  54.872  52.706  0.00  0.00    +0.000 C 
ATOM     32  C   UNL     1      -9.298  55.454  51.664  0.00  0.00    +0.000 C 
ENDBRANCH  30  31
BRANCH  30  33
ATOM     33  C   UNL     1     -10.908  52.545  53.510  0.00  0.00    +0.000 C 
ATOM     34  C   UNL     1      -9.510  52.117  53.941  0.00  0.00    +0.000 C 
ENDBRANCH  30  33
ENDBRANCH  28  30
ENDBRANCH   5  28
TORSDOF 6
ENDMDL
MODEL 5
REMARK VINA RESULT:      -7.5      2.282      4.630
REMARK  Name = 
REMARK  8 active torsions:
REMARK  status: ('A' for Active; 'I' for Inactive)
REMARK    1  A    between atoms: C_6  and  C_10
REMARK    2  A    between atoms: C_14  and  O_18
REMARK    3  A    between atoms: N_17  and  N_20
REMARK    4  A    between atoms: N_20  and  C_23
REMARK    5  A    between atoms: C_23  and  C_26
REMARK    6  A    between atoms: C_23  and  C_27
REMARK    7  A    between atoms: C_26  and  C_29
REMARK    8  A    between atoms: C_27  and  C_30
REMARK                            x       y       z     vdW  Elec       q    Type
REMARK                         _______ _______ _______ _____ _____    ______ ____
ROOT
ATOM      1  C   UNL     1      -8.952  54.316  50.189  0.00  0.00    +0.000 A 
ATOM      2  C   UNL     1     -10.394  54.359  50.605  0.00  0.00    +0.000 A 
ATOM      3  C   UNL     1      -8.648  54.168  48.884  0.00  0.00    +0.000 A 
ATOM      4  O   UNL     1     -10.682  54.139  51.787  0.00  0.00    +0.000 OA
ATOM      5  N   UNL     1     -11.307  54.730  49.608  0.00  0.00    +0.000 N 
ATOM      6  C   UNL     1      -9.702  54.195  47.866  0.00  0.00    +0.000 A 
ATOM      7  C   UNL     1     -11.004  54.546  48.233  0.00  0.00    +0.000 A 
ATOM      8  C   UNL     1      -9.400  53.995  46.510  0.00  0.00    +0.000 A 
ATOM      9  C   UNL     1     -11.985  54.701  47.241  0.00  0.00    +0.000 A 
ATOM     10  C   UNL     1     -10.369  54.193  45.531  0.00  0.00    +0.000 A 
ATOM     11  C   UNL     1     -11.660  54.556  45.895  0.00  0.00    +0.000 A 
ENDROOT
BRANCH   1  17
ATOM     12  S   UNL     1      -7.116  55.668  53.386  0.00  0.00    +0.000 S 
ATOM     13  O   UNL     1      -7.686  55.039  54.552  0.00  0.00    +0.000 OA
ATOM     14  O   UNL     1      -6.788  57.078  53.403  0.00  0.00    +0.000 OA
ATOM     15  N   UNL     1      -8.111  55.416  52.135  0.00  0.00    +0.000 N 
ATOM     16  C   UNL     1      -5.624  54.821  53.050  0.00  0.00    +0.000 A 
ATOM     17  C   UNL     1      -7.853  54.530  51.215  0.00  0.00    +0.000 C 
ATOM     18  C   UNL     1      -5.597  53.945  51.969  0.00  0.00    +0.000 A 
ATOM     19  C   UNL     1      -4.522  55.031  53.875  0.00  0.00    +0.000 A 
ATOM     20  N   UNL     1      -6.704  53.772  51.143  0.00  0.00    +0.000 N 
ATOM     21  C   UNL     1      -4.418  53.239  51.741  0.00  0.00    +0.000 A 
ATOM     22  C   UNL     1      -3.346  54.328  53.626  0.00  0.00    +0.000 A 
ATOM     23  C   UNL     1      -3.301  53.428  52.559  0.00  0.00    +0.000 A 
ATOM     24  H   UNL     1      -8.936  55.949  52.066  0.00  0.00    +0.000 HD
ATOM     25  H   UNL     1      -6.663  53.062  50.462  0.00  0.00    +0.000 HD
ENDBRANCH   1  17
BRANCH   3  26
ATOM     26  O   UNL     1      -7.368  54.087  48.367  0.00  0.00    +0.000 OA
ATOM     27  H   UNL     1      -6.628  54.237  48.921  0.00  0.00    +0.000 HD
ENDBRANCH   3  26
BRANCH   5  28
ATOM     28  N   UNL     1     -12.605  55.202  49.910  0.00  0.00    +0.000 N 
ATOM     29  H   UNL     1     -13.399  54.630  49.802  0.00  0.00    +0.000 HD
BRANCH  28  30
ATOM     30  C   UNL     1     -12.716  56.586  50.389  0.00  0.00    +0.000 C 
BRANCH  30  31
ATOM     31  C   UNL     1     -13.603  57.443  49.453  0.00  0.00    +0.000 C 
ATOM     32  C   UNL     1     -13.410  58.952  49.574  0.00  0.00    +0.000 C 
ENDBRANCH  30  31
BRANCH  30  33
ATOM     33  C   UNL     1     -13.279  56.575  51.828  0.00  0.00    +0.000 C 
ATOM     34  C   UNL     1     -14.802  56.558  51.887  0.00  0.00    +0.000 C 
ENDBRANCH  30  33
ENDBRANCH  28  30
ENDBRANCH   5  28
TORSDOF 6
ENDMDL
MODEL 6
REMARK VINA RESULT:      -7.4      3.230      7.518
REMARK  Name = 
REMARK  8 active torsions:
REMARK  status: ('A' for Active; 'I' for Inactive)
REMARK    1  A    between atoms: C_6  and  C_10
REMARK    2  A    between atoms: C_14  and  O_18
REMARK    3  A    between atoms: N_17  and  N_20
REMARK    4  A    between atoms: N_20  and  C_23
REMARK    5  A    between atoms: C_23  and  C_26
REMARK    6  A    between atoms: C_23  and  C_27
REMARK    7  A    between atoms: C_26  and  C_29
REMARK    8  A    between atoms: C_27  and  C_30
REMARK                            x       y       z     vdW  Elec       q    Type
REMARK                         _______ _______ _______ _____ _____    ______ ____
ROOT
ATOM      1  C   UNL     1      -9.800  53.248  52.132  0.00  0.00    +0.000 A 
ATOM      2  C   UNL     1      -8.362  53.138  51.714  0.00  0.00    +0.000 A 
ATOM      3  C   UNL     1     -10.228  52.556  53.207  0.00  0.00    +0.000 A 
ATOM      4  O   UNL     1      -8.047  53.465  50.565  0.00  0.00    +0.000 OA
ATOM      5  N   UNL     1      -7.466  52.734  52.713  0.00  0.00    +0.000 N 
ATOM      6  C   UNL     1      -9.278  51.820  54.046  0.00  0.00    +0.000 A 
ATOM      7  C   UNL     1      -7.906  51.977  53.831  0.00  0.00    +0.000 A 
ATOM      8  C   UNL     1      -9.720  51.059  55.139  0.00  0.00    +0.000 A 
ATOM      9  C   UNL     1      -6.994  51.379  54.715  0.00  0.00    +0.000 A 
ATOM     10  C   UNL     1      -8.809  50.506  56.033  0.00  0.00    +0.000 A 
ATOM     11  C   UNL     1      -7.445  50.675  55.828  0.00  0.00    +0.000 A 
ENDROOT
BRANCH   1  17
ATOM     12  S   UNL     1     -11.633  55.064  49.173  0.00  0.00    +0.000 S 
ATOM     13  O   UNL     1     -12.563  54.145  48.565  0.00  0.00    +0.000 OA
ATOM     14  O   UNL     1     -10.830  55.942  48.348  0.00  0.00    +0.000 OA
ATOM     15  N   UNL     1     -10.621  54.219  50.111  0.00  0.00    +0.000 N 
ATOM     16  C   UNL     1     -12.577  56.101  50.218  0.00  0.00    +0.000 A 
ATOM     17  C   UNL     1     -10.737  54.200  51.409  0.00  0.00    +0.000 C 
ATOM     18  C   UNL     1     -12.494  55.897  51.592  0.00  0.00    +0.000 A 
ATOM     19  C   UNL     1     -13.391  57.079  49.651  0.00  0.00    +0.000 A 
ATOM     20  N   UNL     1     -11.652  54.931  52.135  0.00  0.00    +0.000 N 
ATOM     21  C   UNL     1     -13.288  56.696  52.411  0.00  0.00    +0.000 A 
ATOM     22  C   UNL     1     -14.169  57.879  50.484  0.00  0.00    +0.000 A 
ATOM     23  C   UNL     1     -14.117  57.680  51.865  0.00  0.00    +0.000 A 
ATOM     24  H   UNL     1      -9.896  53.705  49.689  0.00  0.00    +0.000 HD
ATOM     25  H   UNL     1     -11.714  54.758  53.102  0.00  0.00    +0.000 HD
ENDBRANCH   1  17
BRANCH   3  26
ATOM     26  O   UNL     1     -11.526  52.545  53.685  0.00  0.00    +0.000 OA
ATOM     27  H   UNL     1     -12.207  52.145  53.182  0.00  0.00    +0.000 HD
ENDBRANCH   3  26
BRANCH   5  28
ATOM     28  N   UNL     1      -6.073  52.960  52.615  0.00  0.00    +0.000 N 
ATOM     29  H   UNL     1      -5.437  52.218  52.496  0.00  0.00    +0.000 HD
BRANCH  28  30
ATOM     30  C   UNL     1      -5.617  54.354  52.700  0.00  0.00    +0.000 C 
BRANCH  30  31
ATOM     31  C   UNL     1      -6.026  55.007  54.042  0.00  0.00    +0.000 C 
ATOM     32  C   UNL     1      -7.281  55.872  53.992  0.00  0.00    +0.000 C 
ENDBRANCH  30  31
BRANCH  30  33
ATOM     33  C   UNL     1      -4.084  54.393  52.509  0.00  0.00    +0.000 C 
ATOM     34  C   UNL     1      -3.320  54.731  53.785  0.00  0.00    +0.000 C 
ENDBRANCH  30  33
ENDBRANCH  28  30
ENDBRANCH   5  28
TORSDOF 6
ENDMDL
MODEL 7
REMARK VINA RESULT:      -7.4      1.521      4.119
REMARK  Name = 
REMARK  8 active torsions:
REMARK  status: ('A' for Active; 'I' for Inactive)
REMARK    1  A    between atoms: C_6  and  C_10
REMARK    2  A    between atoms: C_14  and  O_18
REMARK    3  A    between atoms: N_17  and  N_20
REMARK    4  A    between atoms: N_20  and  C_23
REMARK    5  A    between atoms: C_23  and  C_26
REMARK    6  A    between atoms: C_23  and  C_27
REMARK    7  A    between atoms: C_26  and  C_29
REMARK    8  A    between atoms: C_27  and  C_30
REMARK                            x       y       z     vdW  Elec       q    Type
REMARK                         _______ _______ _______ _____ _____    ______ ____
ROOT
ATOM      1  C   UNL     1     -10.357  54.641  50.866  0.00  0.00    +0.000 A 
ATOM      2  C   UNL     1     -11.508  55.500  51.306  0.00  0.00    +0.000 A 
ATOM      3  C   UNL     1     -10.240  54.316  49.562  0.00  0.00    +0.000 A 
ATOM      4  O   UNL     1     -11.824  55.509  52.500  0.00  0.00    +0.000 OA
ATOM      5  N   UNL     1     -12.091  56.297  50.311  0.00  0.00    +0.000 N 
ATOM      6  C   UNL     1     -11.134  54.908  48.563  0.00  0.00    +0.000 A 
ATOM      7  C   UNL     1     -11.998  55.941  48.940  0.00  0.00    +0.000 A 
ATOM      8  C   UNL     1     -11.049  54.540  47.212  0.00  0.00    +0.000 A 
ATOM      9  C   UNL     1     -12.758  56.598  47.960  0.00  0.00    +0.000 A 
ATOM     10  C   UNL     1     -11.776  55.226  46.244  0.00  0.00    +0.000 A 
ATOM     11  C   UNL     1     -12.623  56.263  46.615  0.00  0.00    +0.000 A 
ENDROOT
BRANCH   1  17
ATOM     12  S   UNL     1      -7.014  54.717  52.923  0.00  0.00    +0.000 S 
ATOM     13  O   UNL     1      -7.080  55.791  53.882  0.00  0.00    +0.000 OA
ATOM     14  O   UNL     1      -5.790  54.467  52.189  0.00  0.00    +0.000 OA
ATOM     15  N   UNL     1      -8.196  54.930  51.837  0.00  0.00    +0.000 N 
ATOM     16  C   UNL     1      -7.366  53.248  53.802  0.00  0.00    +0.000 A 
ATOM     17  C   UNL     1      -9.290  54.223  51.861  0.00  0.00    +0.000 C 
ATOM     18  C   UNL     1      -8.613  52.658  53.620  0.00  0.00    +0.000 A 
ATOM     19  C   UNL     1      -6.406  52.724  54.665  0.00  0.00    +0.000 A 
ATOM     20  N   UNL     1      -9.546  53.185  52.732  0.00  0.00    +0.000 N 
ATOM     21  C   UNL     1      -8.901  51.515  54.364  0.00  0.00    +0.000 A 
ATOM     22  C   UNL     1      -6.703  51.574  55.391  0.00  0.00    +0.000 A 
ATOM     23  C   UNL     1      -7.956  50.975  55.240  0.00  0.00    +0.000 A 
ATOM     24  H   UNL     1      -8.084  55.613  51.138  0.00  0.00    +0.000 HD
ATOM     25  H   UNL     1     -10.448  52.791  52.724  0.00  0.00    +0.000 HD
ENDBRANCH   1  17
BRANCH   3  26
ATOM     26  O   UNL     1      -9.249  53.515  49.026  0.00  0.00    +0.000 OA
ATOM     27  H   UNL     1      -9.478  52.775  48.499  0.00  0.00    +0.000 HD
ENDBRANCH   3  26
BRANCH   5  28
ATOM     28  N   UNL     1     -12.886  57.426  50.616  0.00  0.00    +0.000 N 
ATOM     29  H   UNL     1     -12.483  58.305  50.802  0.00  0.00    +0.000 HD
BRANCH  28  30
ATOM     30  C   UNL     1     -14.341  57.229  50.645  0.00  0.00    +0.000 C 
BRANCH  30  31
ATOM     31  C   UNL     1     -14.831  56.807  52.051  0.00  0.00    +0.000 C 
ATOM     32  C   UNL     1     -14.500  57.782  53.177  0.00  0.00    +0.000 C 
ENDBRANCH  30  31
BRANCH  30  33
ATOM     33  C   UNL     1     -15.034  58.531  50.184  0.00  0.00    +0.000 C 
ATOM     34  C   UNL     1     -14.062  59.672  49.905  0.00  0.00    +0.000 C 
ENDBRANCH  30  33
ENDBRANCH  28  30
ENDBRANCH   5  28
TORSDOF 6
ENDMDL
MODEL 8
REMARK VINA RESULT:      -7.4      3.236      6.678
REMARK  Name = 
REMARK  8 active torsions:
REMARK  status: ('A' for Active; 'I' for Inactive)
REMARK    1  A    between atoms: C_6  and  C_10
REMARK    2  A    between atoms: C_14  and  O_18
REMARK    3  A    between atoms: N_17  and  N_20
REMARK    4  A    between atoms: N_20  and  C_23
REMARK    5  A    between atoms: C_23  and  C_26
REMARK    6  A    between atoms: C_23  and  C_27
REMARK    7  A    between atoms: C_26  and  C_29
REMARK    8  A    between atoms: C_27  and  C_30
REMARK                            x       y       z     vdW  Elec       q    Type
REMARK                         _______ _______ _______ _____ _____    ______ ____
ROOT
ATOM      1  C   UNL     1     -11.618  55.854  48.789  0.00  0.00    +0.000 A 
ATOM      2  C   UNL     1     -10.585  55.077  49.552  0.00  0.00    +0.000 A 
ATOM      3  C   UNL     1     -11.812  55.584  47.482  0.00  0.00    +0.000 A 
ATOM      4  O   UNL     1     -10.155  55.538  50.615  0.00  0.00    +0.000 OA
ATOM      5  N   UNL     1     -10.242  53.827  49.017  0.00  0.00    +0.000 N 
ATOM      6  C   UNL     1     -11.131  54.453  46.846  0.00  0.00    +0.000 A 
ATOM      7  C   UNL     1     -10.414  53.550  47.635  0.00  0.00    +0.000 A 
ATOM      8  C   UNL     1     -11.291  54.193  45.476  0.00  0.00    +0.000 A 
ATOM      9  C   UNL     1      -9.874  52.395  47.048  0.00  0.00    +0.000 A 
ATOM     10  C   UNL     1     -10.787  53.025  44.913  0.00  0.00    +0.000 A 
ATOM     11  C   UNL     1     -10.087  52.119  45.701  0.00  0.00    +0.000 A 
ENDROOT
BRANCH   1  17
ATOM     12  S   UNL     1     -13.540  59.202  49.503  0.00  0.00    +0.000 S 
ATOM     13  O   UNL     1     -14.656  59.302  48.597  0.00  0.00    +0.000 OA
ATOM     14  O   UNL     1     -12.733  60.368  49.800  0.00  0.00    +0.000 OA
ATOM     15  N   UNL     1     -12.544  58.048  48.959  0.00  0.00    +0.000 N 
ATOM     16  C   UNL     1     -14.193  58.657  51.030  0.00  0.00    +0.000 A 
ATOM     17  C   UNL     1     -12.498  56.865  49.503  0.00  0.00    +0.000 C 
ATOM     18  C   UNL     1     -13.967  57.337  51.406  0.00  0.00    +0.000 A 
ATOM     19  C   UNL     1     -14.929  59.545  51.812  0.00  0.00    +0.000 A 
ATOM     20  N   UNL     1     -13.205  56.476  50.621  0.00  0.00    +0.000 N 
ATOM     21  C   UNL     1     -14.534  56.900  52.601  0.00  0.00    +0.000 A 
ATOM     22  C   UNL     1     -15.478  59.098  53.011  0.00  0.00    +0.000 A 
ATOM     23  C   UNL     1     -15.281  57.771  53.399  0.00  0.00    +0.000 A 
ATOM     24  H   UNL     1     -11.956  58.246  48.196  0.00  0.00    +0.000 HD
ATOM     25  H   UNL     1     -13.169  55.528  50.880  0.00  0.00    +0.000 HD
ENDBRANCH   1  17
BRANCH   3  26
ATOM     26  O   UNL     1     -12.708  56.238  46.656  0.00  0.00    +0.000 OA
ATOM     27  H   UNL     1     -13.076  55.794  45.918  0.00  0.00    +0.000 HD
ENDBRANCH   3  26
BRANCH   5  28
ATOM     28  N   UNL     1      -9.615  52.822  49.789  0.00  0.00    +0.000 N 
ATOM     29  H   UNL     1      -8.647  52.652  49.726  0.00  0.00    +0.000 HD
BRANCH  28  30
ATOM     30  C   UNL     1     -10.474  52.039  50.687  0.00  0.00    +0.000 C 
BRANCH  30  31
ATOM     31  C   UNL     1     -10.574  50.562  50.236  0.00  0.00    +0.000 C 
ATOM     32  C   UNL     1      -9.466  49.647  50.746  0.00  0.00    +0.000 C 
ENDBRANCH  30  31
BRANCH  30  33
ATOM     33  C   UNL     1      -9.920  52.141  52.126  0.00  0.00    +0.000 C 
ATOM     34  C   UNL     1     -10.749  53.042  53.036  0.00  0.00    +0.000 C 
ENDBRANCH  30  33
ENDBRANCH  28  30
ENDBRANCH   5  28
TORSDOF 6
ENDMDL
MODEL 9
REMARK VINA RESULT:      -7.4      3.539      6.040
REMARK  Name = 
REMARK  8 active torsions:
REMARK  status: ('A' for Active; 'I' for Inactive)
REMARK    1  A    between atoms: C_6  and  C_10
REMARK    2  A    between atoms: C_14  and  O_18
REMARK    3  A    between atoms: N_17  and  N_20
REMARK    4  A    between atoms: N_20  and  C_23
REMARK    5  A    between atoms: C_23  and  C_26
REMARK    6  A    between atoms: C_23  and  C_27
REMARK    7  A    between atoms: C_26  and  C_29
REMARK    8  A    between atoms: C_27  and  C_30
REMARK                            x       y       z     vdW  Elec       q    Type
REMARK                         _______ _______ _______ _____ _____    ______ ____
ROOT
ATOM      1  C   UNL     1     -10.432  55.071  47.623  0.00  0.00    +0.000 A 
ATOM      2  C   UNL     1      -8.949  55.302  47.582  0.00  0.00    +0.000 A 
ATOM      3  C   UNL     1     -11.033  54.469  46.576  0.00  0.00    +0.000 A 
ATOM      4  O   UNL     1      -8.455  56.143  48.340  0.00  0.00    +0.000 OA
ATOM      5  N   UNL     1      -8.224  54.468  46.719  0.00  0.00    +0.000 N 
ATOM      6  C   UNL     1     -10.237  53.915  45.478  0.00  0.00    +0.000 A 
ATOM      7  C   UNL     1      -8.845  53.858  45.598  0.00  0.00    +0.000 A 
ATOM      8  C   UNL     1     -10.855  53.328  44.364  0.00  0.00    +0.000 A 
ATOM      9  C   UNL     1      -8.091  53.209  44.607  0.00  0.00    +0.000 A 
ATOM     10  C   UNL     1     -10.102  52.650  43.409  0.00  0.00    +0.000 A 
ATOM     11  C   UNL     1      -8.720  52.581  43.536  0.00  0.00    +0.000 A 
ENDROOT
BRANCH   1  17
ATOM     12  S   UNL     1     -11.700  54.957  51.337  0.00  0.00    +0.000 S 
ATOM     13  O   UNL     1     -10.668  55.480  52.198  0.00  0.00    +0.000 OA
ATOM     14  O   UNL     1     -12.459  53.789  51.732  0.00  0.00    +0.000 OA
ATOM     15  N   UNL     1     -11.045  54.644  49.890  0.00  0.00    +0.000 N 
ATOM     16  C   UNL     1     -12.861  56.246  51.120  0.00  0.00    +0.000 A 
ATOM     17  C   UNL     1     -11.229  55.427  48.865  0.00  0.00    +0.000 C 
ATOM     18  C   UNL     1     -12.881  56.912  49.898  0.00  0.00    +0.000 A 
ATOM     19  C   UNL     1     -13.712  56.579  52.171  0.00  0.00    +0.000 A 
ATOM     20  N   UNL     1     -12.038  56.542  48.854  0.00  0.00    +0.000 N 
ATOM     21  C   UNL     1     -13.776  57.969  49.755  0.00  0.00    +0.000 A 
ATOM     22  C   UNL     1     -14.611  57.631  52.008  0.00  0.00    +0.000 A 
ATOM     23  C   UNL     1     -14.635  58.326  50.797  0.00  0.00    +0.000 A 
ATOM     24  H   UNL     1     -10.492  53.837  49.782  0.00  0.00    +0.000 HD
ATOM     25  H   UNL     1     -12.020  57.115  48.053  0.00  0.00    +0.000 HD
ENDBRANCH   1  17
BRANCH   3  26
ATOM     26  O   UNL     1     -12.389  54.218  46.470  0.00  0.00    +0.000 OA
ATOM     27  H   UNL     1     -12.899  54.667  45.827  0.00  0.00    +0.000 HD
ENDBRANCH   3  26
BRANCH   5  28
ATOM     28  N   UNL     1      -6.829  54.274  46.850  0.00  0.00    +0.000 N 
ATOM     29  H   UNL     1      -6.188  54.725  46.254  0.00  0.00    +0.000 HD
BRANCH  28  30
ATOM     30  C   UNL     1      -6.380  53.369  47.915  0.00  0.00    +0.000 C 
BRANCH  30  31
ATOM     31  C   UNL     1      -6.185  51.925  47.391  0.00  0.00    +0.000 C 
ATOM     32  C   UNL     1      -7.232  50.916  47.852  0.00  0.00    +0.000 C 
ENDBRANCH  30  31
BRANCH  30  33
ATOM     33  C   UNL     1      -5.070  53.919  48.523  0.00  0.00    +0.000 C 
ATOM     34  C   UNL     1      -5.275  55.147  49.403  0.00  0.00    +0.000 C 
ENDBRANCH  30  33
ENDBRANCH  28  30
ENDBRANCH   5  28
TORSDOF 6
ENDMDL
