MODEL 1
REMARK VINA RESULT:      -8.3      0.000      0.000
REMARK  Name = 
REMARK  5 active torsions:
REMARK  status: ('A' for Active; 'I' for Inactive)
REMARK    1  A    between atoms: C_6  and  C_10
REMARK    2  A    between atoms: C_14  and  O_18
REMARK    3  A    between atoms: N_17  and  N_20
REMARK    4  A    between atoms: N_20  and  C_23
REMARK    5  A    between atoms: C_23  and  C_26
REMARK                            x       y       z     vdW  Elec       q    Type
REMARK                         _______ _______ _______ _____ _____    ______ ____
ROOT
ATOM      1  C   UNL     1     -11.355  53.923  51.564  0.00  0.00    +0.000 A 
ATOM      2  C   UNL     1     -10.397  54.092  52.695  0.00  0.00    +0.000 A 
ATOM      3  C   UNL     1     -11.493  52.728  50.965  0.00  0.00    +0.000 A 
ATOM      4  O   UNL     1     -10.281  55.225  53.177  0.00  0.00    +0.000 OA
ATOM      5  N   UNL     1      -9.713  52.965  53.159  0.00  0.00    +0.000 N 
ATOM      6  C   UNL     1     -10.737  51.559  51.441  0.00  0.00    +0.000 A 
ATOM      7  C   UNL     1      -9.857  51.691  52.531  0.00  0.00    +0.000 A 
ATOM      8  C   UNL     1     -10.897  50.304  50.828  0.00  0.00    +0.000 A 
ATOM      9  C   UNL     1      -9.147  50.563  52.973  0.00  0.00    +0.000 A 
ATOM     10  C   UNL     1     -10.197  49.190  51.287  0.00  0.00    +0.000 A 
ATOM     11  C   UNL     1      -9.319  49.321  52.356  0.00  0.00    +0.000 A 
ENDROOT
BRANCH   1  17
ATOM     12  S   UNL     1     -12.891  56.799  49.372  0.00  0.00    +0.000 S 
ATOM     13  O   UNL     1     -13.921  56.322  48.468  0.00  0.00    +0.000 OA
ATOM     14  O   UNL     1     -11.922  57.781  48.928  0.00  0.00    +0.000 OA
ATOM     15  N   UNL     1     -12.080  55.505  49.917  0.00  0.00    +0.000 N 
ATOM     16  C   UNL     1     -13.739  57.533  50.720  0.00  0.00    +0.000 A 
ATOM     17  C   UNL     1     -12.203  55.111  51.151  0.00  0.00    +0.000 C 
ATOM     18  C   UNL     1     -13.696  56.886  51.945  0.00  0.00    +0.000 A 
ATOM     19  C   UNL     1     -14.418  58.743  50.546  0.00  0.00    +0.000 A 
ATOM     20  N   UNL     1     -13.028  55.674  52.102  0.00  0.00    +0.000 N 
ATOM     21  C   UNL     1     -14.420  57.435  53.009  0.00  0.00    +0.000 A 
ATOM     22  C   UNL     1     -15.103  59.298  51.624  0.00  0.00    +0.000 A 
ATOM     23  C   UNL     1     -15.113  58.639  52.852  0.00  0.00    +0.000 A 
ATOM     24  H   UNL     1     -11.487  55.011  49.306  0.00  0.00    +0.000 HD
ATOM     25  H   UNL     1     -13.152  55.188  52.948  0.00  0.00    +0.000 HD
ENDBRANCH   1  17
BRANCH   3  26
ATOM     26  O   UNL     1     -12.347  52.482  49.904  0.00  0.00    +0.000 OA
ATOM     27  H   UNL     1     -12.569  51.601  49.676  0.00  0.00    +0.000 HD
ENDBRANCH   3  26
BRANCH   5  28
ATOM     28  N   UNL     1      -8.760  53.088  54.235  0.00  0.00    +0.000 N 
ATOM     29  H   UNL     1      -8.994  52.944  55.180  0.00  0.00    +0.000 HD
BRANCH  28  30
ATOM     30  C   UNL     1      -7.409  53.450  53.789  0.00  0.00    +0.000 C 
BRANCH  30  31
ATOM     31  C   UNL     1      -6.984  54.742  54.418  0.00  0.00    +0.000 C 
ATOM     32  C   UNL     1      -6.825  56.013  53.627  0.00  0.00    +0.000 C 
ATOM     33  C   UNL     1      -5.606  55.279  54.114  0.00  0.00    +0.000 C 
ENDBRANCH  30  31
ENDBRANCH  28  30
ENDBRANCH   5  28
TORSDOF 5
ENDMDL
MODEL 2
REMARK VINA RESULT:      -8.2      2.213      2.813
REMARK  Name = 
REMARK  5 active torsions:
REMARK  status: ('A' for Active; 'I' for Inactive)
REMARK    1  A    between atoms: C_6  and  C_10
REMARK    2  A    between atoms: C_14  and  O_18
REMARK    3  A    between atoms: N_17  and  N_20
REMARK    4  A    between atoms: N_20  and  C_23
REMARK    5  A    between atoms: C_23  and  C_26
REMARK                            x       y       z     vdW  Elec       q    Type
REMARK                         _______ _______ _______ _____ _____    ______ ____
ROOT
ATOM      1  C   UNL     1     -10.096  54.548  52.175  0.00  0.00    +0.000 A 
ATOM      2  C   UNL     1      -8.733  55.113  51.952  0.00  0.00    +0.000 A 
ATOM      3  C   UNL     1     -10.260  53.454  52.938  0.00  0.00    +0.000 A 
ATOM      4  O   UNL     1      -8.640  56.094  51.205  0.00  0.00    +0.000 OA
ATOM      5  N   UNL     1      -7.654  54.524  52.616  0.00  0.00    +0.000 N 
ATOM      6  C   UNL     1      -9.108  52.823  53.600  0.00  0.00    +0.000 A 
ATOM      7  C   UNL     1      -7.820  53.364  53.432  0.00  0.00    +0.000 A 
ATOM      8  C   UNL     1      -9.282  51.691  54.415  0.00  0.00    +0.000 A 
ATOM      9  C   UNL     1      -6.734  52.749  54.075  0.00  0.00    +0.000 A 
ATOM     10  C   UNL     1      -8.197  51.099  55.060  0.00  0.00    +0.000 A 
ATOM     11  C   UNL     1      -6.923  51.626  54.886  0.00  0.00    +0.000 A 
ENDROOT
BRANCH   1  17
ATOM     12  S   UNL     1     -12.570  56.032  49.508  0.00  0.00    +0.000 S 
ATOM     13  O   UNL     1     -13.473  55.032  48.968  0.00  0.00    +0.000 OA
ATOM     14  O   UNL     1     -11.971  57.025  48.639  0.00  0.00    +0.000 OA
ATOM     15  N   UNL     1     -11.374  55.249  50.273  0.00  0.00    +0.000 N 
ATOM     16  C   UNL     1     -13.499  56.927  50.696  0.00  0.00    +0.000 A 
ATOM     17  C   UNL     1     -11.286  55.269  51.571  0.00  0.00    +0.000 C 
ATOM     18  C   UNL     1     -13.178  56.758  52.033  0.00  0.00    +0.000 A 
ATOM     19  C   UNL     1     -14.517  57.791  50.282  0.00  0.00    +0.000 A 
ATOM     20  N   UNL     1     -12.170  55.884  52.432  0.00  0.00    +0.000 N 
ATOM     21  C   UNL     1     -13.955  57.423  52.989  0.00  0.00    +0.000 A 
ATOM     22  C   UNL     1     -15.258  58.476  51.242  0.00  0.00    +0.000 A 
ATOM     23  C   UNL     1     -14.983  58.284  52.595  0.00  0.00    +0.000 A 
ATOM     24  H   UNL     1     -10.706  54.751  49.748  0.00  0.00    +0.000 HD
ATOM     25  H   UNL     1     -12.084  55.692  53.394  0.00  0.00    +0.000 HD
ENDBRANCH   1  17
BRANCH   3  26
ATOM     26  O   UNL     1     -11.482  52.856  53.189  0.00  0.00    +0.000 OA
ATOM     27  H   UNL     1     -11.712  52.609  54.064  0.00  0.00    +0.000 HD
ENDBRANCH   3  26
BRANCH   5  28
ATOM     28  N   UNL     1      -6.317  55.024  52.411  0.00  0.00    +0.000 N 
ATOM     29  H   UNL     1      -5.951  55.797  52.897  0.00  0.00    +0.000 HD
BRANCH  28  30
ATOM     30  C   UNL     1      -5.553  54.272  51.408  0.00  0.00    +0.000 C 
BRANCH  30  31
ATOM     31  C   UNL     1      -5.518  55.024  50.112  0.00  0.00    +0.000 C 
ATOM     32  C   UNL     1      -6.271  54.568  48.891  0.00  0.00    +0.000 C 
ATOM     33  C   UNL     1      -4.776  54.422  48.943  0.00  0.00    +0.000 C 
ENDBRANCH  30  31
ENDBRANCH  28  30
ENDBRANCH   5  28
TORSDOF 5
ENDMDL
MODEL 3
REMARK VINA RESULT:      -8.1      2.921      7.349
REMARK  Name = 
REMARK  5 active torsions:
REMARK  status: ('A' for Active; 'I' for Inactive)
REMARK    1  A    between atoms: C_6  and  C_10
REMARK    2  A    between atoms: C_14  and  O_18
REMARK    3  A    between atoms: N_17  and  N_20
REMARK    4  A    between atoms: N_20  and  C_23
REMARK    5  A    between atoms: C_23  and  C_26
REMARK                            x       y       z     vdW  Elec       q    Type
REMARK                         _______ _______ _______ _____ _____    ______ ____
ROOT
ATOM      1  C   UNL     1     -10.460  54.923  50.505  0.00  0.00    +0.000 A 
ATOM      2  C   UNL     1     -11.596  55.095  51.456  0.00  0.00    +0.000 A 
ATOM      3  C   UNL     1     -10.599  55.264  49.213  0.00  0.00    +0.000 A 
ATOM      4  O   UNL     1     -11.423  54.722  52.622  0.00  0.00    +0.000 OA
ATOM      5  N   UNL     1     -12.771  55.687  50.986  0.00  0.00    +0.000 N 
ATOM      6  C   UNL     1     -11.856  55.852  48.725  0.00  0.00    +0.000 A 
ATOM      7  C   UNL     1     -12.926  56.057  49.615  0.00  0.00    +0.000 A 
ATOM      8  C   UNL     1     -11.996  56.229  47.377  0.00  0.00    +0.000 A 
ATOM      9  C   UNL     1     -14.117  56.623  49.131  0.00  0.00    +0.000 A 
ATOM     10  C   UNL     1     -13.177  56.803  46.913  0.00  0.00    +0.000 A 
ATOM     11  C   UNL     1     -14.239  56.996  47.790  0.00  0.00    +0.000 A 
ENDROOT
BRANCH   1  17
ATOM     12  S   UNL     1      -7.233  52.723  50.937  0.00  0.00    +0.000 S 
ATOM     13  O   UNL     1      -6.199  53.055  49.974  0.00  0.00    +0.000 OA
ATOM     14  O   UNL     1      -7.505  51.340  51.274  0.00  0.00    +0.000 OA
ATOM     15  N   UNL     1      -8.615  53.395  50.421  0.00  0.00    +0.000 N 
ATOM     16  C   UNL     1      -6.762  53.501  52.436  0.00  0.00    +0.000 A 
ATOM     17  C   UNL     1      -9.137  54.412  51.043  0.00  0.00    +0.000 C 
ATOM     18  C   UNL     1      -7.514  54.579  52.874  0.00  0.00    +0.000 A 
ATOM     19  C   UNL     1      -5.665  53.022  53.158  0.00  0.00    +0.000 A 
ATOM     20  N   UNL     1      -8.596  55.054  52.137  0.00  0.00    +0.000 N 
ATOM     21  C   UNL     1      -7.107  55.241  54.037  0.00  0.00    +0.000 A 
ATOM     22  C   UNL     1      -5.293  53.668  54.335  0.00  0.00    +0.000 A 
ATOM     23  C   UNL     1      -6.008  54.783  54.769  0.00  0.00    +0.000 A 
ATOM     24  H   UNL     1      -9.067  53.029  49.626  0.00  0.00    +0.000 HD
ATOM     25  H   UNL     1      -9.002  55.907  52.416  0.00  0.00    +0.000 HD
ENDBRANCH   1  17
BRANCH   3  26
ATOM     26  O   UNL     1      -9.605  55.129  48.260  0.00  0.00    +0.000 OA
ATOM     27  H   UNL     1      -9.334  55.872  47.757  0.00  0.00    +0.000 HD
ENDBRANCH   3  26
BRANCH   5  28
ATOM     28  N   UNL     1     -13.902  55.851  51.865  0.00  0.00    +0.000 N 
ATOM     29  H   UNL     1     -14.624  55.187  51.943  0.00  0.00    +0.000 HD
BRANCH  28  30
ATOM     30  C   UNL     1     -13.876  57.101  52.635  0.00  0.00    +0.000 C 
BRANCH  30  31
ATOM     31  C   UNL     1     -15.093  57.922  52.332  0.00  0.00    +0.000 C 
ATOM     32  C   UNL     1     -15.024  59.227  51.586  0.00  0.00    +0.000 C 
ATOM     33  C   UNL     1     -15.291  59.226  53.065  0.00  0.00    +0.000 C 
ENDBRANCH  30  31
ENDBRANCH  28  30
ENDBRANCH   5  28
TORSDOF 5
ENDMDL
MODEL 4
REMARK VINA RESULT:      -8.0      3.389      7.620
REMARK  Name = 
REMARK  5 active torsions:
REMARK  status: ('A' for Active; 'I' for Inactive)
REMARK    1  A    between atoms: C_6  and  C_10
REMARK    2  A    between atoms: C_14  and  O_18
REMARK    3  A    between atoms: N_17  and  N_20
REMARK    4  A    between atoms: N_20  and  C_23
REMARK    5  A    between atoms: C_23  and  C_26
REMARK                            x       y       z     vdW  Elec       q    Type
REMARK                         _______ _______ _______ _____ _____    ______ ____
ROOT
ATOM      1  C   UNL     1     -10.256  55.210  50.808  0.00  0.00    +0.000 A 
ATOM      2  C   UNL     1      -9.820  55.160  49.382  0.00  0.00    +0.000 A 
ATOM      3  C   UNL     1     -11.475  55.678  51.129  0.00  0.00    +0.000 A 
ATOM      4  O   UNL     1      -8.672  54.763  49.153  0.00  0.00    +0.000 OA
ATOM      5  N   UNL     1     -10.735  55.535  48.395  0.00  0.00    +0.000 N 
ATOM      6  C   UNL     1     -12.413  56.104  50.080  0.00  0.00    +0.000 A 
ATOM      7  C   UNL     1     -12.034  56.029  48.727  0.00  0.00    +0.000 A 
ATOM      8  C   UNL     1     -13.696  56.574  50.413  0.00  0.00    +0.000 A 
ATOM      9  C   UNL     1     -12.945  56.437  47.740  0.00  0.00    +0.000 A 
ATOM     10  C   UNL     1     -14.596  56.962  49.423  0.00  0.00    +0.000 A 
ATOM     11  C   UNL     1     -14.218  56.898  48.087  0.00  0.00    +0.000 A 
ENDROOT
BRANCH   1  17
ATOM     12  S   UNL     1      -7.077  54.782  53.077  0.00  0.00    +0.000 S 
ATOM     13  O   UNL     1      -7.037  55.739  54.167  0.00  0.00    +0.000 OA
ATOM     14  O   UNL     1      -5.871  54.454  52.343  0.00  0.00    +0.000 OA
ATOM     15  N   UNL     1      -8.187  55.298  52.013  0.00  0.00    +0.000 N 
ATOM     16  C   UNL     1      -7.638  53.276  53.780  0.00  0.00    +0.000 A 
ATOM     17  C   UNL     1      -9.318  54.671  51.871  0.00  0.00    +0.000 C 
ATOM     18  C   UNL     1      -8.907  52.835  53.443  0.00  0.00    +0.000 A 
ATOM     19  C   UNL     1      -6.807  52.553  54.641  0.00  0.00    +0.000 A 
ATOM     20  N   UNL     1      -9.730  53.572  52.595  0.00  0.00    +0.000 N 
ATOM     21  C   UNL     1      -9.383  51.665  54.047  0.00  0.00    +0.000 A 
ATOM     22  C   UNL     1      -7.280  51.371  55.206  0.00  0.00    +0.000 A 
ATOM     23  C   UNL     1      -8.571  50.933  54.917  0.00  0.00    +0.000 A 
ATOM     24  H   UNL     1      -8.002  56.097  51.467  0.00  0.00    +0.000 HD
ATOM     25  H   UNL     1     -10.668  53.289  52.506  0.00  0.00    +0.000 HD
ENDBRANCH   1  17
BRANCH   3  26
ATOM     26  O   UNL     1     -11.957  55.771  52.422  0.00  0.00    +0.000 OA
ATOM     27  H   UNL     1     -12.332  56.575  52.726  0.00  0.00    +0.000 HD
ENDBRANCH   3  26
BRANCH   5  28
ATOM     28  N   UNL     1     -10.348  55.524  47.006  0.00  0.00    +0.000 N 
ATOM     29  H   UNL     1     -10.176  56.343  46.489  0.00  0.00    +0.000 HD
BRANCH  28  30
ATOM     30  C   UNL     1     -10.234  54.176  46.436  0.00  0.00    +0.000 C 
BRANCH  30  31
ATOM     31  C   UNL     1     -11.243  53.989  45.343  0.00  0.00    +0.000 C 
ATOM     32  C   UNL     1     -12.038  52.721  45.184  0.00  0.00    +0.000 C 
ATOM     33  C   UNL     1     -10.927  53.031  44.220  0.00  0.00    +0.000 C 
ENDBRANCH  30  31
ENDBRANCH  28  30
ENDBRANCH   5  28
TORSDOF 5
ENDMDL
MODEL 5
REMARK VINA RESULT:      -8.0      3.350      7.695
REMARK  Name = 
REMARK  5 active torsions:
REMARK  status: ('A' for Active; 'I' for Inactive)
REMARK    1  A    between atoms: C_6  and  C_10
REMARK    2  A    between atoms: C_14  and  O_18
REMARK    3  A    between atoms: N_17  and  N_20
REMARK    4  A    between atoms: N_20  and  C_23
REMARK    5  A    between atoms: C_23  and  C_26
REMARK                            x       y       z     vdW  Elec       q    Type
REMARK                         _______ _______ _______ _____ _____    ______ ____
ROOT
ATOM      1  C   UNL     1      -9.608  55.146  50.935  0.00  0.00    +0.000 A 
ATOM      2  C   UNL     1     -10.844  55.275  51.759  0.00  0.00    +0.000 A 
ATOM      3  C   UNL     1      -9.664  55.291  49.600  0.00  0.00    +0.000 A 
ATOM      4  O   UNL     1     -10.738  55.087  52.976  0.00  0.00    +0.000 OA
ATOM      5  N   UNL     1     -12.035  55.625  51.117  0.00  0.00    +0.000 N 
ATOM      6  C   UNL     1     -10.934  55.623  48.935  0.00  0.00    +0.000 A 
ATOM      7  C   UNL     1     -12.103  55.786  49.700  0.00  0.00    +0.000 A 
ATOM      8  C   UNL     1     -10.989  55.795  47.541  0.00  0.00    +0.000 A 
ATOM      9  C   UNL     1     -13.305  56.106  49.048  0.00  0.00    +0.000 A 
ATOM     10  C   UNL     1     -12.185  56.127  46.908  0.00  0.00    +0.000 A 
ATOM     11  C   UNL     1     -13.344  56.278  47.661  0.00  0.00    +0.000 A 
ENDROOT
BRANCH   1  17
ATOM     12  S   UNL     1      -6.707  55.431  53.569  0.00  0.00    +0.000 S 
ATOM     13  O   UNL     1      -6.977  54.677  54.780  0.00  0.00    +0.000 OA
ATOM     14  O   UNL     1      -6.107  56.748  53.644  0.00  0.00    +0.000 OA
ATOM     15  N   UNL     1      -8.101  55.560  52.752  0.00  0.00    +0.000 N 
ATOM     16  C   UNL     1      -5.600  54.449  52.630  0.00  0.00    +0.000 A 
ATOM     17  C   UNL     1      -8.288  54.906  51.643  0.00  0.00    +0.000 C 
ATOM     18  C   UNL     1      -6.075  53.866  51.466  0.00  0.00    +0.000 A 
ATOM     19  C   UNL     1      -4.277  54.284  53.054  0.00  0.00    +0.000 A 
ATOM     20  N   UNL     1      -7.398  54.027  51.063  0.00  0.00    +0.000 N 
ATOM     21  C   UNL     1      -5.213  53.032  50.744  0.00  0.00    +0.000 A 
ATOM     22  C   UNL     1      -3.420  53.481  52.305  0.00  0.00    +0.000 A 
ATOM     23  C   UNL     1      -3.890  52.848  51.156  0.00  0.00    +0.000 A 
ATOM     24  H   UNL     1      -8.817  56.141  53.100  0.00  0.00    +0.000 HD
ATOM     25  H   UNL     1      -7.719  53.476  50.313  0.00  0.00    +0.000 HD
ENDBRANCH   1  17
BRANCH   3  26
ATOM     26  O   UNL     1      -8.572  55.177  48.757  0.00  0.00    +0.000 OA
ATOM     27  H   UNL     1      -8.274  55.922  48.273  0.00  0.00    +0.000 HD
ENDBRANCH   3  26
BRANCH   5  28
ATOM     28  N   UNL     1     -13.259  55.738  51.873  0.00  0.00    +0.000 N 
ATOM     29  H   UNL     1     -13.911  55.006  51.952  0.00  0.00    +0.000 HD
BRANCH  28  30
ATOM     30  C   UNL     1     -13.440  57.047  52.512  0.00  0.00    +0.000 C 
BRANCH  30  31
ATOM     31  C   UNL     1     -14.779  57.617  52.156  0.00  0.00    +0.000 C 
ATOM     32  C   UNL     1     -14.936  58.820  51.265  0.00  0.00    +0.000 C 
ATOM     33  C   UNL     1     -15.181  58.949  52.742  0.00  0.00    +0.000 C 
ENDBRANCH  30  31
ENDBRANCH  28  30
ENDBRANCH   5  28
TORSDOF 5
ENDMDL
MODEL 6
REMARK VINA RESULT:      -7.8      3.031      7.331
REMARK  Name = 
REMARK  5 active torsions:
REMARK  status: ('A' for Active; 'I' for Inactive)
REMARK    1  A    between atoms: C_6  and  C_10
REMARK    2  A    between atoms: C_14  and  O_18
REMARK    3  A    between atoms: N_17  and  N_20
REMARK    4  A    between atoms: N_20  and  C_23
REMARK    5  A    between atoms: C_23  and  C_26
REMARK                            x       y       z     vdW  Elec       q    Type
REMARK                         _______ _______ _______ _____ _____    ______ ____
ROOT
ATOM      1  C   UNL     1      -9.931  54.495  50.933  0.00  0.00    +0.000 A 
ATOM      2  C   UNL     1     -11.092  55.356  51.302  0.00  0.00    +0.000 A 
ATOM      3  C   UNL     1      -9.688  54.199  49.645  0.00  0.00    +0.000 A 
ATOM      4  O   UNL     1     -11.291  55.555  52.506  0.00  0.00    +0.000 OA
ATOM      5  N   UNL     1     -11.865  55.903  50.275  0.00  0.00    +0.000 N 
ATOM      6  C   UNL     1     -10.534  54.754  48.577  0.00  0.00    +0.000 A 
ATOM      7  C   UNL     1     -11.611  55.599  48.903  0.00  0.00    +0.000 A 
ATOM      8  C   UNL     1     -10.267  54.463  47.227  0.00  0.00    +0.000 A 
ATOM      9  C   UNL     1     -12.405  56.121  47.869  0.00  0.00    +0.000 A 
ATOM     10  C   UNL     1     -11.054  55.000  46.210  0.00  0.00    +0.000 A 
ATOM     11  C   UNL     1     -12.125  55.826  46.532  0.00  0.00    +0.000 A 
ENDROOT
BRANCH   1  17
ATOM     12  S   UNL     1      -6.729  54.084  53.172  0.00  0.00    +0.000 S 
ATOM     13  O   UNL     1      -6.578  55.161  54.133  0.00  0.00    +0.000 OA
ATOM     14  O   UNL     1      -5.576  53.569  52.460  0.00  0.00    +0.000 OA
ATOM     15  N   UNL     1      -7.825  54.557  52.075  0.00  0.00    +0.000 N 
ATOM     16  C   UNL     1      -7.387  52.729  54.069  0.00  0.00    +0.000 A 
ATOM     17  C   UNL     1      -9.007  54.014  52.036  0.00  0.00    +0.000 C 
ATOM     18  C   UNL     1      -8.697  52.357  53.816  0.00  0.00    +0.000 A 
ATOM     19  C   UNL     1      -6.591  52.050  54.997  0.00  0.00    +0.000 A 
ATOM     20  N   UNL     1      -9.484  53.050  52.899  0.00  0.00    +0.000 N 
ATOM     21  C   UNL     1      -9.247  51.315  54.572  0.00  0.00    +0.000 A 
ATOM     22  C   UNL     1      -7.139  50.990  55.715  0.00  0.00    +0.000 A 
ATOM     23  C   UNL     1      -8.470  50.630  55.510  0.00  0.00    +0.000 A 
ATOM     24  H   UNL     1      -7.594  55.264  51.430  0.00  0.00    +0.000 HD
ATOM     25  H   UNL     1     -10.444  52.838  52.866  0.00  0.00    +0.000 HD
ENDBRANCH   1  17
BRANCH   3  26
ATOM     26  O   UNL     1      -8.644  53.402  49.212  0.00  0.00    +0.000 OA
ATOM     27  H   UNL     1      -8.198  52.843  49.819  0.00  0.00    +0.000 HD
ENDBRANCH   3  26
BRANCH   5  28
ATOM     28  N   UNL     1     -13.010  56.722  50.588  0.00  0.00    +0.000 N 
ATOM     29  H   UNL     1     -13.024  57.698  50.465  0.00  0.00    +0.000 HD
BRANCH  28  30
ATOM     30  C   UNL     1     -14.155  55.963  51.107  0.00  0.00    +0.000 C 
BRANCH  30  31
ATOM     31  C   UNL     1     -15.249  56.897  51.527  0.00  0.00    +0.000 C 
ATOM     32  C   UNL     1     -14.999  58.349  51.837  0.00  0.00    +0.000 C 
ATOM     33  C   UNL     1     -15.280  57.384  52.955  0.00  0.00    +0.000 C 
ENDBRANCH  30  31
ENDBRANCH  28  30
ENDBRANCH   5  28
TORSDOF 5
ENDMDL
MODEL 7
REMARK VINA RESULT:      -7.7      3.416      4.079
REMARK  Name = 
REMARK  5 active torsions:
REMARK  status: ('A' for Active; 'I' for Inactive)
REMARK    1  A    between atoms: C_6  and  C_10
REMARK    2  A    between atoms: C_14  and  O_18
REMARK    3  A    between atoms: N_17  and  N_20
REMARK    4  A    between atoms: N_20  and  C_23
REMARK    5  A    between atoms: C_23  and  C_26
REMARK                            x       y       z     vdW  Elec       q    Type
REMARK                         _______ _______ _______ _____ _____    ______ ____
ROOT
ATOM      1  C   UNL     1     -11.426  55.965  48.826  0.00  0.00    +0.000 A 
ATOM      2  C   UNL     1     -10.365  55.381  49.697  0.00  0.00    +0.000 A 
ATOM      3  C   UNL     1     -11.521  55.601  47.536  0.00  0.00    +0.000 A 
ATOM      4  O   UNL     1     -10.298  55.788  50.863  0.00  0.00    +0.000 OA
ATOM      5  N   UNL     1      -9.532  54.397  49.159  0.00  0.00    +0.000 N 
ATOM      6  C   UNL     1     -10.612  54.590  46.974  0.00  0.00    +0.000 A 
ATOM      7  C   UNL     1      -9.629  54.000  47.790  0.00  0.00    +0.000 A 
ATOM      8  C   UNL     1     -10.725  54.193  45.630  0.00  0.00    +0.000 A 
ATOM      9  C   UNL     1      -8.773  53.035  47.236  0.00  0.00    +0.000 A 
ATOM     10  C   UNL     1      -9.879  53.223  45.097  0.00  0.00    +0.000 A 
ATOM     11  C   UNL     1      -8.900  52.648  45.899  0.00  0.00    +0.000 A 
ENDROOT
BRANCH   1  17
ATOM     12  S   UNL     1     -13.540  59.217  49.455  0.00  0.00    +0.000 S 
ATOM     13  O   UNL     1     -14.676  59.325  48.559  0.00  0.00    +0.000 OA
ATOM     14  O   UNL     1     -12.742  60.384  49.773  0.00  0.00    +0.000 OA
ATOM     15  N   UNL     1     -12.550  58.082  48.855  0.00  0.00    +0.000 N 
ATOM     16  C   UNL     1     -14.185  58.643  50.981  0.00  0.00    +0.000 A 
ATOM     17  C   UNL     1     -12.421  56.929  49.445  0.00  0.00    +0.000 C 
ATOM     18  C   UNL     1     -13.876  57.350  51.373  0.00  0.00    +0.000 A 
ATOM     19  C   UNL     1     -14.973  59.486  51.770  0.00  0.00    +0.000 A 
ATOM     20  N   UNL     1     -13.101  56.516  50.571  0.00  0.00    +0.000 N 
ATOM     21  C   UNL     1     -14.437  56.866  52.560  0.00  0.00    +0.000 A 
ATOM     22  C   UNL     1     -15.494  59.004  52.968  0.00  0.00    +0.000 A 
ATOM     23  C   UNL     1     -15.234  57.691  53.358  0.00  0.00    +0.000 A 
ATOM     24  H   UNL     1     -12.040  58.267  48.033  0.00  0.00    +0.000 HD
ATOM     25  H   UNL     1     -13.036  55.567  50.825  0.00  0.00    +0.000 HD
ENDBRANCH   1  17
BRANCH   3  26
ATOM     26  O   UNL     1     -12.464  56.098  46.654  0.00  0.00    +0.000 OA
ATOM     27  H   UNL     1     -13.376  55.940  46.804  0.00  0.00    +0.000 HD
ENDBRANCH   3  26
BRANCH   5  28
ATOM     28  N   UNL     1      -8.478  53.823  49.959  0.00  0.00    +0.000 N 
ATOM     29  H   UNL     1      -8.541  52.931  50.371  0.00  0.00    +0.000 HD
BRANCH  28  30
ATOM     30  C   UNL     1      -7.304  54.692  50.101  0.00  0.00    +0.000 C 
BRANCH  30  31
ATOM     31  C   UNL     1      -6.046  53.891  49.953  0.00  0.00    +0.000 C 
ATOM     32  C   UNL     1      -4.769  54.250  50.664  0.00  0.00    +0.000 C 
ATOM     33  C   UNL     1      -4.891  54.487  49.184  0.00  0.00    +0.000 C 
ENDBRANCH  30  31
ENDBRANCH  28  30
ENDBRANCH   5  28
TORSDOF 5
ENDMDL
MODEL 8
REMARK VINA RESULT:      -7.7      4.042      4.916
REMARK  Name = 
REMARK  5 active torsions:
REMARK  status: ('A' for Active; 'I' for Inactive)
REMARK    1  A    between atoms: C_6  and  C_10
REMARK    2  A    between atoms: C_14  and  O_18
REMARK    3  A    between atoms: N_17  and  N_20
REMARK    4  A    between atoms: N_20  and  C_23
REMARK    5  A    between atoms: C_23  and  C_26
REMARK                            x       y       z     vdW  Elec       q    Type
REMARK                         _______ _______ _______ _____ _____    ______ ____
ROOT
ATOM      1  C   UNL     1     -10.666  55.602  48.140  0.00  0.00    +0.000 A 
ATOM      2  C   UNL     1      -9.202  55.680  48.411  0.00  0.00    +0.000 A 
ATOM      3  C   UNL     1     -11.120  54.973  47.042  0.00  0.00    +0.000 A 
ATOM      4  O   UNL     1      -8.843  56.311  49.412  0.00  0.00    +0.000 OA
ATOM      5  N   UNL     1      -8.330  55.020  47.542  0.00  0.00    +0.000 N 
ATOM      6  C   UNL     1     -10.186  54.314  46.117  0.00  0.00    +0.000 A 
ATOM      7  C   UNL     1      -8.804  54.345  46.376  0.00  0.00    +0.000 A 
ATOM      8  C   UNL     1     -10.662  53.637  44.980  0.00  0.00    +0.000 A 
ATOM      9  C   UNL     1      -7.928  53.707  45.482  0.00  0.00    +0.000 A 
ATOM     10  C   UNL     1      -9.783  52.996  44.109  0.00  0.00    +0.000 A 
ATOM     11  C   UNL     1      -8.416  53.035  44.358  0.00  0.00    +0.000 A 
ENDROOT
BRANCH   1  17
ATOM     12  S   UNL     1     -13.008  55.933  51.277  0.00  0.00    +0.000 S 
ATOM     13  O   UNL     1     -12.269  56.177  52.502  0.00  0.00    +0.000 OA
ATOM     14  O   UNL     1     -14.134  55.021  51.269  0.00  0.00    +0.000 OA
ATOM     15  N   UNL     1     -11.948  55.432  50.158  0.00  0.00    +0.000 N 
ATOM     16  C   UNL     1     -13.646  57.490  50.783  0.00  0.00    +0.000 A 
ATOM     17  C   UNL     1     -11.624  56.196  49.156  0.00  0.00    +0.000 C 
ATOM     18  C   UNL     1     -13.107  58.084  49.652  0.00  0.00    +0.000 A 
ATOM     19  C   UNL     1     -14.676  58.089  51.514  0.00  0.00    +0.000 A 
ATOM     20  N   UNL     1     -12.072  57.482  48.941  0.00  0.00    +0.000 N 
ATOM     21  C   UNL     1     -13.570  59.353  49.288  0.00  0.00    +0.000 A 
ATOM     22  C   UNL     1     -15.153  59.336  51.118  0.00  0.00    +0.000 A 
ATOM     23  C   UNL     1     -14.593  59.972  50.011  0.00  0.00    +0.000 A 
ATOM     24  H   UNL     1     -11.545  54.537  50.237  0.00  0.00    +0.000 HD
ATOM     25  H   UNL     1     -11.631  58.011  48.238  0.00  0.00    +0.000 HD
ENDBRANCH   1  17
BRANCH   3  26
ATOM     26  O   UNL     1     -12.458  54.861  46.705  0.00  0.00    +0.000 OA
ATOM     27  H   UNL     1     -13.119  55.102  47.325  0.00  0.00    +0.000 HD
ENDBRANCH   3  26
BRANCH   5  28
ATOM     28  N   UNL     1      -6.905  55.090  47.754  0.00  0.00    +0.000 N 
ATOM     29  H   UNL     1      -6.372  55.896  47.570  0.00  0.00    +0.000 HD
BRANCH  28  30
ATOM     30  C   UNL     1      -6.323  53.845  48.271  0.00  0.00    +0.000 C 
BRANCH  30  31
ATOM     31  C   UNL     1      -6.478  53.780  49.760  0.00  0.00    +0.000 C 
ATOM     32  C   UNL     1      -5.605  54.566  50.701  0.00  0.00    +0.000 C 
ATOM     33  C   UNL     1      -5.415  53.080  50.572  0.00  0.00    +0.000 C 
ENDBRANCH  30  31
ENDBRANCH  28  30
ENDBRANCH   5  28
TORSDOF 5
ENDMDL
MODEL 9
REMARK VINA RESULT:      -7.5      3.294      7.614
REMARK  Name = 
REMARK  5 active torsions:
REMARK  status: ('A' for Active; 'I' for Inactive)
REMARK    1  A    between atoms: C_6  and  C_10
REMARK    2  A    between atoms: C_14  and  O_18
REMARK    3  A    between atoms: N_17  and  N_20
REMARK    4  A    between atoms: N_20  and  C_23
REMARK    5  A    between atoms: C_23  and  C_26
REMARK                            x       y       z     vdW  Elec       q    Type
REMARK                         _______ _______ _______ _____ _____    ______ ____
ROOT
ATOM      1  C   UNL     1     -10.373  54.848  50.431  0.00  0.00    +0.000 A 
ATOM      2  C   UNL     1      -9.894  54.938  49.021  0.00  0.00    +0.000 A 
ATOM      3  C   UNL     1     -11.581  55.328  50.769  0.00  0.00    +0.000 A 
ATOM      4  O   UNL     1      -8.756  54.521  48.780  0.00  0.00    +0.000 OA
ATOM      5  N   UNL     1     -10.762  55.459  48.058  0.00  0.00    +0.000 N 
ATOM      6  C   UNL     1     -12.469  55.907  49.750  0.00  0.00    +0.000 A 
ATOM      7  C   UNL     1     -12.051  55.967  48.408  0.00  0.00    +0.000 A 
ATOM      8  C   UNL     1     -13.743  56.390  50.099  0.00  0.00    +0.000 A 
ATOM      9  C   UNL     1     -12.913  56.521  47.448  0.00  0.00    +0.000 A 
ATOM     10  C   UNL     1     -14.595  56.924  49.135  0.00  0.00    +0.000 A 
ATOM     11  C   UNL     1     -14.178  56.993  47.810  0.00  0.00    +0.000 A 
ENDROOT
BRANCH   1  17
ATOM     12  S   UNL     1      -9.064  52.175  52.996  0.00  0.00    +0.000 S 
ATOM     13  O   UNL     1      -8.430  51.042  52.347  0.00  0.00    +0.000 OA
ATOM     14  O   UNL     1      -9.940  51.973  54.133  0.00  0.00    +0.000 OA
ATOM     15  N   UNL     1      -9.892  52.988  51.864  0.00  0.00    +0.000 N 
ATOM     16  C   UNL     1      -7.756  53.193  53.569  0.00  0.00    +0.000 A 
ATOM     17  C   UNL     1      -9.490  54.155  51.452  0.00  0.00    +0.000 C 
ATOM     18  C   UNL     1      -7.556  54.410  52.937  0.00  0.00    +0.000 A 
ATOM     19  C   UNL     1      -6.961  52.776  54.641  0.00  0.00    +0.000 A 
ATOM     20  N   UNL     1      -8.346  54.808  51.862  0.00  0.00    +0.000 N 
ATOM     21  C   UNL     1      -6.477  55.200  53.350  0.00  0.00    +0.000 A 
ATOM     22  C   UNL     1      -5.914  53.590  55.066  0.00  0.00    +0.000 A 
ATOM     23  C   UNL     1      -5.666  54.796  54.414  0.00  0.00    +0.000 A 
ATOM     24  H   UNL     1     -10.709  52.593  51.482  0.00  0.00    +0.000 HD
ATOM     25  H   UNL     1      -8.069  55.608  51.360  0.00  0.00    +0.000 HD
ENDBRANCH   1  17
BRANCH   3  26
ATOM     26  O   UNL     1     -12.101  55.297  52.051  0.00  0.00    +0.000 OA
ATOM     27  H   UNL     1     -11.527  55.339  52.791  0.00  0.00    +0.000 HD
ENDBRANCH   3  26
BRANCH   5  28
ATOM     28  N   UNL     1     -10.332  55.586  46.688  0.00  0.00    +0.000 N 
ATOM     29  H   UNL     1     -10.189  56.454  46.247  0.00  0.00    +0.000 HD
BRANCH  28  30
ATOM     30  C   UNL     1     -10.126  54.299  46.011  0.00  0.00    +0.000 C 
BRANCH  30  31
ATOM     31  C   UNL     1     -11.430  53.771  45.495  0.00  0.00    +0.000 C 
ATOM     32  C   UNL     1     -12.150  52.619  46.143  0.00  0.00    +0.000 C 
ATOM     33  C   UNL     1     -11.451  52.417  44.827  0.00  0.00    +0.000 C 
ENDBRANCH  30  31
ENDBRANCH  28  30
ENDBRANCH   5  28
TORSDOF 5
ENDMDL
