MODEL 1
REMARK VINA RESULT:      -9.4      0.000      0.000
REMARK  Name = 
REMARK  5 active torsions:
REMARK  status: ('A' for Active; 'I' for Inactive)
REMARK    1  A    between atoms: C_7  and  C_8
REMARK    2  A    between atoms: C_8  and  N_9
REMARK    3  A    between atoms: N_9  and  N_10
REMARK    4  A    between atoms: C_14  and  C_17
REMARK    5  A    between atoms: C_18  and  O_23
REMARK                            x       y       z     vdW  Elec       q    Type
REMARK                         _______ _______ _______ _____ _____    ______ ____
ROOT
ATOM      1  N   UNL     1     -10.024  54.467  49.476  0.00  0.00    +0.000 N 
ATOM      2  C   UNL     1     -10.947  55.313  50.085  0.00  0.00    +0.000 A 
ATOM      3  C   UNL     1     -10.125  53.053  49.584  0.00  0.00    +0.000 A 
ATOM      4  O   UNL     1     -10.860  56.540  50.000  0.00  0.00    +0.000 OA
ATOM      5  C   UNL     1     -12.097  54.676  50.806  0.00  0.00    +0.000 A 
ATOM      6  C   UNL     1     -11.062  52.500  50.476  0.00  0.00    +0.000 A 
ATOM      7  C   UNL     1      -9.367  52.202  48.768  0.00  0.00    +0.000 A 
ATOM      8  C   UNL     1     -12.027  53.378  51.157  0.00  0.00    +0.000 A 
ATOM      9  C   UNL     1     -11.209  51.104  50.545  0.00  0.00    +0.000 A 
ATOM     10  C   UNL     1      -9.574  50.823  48.800  0.00  0.00    +0.000 A 
ATOM     11  C   UNL     1     -10.490  50.272  49.690  0.00  0.00    +0.000 A 
ENDROOT
BRANCH   5  12
ATOM     12  C   UNL     1     -13.298  55.509  51.160  0.00  0.00    +0.000 C 
ATOM     13  N   UNL     1     -13.258  56.333  52.184  0.00  0.00    +0.000 N 
ATOM     14  N   UNL     1     -14.407  55.451  50.323  0.00  0.00    +0.000 N 
ATOM     15  S   UNL     1     -14.544  57.353  52.341  0.00  0.00    +0.000 S 
ATOM     16  C   UNL     1     -14.594  56.737  49.750  0.00  0.00    +0.000 A 
ATOM     17  O   UNL     1     -14.124  58.533  53.063  0.00  0.00    +0.000 OA
ATOM     18  O   UNL     1     -15.710  56.574  52.725  0.00  0.00    +0.000 OA
ATOM     19  C   UNL     1     -14.789  57.813  50.628  0.00  0.00    +0.000 A 
ATOM     20  C   UNL     1     -14.125  56.980  48.464  0.00  0.00    +0.000 A 
ATOM     21  C   UNL     1     -14.666  59.131  50.218  0.00  0.00    +0.000 A 
ATOM     22  C   UNL     1     -13.898  58.295  48.067  0.00  0.00    +0.000 A 
ATOM     23  C   UNL     1     -14.202  59.364  48.924  0.00  0.00    +0.000 A 
ATOM     24  H   UNL     1     -12.507  56.340  52.820  0.00  0.00    +0.000 HD
ATOM     25  H   UNL     1     -14.966  54.657  50.157  0.00  0.00    +0.000 HD
ENDBRANCH   5  12
BRANCH   1  26
ATOM     26  N   UNL     1      -9.209  55.013  48.432  0.00  0.00    +0.000 N 
ATOM     27  H   UNL     1      -8.225  55.033  48.480  0.00  0.00    +0.000 HD
BRANCH  26  28
ATOM     28  C   UNL     1      -9.958  55.541  47.283  0.00  0.00    +0.000 C 
BRANCH  28  35
ATOM     29 BR   UNL     1      -9.930  51.318  42.729  0.00  0.00    +0.000 Br
ATOM     30  C   UNL     1      -9.950  52.596  44.123  0.00  0.00    +0.000 A 
ATOM     31  C   UNL     1     -11.165  53.027  44.655  0.00  0.00    +0.000 A 
ATOM     32  C   UNL     1      -8.748  53.105  44.611  0.00  0.00    +0.000 A 
ATOM     33  C   UNL     1     -11.177  53.982  45.676  0.00  0.00    +0.000 A 
ATOM     34  C   UNL     1      -8.761  54.060  45.627  0.00  0.00    +0.000 A 
ATOM     35  C   UNL     1      -9.973  54.513  46.169  0.00  0.00    +0.000 A 
ENDBRANCH  28  35
ENDBRANCH  26  28
ENDBRANCH   1  26
BRANCH   8  36
ATOM     36  O   UNL     1     -12.909  52.733  52.004  0.00  0.00    +0.000 OA
ATOM     37  H   UNL     1     -13.707  53.154  52.259  0.00  0.00    +0.000 HD
ENDBRANCH   8  36
TORSDOF 5
ENDMDL
MODEL 2
REMARK VINA RESULT:      -9.0      2.465      5.594
REMARK  Name = 
REMARK  5 active torsions:
REMARK  status: ('A' for Active; 'I' for Inactive)
REMARK    1  A    between atoms: C_7  and  C_8
REMARK    2  A    between atoms: C_8  and  N_9
REMARK    3  A    between atoms: N_9  and  N_10
REMARK    4  A    between atoms: C_14  and  C_17
REMARK    5  A    between atoms: C_18  and  O_23
REMARK                            x       y       z     vdW  Elec       q    Type
REMARK                         _______ _______ _______ _____ _____    ______ ____
ROOT
ATOM      1  N   UNL     1     -13.032  55.802  48.833  0.00  0.00    +0.000 N 
ATOM      2  C   UNL     1     -12.501  54.862  49.714  0.00  0.00    +0.000 A 
ATOM      3  C   UNL     1     -13.533  57.050  49.291  0.00  0.00    +0.000 A 
ATOM      4  O   UNL     1     -12.070  53.775  49.322  0.00  0.00    +0.000 OA
ATOM      5  C   UNL     1     -12.412  55.245  51.161  0.00  0.00    +0.000 A 
ATOM      6  C   UNL     1     -13.671  57.268  50.675  0.00  0.00    +0.000 A 
ATOM      7  C   UNL     1     -13.822  58.093  48.400  0.00  0.00    +0.000 A 
ATOM      8  C   UNL     1     -13.146  56.274  51.624  0.00  0.00    +0.000 A 
ATOM      9  C   UNL     1     -14.109  58.520  51.137  0.00  0.00    +0.000 A 
ATOM     10  C   UNL     1     -14.190  59.351  48.879  0.00  0.00    +0.000 A 
ATOM     11  C   UNL     1     -14.340  59.565  50.245  0.00  0.00    +0.000 A 
ENDROOT
BRANCH   5  12
ATOM     12  C   UNL     1     -11.533  54.444  52.082  0.00  0.00    +0.000 C 
ATOM     13  N   UNL     1     -11.572  53.130  52.066  0.00  0.00    +0.000 N 
ATOM     14  N   UNL     1     -10.620  55.129  52.876  0.00  0.00    +0.000 N 
ATOM     15  S   UNL     1     -10.412  52.362  52.950  0.00  0.00    +0.000 S 
ATOM     16  C   UNL     1      -9.312  54.741  52.478  0.00  0.00    +0.000 A 
ATOM     17  O   UNL     1     -10.188  51.047  52.392  0.00  0.00    +0.000 OA
ATOM     18  O   UNL     1     -10.687  52.576  54.361  0.00  0.00    +0.000 OA
ATOM     19  C   UNL     1      -8.993  53.378  52.554  0.00  0.00    +0.000 A 
ATOM     20  C   UNL     1      -8.592  55.566  51.622  0.00  0.00    +0.000 A 
ATOM     21  C   UNL     1      -7.888  52.843  51.910  0.00  0.00    +0.000 A 
ATOM     22  C   UNL     1      -7.541  55.022  50.888  0.00  0.00    +0.000 A 
ATOM     23  C   UNL     1      -7.168  53.680  51.059  0.00  0.00    +0.000 A 
ATOM     24  H   UNL     1     -12.253  52.634  51.556  0.00  0.00    +0.000 HD
ATOM     25  H   UNL     1     -10.841  55.771  53.590  0.00  0.00    +0.000 HD
ENDBRANCH   5  12
BRANCH   1  26
ATOM     26  N   UNL     1     -12.717  55.664  47.443  0.00  0.00    +0.000 N 
ATOM     27  H   UNL     1     -13.389  55.415  46.767  0.00  0.00    +0.000 HD
BRANCH  26  28
ATOM     28  C   UNL     1     -11.310  55.924  47.105  0.00  0.00    +0.000 C 
BRANCH  28  35
ATOM     29 BR   UNL     1      -9.267  51.403  43.369  0.00  0.00    +0.000 Br
ATOM     30  C   UNL     1      -9.877  52.788  44.503  0.00  0.00    +0.000 A 
ATOM     31  C   UNL     1      -8.965  53.513  45.269  0.00  0.00    +0.000 A 
ATOM     32  C   UNL     1     -11.238  53.078  44.569  0.00  0.00    +0.000 A 
ATOM     33  C   UNL     1      -9.420  54.528  46.116  0.00  0.00    +0.000 A 
ATOM     34  C   UNL     1     -11.692  54.087  45.417  0.00  0.00    +0.000 A 
ATOM     35  C   UNL     1     -10.792  54.821  46.202  0.00  0.00    +0.000 A 
ENDBRANCH  28  35
ENDBRANCH  26  28
ENDBRANCH   1  26
BRANCH   8  36
ATOM     36  O   UNL     1     -13.324  56.588  52.959  0.00  0.00    +0.000 OA
ATOM     37  H   UNL     1     -12.724  57.165  53.389  0.00  0.00    +0.000 HD
ENDBRANCH   8  36
TORSDOF 5
ENDMDL
MODEL 3
REMARK VINA RESULT:      -8.8      4.012      7.498
REMARK  Name = 
REMARK  5 active torsions:
REMARK  status: ('A' for Active; 'I' for Inactive)
REMARK    1  A    between atoms: C_7  and  C_8
REMARK    2  A    between atoms: C_8  and  N_9
REMARK    3  A    between atoms: N_9  and  N_10
REMARK    4  A    between atoms: C_14  and  C_17
REMARK    5  A    between atoms: C_18  and  O_23
REMARK                            x       y       z     vdW  Elec       q    Type
REMARK                         _______ _______ _______ _____ _____    ______ ____
ROOT
ATOM      1  N   UNL     1     -11.032  55.479  47.731  0.00  0.00    +0.000 N 
ATOM      2  C   UNL     1     -10.226  55.874  48.795  0.00  0.00    +0.000 A 
ATOM      3  C   UNL     1     -10.493  54.817  46.595  0.00  0.00    +0.000 A 
ATOM      4  O   UNL     1     -10.688  56.454  49.781  0.00  0.00    +0.000 OA
ATOM      5  C   UNL     1      -8.772  55.514  48.731  0.00  0.00    +0.000 A 
ATOM      6  C   UNL     1      -9.096  54.727  46.453  0.00  0.00    +0.000 A 
ATOM      7  C   UNL     1     -11.320  54.189  45.654  0.00  0.00    +0.000 A 
ATOM      8  C   UNL     1      -8.222  55.169  47.552  0.00  0.00    +0.000 A 
ATOM      9  C   UNL     1      -8.556  54.023  45.363  0.00  0.00    +0.000 A 
ATOM     10  C   UNL     1     -10.768  53.437  44.616  0.00  0.00    +0.000 A 
ATOM     11  C   UNL     1      -9.388  53.357  44.466  0.00  0.00    +0.000 A 
ENDROOT
BRANCH   5  12
ATOM     12  C   UNL     1      -7.940  55.583  49.982  0.00  0.00    +0.000 C 
ATOM     13  N   UNL     1      -8.385  55.070  51.108  0.00  0.00    +0.000 N 
ATOM     14  N   UNL     1      -6.659  56.118  49.890  0.00  0.00    +0.000 N 
ATOM     15  S   UNL     1      -7.302  55.003  52.350  0.00  0.00    +0.000 S 
ATOM     16  C   UNL     1      -5.729  55.090  50.202  0.00  0.00    +0.000 A 
ATOM     17  O   UNL     1      -7.682  53.936  53.249  0.00  0.00    +0.000 OA
ATOM     18  O   UNL     1      -7.041  56.358  52.810  0.00  0.00    +0.000 OA
ATOM     19  C   UNL     1      -5.838  54.483  51.461  0.00  0.00    +0.000 A 
ATOM     20  C   UNL     1      -5.097  54.412  49.167  0.00  0.00    +0.000 A 
ATOM     21  C   UNL     1      -5.214  53.281  51.756  0.00  0.00    +0.000 A 
ATOM     22  C   UNL     1      -4.551  53.156  49.419  0.00  0.00    +0.000 A 
ATOM     23  C   UNL     1      -4.576  52.612  50.713  0.00  0.00    +0.000 A 
ATOM     24  H   UNL     1      -9.309  54.744  51.204  0.00  0.00    +0.000 HD
ATOM     25  H   UNL     1      -6.436  57.047  49.650  0.00  0.00    +0.000 HD
ENDBRANCH   5  12
BRANCH   1  26
ATOM     26  N   UNL     1     -12.444  55.396  47.960  0.00  0.00    +0.000 N 
ATOM     27  H   UNL     1     -12.880  54.584  48.307  0.00  0.00    +0.000 HD
BRANCH  26  28
ATOM     28  C   UNL     1     -13.190  56.620  47.634  0.00  0.00    +0.000 C 
BRANCH  28  35
ATOM     29 BR   UNL     1     -15.317  59.139  52.897  0.00  0.00    +0.000 Br
ATOM     30  C   UNL     1     -14.657  58.382  51.295  0.00  0.00    +0.000 A 
ATOM     31  C   UNL     1     -14.116  59.205  50.308  0.00  0.00    +0.000 A 
ATOM     32  C   UNL     1     -14.718  57.002  51.107  0.00  0.00    +0.000 A 
ATOM     33  C   UNL     1     -13.641  58.643  49.119  0.00  0.00    +0.000 A 
ATOM     34  C   UNL     1     -14.248  56.444  49.919  0.00  0.00    +0.000 A 
ATOM     35  C   UNL     1     -13.708  57.255  48.910  0.00  0.00    +0.000 A 
ENDBRANCH  28  35
ENDBRANCH  26  28
ENDBRANCH   1  26
BRANCH   8  36
ATOM     36  O   UNL     1      -6.867  55.029  47.315  0.00  0.00    +0.000 OA
ATOM     37  H   UNL     1      -6.540  54.254  46.903  0.00  0.00    +0.000 HD
ENDBRANCH   8  36
TORSDOF 5
ENDMDL
MODEL 4
REMARK VINA RESULT:      -8.8      3.519      5.206
REMARK  Name = 
REMARK  5 active torsions:
REMARK  status: ('A' for Active; 'I' for Inactive)
REMARK    1  A    between atoms: C_7  and  C_8
REMARK    2  A    between atoms: C_8  and  N_9
REMARK    3  A    between atoms: N_9  and  N_10
REMARK    4  A    between atoms: C_14  and  C_17
REMARK    5  A    between atoms: C_18  and  O_23
REMARK                            x       y       z     vdW  Elec       q    Type
REMARK                         _______ _______ _______ _____ _____    ______ ____
ROOT
ATOM      1  N   UNL     1     -10.545  53.804  50.168  0.00  0.00    +0.000 N 
ATOM      2  C   UNL     1     -11.882  54.125  50.387  0.00  0.00    +0.000 A 
ATOM      3  C   UNL     1      -9.860  54.230  48.997  0.00  0.00    +0.000 A 
ATOM      4  O   UNL     1     -12.482  53.753  51.399  0.00  0.00    +0.000 OA
ATOM      5  C   UNL     1     -12.559  54.997  49.372  0.00  0.00    +0.000 A 
ATOM      6  C   UNL     1     -10.593  54.822  47.952  0.00  0.00    +0.000 A 
ATOM      7  C   UNL     1      -8.465  54.141  48.894  0.00  0.00    +0.000 A 
ATOM      8  C   UNL     1     -12.016  55.140  48.149  0.00  0.00    +0.000 A 
ATOM      9  C   UNL     1      -9.915  55.299  46.817  0.00  0.00    +0.000 A 
ATOM     10  C   UNL     1      -7.802  54.680  47.791  0.00  0.00    +0.000 A 
ATOM     11  C   UNL     1      -8.524  55.254  46.750  0.00  0.00    +0.000 A 
ENDROOT
BRANCH   5  12
ATOM     12  C   UNL     1     -13.858  55.666  49.726  0.00  0.00    +0.000 C 
ATOM     13  N   UNL     1     -14.365  55.544  50.933  0.00  0.00    +0.000 N 
ATOM     14  N   UNL     1     -14.453  56.488  48.774  0.00  0.00    +0.000 N 
ATOM     15  S   UNL     1     -15.666  56.498  51.271  0.00  0.00    +0.000 S 
ATOM     16  C   UNL     1     -14.472  57.813  49.287  0.00  0.00    +0.000 A 
ATOM     17  O   UNL     1     -15.730  56.718  52.699  0.00  0.00    +0.000 OA
ATOM     18  O   UNL     1     -16.804  56.020  50.502  0.00  0.00    +0.000 OA
ATOM     19  C   UNL     1     -15.142  58.026  50.500  0.00  0.00    +0.000 A 
ATOM     20  C   UNL     1     -13.492  58.711  48.880  0.00  0.00    +0.000 A 
ATOM     21  C   UNL     1     -14.965  59.179  51.248  0.00  0.00    +0.000 A 
ATOM     22  C   UNL     1     -13.228  59.825  49.673  0.00  0.00    +0.000 A 
ATOM     23  C   UNL     1     -13.985  60.077  50.827  0.00  0.00    +0.000 A 
ATOM     24  H   UNL     1     -13.991  54.918  51.595  0.00  0.00    +0.000 HD
ATOM     25  H   UNL     1     -14.800  56.201  47.898  0.00  0.00    +0.000 HD
ENDBRANCH   5  12
BRANCH   1  26
ATOM     26  N   UNL     1      -9.768  53.383  51.295  0.00  0.00    +0.000 N 
ATOM     27  H   UNL     1      -9.375  52.483  51.365  0.00  0.00    +0.000 HD
BRANCH  26  28
ATOM     28  C   UNL     1      -9.603  54.403  52.341  0.00  0.00    +0.000 C 
BRANCH  28  35
ATOM     29 BR   UNL     1      -3.593  54.764  53.865  0.00  0.00    +0.000 Br
ATOM     30  C   UNL     1      -5.425  54.669  53.405  0.00  0.00    +0.000 A 
ATOM     31  C   UNL     1      -6.379  55.276  54.221  0.00  0.00    +0.000 A 
ATOM     32  C   UNL     1      -5.814  53.989  52.253  0.00  0.00    +0.000 A 
ATOM     33  C   UNL     1      -7.734  55.192  53.885  0.00  0.00    +0.000 A 
ATOM     34  C   UNL     1      -7.165  53.903  51.921  0.00  0.00    +0.000 A 
ATOM     35  C   UNL     1      -8.141  54.499  52.733  0.00  0.00    +0.000 A 
ENDBRANCH  28  35
ENDBRANCH  26  28
ENDBRANCH   1  26
BRANCH   8  36
ATOM     36  O   UNL     1     -12.640  55.728  47.065  0.00  0.00    +0.000 OA
ATOM     37  H   UNL     1     -13.364  55.299  46.651  0.00  0.00    +0.000 HD
ENDBRANCH   8  36
TORSDOF 5
ENDMDL
MODEL 5
REMARK VINA RESULT:      -8.7      3.716      7.065
REMARK  Name = 
REMARK  5 active torsions:
REMARK  status: ('A' for Active; 'I' for Inactive)
REMARK    1  A    between atoms: C_7  and  C_8
REMARK    2  A    between atoms: C_8  and  N_9
REMARK    3  A    between atoms: N_9  and  N_10
REMARK    4  A    between atoms: C_14  and  C_17
REMARK    5  A    between atoms: C_18  and  O_23
REMARK                            x       y       z     vdW  Elec       q    Type
REMARK                         _______ _______ _______ _____ _____    ______ ____
ROOT
ATOM      1  N   UNL     1     -10.996  55.003  47.591  0.00  0.00    +0.000 N 
ATOM      2  C   UNL     1     -10.109  55.166  48.653  0.00  0.00    +0.000 A 
ATOM      3  C   UNL     1     -10.598  54.376  46.379  0.00  0.00    +0.000 A 
ATOM      4  O   UNL     1     -10.448  55.715  49.704  0.00  0.00    +0.000 OA
ATOM      5  C   UNL     1      -8.732  54.593  48.497  0.00  0.00    +0.000 A 
ATOM      6  C   UNL     1      -9.237  54.085  46.173  0.00  0.00    +0.000 A 
ATOM      7  C   UNL     1     -11.539  53.975  45.421  0.00  0.00    +0.000 A 
ATOM      8  C   UNL     1      -8.276  54.280  47.270  0.00  0.00    +0.000 A 
ATOM      9  C   UNL     1      -8.844  53.412  45.003  0.00  0.00    +0.000 A 
ATOM     10  C   UNL     1     -11.141  53.248  44.299  0.00  0.00    +0.000 A 
ATOM     11  C   UNL     1      -9.794  52.970  44.086  0.00  0.00    +0.000 A 
ENDROOT
BRANCH   5  12
ATOM     12  C   UNL     1      -7.867  54.414  49.714  0.00  0.00    +0.000 C 
ATOM     13  N   UNL     1      -7.574  55.441  50.480  0.00  0.00    +0.000 N 
ATOM     14  N   UNL     1      -7.467  53.125  50.050  0.00  0.00    +0.000 N 
ATOM     15  S   UNL     1      -6.811  55.090  51.899  0.00  0.00    +0.000 S 
ATOM     16  C   UNL     1      -8.041  52.802  51.310  0.00  0.00    +0.000 A 
ATOM     17  O   UNL     1      -7.089  56.138  52.856  0.00  0.00    +0.000 OA
ATOM     18  O   UNL     1      -5.461  54.642  51.601  0.00  0.00    +0.000 OA
ATOM     19  C   UNL     1      -7.727  53.634  52.394  0.00  0.00    +0.000 A 
ATOM     20  C   UNL     1      -9.197  52.033  51.349  0.00  0.00    +0.000 A 
ATOM     21  C   UNL     1      -8.456  53.615  53.573  0.00  0.00    +0.000 A 
ATOM     22  C   UNL     1      -9.999  52.079  52.487  0.00  0.00    +0.000 A 
ATOM     23  C   UNL     1      -9.611  52.834  53.605  0.00  0.00    +0.000 A 
ATOM     24  H   UNL     1      -7.796  56.366  50.223  0.00  0.00    +0.000 HD
ATOM     25  H   UNL     1      -6.888  52.540  49.511  0.00  0.00    +0.000 HD
ENDBRANCH   5  12
BRANCH   1  26
ATOM     26  N   UNL     1     -12.396  55.118  47.870  0.00  0.00    +0.000 N 
ATOM     27  H   UNL     1     -12.929  54.374  48.234  0.00  0.00    +0.000 HD
BRANCH  26  28
ATOM     28  C   UNL     1     -12.975  56.435  47.568  0.00  0.00    +0.000 C 
BRANCH  28  35
ATOM     29 BR   UNL     1     -15.157  58.916  52.826  0.00  0.00    +0.000 Br
ATOM     30  C   UNL     1     -14.482  58.172  51.224  0.00  0.00    +0.000 A 
ATOM     31  C   UNL     1     -14.105  59.008  50.174  0.00  0.00    +0.000 A 
ATOM     32  C   UNL     1     -14.367  56.789  51.100  0.00  0.00    +0.000 A 
ATOM     33  C   UNL     1     -13.618  58.454  48.986  0.00  0.00    +0.000 A 
ATOM     34  C   UNL     1     -13.886  56.237  49.913  0.00  0.00    +0.000 A 
ATOM     35  C   UNL     1     -13.510  57.060  48.842  0.00  0.00    +0.000 A 
ENDBRANCH  28  35
ENDBRANCH  26  28
ENDBRANCH   1  26
BRANCH   8  36
ATOM     36  O   UNL     1      -6.967  53.956  46.966  0.00  0.00    +0.000 OA
ATOM     37  H   UNL     1      -6.389  53.657  47.640  0.00  0.00    +0.000 HD
ENDBRANCH   8  36
TORSDOF 5
ENDMDL
MODEL 6
REMARK VINA RESULT:      -8.6      4.514      7.787
REMARK  Name = 
REMARK  5 active torsions:
REMARK  status: ('A' for Active; 'I' for Inactive)
REMARK    1  A    between atoms: C_7  and  C_8
REMARK    2  A    between atoms: C_8  and  N_9
REMARK    3  A    between atoms: N_9  and  N_10
REMARK    4  A    between atoms: C_14  and  C_17
REMARK    5  A    between atoms: C_18  and  O_23
REMARK                            x       y       z     vdW  Elec       q    Type
REMARK                         _______ _______ _______ _____ _____    ______ ____
ROOT
ATOM      1  N   UNL     1      -9.559  55.117  48.843  0.00  0.00    +0.000 N 
ATOM      2  C   UNL     1      -8.713  55.148  49.950  0.00  0.00    +0.000 A 
ATOM      3  C   UNL     1      -9.075  54.793  47.547  0.00  0.00    +0.000 A 
ATOM      4  O   UNL     1      -9.127  55.434  51.076  0.00  0.00    +0.000 OA
ATOM      5  C   UNL     1      -7.281  54.760  49.736  0.00  0.00    +0.000 A 
ATOM      6  C   UNL     1      -7.687  54.688  47.339  0.00  0.00    +0.000 A 
ATOM      7  C   UNL     1      -9.951  54.503  46.491  0.00  0.00    +0.000 A 
ATOM      8  C   UNL     1      -6.772  54.751  48.489  0.00  0.00    +0.000 A 
ATOM      9  C   UNL     1      -7.204  54.310  46.074  0.00  0.00    +0.000 A 
ATOM     10  C   UNL     1      -9.458  54.064  45.262  0.00  0.00    +0.000 A 
ATOM     11  C   UNL     1      -8.086  53.972  45.051  0.00  0.00    +0.000 A 
ENDROOT
BRANCH   5  12
ATOM     12  C   UNL     1      -6.423  54.425  50.925  0.00  0.00    +0.000 C 
ATOM     13  N   UNL     1      -6.331  55.258  51.937  0.00  0.00    +0.000 N 
ATOM     14  N   UNL     1      -5.810  53.176  50.960  0.00  0.00    +0.000 N 
ATOM     15  S   UNL     1      -5.549  54.690  53.272  0.00  0.00    +0.000 S 
ATOM     16  C   UNL     1      -6.344  52.455  52.062  0.00  0.00    +0.000 A 
ATOM     17  O   UNL     1      -6.027  55.402  54.437  0.00  0.00    +0.000 OA
ATOM     18  O   UNL     1      -4.134  54.561  52.961  0.00  0.00    +0.000 OA
ATOM     19  C   UNL     1      -6.204  53.026  53.335  0.00  0.00    +0.000 A 
ATOM     20  C   UNL     1      -7.349  51.522  51.837  0.00  0.00    +0.000 A 
ATOM     21  C   UNL     1      -6.943  52.590  54.423  0.00  0.00    +0.000 A 
ATOM     22  C   UNL     1      -8.169  51.146  52.898  0.00  0.00    +0.000 A 
ATOM     23  C   UNL     1      -7.944  51.648  54.189  0.00  0.00    +0.000 A 
ATOM     24  H   UNL     1      -6.707  56.168  51.900  0.00  0.00    +0.000 HD
ATOM     25  H   UNL     1      -5.126  52.850  50.331  0.00  0.00    +0.000 HD
ENDBRANCH   5  12
BRANCH   1  26
ATOM     26  N   UNL     1     -10.968  55.031  49.085  0.00  0.00    +0.000 N 
ATOM     27  H   UNL     1     -11.390  54.247  49.507  0.00  0.00    +0.000 HD
BRANCH  26  28
ATOM     28  C   UNL     1     -11.736  56.207  48.651  0.00  0.00    +0.000 C 
BRANCH  28  35
ATOM     29 BR   UNL     1     -15.212  58.368  53.321  0.00  0.00    +0.000 Br
ATOM     30  C   UNL     1     -14.157  57.696  51.903  0.00  0.00    +0.000 A 
ATOM     31  C   UNL     1     -13.383  56.552  52.094  0.00  0.00    +0.000 A 
ATOM     32  C   UNL     1     -14.158  58.349  50.672  0.00  0.00    +0.000 A 
ATOM     33  C   UNL     1     -12.594  56.065  51.047  0.00  0.00    +0.000 A 
ATOM     34  C   UNL     1     -13.367  57.865  49.630  0.00  0.00    +0.000 A 
ATOM     35  C   UNL     1     -12.574  56.721  49.805  0.00  0.00    +0.000 A 
ENDBRANCH  28  35
ENDBRANCH  26  28
ENDBRANCH   1  26
BRANCH   8  36
ATOM     36  O   UNL     1      -5.431  54.629  48.178  0.00  0.00    +0.000 OA
ATOM     37  H   UNL     1      -5.153  54.005  47.536  0.00  0.00    +0.000 HD
ENDBRANCH   8  36
TORSDOF 5
ENDMDL
MODEL 7
REMARK VINA RESULT:      -8.5      4.518      7.656
REMARK  Name = 
REMARK  5 active torsions:
REMARK  status: ('A' for Active; 'I' for Inactive)
REMARK    1  A    between atoms: C_7  and  C_8
REMARK    2  A    between atoms: C_8  and  N_9
REMARK    3  A    between atoms: N_9  and  N_10
REMARK    4  A    between atoms: C_14  and  C_17
REMARK    5  A    between atoms: C_18  and  O_23
REMARK                            x       y       z     vdW  Elec       q    Type
REMARK                         _______ _______ _______ _____ _____    ______ ____
ROOT
ATOM      1  N   UNL     1     -11.718  55.319  49.810  0.00  0.00    +0.000 N 
ATOM      2  C   UNL     1     -11.254  54.949  51.070  0.00  0.00    +0.000 A 
ATOM      3  C   UNL     1     -10.855  55.360  48.682  0.00  0.00    +0.000 A 
ATOM      4  O   UNL     1     -11.998  54.918  52.053  0.00  0.00    +0.000 OA
ATOM      5  C   UNL     1      -9.820  54.527  51.181  0.00  0.00    +0.000 A 
ATOM      6  C   UNL     1      -9.469  55.208  48.874  0.00  0.00    +0.000 A 
ATOM      7  C   UNL     1     -11.360  55.472  47.379  0.00  0.00    +0.000 A 
ATOM      8  C   UNL     1      -8.953  54.850  50.203  0.00  0.00    +0.000 A 
ATOM      9  C   UNL     1      -8.615  55.188  47.757  0.00  0.00    +0.000 A 
ATOM     10  C   UNL     1     -10.506  55.382  46.279  0.00  0.00    +0.000 A 
ATOM     11  C   UNL     1      -9.135  55.245  46.466  0.00  0.00    +0.000 A 
ENDROOT
BRANCH   5  12
ATOM     12  C   UNL     1      -9.364  53.782  52.406  0.00  0.00    +0.000 C 
ATOM     13  N   UNL     1      -8.912  52.552  52.308  0.00  0.00    +0.000 N 
ATOM     14  N   UNL     1      -9.350  54.462  53.619  0.00  0.00    +0.000 N 
ATOM     15  S   UNL     1      -8.235  51.919  53.671  0.00  0.00    +0.000 S 
ATOM     16  C   UNL     1      -8.001  54.544  54.061  0.00  0.00    +0.000 A 
ATOM     17  O   UNL     1      -7.289  50.892  53.295  0.00  0.00    +0.000 OA
ATOM     18  O   UNL     1      -9.288  51.693  54.649  0.00  0.00    +0.000 OA
ATOM     19  C   UNL     1      -7.310  53.339  54.248  0.00  0.00    +0.000 A 
ATOM     20  C   UNL     1      -7.288  55.716  53.842  0.00  0.00    +0.000 A 
ATOM     21  C   UNL     1      -5.929  53.292  54.364  0.00  0.00    +0.000 A 
ATOM     22  C   UNL     1      -5.896  55.670  53.854  0.00  0.00    +0.000 A 
ATOM     23  C   UNL     1      -5.223  54.475  54.151  0.00  0.00    +0.000 A 
ATOM     24  H   UNL     1      -8.974  52.037  51.470  0.00  0.00    +0.000 HD
ATOM     25  H   UNL     1     -10.136  54.823  54.090  0.00  0.00    +0.000 HD
ENDBRANCH   5  12
BRANCH   1  26
ATOM     26  N   UNL     1     -13.132  55.281  49.583  0.00  0.00    +0.000 N 
ATOM     27  H   UNL     1     -13.663  54.456  49.667  0.00  0.00    +0.000 HD
BRANCH  26  28
ATOM     28  C   UNL     1     -13.728  56.574  49.215  0.00  0.00    +0.000 C 
BRANCH  28  35
ATOM     29 BR   UNL     1     -15.876  59.479  54.266  0.00  0.00    +0.000 Br
ATOM     30  C   UNL     1     -15.235  58.586  52.727  0.00  0.00    +0.000 A 
ATOM     31  C   UNL     1     -15.402  57.207  52.603  0.00  0.00    +0.000 A 
ATOM     32  C   UNL     1     -14.595  59.311  51.724  0.00  0.00    +0.000 A 
ATOM     33  C   UNL     1     -14.915  56.547  51.470  0.00  0.00    +0.000 A 
ATOM     34  C   UNL     1     -14.106  58.651  50.597  0.00  0.00    +0.000 A 
ATOM     35  C   UNL     1     -14.256  57.264  50.458  0.00  0.00    +0.000 A 
ENDBRANCH  28  35
ENDBRANCH  26  28
ENDBRANCH   1  26
BRANCH   8  36
ATOM     36  O   UNL     1      -7.579  54.716  50.282  0.00  0.00    +0.000 OA
ATOM     37  H   UNL     1      -7.203  53.933  50.635  0.00  0.00    +0.000 HD
ENDBRANCH   8  36
TORSDOF 5
ENDMDL
MODEL 8
REMARK VINA RESULT:      -8.4      3.152      4.025
REMARK  Name = 
REMARK  5 active torsions:
REMARK  status: ('A' for Active; 'I' for Inactive)
REMARK    1  A    between atoms: C_7  and  C_8
REMARK    2  A    between atoms: C_8  and  N_9
REMARK    3  A    between atoms: N_9  and  N_10
REMARK    4  A    between atoms: C_14  and  C_17
REMARK    5  A    between atoms: C_18  and  O_23
REMARK                            x       y       z     vdW  Elec       q    Type
REMARK                         _______ _______ _______ _____ _____    ______ ____
ROOT
ATOM      1  N   UNL     1      -6.671  55.281  49.684  0.00  0.00    +0.000 N 
ATOM      2  C   UNL     1      -8.037  55.543  49.609  0.00  0.00    +0.000 A 
ATOM      3  C   UNL     1      -6.079  54.751  50.863  0.00  0.00    +0.000 A 
ATOM      4  O   UNL     1      -8.555  56.008  48.591  0.00  0.00    +0.000 OA
ATOM      5  C   UNL     1      -8.876  55.179  50.798  0.00  0.00    +0.000 A 
ATOM      6  C   UNL     1      -6.848  54.666  52.038  0.00  0.00    +0.000 A 
ATOM      7  C   UNL     1      -4.772  54.244  50.859  0.00  0.00    +0.000 A 
ATOM      8  C   UNL     1      -8.287  54.969  51.990  0.00  0.00    +0.000 A 
ATOM      9  C   UNL     1      -6.288  54.088  53.190  0.00  0.00    +0.000 A 
ATOM     10  C   UNL     1      -4.255  53.613  51.991  0.00  0.00    +0.000 A 
ATOM     11  C   UNL     1      -5.008  53.539  53.158  0.00  0.00    +0.000 A 
ENDROOT
BRANCH   5  12
ATOM     12  C   UNL     1     -10.370  55.095  50.646  0.00  0.00    +0.000 C 
ATOM     13  N   UNL     1     -11.137  56.089  51.036  0.00  0.00    +0.000 N 
ATOM     14  N   UNL     1     -10.902  53.982  50.003  0.00  0.00    +0.000 N 
ATOM     15  S   UNL     1     -12.728  55.981  50.618  0.00  0.00    +0.000 S 
ATOM     16  C   UNL     1     -11.539  54.426  48.812  0.00  0.00    +0.000 A 
ATOM     17  O   UNL     1     -13.289  57.312  50.553  0.00  0.00    +0.000 OA
ATOM     18  O   UNL     1     -13.339  54.912  51.391  0.00  0.00    +0.000 OA
ATOM     19  C   UNL     1     -12.571  55.366  48.945  0.00  0.00    +0.000 A 
ATOM     20  C   UNL     1     -10.865  54.316  47.603  0.00  0.00    +0.000 A 
ATOM     21  C   UNL     1     -13.043  56.099  47.867  0.00  0.00    +0.000 A 
ATOM     22  C   UNL     1     -11.259  55.119  46.535  0.00  0.00    +0.000 A 
ATOM     23  C   UNL     1     -12.364  55.976  46.656  0.00  0.00    +0.000 A 
ATOM     24  H   UNL     1     -10.783  56.853  51.547  0.00  0.00    +0.000 HD
ATOM     25  H   UNL     1     -10.848  53.051  50.317  0.00  0.00    +0.000 HD
ENDBRANCH   5  12
BRANCH   1  26
ATOM     26  N   UNL     1      -5.943  55.185  48.455  0.00  0.00    +0.000 N 
ATOM     27  H   UNL     1      -5.594  55.973  47.979  0.00  0.00    +0.000 HD
BRANCH  26  28
ATOM     28  C   UNL     1      -5.759  53.813  47.958  0.00  0.00    +0.000 C 
BRANCH  28  35
ATOM     29 BR   UNL     1      -9.998  52.654  43.570  0.00  0.00    +0.000 Br
ATOM     30  C   UNL     1      -8.701  52.993  44.904  0.00  0.00    +0.000 A 
ATOM     31  C   UNL     1      -8.364  51.994  45.816  0.00  0.00    +0.000 A 
ATOM     32  C   UNL     1      -8.090  54.243  44.971  0.00  0.00    +0.000 A 
ATOM     33  C   UNL     1      -7.414  52.252  46.810  0.00  0.00    +0.000 A 
ATOM     34  C   UNL     1      -7.146  54.501  45.965  0.00  0.00    +0.000 A 
ATOM     35  C   UNL     1      -6.799  53.512  46.897  0.00  0.00    +0.000 A 
ENDBRANCH  28  35
ENDBRANCH  26  28
ENDBRANCH   1  26
BRANCH   8  36
ATOM     36  O   UNL     1      -8.952  54.845  53.196  0.00  0.00    +0.000 OA
ATOM     37  H   UNL     1      -9.880  54.970  53.234  0.00  0.00    +0.000 HD
ENDBRANCH   8  36
TORSDOF 5
ENDMDL
MODEL 9
REMARK VINA RESULT:      -8.2      2.724      3.683
REMARK  Name = 
REMARK  5 active torsions:
REMARK  status: ('A' for Active; 'I' for Inactive)
REMARK    1  A    between atoms: C_7  and  C_8
REMARK    2  A    between atoms: C_8  and  N_9
REMARK    3  A    between atoms: N_9  and  N_10
REMARK    4  A    between atoms: C_14  and  C_17
REMARK    5  A    between atoms: C_18  and  O_23
REMARK                            x       y       z     vdW  Elec       q    Type
REMARK                         _______ _______ _______ _____ _____    ______ ____
ROOT
ATOM      1  N   UNL     1     -10.292  54.542  48.990  0.00  0.00    +0.000 N 
ATOM      2  C   UNL     1     -11.140  55.382  49.709  0.00  0.00    +0.000 A 
ATOM      3  C   UNL     1     -10.395  53.128  49.080  0.00  0.00    +0.000 A 
ATOM      4  O   UNL     1     -11.051  56.610  49.639  0.00  0.00    +0.000 OA
ATOM      5  C   UNL     1     -12.214  54.738  50.533  0.00  0.00    +0.000 A 
ATOM      6  C   UNL     1     -11.239  52.563  50.055  0.00  0.00    +0.000 A 
ATOM      7  C   UNL     1      -9.734  52.288  48.173  0.00  0.00    +0.000 A 
ATOM      8  C   UNL     1     -12.119  53.433  50.849  0.00  0.00    +0.000 A 
ATOM      9  C   UNL     1     -11.390  51.166  50.111  0.00  0.00    +0.000 A 
ATOM     10  C   UNL     1      -9.949  50.910  48.200  0.00  0.00    +0.000 A 
ATOM     11  C   UNL     1     -10.772  50.347  49.170  0.00  0.00    +0.000 A 
ENDROOT
BRANCH   5  12
ATOM     12  C   UNL     1     -13.364  55.572  51.027  0.00  0.00    +0.000 C 
ATOM     13  N   UNL     1     -13.240  56.301  52.115  0.00  0.00    +0.000 N 
ATOM     14  N   UNL     1     -14.519  55.621  50.254  0.00  0.00    +0.000 N 
ATOM     15  S   UNL     1     -14.479  57.341  52.433  0.00  0.00    +0.000 S 
ATOM     16  C   UNL     1     -14.692  56.959  49.806  0.00  0.00    +0.000 A 
ATOM     17  O   UNL     1     -13.979  58.439  53.230  0.00  0.00    +0.000 OA
ATOM     18  O   UNL     1     -15.648  56.566  52.815  0.00  0.00    +0.000 OA
ATOM     19  C   UNL     1     -14.801  57.957  50.784  0.00  0.00    +0.000 A 
ATOM     20  C   UNL     1     -14.287  57.300  48.522  0.00  0.00    +0.000 A 
ATOM     21  C   UNL     1     -14.655  59.303  50.484  0.00  0.00    +0.000 A 
ATOM     22  C   UNL     1     -14.036  58.638  48.227  0.00  0.00    +0.000 A 
ATOM     23  C   UNL     1     -14.255  59.635  49.190  0.00  0.00    +0.000 A 
ATOM     24  H   UNL     1     -12.455  56.229  52.705  0.00  0.00    +0.000 HD
ATOM     25  H   UNL     1     -15.113  54.862  50.052  0.00  0.00    +0.000 HD
ENDBRANCH   5  12
BRANCH   1  26
ATOM     26  N   UNL     1      -9.586  55.104  47.878  0.00  0.00    +0.000 N 
ATOM     27  H   UNL     1     -10.043  55.457  47.080  0.00  0.00    +0.000 HD
BRANCH  26  28
ATOM     28  C   UNL     1      -8.123  55.109  48.021  0.00  0.00    +0.000 C 
BRANCH  28  35
ATOM     29 BR   UNL     1      -6.583  55.465  54.027  0.00  0.00    +0.000 Br
ATOM     30  C   UNL     1      -7.045  55.370  52.196  0.00  0.00    +0.000 A 
ATOM     31  C   UNL     1      -7.473  56.516  51.526  0.00  0.00    +0.000 A 
ATOM     32  C   UNL     1      -6.957  54.153  51.523  0.00  0.00    +0.000 A 
ATOM     33  C   UNL     1      -7.826  56.440  50.175  0.00  0.00    +0.000 A 
ATOM     34  C   UNL     1      -7.314  54.077  50.177  0.00  0.00    +0.000 A 
ATOM     35  C   UNL     1      -7.756  55.216  49.489  0.00  0.00    +0.000 A 
ENDBRANCH  28  35
ENDBRANCH  26  28
ENDBRANCH   1  26
BRANCH   8  36
ATOM     36  O   UNL     1     -12.914  52.777  51.771  0.00  0.00    +0.000 OA
ATOM     37  H   UNL     1     -13.845  52.875  51.742  0.00  0.00    +0.000 HD
ENDBRANCH   8  36
TORSDOF 5
ENDMDL
