MODEL 1
REMARK VINA RESULT:      -8.4      0.000      0.000
REMARK  Name = 
REMARK  5 active torsions:
REMARK  status: ('A' for Active; 'I' for Inactive)
REMARK    1  A    between atoms: C_6  and  C_10
REMARK    2  A    between atoms: C_14  and  O_18
REMARK    3  A    between atoms: N_17  and  N_20
REMARK    4  A    between atoms: N_20  and  C_23
REMARK    5  A    between atoms: C_23  and  C_26
REMARK                            x       y       z     vdW  Elec       q    Type
REMARK                         _______ _______ _______ _____ _____    ______ ____
ROOT
ATOM      1  C   UNL     1     -10.104  54.566  52.181  0.00  0.00    +0.000 A 
ATOM      2  C   UNL     1      -8.742  55.142  51.978  0.00  0.00    +0.000 A 
ATOM      3  C   UNL     1     -10.274  53.465  52.933  0.00  0.00    +0.000 A 
ATOM      4  O   UNL     1      -8.656  56.160  51.284  0.00  0.00    +0.000 OA
ATOM      5  N   UNL     1      -7.661  54.520  52.605  0.00  0.00    +0.000 N 
ATOM      6  C   UNL     1      -9.126  52.826  53.591  0.00  0.00    +0.000 A 
ATOM      7  C   UNL     1      -7.835  53.355  53.415  0.00  0.00    +0.000 A 
ATOM      8  C   UNL     1      -9.307  51.701  54.412  0.00  0.00    +0.000 A 
ATOM      9  C   UNL     1      -6.750  52.734  54.054  0.00  0.00    +0.000 A 
ATOM     10  C   UNL     1      -8.227  51.110  55.062  0.00  0.00    +0.000 A 
ATOM     11  C   UNL     1      -6.948  51.623  54.881  0.00  0.00    +0.000 A 
ENDROOT
BRANCH   1  17
ATOM     12  S   UNL     1     -12.569  56.062  49.518  0.00  0.00    +0.000 S 
ATOM     13  O   UNL     1     -13.462  55.053  48.987  0.00  0.00    +0.000 OA
ATOM     14  O   UNL     1     -11.979  57.057  48.646  0.00  0.00    +0.000 OA
ATOM     15  N   UNL     1     -11.365  55.292  50.281  0.00  0.00    +0.000 N 
ATOM     16  C   UNL     1     -13.497  56.950  50.714  0.00  0.00    +0.000 A 
ATOM     17  C   UNL     1     -11.290  55.288  51.580  0.00  0.00    +0.000 C 
ATOM     18  C   UNL     1     -13.183  56.766  52.049  0.00  0.00    +0.000 A 
ATOM     19  C   UNL     1     -14.509  57.824  50.303  0.00  0.00    +0.000 A 
ATOM     20  N   UNL     1     -12.187  55.879  52.443  0.00  0.00    +0.000 N 
ATOM     21  C   UNL     1     -13.956  57.429  53.009  0.00  0.00    +0.000 A 
ATOM     22  C   UNL     1     -15.249  58.502  51.267  0.00  0.00    +0.000 A 
ATOM     23  C   UNL     1     -14.978  58.300  52.621  0.00  0.00    +0.000 A 
ATOM     24  H   UNL     1     -10.680  54.819  49.754  0.00  0.00    +0.000 HD
ATOM     25  H   UNL     1     -12.118  55.659  53.401  0.00  0.00    +0.000 HD
ENDBRANCH   1  17
BRANCH   3  26
ATOM     26  O   UNL     1     -11.500  52.876  53.185  0.00  0.00    +0.000 OA
ATOM     27  H   UNL     1     -11.549  51.961  53.380  0.00  0.00    +0.000 HD
ENDBRANCH   3  26
BRANCH   5  28
ATOM     28  N   UNL     1      -6.318  54.989  52.391  0.00  0.00    +0.000 N 
ATOM     29  H   UNL     1      -5.808  55.461  53.088  0.00  0.00    +0.000 HD
BRANCH  28  30
ATOM     30  C   UNL     1      -5.761  54.716  51.059  0.00  0.00    +0.000 C 
BRANCH  30  31
ATOM     31  C   UNL     1      -4.973  53.440  51.071  0.00  0.00    +0.000 A 
ATOM     32  S   UNL     1      -5.561  52.062  50.231  0.00  0.00    +0.000 S 
ATOM     33  C   UNL     1      -3.752  53.188  51.662  0.00  0.00    +0.000 A 
ATOM     34  C   UNL     1      -4.187  51.139  50.658  0.00  0.00    +0.000 A 
ATOM     35  C   UNL     1      -3.301  51.858  51.424  0.00  0.00    +0.000 A 
ENDBRANCH  30  31
ENDBRANCH  28  30
ENDBRANCH   5  28
TORSDOF 5
ENDMDL
MODEL 2
REMARK VINA RESULT:      -8.3      3.258      4.889
REMARK  Name = 
REMARK  5 active torsions:
REMARK  status: ('A' for Active; 'I' for Inactive)
REMARK    1  A    between atoms: C_6  and  C_10
REMARK    2  A    between atoms: C_14  and  O_18
REMARK    3  A    between atoms: N_17  and  N_20
REMARK    4  A    between atoms: N_20  and  C_23
REMARK    5  A    between atoms: C_23  and  C_26
REMARK                            x       y       z     vdW  Elec       q    Type
REMARK                         _______ _______ _______ _____ _____    ______ ____
ROOT
ATOM      1  C   UNL     1     -11.460  55.941  48.885  0.00  0.00    +0.000 A 
ATOM      2  C   UNL     1     -10.462  55.294  49.787  0.00  0.00    +0.000 A 
ATOM      3  C   UNL     1     -11.519  55.612  47.583  0.00  0.00    +0.000 A 
ATOM      4  O   UNL     1     -10.468  55.635  50.974  0.00  0.00    +0.000 OA
ATOM      5  N   UNL     1      -9.611  54.329  49.245  0.00  0.00    +0.000 N 
ATOM      6  C   UNL     1     -10.619  54.590  47.031  0.00  0.00    +0.000 A 
ATOM      7  C   UNL     1      -9.674  53.966  47.865  0.00  0.00    +0.000 A 
ATOM      8  C   UNL     1     -10.707  54.213  45.680  0.00  0.00    +0.000 A 
ATOM      9  C   UNL     1      -8.825  52.988  47.321  0.00  0.00    +0.000 A 
ATOM     10  C   UNL     1      -9.878  53.224  45.159  0.00  0.00    +0.000 A 
ATOM     11  C   UNL     1      -8.935  52.613  45.978  0.00  0.00    +0.000 A 
ENDROOT
BRANCH   1  17
ATOM     12  S   UNL     1     -13.546  59.218  49.453  0.00  0.00    +0.000 S 
ATOM     13  O   UNL     1     -14.674  59.299  48.548  0.00  0.00    +0.000 OA
ATOM     14  O   UNL     1     -12.750  60.392  49.747  0.00  0.00    +0.000 OA
ATOM     15  N   UNL     1     -12.550  58.072  48.886  0.00  0.00    +0.000 N 
ATOM     16  C   UNL     1     -14.194  58.671  50.989  0.00  0.00    +0.000 A 
ATOM     17  C   UNL     1     -12.446  56.921  49.484  0.00  0.00    +0.000 C 
ATOM     18  C   UNL     1     -13.902  57.381  51.396  0.00  0.00    +0.000 A 
ATOM     19  C   UNL     1     -14.969  59.536  51.768  0.00  0.00    +0.000 A 
ATOM     20  N   UNL     1     -13.146  56.524  50.602  0.00  0.00    +0.000 N 
ATOM     21  C   UNL     1     -14.461  56.921  52.594  0.00  0.00    +0.000 A 
ATOM     22  C   UNL     1     -15.493  59.076  52.972  0.00  0.00    +0.000 A 
ATOM     23  C   UNL     1     -15.245  57.766  53.382  0.00  0.00    +0.000 A 
ATOM     24  H   UNL     1     -12.017  58.248  48.077  0.00  0.00    +0.000 HD
ATOM     25  H   UNL     1     -13.109  55.573  50.855  0.00  0.00    +0.000 HD
ENDBRANCH   1  17
BRANCH   3  26
ATOM     26  O   UNL     1     -12.420  56.151  46.683  0.00  0.00    +0.000 OA
ATOM     27  H   UNL     1     -12.556  57.077  46.653  0.00  0.00    +0.000 HD
ENDBRANCH   3  26
BRANCH   5  28
ATOM     28  N   UNL     1      -8.585  53.721  50.049  0.00  0.00    +0.000 N 
ATOM     29  H   UNL     1      -8.685  52.823  50.439  0.00  0.00    +0.000 HD
BRANCH  28  30
ATOM     30  C   UNL     1      -7.377  54.533  50.247  0.00  0.00    +0.000 C 
BRANCH  30  31
ATOM     31  C   UNL     1      -7.190  54.853  51.700  0.00  0.00    +0.000 A 
ATOM     32  S   UNL     1      -6.720  53.616  52.796  0.00  0.00    +0.000 S 
ATOM     33  C   UNL     1      -7.313  56.071  52.336  0.00  0.00    +0.000 A 
ATOM     34  C   UNL     1      -6.682  54.709  54.110  0.00  0.00    +0.000 A 
ATOM     35  C   UNL     1      -7.021  55.985  53.728  0.00  0.00    +0.000 A 
ENDBRANCH  30  31
ENDBRANCH  28  30
ENDBRANCH   5  28
TORSDOF 5
ENDMDL
MODEL 3
REMARK VINA RESULT:      -8.3      2.171      2.469
REMARK  Name = 
REMARK  5 active torsions:
REMARK  status: ('A' for Active; 'I' for Inactive)
REMARK    1  A    between atoms: C_6  and  C_10
REMARK    2  A    between atoms: C_14  and  O_18
REMARK    3  A    between atoms: N_17  and  N_20
REMARK    4  A    between atoms: N_20  and  C_23
REMARK    5  A    between atoms: C_23  and  C_26
REMARK                            x       y       z     vdW  Elec       q    Type
REMARK                         _______ _______ _______ _____ _____    ______ ____
ROOT
ATOM      1  C   UNL     1     -11.160  54.627  50.860  0.00  0.00    +0.000 A 
ATOM      2  C   UNL     1      -9.764  55.029  50.519  0.00  0.00    +0.000 A 
ATOM      3  C   UNL     1     -11.425  53.385  51.301  0.00  0.00    +0.000 A 
ATOM      4  O   UNL     1      -9.588  56.188  50.129  0.00  0.00    +0.000 OA
ATOM      5  N   UNL     1      -8.746  54.089  50.690  0.00  0.00    +0.000 N 
ATOM      6  C   UNL     1     -10.341  52.411  51.480  0.00  0.00    +0.000 A 
ATOM      7  C   UNL     1      -9.017  52.770  51.168  0.00  0.00    +0.000 A 
ATOM      8  C   UNL     1     -10.609  51.126  51.981  0.00  0.00    +0.000 A 
ATOM      9  C   UNL     1      -7.993  51.827  51.349  0.00  0.00    +0.000 A 
ATOM     10  C   UNL     1      -9.581  50.208  52.182  0.00  0.00    +0.000 A 
ATOM     11  C   UNL     1      -8.274  50.557  51.863  0.00  0.00    +0.000 A 
ENDROOT
BRANCH   1  17
ATOM     12  S   UNL     1     -13.626  57.282  49.350  0.00  0.00    +0.000 S 
ATOM     13  O   UNL     1     -14.760  56.654  48.704  0.00  0.00    +0.000 OA
ATOM     14  O   UNL     1     -12.978  58.429  48.749  0.00  0.00    +0.000 OA
ATOM     15  N   UNL     1     -12.502  56.137  49.577  0.00  0.00    +0.000 N 
ATOM     16  C   UNL     1     -14.195  57.812  50.923  0.00  0.00    +0.000 A 
ATOM     17  C   UNL     1     -12.255  55.668  50.765  0.00  0.00    +0.000 C 
ATOM     18  C   UNL     1     -13.746  57.130  52.041  0.00  0.00    +0.000 A 
ATOM     19  C   UNL     1     -15.065  58.902  51.020  0.00  0.00    +0.000 A 
ATOM     20  N   UNL     1     -12.895  56.035  51.928  0.00  0.00    +0.000 N 
ATOM     21  C   UNL     1     -14.239  57.513  53.293  0.00  0.00    +0.000 A 
ATOM     22  C   UNL     1     -15.523  59.292  52.274  0.00  0.00    +0.000 A 
ATOM     23  C   UNL     1     -15.116  58.594  53.411  0.00  0.00    +0.000 A 
ATOM     24  H   UNL     1     -11.998  55.791  48.804  0.00  0.00    +0.000 HD
ATOM     25  H   UNL     1     -12.742  55.486  52.731  0.00  0.00    +0.000 HD
ENDBRANCH   1  17
BRANCH   3  26
ATOM     26  O   UNL     1     -12.685  52.936  51.653  0.00  0.00    +0.000 OA
ATOM     27  H   UNL     1     -12.922  52.865  52.556  0.00  0.00    +0.000 HD
ENDBRANCH   3  26
BRANCH   5  28
ATOM     28  N   UNL     1      -7.392  54.397  50.314  0.00  0.00    +0.000 N 
ATOM     29  H   UNL     1      -6.929  53.929  49.583  0.00  0.00    +0.000 HD
BRANCH  28  30
ATOM     30  C   UNL     1      -6.748  55.460  51.099  0.00  0.00    +0.000 C 
BRANCH  30  31
ATOM     31  C   UNL     1      -6.351  54.947  52.452  0.00  0.00    +0.000 A 
ATOM     32  S   UNL     1      -7.252  55.409  53.840  0.00  0.00    +0.000 S 
ATOM     33  C   UNL     1      -5.330  54.078  52.777  0.00  0.00    +0.000 A 
ATOM     34  C   UNL     1      -6.277  54.450  54.866  0.00  0.00    +0.000 A 
ATOM     35  C   UNL     1      -5.288  53.794  54.173  0.00  0.00    +0.000 A 
ENDBRANCH  30  31
ENDBRANCH  28  30
ENDBRANCH   5  28
TORSDOF 5
ENDMDL
MODEL 4
REMARK VINA RESULT:      -8.2      3.129      8.370
REMARK  Name = 
REMARK  5 active torsions:
REMARK  status: ('A' for Active; 'I' for Inactive)
REMARK    1  A    between atoms: C_6  and  C_10
REMARK    2  A    between atoms: C_14  and  O_18
REMARK    3  A    between atoms: N_17  and  N_20
REMARK    4  A    between atoms: N_20  and  C_23
REMARK    5  A    between atoms: C_23  and  C_26
REMARK                            x       y       z     vdW  Elec       q    Type
REMARK                         _______ _______ _______ _____ _____    ______ ____
ROOT
ATOM      1  C   UNL     1      -9.151  54.376  49.881  0.00  0.00    +0.000 A 
ATOM      2  C   UNL     1     -10.199  55.434  49.986  0.00  0.00    +0.000 A 
ATOM      3  C   UNL     1      -9.038  53.636  48.765  0.00  0.00    +0.000 A 
ATOM      4  O   UNL     1     -10.242  56.085  51.035  0.00  0.00    +0.000 OA
ATOM      5  N   UNL     1     -11.038  55.644  48.890  0.00  0.00    +0.000 N 
ATOM      6  C   UNL     1      -9.925  53.874  47.619  0.00  0.00    +0.000 A 
ATOM      7  C   UNL     1     -10.918  54.868  47.697  0.00  0.00    +0.000 A 
ATOM      8  C   UNL     1      -9.782  53.130  46.436  0.00  0.00    +0.000 A 
ATOM      9  C   UNL     1     -11.755  55.084  46.591  0.00  0.00    +0.000 A 
ATOM     10  C   UNL     1     -10.600  53.372  45.336  0.00  0.00    +0.000 A 
ATOM     11  C   UNL     1     -11.589  54.346  45.414  0.00  0.00    +0.000 A 
ENDROOT
BRANCH   1  17
ATOM     12  S   UNL     1      -7.746  54.111  53.537  0.00  0.00    +0.000 S 
ATOM     13  O   UNL     1      -7.982  52.801  54.108  0.00  0.00    +0.000 OA
ATOM     14  O   UNL     1      -7.922  55.307  54.335  0.00  0.00    +0.000 OA
ATOM     15  N   UNL     1      -8.689  54.246  52.225  0.00  0.00    +0.000 N 
ATOM     16  C   UNL     1      -6.071  54.117  53.012  0.00  0.00    +0.000 A 
ATOM     17  C   UNL     1      -8.179  54.206  51.029  0.00  0.00    +0.000 C 
ATOM     18  C   UNL     1      -5.815  54.091  51.652  0.00  0.00    +0.000 A 
ATOM     19  C   UNL     1      -5.043  54.162  53.959  0.00  0.00    +0.000 A 
ATOM     20  N   UNL     1      -6.848  54.027  50.722  0.00  0.00    +0.000 N 
ATOM     21  C   UNL     1      -4.483  54.040  51.229  0.00  0.00    +0.000 A 
ATOM     22  C   UNL     1      -3.722  54.144  53.524  0.00  0.00    +0.000 A 
ATOM     23  C   UNL     1      -3.441  54.075  52.159  0.00  0.00    +0.000 A 
ATOM     24  H   UNL     1      -9.661  54.358  52.336  0.00  0.00    +0.000 HD
ATOM     25  H   UNL     1      -6.613  53.841  49.784  0.00  0.00    +0.000 HD
ENDBRANCH   1  17
BRANCH   3  26
ATOM     26  O   UNL     1      -8.087  52.648  48.579  0.00  0.00    +0.000 OA
ATOM     27  H   UNL     1      -7.255  52.863  48.209  0.00  0.00    +0.000 HD
ENDBRANCH   3  26
BRANCH   5  28
ATOM     28  N   UNL     1     -12.109  56.602  48.958  0.00  0.00    +0.000 N 
ATOM     29  H   UNL     1     -12.024  57.512  48.595  0.00  0.00    +0.000 HD
BRANCH  28  30
ATOM     30  C   UNL     1     -13.338  56.126  49.607  0.00  0.00    +0.000 C 
BRANCH  30  31
ATOM     31  C   UNL     1     -13.682  56.993  50.782  0.00  0.00    +0.000 A 
ATOM     32  S   UNL     1     -14.274  58.585  50.527  0.00  0.00    +0.000 S 
ATOM     33  C   UNL     1     -13.626  56.683  52.126  0.00  0.00    +0.000 A 
ATOM     34  C   UNL     1     -14.452  58.854  52.206  0.00  0.00    +0.000 A 
ATOM     35  C   UNL     1     -14.069  57.760  52.946  0.00  0.00    +0.000 A 
ENDBRANCH  30  31
ENDBRANCH  28  30
ENDBRANCH   5  28
TORSDOF 5
ENDMDL
MODEL 5
REMARK VINA RESULT:      -8.1      4.267      5.227
REMARK  Name = 
REMARK  5 active torsions:
REMARK  status: ('A' for Active; 'I' for Inactive)
REMARK    1  A    between atoms: C_6  and  C_10
REMARK    2  A    between atoms: C_14  and  O_18
REMARK    3  A    between atoms: N_17  and  N_20
REMARK    4  A    between atoms: N_20  and  C_23
REMARK    5  A    between atoms: C_23  and  C_26
REMARK                            x       y       z     vdW  Elec       q    Type
REMARK                         _______ _______ _______ _____ _____    ______ ____
ROOT
ATOM      1  C   UNL     1     -12.285  54.342  50.080  0.00  0.00    +0.000 A 
ATOM      2  C   UNL     1     -11.965  54.036  48.655  0.00  0.00    +0.000 A 
ATOM      3  C   UNL     1     -11.761  53.602  51.072  0.00  0.00    +0.000 A 
ATOM      4  O   UNL     1     -12.472  54.761  47.793  0.00  0.00    +0.000 OA
ATOM      5  N   UNL     1     -11.095  52.977  48.386  0.00  0.00    +0.000 N 
ATOM      6  C   UNL     1     -10.843  52.496  50.772  0.00  0.00    +0.000 A 
ATOM      7  C   UNL     1     -10.526  52.192  49.435  0.00  0.00    +0.000 A 
ATOM      8  C   UNL     1     -10.261  51.747  51.808  0.00  0.00    +0.000 A 
ATOM      9  C   UNL     1      -9.644  51.134  49.167  0.00  0.00    +0.000 A 
ATOM     10  C   UNL     1      -9.366  50.717  51.531  0.00  0.00    +0.000 A 
ATOM     11  C   UNL     1      -9.060  50.407  50.210  0.00  0.00    +0.000 A 
ENDROOT
BRANCH   1  17
ATOM     12  S   UNL     1     -15.333  56.500  51.290  0.00  0.00    +0.000 S 
ATOM     13  O   UNL     1     -15.321  56.688  52.726  0.00  0.00    +0.000 OA
ATOM     14  O   UNL     1     -16.573  56.231  50.592  0.00  0.00    +0.000 OA
ATOM     15  N   UNL     1     -14.299  55.300  50.949  0.00  0.00    +0.000 N 
ATOM     16  C   UNL     1     -14.698  57.984  50.601  0.00  0.00    +0.000 A 
ATOM     17  C   UNL     1     -13.153  55.544  50.383  0.00  0.00    +0.000 C 
ATOM     18  C   UNL     1     -13.435  57.951  50.035  0.00  0.00    +0.000 A 
ATOM     19  C   UNL     1     -15.470  59.150  50.622  0.00  0.00    +0.000 A 
ATOM     20  N   UNL     1     -12.671  56.788  50.039  0.00  0.00    +0.000 N 
ATOM     21  C   UNL     1     -12.902  59.143  49.534  0.00  0.00    +0.000 A 
ATOM     22  C   UNL     1     -14.940  60.321  50.091  0.00  0.00    +0.000 A 
ATOM     23  C   UNL     1     -13.653  60.321  49.553  0.00  0.00    +0.000 A 
ATOM     24  H   UNL     1     -14.541  54.372  51.173  0.00  0.00    +0.000 HD
ATOM     25  H   UNL     1     -11.723  56.859  49.779  0.00  0.00    +0.000 HD
ENDBRANCH   1  17
BRANCH   3  26
ATOM     26  O   UNL     1     -11.993  53.826  52.418  0.00  0.00    +0.000 OA
ATOM     27  H   UNL     1     -12.751  53.462  52.829  0.00  0.00    +0.000 HD
ENDBRANCH   3  26
BRANCH   5  28
ATOM     28  N   UNL     1     -10.804  52.593  47.031  0.00  0.00    +0.000 N 
ATOM     29  H   UNL     1     -11.206  51.799  46.612  0.00  0.00    +0.000 HD
BRANCH  28  30
ATOM     30  C   UNL     1      -9.864  53.468  46.317  0.00  0.00    +0.000 C 
BRANCH  30  31
ATOM     31  C   UNL     1      -9.649  52.977  44.916  0.00  0.00    +0.000 A 
ATOM     32  S   UNL     1     -10.781  51.898  44.204  0.00  0.00    +0.000 S 
ATOM     33  C   UNL     1      -8.637  53.301  44.036  0.00  0.00    +0.000 A 
ATOM     34  C   UNL     1      -9.917  51.869  42.729  0.00  0.00    +0.000 A 
ATOM     35  C   UNL     1      -8.793  52.658  42.775  0.00  0.00    +0.000 A 
ENDBRANCH  30  31
ENDBRANCH  28  30
ENDBRANCH   5  28
TORSDOF 5
ENDMDL
MODEL 6
REMARK VINA RESULT:      -8.1      3.627      7.380
REMARK  Name = 
REMARK  5 active torsions:
REMARK  status: ('A' for Active; 'I' for Inactive)
REMARK    1  A    between atoms: C_6  and  C_10
REMARK    2  A    between atoms: C_14  and  O_18
REMARK    3  A    between atoms: N_17  and  N_20
REMARK    4  A    between atoms: N_20  and  C_23
REMARK    5  A    between atoms: C_23  and  C_26
REMARK                            x       y       z     vdW  Elec       q    Type
REMARK                         _______ _______ _______ _____ _____    ______ ____
ROOT
ATOM      1  C   UNL     1     -10.402  55.168  50.882  0.00  0.00    +0.000 A 
ATOM      2  C   UNL     1     -10.078  55.025  49.431  0.00  0.00    +0.000 A 
ATOM      3  C   UNL     1     -11.565  55.715  51.271  0.00  0.00    +0.000 A 
ATOM      4  O   UNL     1      -8.996  54.504  49.142  0.00  0.00    +0.000 OA
ATOM      5  N   UNL     1     -11.023  55.456  48.498  0.00  0.00    +0.000 N 
ATOM      6  C   UNL     1     -12.551  56.158  50.275  0.00  0.00    +0.000 A 
ATOM      7  C   UNL     1     -12.267  56.029  48.903  0.00  0.00    +0.000 A 
ATOM      8  C   UNL     1     -13.786  56.692  50.679  0.00  0.00    +0.000 A 
ATOM      9  C   UNL     1     -13.222  56.454  47.967  0.00  0.00    +0.000 A 
ATOM     10  C   UNL     1     -14.736  57.085  49.741  0.00  0.00    +0.000 A 
ATOM     11  C   UNL     1     -14.454  56.969  48.384  0.00  0.00    +0.000 A 
ENDROOT
BRANCH   1  17
ATOM     12  S   UNL     1      -7.105  54.666  52.953  0.00  0.00    +0.000 S 
ATOM     13  O   UNL     1      -6.974  55.657  54.001  0.00  0.00    +0.000 OA
ATOM     14  O   UNL     1      -5.956  54.270  52.165  0.00  0.00    +0.000 OA
ATOM     15  N   UNL     1      -8.252  55.187  51.933  0.00  0.00    +0.000 N 
ATOM     16  C   UNL     1      -7.687  53.206  53.734  0.00  0.00    +0.000 A 
ATOM     17  C   UNL     1      -9.423  54.620  51.897  0.00  0.00    +0.000 C 
ATOM     18  C   UNL     1      -8.994  52.819  53.498  0.00  0.00    +0.000 A 
ATOM     19  C   UNL     1      -6.831  52.466  54.556  0.00  0.00    +0.000 A 
ATOM     20  N   UNL     1      -9.840  53.576  52.693  0.00  0.00    +0.000 N 
ATOM     21  C   UNL     1      -9.480  51.687  54.161  0.00  0.00    +0.000 A 
ATOM     22  C   UNL     1      -7.318  51.325  55.185  0.00  0.00    +0.000 A 
ATOM     23  C   UNL     1      -8.644  50.938  54.994  0.00  0.00    +0.000 A 
ATOM     24  H   UNL     1      -8.060  55.944  51.332  0.00  0.00    +0.000 HD
ATOM     25  H   UNL     1     -10.799  53.351  52.693  0.00  0.00    +0.000 HD
ENDBRANCH   1  17
BRANCH   3  26
ATOM     26  O   UNL     1     -11.951  55.871  52.590  0.00  0.00    +0.000 OA
ATOM     27  H   UNL     1     -11.302  55.934  53.263  0.00  0.00    +0.000 HD
ENDBRANCH   3  26
BRANCH   5  28
ATOM     28  N   UNL     1     -10.739  55.406  47.089  0.00  0.00    +0.000 N 
ATOM     29  H   UNL     1     -10.136  56.048  46.651  0.00  0.00    +0.000 HD
BRANCH  28  30
ATOM     30  C   UNL     1     -11.411  54.328  46.350  0.00  0.00    +0.000 C 
BRANCH  30  31
ATOM     31  C   UNL     1     -10.496  53.757  45.307  0.00  0.00    +0.000 A 
ATOM     32  S   UNL     1      -8.797  53.966  45.451  0.00  0.00    +0.000 S 
ATOM     33  C   UNL     1     -10.822  53.013  44.191  0.00  0.00    +0.000 A 
ATOM     34  C   UNL     1      -8.504  53.064  44.028  0.00  0.00    +0.000 A 
ATOM     35  C   UNL     1      -9.670  52.615  43.454  0.00  0.00    +0.000 A 
ENDBRANCH  30  31
ENDBRANCH  28  30
ENDBRANCH   5  28
TORSDOF 5
ENDMDL
MODEL 7
REMARK VINA RESULT:      -8.1      4.115      5.532
REMARK  Name = 
REMARK  5 active torsions:
REMARK  status: ('A' for Active; 'I' for Inactive)
REMARK    1  A    between atoms: C_6  and  C_10
REMARK    2  A    between atoms: C_14  and  O_18
REMARK    3  A    between atoms: N_17  and  N_20
REMARK    4  A    between atoms: N_20  and  C_23
REMARK    5  A    between atoms: C_23  and  C_26
REMARK                            x       y       z     vdW  Elec       q    Type
REMARK                         _______ _______ _______ _____ _____    ______ ____
ROOT
ATOM      1  C   UNL     1     -10.354  54.891  47.780  0.00  0.00    +0.000 A 
ATOM      2  C   UNL     1      -8.863  54.976  47.783  0.00  0.00    +0.000 A 
ATOM      3  C   UNL     1     -11.006  54.368  46.728  0.00  0.00    +0.000 A 
ATOM      4  O   UNL     1      -8.326  55.459  48.785  0.00  0.00    +0.000 OA
ATOM      5  N   UNL     1      -8.171  54.479  46.676  0.00  0.00    +0.000 N 
ATOM      6  C   UNL     1     -10.262  53.844  45.575  0.00  0.00    +0.000 A 
ATOM      7  C   UNL     1      -8.857  53.911  45.559  0.00  0.00    +0.000 A 
ATOM      8  C   UNL     1     -10.939  53.258  44.492  0.00  0.00    +0.000 A 
ATOM      9  C   UNL     1      -8.162  53.403  44.450  0.00  0.00    +0.000 A 
ATOM     10  C   UNL     1     -10.238  52.733  43.411  0.00  0.00    +0.000 A 
ATOM     11  C   UNL     1      -8.850  52.808  43.387  0.00  0.00    +0.000 A 
ENDROOT
BRANCH   1  17
ATOM     12  S   UNL     1     -11.772  54.948  51.439  0.00  0.00    +0.000 S 
ATOM     13  O   UNL     1     -10.789  55.428  52.389  0.00  0.00    +0.000 OA
ATOM     14  O   UNL     1     -12.628  53.827  51.768  0.00  0.00    +0.000 OA
ATOM     15  N   UNL     1     -10.988  54.589  50.068  0.00  0.00    +0.000 N 
ATOM     16  C   UNL     1     -12.842  56.303  51.122  0.00  0.00    +0.000 A 
ATOM     17  C   UNL     1     -11.104  55.343  49.013  0.00  0.00    +0.000 C 
ATOM     18  C   UNL     1     -12.765  56.917  49.885  0.00  0.00    +0.000 A 
ATOM     19  C   UNL     1     -13.748  56.721  52.102  0.00  0.00    +0.000 A 
ATOM     20  N   UNL     1     -11.845  56.502  48.927  0.00  0.00    +0.000 N 
ATOM     21  C   UNL     1     -13.576  58.032  49.646  0.00  0.00    +0.000 A 
ATOM     22  C   UNL     1     -14.572  57.811  51.840  0.00  0.00    +0.000 A 
ATOM     23  C   UNL     1     -14.481  58.471  50.614  0.00  0.00    +0.000 A 
ATOM     24  H   UNL     1     -10.414  53.789  50.031  0.00  0.00    +0.000 HD
ATOM     25  H   UNL     1     -11.714  57.073  48.135  0.00  0.00    +0.000 HD
ENDBRANCH   1  17
BRANCH   3  26
ATOM     26  O   UNL     1     -12.381  54.238  46.650  0.00  0.00    +0.000 OA
ATOM     27  H   UNL     1     -12.761  53.418  46.404  0.00  0.00    +0.000 HD
ENDBRANCH   3  26
BRANCH   5  28
ATOM     28  N   UNL     1      -6.740  54.595  46.593  0.00  0.00    +0.000 N 
ATOM     29  H   UNL     1      -6.297  55.405  46.254  0.00  0.00    +0.000 HD
BRANCH  28  30
ATOM     30  C   UNL     1      -5.987  53.419  47.050  0.00  0.00    +0.000 C 
BRANCH  30  31
ATOM     31  C   UNL     1      -5.659  53.539  48.509  0.00  0.00    +0.000 A 
ATOM     32  S   UNL     1      -6.318  52.415  49.630  0.00  0.00    +0.000 S 
ATOM     33  C   UNL     1      -4.831  54.449  49.133  0.00  0.00    +0.000 A 
ATOM     34  C   UNL     1      -5.497  53.147  50.939  0.00  0.00    +0.000 A 
ATOM     35  C   UNL     1      -4.741  54.222  50.536  0.00  0.00    +0.000 A 
ENDBRANCH  30  31
ENDBRANCH  28  30
ENDBRANCH   5  28
TORSDOF 5
ENDMDL
MODEL 8
REMARK VINA RESULT:      -8.0      3.478      4.996
REMARK  Name = 
REMARK  5 active torsions:
REMARK  status: ('A' for Active; 'I' for Inactive)
REMARK    1  A    between atoms: C_6  and  C_10
REMARK    2  A    between atoms: C_14  and  O_18
REMARK    3  A    between atoms: N_17  and  N_20
REMARK    4  A    between atoms: N_20  and  C_23
REMARK    5  A    between atoms: C_23  and  C_26
REMARK                            x       y       z     vdW  Elec       q    Type
REMARK                         _______ _______ _______ _____ _____    ______ ____
ROOT
ATOM      1  C   UNL     1     -10.661  55.874  48.454  0.00  0.00    +0.000 A 
ATOM      2  C   UNL     1      -9.238  55.911  48.903  0.00  0.00    +0.000 A 
ATOM      3  C   UNL     1     -10.999  55.265  47.305  0.00  0.00    +0.000 A 
ATOM      4  O   UNL     1      -8.997  56.478  49.973  0.00  0.00    +0.000 OA
ATOM      5  N   UNL     1      -8.278  55.281  48.108  0.00  0.00    +0.000 N 
ATOM      6  C   UNL     1      -9.977  54.601  46.484  0.00  0.00    +0.000 A 
ATOM      7  C   UNL     1      -8.631  54.622  46.890  0.00  0.00    +0.000 A 
ATOM      8  C   UNL     1     -10.334  53.928  45.304  0.00  0.00    +0.000 A 
ATOM      9  C   UNL     1      -7.669  53.980  46.095  0.00  0.00    +0.000 A 
ATOM     10  C   UNL     1      -9.374  53.271  44.538  0.00  0.00    +0.000 A 
ATOM     11  C   UNL     1      -8.041  53.300  44.931  0.00  0.00    +0.000 A 
ENDROOT
BRANCH   1  17
ATOM     12  S   UNL     1     -13.323  56.228  51.317  0.00  0.00    +0.000 S 
ATOM     13  O   UNL     1     -12.700  56.480  52.601  0.00  0.00    +0.000 OA
ATOM     14  O   UNL     1     -14.445  55.319  51.208  0.00  0.00    +0.000 OA
ATOM     15  N   UNL     1     -12.165  55.711  50.308  0.00  0.00    +0.000 N 
ATOM     16  C   UNL     1     -13.897  57.784  50.743  0.00  0.00    +0.000 A 
ATOM     17  C   UNL     1     -11.718  56.475  49.355  0.00  0.00    +0.000 C 
ATOM     18  C   UNL     1     -13.233  58.370  49.679  0.00  0.00    +0.000 A 
ATOM     19  C   UNL     1     -15.003  58.387  51.349  0.00  0.00    +0.000 A 
ATOM     20  N   UNL     1     -12.121  57.767  49.099  0.00  0.00    +0.000 N 
ATOM     21  C   UNL     1     -13.651  59.635  49.253  0.00  0.00    +0.000 A 
ATOM     22  C   UNL     1     -15.429  59.630  50.894  0.00  0.00    +0.000 A 
ATOM     23  C   UNL     1     -14.749  60.259  49.851  0.00  0.00    +0.000 A 
ATOM     24  H   UNL     1     -11.793  54.805  50.419  0.00  0.00    +0.000 HD
ATOM     25  H   UNL     1     -11.587  58.299  48.464  0.00  0.00    +0.000 HD
ENDBRANCH   1  17
BRANCH   3  26
ATOM     26  O   UNL     1     -12.293  55.172  46.823  0.00  0.00    +0.000 OA
ATOM     27  H   UNL     1     -12.983  54.887  47.388  0.00  0.00    +0.000 HD
ENDBRANCH   3  26
BRANCH   5  28
ATOM     28  N   UNL     1      -6.883  55.342  48.454  0.00  0.00    +0.000 N 
ATOM     29  H   UNL     1      -6.355  56.167  48.367  0.00  0.00    +0.000 HD
BRANCH  28  30
ATOM     30  C   UNL     1      -6.302  54.085  48.948  0.00  0.00    +0.000 C 
BRANCH  30  31
ATOM     31  C   UNL     1      -5.929  54.212  50.395  0.00  0.00    +0.000 A 
ATOM     32  S   UNL     1      -4.352  53.772  50.914  0.00  0.00    +0.000 S 
ATOM     33  C   UNL     1      -6.691  54.690  51.442  0.00  0.00    +0.000 A 
ATOM     34  C   UNL     1      -4.692  54.219  52.529  0.00  0.00    +0.000 A 
ATOM     35  C   UNL     1      -5.975  54.691  52.673  0.00  0.00    +0.000 A 
ENDBRANCH  30  31
ENDBRANCH  28  30
ENDBRANCH   5  28
TORSDOF 5
ENDMDL
MODEL 9
REMARK VINA RESULT:      -8.0      2.983      8.192
REMARK  Name = 
REMARK  5 active torsions:
REMARK  status: ('A' for Active; 'I' for Inactive)
REMARK    1  A    between atoms: C_6  and  C_10
REMARK    2  A    between atoms: C_14  and  O_18
REMARK    3  A    between atoms: N_17  and  N_20
REMARK    4  A    between atoms: N_20  and  C_23
REMARK    5  A    between atoms: C_23  and  C_26
REMARK                            x       y       z     vdW  Elec       q    Type
REMARK                         _______ _______ _______ _____ _____    ______ ____
ROOT
ATOM      1  C   UNL     1      -9.572  54.161  50.119  0.00  0.00    +0.000 A 
ATOM      2  C   UNL     1     -10.541  55.293  50.222  0.00  0.00    +0.000 A 
ATOM      3  C   UNL     1      -9.432  53.486  48.966  0.00  0.00    +0.000 A 
ATOM      4  O   UNL     1     -10.613  55.878  51.306  0.00  0.00    +0.000 OA
ATOM      5  N   UNL     1     -11.276  55.638  49.086  0.00  0.00    +0.000 N 
ATOM      6  C   UNL     1     -10.209  53.866  47.778  0.00  0.00    +0.000 A 
ATOM      7  C   UNL     1     -11.125  54.931  47.853  0.00  0.00    +0.000 A 
ATOM      8  C   UNL     1     -10.034  53.188  46.560  0.00  0.00    +0.000 A 
ATOM      9  C   UNL     1     -11.856  55.283  46.708  0.00  0.00    +0.000 A 
ATOM     10  C   UNL     1     -10.745  53.564  45.425  0.00  0.00    +0.000 A 
ATOM     11  C   UNL     1     -11.659  54.609  45.498  0.00  0.00    +0.000 A 
ENDROOT
BRANCH   1  17
ATOM     12  S   UNL     1      -6.490  54.086  52.548  0.00  0.00    +0.000 S 
ATOM     13  O   UNL     1      -6.413  55.287  53.355  0.00  0.00    +0.000 OA
ATOM     14  O   UNL     1      -5.293  53.502  51.980  0.00  0.00    +0.000 OA
ATOM     15  N   UNL     1      -7.523  54.381  51.335  0.00  0.00    +0.000 N 
ATOM     16  C   UNL     1      -7.193  52.852  53.579  0.00  0.00    +0.000 A 
ATOM     17  C   UNL     1      -8.707  53.841  51.318  0.00  0.00    +0.000 C 
ATOM     18  C   UNL     1      -8.488  52.443  53.315  0.00  0.00    +0.000 A 
ATOM     19  C   UNL     1      -6.440  52.303  54.623  0.00  0.00    +0.000 A 
ATOM     20  N   UNL     1      -9.231  53.012  52.286  0.00  0.00    +0.000 N 
ATOM     21  C   UNL     1      -9.073  51.500  54.167  0.00  0.00    +0.000 A 
ATOM     22  C   UNL     1      -7.023  51.342  55.443  0.00  0.00    +0.000 A 
ATOM     23  C   UNL     1      -8.342  50.945  55.220  0.00  0.00    +0.000 A 
ATOM     24  H   UNL     1      -7.252  54.979  50.600  0.00  0.00    +0.000 HD
ATOM     25  H   UNL     1     -10.194  52.810  52.246  0.00  0.00    +0.000 HD
ENDBRANCH   1  17
BRANCH   3  26
ATOM     26  O   UNL     1      -8.549  52.436  48.780  0.00  0.00    +0.000 OA
ATOM     27  H   UNL     1      -8.825  51.668  48.322  0.00  0.00    +0.000 HD
ENDBRANCH   3  26
BRANCH   5  28
ATOM     28  N   UNL     1     -12.272  56.675  49.143  0.00  0.00    +0.000 N 
ATOM     29  H   UNL     1     -12.095  57.591  48.833  0.00  0.00    +0.000 HD
BRANCH  28  30
ATOM     30  C   UNL     1     -13.571  56.268  49.696  0.00  0.00    +0.000 C 
BRANCH  30  31
ATOM     31  C   UNL     1     -13.934  57.128  50.871  0.00  0.00    +0.000 A 
ATOM     32  S   UNL     1     -14.461  58.744  50.619  0.00  0.00    +0.000 S 
ATOM     33  C   UNL     1     -13.944  56.796  52.210  0.00  0.00    +0.000 A 
ATOM     34  C   UNL     1     -14.699  58.991  52.294  0.00  0.00    +0.000 A 
ATOM     35  C   UNL     1     -14.385  57.874  53.030  0.00  0.00    +0.000 A 
ENDBRANCH  30  31
ENDBRANCH  28  30
ENDBRANCH   5  28
TORSDOF 5
ENDMDL
