MODEL 1
REMARK VINA RESULT:      -8.4      0.000      0.000
REMARK  Name = 
REMARK  5 active torsions:
REMARK  status: ('A' for Active; 'I' for Inactive)
REMARK    1  A    between atoms: C_6  and  C_10
REMARK    2  A    between atoms: C_14  and  O_18
REMARK    3  A    between atoms: N_17  and  N_20
REMARK    4  A    between atoms: N_20  and  C_23
REMARK    5  A    between atoms: C_23  and  C_26
REMARK                            x       y       z     vdW  Elec       q    Type
REMARK                         _______ _______ _______ _____ _____    ______ ____
ROOT
ATOM      1  C   UNL     1     -10.118  54.563  52.231  0.00  0.00    +0.000 A 
ATOM      2  C   UNL     1      -8.756  55.145  52.049  0.00  0.00    +0.000 A 
ATOM      3  C   UNL     1     -10.289  53.450  52.965  0.00  0.00    +0.000 A 
ATOM      4  O   UNL     1      -8.660  56.160  51.350  0.00  0.00    +0.000 OA
ATOM      5  N   UNL     1      -7.681  54.528  52.694  0.00  0.00    +0.000 N 
ATOM      6  C   UNL     1      -9.145  52.811  53.631  0.00  0.00    +0.000 A 
ATOM      7  C   UNL     1      -7.856  53.353  53.485  0.00  0.00    +0.000 A 
ATOM      8  C   UNL     1      -9.326  51.665  54.427  0.00  0.00    +0.000 A 
ATOM      9  C   UNL     1      -6.775  52.730  54.129  0.00  0.00    +0.000 A 
ATOM     10  C   UNL     1      -8.247  51.067  55.076  0.00  0.00    +0.000 A 
ATOM     11  C   UNL     1      -6.972  51.597  54.924  0.00  0.00    +0.000 A 
ENDROOT
BRANCH   1  17
ATOM     12  S   UNL     1     -12.550  56.097  49.553  0.00  0.00    +0.000 S 
ATOM     13  O   UNL     1     -13.414  55.101  48.958  0.00  0.00    +0.000 OA
ATOM     14  O   UNL     1     -11.941  57.126  48.728  0.00  0.00    +0.000 OA
ATOM     15  N   UNL     1     -11.358  55.312  50.322  0.00  0.00    +0.000 N 
ATOM     16  C   UNL     1     -13.517  56.943  50.745  0.00  0.00    +0.000 A 
ATOM     17  C   UNL     1     -11.302  55.286  51.621  0.00  0.00    +0.000 C 
ATOM     18  C   UNL     1     -13.228  56.733  52.082  0.00  0.00    +0.000 A 
ATOM     19  C   UNL     1     -14.533  57.809  50.333  0.00  0.00    +0.000 A 
ATOM     20  N   UNL     1     -12.219  55.857  52.478  0.00  0.00    +0.000 N 
ATOM     21  C   UNL     1     -14.034  57.356  53.040  0.00  0.00    +0.000 A 
ATOM     22  C   UNL     1     -15.303  58.453  51.297  0.00  0.00    +0.000 A 
ATOM     23  C   UNL     1     -15.064  58.220  52.649  0.00  0.00    +0.000 A 
ATOM     24  H   UNL     1     -10.666  54.847  49.797  0.00  0.00    +0.000 HD
ATOM     25  H   UNL     1     -12.157  55.632  53.435  0.00  0.00    +0.000 HD
ENDBRANCH   1  17
BRANCH   3  26
ATOM     26  O   UNL     1     -11.511  52.840  53.184  0.00  0.00    +0.000 OA
ATOM     27  H   UNL     1     -11.924  52.904  54.023  0.00  0.00    +0.000 HD
ENDBRANCH   3  26
BRANCH   5  28
ATOM     28  N   UNL     1      -6.338  55.001  52.488  0.00  0.00    +0.000 N 
ATOM     29  H   UNL     1      -5.831  55.472  53.188  0.00  0.00    +0.000 HD
BRANCH  28  30
ATOM     30  C   UNL     1      -5.782  54.728  51.157  0.00  0.00    +0.000 C 
BRANCH  30  31
ATOM     31  C   UNL     1      -4.994  53.450  51.165  0.00  0.00    +0.000 A 
ATOM     32  S   UNL     1      -5.600  52.061  50.358  0.00  0.00    +0.000 S 
ATOM     33  C   UNL     1      -3.756  53.207  51.729  0.00  0.00    +0.000 A 
ATOM     34  C   UNL     1      -4.209  51.150  50.749  0.00  0.00    +0.000 A 
ATOM     35  C   UNL     1      -3.303  51.879  51.485  0.00  0.00    +0.000 A 
ENDBRANCH  30  31
ENDBRANCH  28  30
ENDBRANCH   5  28
TORSDOF 5
ENDMDL
MODEL 2
REMARK VINA RESULT:      -8.3      3.288      4.906
REMARK  Name = 
REMARK  5 active torsions:
REMARK  status: ('A' for Active; 'I' for Inactive)
REMARK    1  A    between atoms: C_6  and  C_10
REMARK    2  A    between atoms: C_14  and  O_18
REMARK    3  A    between atoms: N_17  and  N_20
REMARK    4  A    between atoms: N_20  and  C_23
REMARK    5  A    between atoms: C_23  and  C_26
REMARK                            x       y       z     vdW  Elec       q    Type
REMARK                         _______ _______ _______ _____ _____    ______ ____
ROOT
ATOM      1  C   UNL     1     -11.510  55.948  48.868  0.00  0.00    +0.000 A 
ATOM      2  C   UNL     1     -10.489  55.316  49.754  0.00  0.00    +0.000 A 
ATOM      3  C   UNL     1     -11.588  55.606  47.569  0.00  0.00    +0.000 A 
ATOM      4  O   UNL     1     -10.456  55.682  50.934  0.00  0.00    +0.000 OA
ATOM      5  N   UNL     1      -9.654  54.338  49.210  0.00  0.00    +0.000 N 
ATOM      6  C   UNL     1     -10.696  54.579  47.012  0.00  0.00    +0.000 A 
ATOM      7  C   UNL     1      -9.738  53.961  47.836  0.00  0.00    +0.000 A 
ATOM      8  C   UNL     1     -10.797  54.196  45.663  0.00  0.00    +0.000 A 
ATOM      9  C   UNL     1      -8.895  52.981  47.287  0.00  0.00    +0.000 A 
ATOM     10  C   UNL     1      -9.966  53.209  45.135  0.00  0.00    +0.000 A 
ATOM     11  C   UNL     1      -9.014  52.604  45.946  0.00  0.00    +0.000 A 
ENDROOT
BRANCH   1  17
ATOM     12  S   UNL     1     -13.568  59.241  49.468  0.00  0.00    +0.000 S 
ATOM     13  O   UNL     1     -14.689  59.363  48.561  0.00  0.00    +0.000 OA
ATOM     14  O   UNL     1     -12.747  60.397  49.779  0.00  0.00    +0.000 OA
ATOM     15  N   UNL     1     -12.592  58.085  48.883  0.00  0.00    +0.000 N 
ATOM     16  C   UNL     1     -14.226  58.689  50.997  0.00  0.00    +0.000 A 
ATOM     17  C   UNL     1     -12.488  56.933  49.476  0.00  0.00    +0.000 C 
ATOM     18  C   UNL     1     -13.945  57.394  51.395  0.00  0.00    +0.000 A 
ATOM     19  C   UNL     1     -14.995  59.555  51.777  0.00  0.00    +0.000 A 
ATOM     20  N   UNL     1     -13.185  56.539  50.599  0.00  0.00    +0.000 N 
ATOM     21  C   UNL     1     -14.516  56.927  52.582  0.00  0.00    +0.000 A 
ATOM     22  C   UNL     1     -15.526  59.089  52.978  0.00  0.00    +0.000 A 
ATOM     23  C   UNL     1     -15.298  57.774  53.376  0.00  0.00    +0.000 A 
ATOM     24  H   UNL     1     -12.070  58.260  48.067  0.00  0.00    +0.000 HD
ATOM     25  H   UNL     1     -13.142  55.589  50.857  0.00  0.00    +0.000 HD
ENDBRANCH   1  17
BRANCH   3  26
ATOM     26  O   UNL     1     -12.498  56.141  46.675  0.00  0.00    +0.000 OA
ATOM     27  H   UNL     1     -13.194  56.687  46.984  0.00  0.00    +0.000 HD
ENDBRANCH   3  26
BRANCH   5  28
ATOM     28  N   UNL     1      -8.602  53.755  49.999  0.00  0.00    +0.000 N 
ATOM     29  H   UNL     1      -8.683  52.866  50.412  0.00  0.00    +0.000 HD
BRANCH  28  30
ATOM     30  C   UNL     1      -7.400  54.586  50.141  0.00  0.00    +0.000 C 
BRANCH  30  31
ATOM     31  C   UNL     1      -7.136  54.894  51.586  0.00  0.00    +0.000 A 
ATOM     32  S   UNL     1      -6.522  53.673  52.626  0.00  0.00    +0.000 S 
ATOM     33  C   UNL     1      -7.286  56.096  52.251  0.00  0.00    +0.000 A 
ATOM     34  C   UNL     1      -6.445  54.751  53.949  0.00  0.00    +0.000 A 
ATOM     35  C   UNL     1      -6.883  56.013  53.614  0.00  0.00    +0.000 A 
ENDBRANCH  30  31
ENDBRANCH  28  30
ENDBRANCH   5  28
TORSDOF 5
ENDMDL
MODEL 3
REMARK VINA RESULT:      -8.3      2.155      2.450
REMARK  Name = 
REMARK  5 active torsions:
REMARK  status: ('A' for Active; 'I' for Inactive)
REMARK    1  A    between atoms: C_6  and  C_10
REMARK    2  A    between atoms: C_14  and  O_18
REMARK    3  A    between atoms: N_17  and  N_20
REMARK    4  A    between atoms: N_20  and  C_23
REMARK    5  A    between atoms: C_23  and  C_26
REMARK                            x       y       z     vdW  Elec       q    Type
REMARK                         _______ _______ _______ _____ _____    ______ ____
ROOT
ATOM      1  C   UNL     1     -11.154  54.617  50.870  0.00  0.00    +0.000 A 
ATOM      2  C   UNL     1      -9.757  55.010  50.525  0.00  0.00    +0.000 A 
ATOM      3  C   UNL     1     -11.421  53.376  51.313  0.00  0.00    +0.000 A 
ATOM      4  O   UNL     1      -9.576  56.159  50.108  0.00  0.00    +0.000 OA
ATOM      5  N   UNL     1      -8.739  54.073  50.715  0.00  0.00    +0.000 N 
ATOM      6  C   UNL     1     -10.339  52.400  51.501  0.00  0.00    +0.000 A 
ATOM      7  C   UNL     1      -9.013  52.757  51.196  0.00  0.00    +0.000 A 
ATOM      8  C   UNL     1     -10.610  51.112  51.995  0.00  0.00    +0.000 A 
ATOM      9  C   UNL     1      -7.990  51.812  51.382  0.00  0.00    +0.000 A 
ATOM     10  C   UNL     1      -9.584  50.189  52.193  0.00  0.00    +0.000 A 
ATOM     11  C   UNL     1      -8.275  50.539  51.884  0.00  0.00    +0.000 A 
ENDROOT
BRANCH   1  17
ATOM     12  S   UNL     1     -13.610  57.277  49.344  0.00  0.00    +0.000 S 
ATOM     13  O   UNL     1     -14.740  56.666  48.677  0.00  0.00    +0.000 OA
ATOM     14  O   UNL     1     -12.941  58.422  48.752  0.00  0.00    +0.000 OA
ATOM     15  N   UNL     1     -12.498  56.121  49.576  0.00  0.00    +0.000 N 
ATOM     16  C   UNL     1     -14.190  57.812  50.910  0.00  0.00    +0.000 A 
ATOM     17  C   UNL     1     -12.248  55.662  50.766  0.00  0.00    +0.000 C 
ATOM     18  C   UNL     1     -13.746  57.135  52.032  0.00  0.00    +0.000 A 
ATOM     19  C   UNL     1     -15.061  58.900  50.996  0.00  0.00    +0.000 A 
ATOM     20  N   UNL     1     -12.886  56.043  51.928  0.00  0.00    +0.000 N 
ATOM     21  C   UNL     1     -14.251  57.516  53.278  0.00  0.00    +0.000 A 
ATOM     22  C   UNL     1     -15.526  59.295  52.248  0.00  0.00    +0.000 A 
ATOM     23  C   UNL     1     -15.132  58.597  53.388  0.00  0.00    +0.000 A 
ATOM     24  H   UNL     1     -12.004  55.762  48.804  0.00  0.00    +0.000 HD
ATOM     25  H   UNL     1     -12.723  55.509  52.739  0.00  0.00    +0.000 HD
ENDBRANCH   1  17
BRANCH   3  26
ATOM     26  O   UNL     1     -12.684  52.924  51.653  0.00  0.00    +0.000 OA
ATOM     27  H   UNL     1     -12.938  52.874  52.554  0.00  0.00    +0.000 HD
ENDBRANCH   3  26
BRANCH   5  28
ATOM     28  N   UNL     1      -7.388  54.373  50.324  0.00  0.00    +0.000 N 
ATOM     29  H   UNL     1      -6.933  53.902  49.590  0.00  0.00    +0.000 HD
BRANCH  28  30
ATOM     30  C   UNL     1      -6.739  55.436  51.103  0.00  0.00    +0.000 C 
BRANCH  30  31
ATOM     31  C   UNL     1      -6.335  54.929  52.457  0.00  0.00    +0.000 A 
ATOM     32  S   UNL     1      -7.227  55.394  53.849  0.00  0.00    +0.000 S 
ATOM     33  C   UNL     1      -5.311  54.060  52.780  0.00  0.00    +0.000 A 
ATOM     34  C   UNL     1      -6.256  54.426  54.870  0.00  0.00    +0.000 A 
ATOM     35  C   UNL     1      -5.268  53.768  54.172  0.00  0.00    +0.000 A 
ENDBRANCH  30  31
ENDBRANCH  28  30
ENDBRANCH   5  28
TORSDOF 5
ENDMDL
MODEL 4
REMARK VINA RESULT:      -8.3      3.151      8.375
REMARK  Name = 
REMARK  5 active torsions:
REMARK  status: ('A' for Active; 'I' for Inactive)
REMARK    1  A    between atoms: C_6  and  C_10
REMARK    2  A    between atoms: C_14  and  O_18
REMARK    3  A    between atoms: N_17  and  N_20
REMARK    4  A    between atoms: N_20  and  C_23
REMARK    5  A    between atoms: C_23  and  C_26
REMARK                            x       y       z     vdW  Elec       q    Type
REMARK                         _______ _______ _______ _____ _____    ______ ____
ROOT
ATOM      1  C   UNL     1      -9.131  54.363  49.891  0.00  0.00    +0.000 A 
ATOM      2  C   UNL     1     -10.181  55.420  49.985  0.00  0.00    +0.000 A 
ATOM      3  C   UNL     1      -9.019  53.613  48.780  0.00  0.00    +0.000 A 
ATOM      4  O   UNL     1     -10.244  56.065  51.037  0.00  0.00    +0.000 OA
ATOM      5  N   UNL     1     -11.006  55.633  48.879  0.00  0.00    +0.000 N 
ATOM      6  C   UNL     1      -9.901  53.847  47.628  0.00  0.00    +0.000 A 
ATOM      7  C   UNL     1     -10.886  54.849  47.692  0.00  0.00    +0.000 A 
ATOM      8  C   UNL     1      -9.765  53.087  46.453  0.00  0.00    +0.000 A 
ATOM      9  C   UNL     1     -11.720  55.060  46.581  0.00  0.00    +0.000 A 
ATOM     10  C   UNL     1     -10.587  53.318  45.351  0.00  0.00    +0.000 A 
ATOM     11  C   UNL     1     -11.565  54.302  45.417  0.00  0.00    +0.000 A 
ENDROOT
BRANCH   1  17
ATOM     12  S   UNL     1      -7.743  54.090  53.557  0.00  0.00    +0.000 S 
ATOM     13  O   UNL     1      -7.970  52.783  54.136  0.00  0.00    +0.000 OA
ATOM     14  O   UNL     1      -7.942  55.289  54.351  0.00  0.00    +0.000 OA
ATOM     15  N   UNL     1      -8.680  54.208  52.239  0.00  0.00    +0.000 N 
ATOM     16  C   UNL     1      -6.065  54.120  53.048  0.00  0.00    +0.000 A 
ATOM     17  C   UNL     1      -8.164  54.197  51.046  0.00  0.00    +0.000 C 
ATOM     18  C   UNL     1      -5.798  54.110  51.690  0.00  0.00    +0.000 A 
ATOM     19  C   UNL     1      -5.048  54.167  54.003  0.00  0.00    +0.000 A 
ATOM     20  N   UNL     1      -6.825  54.052  50.749  0.00  0.00    +0.000 N 
ATOM     21  C   UNL     1      -4.463  54.072  51.277  0.00  0.00    +0.000 A 
ATOM     22  C   UNL     1      -3.722  54.168  53.578  0.00  0.00    +0.000 A 
ATOM     23  C   UNL     1      -3.428  54.109  52.217  0.00  0.00    +0.000 A 
ATOM     24  H   UNL     1      -9.656  54.290  52.345  0.00  0.00    +0.000 HD
ATOM     25  H   UNL     1      -6.577  53.896  49.809  0.00  0.00    +0.000 HD
ENDBRANCH   1  17
BRANCH   3  26
ATOM     26  O   UNL     1      -8.080  52.612  48.607  0.00  0.00    +0.000 OA
ATOM     27  H   UNL     1      -8.351  51.759  48.328  0.00  0.00    +0.000 HD
ENDBRANCH   3  26
BRANCH   5  28
ATOM     28  N   UNL     1     -12.084  56.583  48.945  0.00  0.00    +0.000 N 
ATOM     29  H   UNL     1     -12.010  57.492  48.575  0.00  0.00    +0.000 HD
BRANCH  28  30
ATOM     30  C   UNL     1     -13.302  56.095  49.606  0.00  0.00    +0.000 C 
BRANCH  30  31
ATOM     31  C   UNL     1     -13.663  56.976  50.767  0.00  0.00    +0.000 A 
ATOM     32  S   UNL     1     -14.256  58.563  50.489  0.00  0.00    +0.000 S 
ATOM     33  C   UNL     1     -13.625  56.679  52.116  0.00  0.00    +0.000 A 
ATOM     34  C   UNL     1     -14.472  58.841  52.162  0.00  0.00    +0.000 A 
ATOM     35  C   UNL     1     -14.096  57.756  52.919  0.00  0.00    +0.000 A 
ENDBRANCH  30  31
ENDBRANCH  28  30
ENDBRANCH   5  28
TORSDOF 5
ENDMDL
MODEL 5
REMARK VINA RESULT:      -8.2      4.318      5.253
REMARK  Name = 
REMARK  5 active torsions:
REMARK  status: ('A' for Active; 'I' for Inactive)
REMARK    1  A    between atoms: C_6  and  C_10
REMARK    2  A    between atoms: C_14  and  O_18
REMARK    3  A    between atoms: N_17  and  N_20
REMARK    4  A    between atoms: N_20  and  C_23
REMARK    5  A    between atoms: C_23  and  C_26
REMARK                            x       y       z     vdW  Elec       q    Type
REMARK                         _______ _______ _______ _____ _____    ______ ____
ROOT
ATOM      1  C   UNL     1     -12.248  54.267  50.109  0.00  0.00    +0.000 A 
ATOM      2  C   UNL     1     -11.938  53.951  48.684  0.00  0.00    +0.000 A 
ATOM      3  C   UNL     1     -11.734  53.516  51.100  0.00  0.00    +0.000 A 
ATOM      4  O   UNL     1     -12.453  54.667  47.819  0.00  0.00    +0.000 OA
ATOM      5  N   UNL     1     -11.073  52.888  48.415  0.00  0.00    +0.000 N 
ATOM      6  C   UNL     1     -10.830  52.397  50.796  0.00  0.00    +0.000 A 
ATOM      7  C   UNL     1     -10.514  52.094  49.460  0.00  0.00    +0.000 A 
ATOM      8  C   UNL     1     -10.265  51.630  51.831  0.00  0.00    +0.000 A 
ATOM      9  C   UNL     1      -9.648  51.021  49.189  0.00  0.00    +0.000 A 
ATOM     10  C   UNL     1      -9.392  50.580  51.549  0.00  0.00    +0.000 A 
ATOM     11  C   UNL     1      -9.087  50.274  50.229  0.00  0.00    +0.000 A 
ENDROOT
BRANCH   1  17
ATOM     12  S   UNL     1     -15.250  56.473  51.357  0.00  0.00    +0.000 S 
ATOM     13  O   UNL     1     -15.223  56.681  52.789  0.00  0.00    +0.000 OA
ATOM     14  O   UNL     1     -16.504  56.195  50.680  0.00  0.00    +0.000 OA
ATOM     15  N   UNL     1     -14.228  55.260  51.022  0.00  0.00    +0.000 N 
ATOM     16  C   UNL     1     -14.624  57.942  50.632  0.00  0.00    +0.000 A 
ATOM     17  C   UNL     1     -13.101  55.482  50.414  0.00  0.00    +0.000 C 
ATOM     18  C   UNL     1     -13.378  57.890  50.033  0.00  0.00    +0.000 A 
ATOM     19  C   UNL     1     -15.387  59.112  50.658  0.00  0.00    +0.000 A 
ATOM     20  N   UNL     1     -12.625  56.717  50.026  0.00  0.00    +0.000 N 
ATOM     21  C   UNL     1     -12.846  59.071  49.507  0.00  0.00    +0.000 A 
ATOM     22  C   UNL     1     -14.861  60.272  50.096  0.00  0.00    +0.000 A 
ATOM     23  C   UNL     1     -13.588  60.257  49.531  0.00  0.00    +0.000 A 
ATOM     24  H   UNL     1     -14.465  54.340  51.283  0.00  0.00    +0.000 HD
ATOM     25  H   UNL     1     -11.690  56.775  49.722  0.00  0.00    +0.000 HD
ENDBRANCH   1  17
BRANCH   3  26
ATOM     26  O   UNL     1     -11.968  53.733  52.445  0.00  0.00    +0.000 OA
ATOM     27  H   UNL     1     -12.820  53.994  52.737  0.00  0.00    +0.000 HD
ENDBRANCH   3  26
BRANCH   5  28
ATOM     28  N   UNL     1     -10.805  52.492  47.058  0.00  0.00    +0.000 N 
ATOM     29  H   UNL     1     -11.326  51.795  46.599  0.00  0.00    +0.000 HD
BRANCH  28  30
ATOM     30  C   UNL     1      -9.698  53.207  46.410  0.00  0.00    +0.000 C 
BRANCH  30  31
ATOM     31  C   UNL     1      -9.577  52.803  44.970  0.00  0.00    +0.000 A 
ATOM     32  S   UNL     1     -10.683  51.674  44.299  0.00  0.00    +0.000 S 
ATOM     33  C   UNL     1      -8.677  53.253  44.023  0.00  0.00    +0.000 A 
ATOM     34  C   UNL     1      -9.969  51.800  42.751  0.00  0.00    +0.000 A 
ATOM     35  C   UNL     1      -8.906  52.676  42.742  0.00  0.00    +0.000 A 
ENDBRANCH  30  31
ENDBRANCH  28  30
ENDBRANCH   5  28
TORSDOF 5
ENDMDL
MODEL 6
REMARK VINA RESULT:      -8.1      4.163      5.572
REMARK  Name = 
REMARK  5 active torsions:
REMARK  status: ('A' for Active; 'I' for Inactive)
REMARK    1  A    between atoms: C_6  and  C_10
REMARK    2  A    between atoms: C_14  and  O_18
REMARK    3  A    between atoms: N_17  and  N_20
REMARK    4  A    between atoms: N_20  and  C_23
REMARK    5  A    between atoms: C_23  and  C_26
REMARK                            x       y       z     vdW  Elec       q    Type
REMARK                         _______ _______ _______ _____ _____    ______ ____
ROOT
ATOM      1  C   UNL     1     -10.387  54.930  47.766  0.00  0.00    +0.000 A 
ATOM      2  C   UNL     1      -8.899  55.037  47.759  0.00  0.00    +0.000 A 
ATOM      3  C   UNL     1     -11.035  54.387  46.720  0.00  0.00    +0.000 A 
ATOM      4  O   UNL     1      -8.362  55.560  48.741  0.00  0.00    +0.000 OA
ATOM      5  N   UNL     1      -8.204  54.521  46.663  0.00  0.00    +0.000 N 
ATOM      6  C   UNL     1     -10.287  53.856  45.572  0.00  0.00    +0.000 A 
ATOM      7  C   UNL     1      -8.883  53.933  45.554  0.00  0.00    +0.000 A 
ATOM      8  C   UNL     1     -10.960  53.257  44.492  0.00  0.00    +0.000 A 
ATOM      9  C   UNL     1      -8.184  53.419  44.449  0.00  0.00    +0.000 A 
ATOM     10  C   UNL     1     -10.254  52.735  43.409  0.00  0.00    +0.000 A 
ATOM     11  C   UNL     1      -8.867  52.818  43.387  0.00  0.00    +0.000 A 
ENDROOT
BRANCH   1  17
ATOM     12  S   UNL     1     -11.830  55.008  51.420  0.00  0.00    +0.000 S 
ATOM     13  O   UNL     1     -10.855  55.462  52.388  0.00  0.00    +0.000 OA
ATOM     14  O   UNL     1     -12.705  53.892  51.729  0.00  0.00    +0.000 OA
ATOM     15  N   UNL     1     -11.030  54.647  50.057  0.00  0.00    +0.000 N 
ATOM     16  C   UNL     1     -12.882  56.374  51.100  0.00  0.00    +0.000 A 
ATOM     17  C   UNL     1     -11.141  55.392  48.998  0.00  0.00    +0.000 C 
ATOM     18  C   UNL     1     -12.794  56.985  49.862  0.00  0.00    +0.000 A 
ATOM     19  C   UNL     1     -13.784  56.802  52.077  0.00  0.00    +0.000 A 
ATOM     20  N   UNL     1     -11.881  56.552  48.903  0.00  0.00    +0.000 N 
ATOM     21  C   UNL     1     -13.586  58.112  49.622  0.00  0.00    +0.000 A 
ATOM     22  C   UNL     1     -14.595  57.903  51.810  0.00  0.00    +0.000 A 
ATOM     23  C   UNL     1     -14.489  58.565  50.589  0.00  0.00    +0.000 A 
ATOM     24  H   UNL     1     -10.453  53.849  50.031  0.00  0.00    +0.000 HD
ATOM     25  H   UNL     1     -11.756  57.113  48.102  0.00  0.00    +0.000 HD
ENDBRANCH   1  17
BRANCH   3  26
ATOM     26  O   UNL     1     -12.409  54.251  46.639  0.00  0.00    +0.000 OA
ATOM     27  H   UNL     1     -12.937  54.975  46.365  0.00  0.00    +0.000 HD
ENDBRANCH   3  26
BRANCH   5  28
ATOM     28  N   UNL     1      -6.776  54.669  46.569  0.00  0.00    +0.000 N 
ATOM     29  H   UNL     1      -6.351  55.488  46.227  0.00  0.00    +0.000 HD
BRANCH  28  30
ATOM     30  C   UNL     1      -6.001  53.507  47.024  0.00  0.00    +0.000 C 
BRANCH  30  31
ATOM     31  C   UNL     1      -5.707  53.609  48.493  0.00  0.00    +0.000 A 
ATOM     32  S   UNL     1      -6.408  52.489  49.589  0.00  0.00    +0.000 S 
ATOM     33  C   UNL     1      -4.877  54.501  49.144  0.00  0.00    +0.000 A 
ATOM     34  C   UNL     1      -5.593  53.186  50.920  0.00  0.00    +0.000 A 
ATOM     35  C   UNL     1      -4.810  54.254  50.544  0.00  0.00    +0.000 A 
ENDBRANCH  30  31
ENDBRANCH  28  30
ENDBRANCH   5  28
TORSDOF 5
ENDMDL
MODEL 7
REMARK VINA RESULT:      -8.1      2.816      8.292
REMARK  Name = 
REMARK  5 active torsions:
REMARK  status: ('A' for Active; 'I' for Inactive)
REMARK    1  A    between atoms: C_6  and  C_10
REMARK    2  A    between atoms: C_14  and  O_18
REMARK    3  A    between atoms: N_17  and  N_20
REMARK    4  A    between atoms: N_20  and  C_23
REMARK    5  A    between atoms: C_23  and  C_26
REMARK                            x       y       z     vdW  Elec       q    Type
REMARK                         _______ _______ _______ _____ _____    ______ ____
ROOT
ATOM      1  C   UNL     1      -9.789  53.967  50.634  0.00  0.00    +0.000 A 
ATOM      2  C   UNL     1     -11.074  54.682  50.886  0.00  0.00    +0.000 A 
ATOM      3  C   UNL     1      -9.397  53.696  49.377  0.00  0.00    +0.000 A 
ATOM      4  O   UNL     1     -11.388  54.888  52.064  0.00  0.00    +0.000 OA
ATOM      5  N   UNL     1     -11.828  55.095  49.786  0.00  0.00    +0.000 N 
ATOM      6  C   UNL     1     -10.207  54.133  48.231  0.00  0.00    +0.000 A 
ATOM      7  C   UNL     1     -11.413  54.822  48.448  0.00  0.00    +0.000 A 
ATOM      8  C   UNL     1      -9.783  53.880  46.914  0.00  0.00    +0.000 A 
ATOM      9  C   UNL     1     -12.174  55.233  47.341  0.00  0.00    +0.000 A 
ATOM     10  C   UNL     1     -10.539  54.309  45.824  0.00  0.00    +0.000 A 
ATOM     11  C   UNL     1     -11.735  54.983  46.038  0.00  0.00    +0.000 A 
ENDROOT
BRANCH   1  17
ATOM     12  S   UNL     1      -6.698  53.828  53.056  0.00  0.00    +0.000 S 
ATOM     13  O   UNL     1      -6.613  54.994  53.909  0.00  0.00    +0.000 OA
ATOM     14  O   UNL     1      -5.501  53.275  52.448  0.00  0.00    +0.000 OA
ATOM     15  N   UNL     1      -7.743  54.171  51.865  0.00  0.00    +0.000 N 
ATOM     16  C   UNL     1      -7.378  52.545  54.039  0.00  0.00    +0.000 A 
ATOM     17  C   UNL     1      -8.914  53.608  51.820  0.00  0.00    +0.000 C 
ATOM     18  C   UNL     1      -8.667  52.128  53.760  0.00  0.00    +0.000 A 
ATOM     19  C   UNL     1      -6.615  51.969  55.058  0.00  0.00    +0.000 A 
ATOM     20  N   UNL     1      -9.419  52.721  52.747  0.00  0.00    +0.000 N 
ATOM     21  C   UNL     1      -9.238  51.148  54.578  0.00  0.00    +0.000 A 
ATOM     22  C   UNL     1      -7.183  50.967  55.840  0.00  0.00    +0.000 A 
ATOM     23  C   UNL     1      -8.496  50.564  55.610  0.00  0.00    +0.000 A 
ATOM     24  H   UNL     1      -7.487  54.815  51.166  0.00  0.00    +0.000 HD
ATOM     25  H   UNL     1     -10.375  52.491  52.691  0.00  0.00    +0.000 HD
ENDBRANCH   1  17
BRANCH   3  26
ATOM     26  O   UNL     1      -8.226  53.036  49.050  0.00  0.00    +0.000 OA
ATOM     27  H   UNL     1      -8.243  52.321  48.444  0.00  0.00    +0.000 HD
ENDBRANCH   3  26
BRANCH   5  28
ATOM     28  N   UNL     1     -13.111  55.718  49.974  0.00  0.00    +0.000 N 
ATOM     29  H   UNL     1     -13.939  55.198  50.088  0.00  0.00    +0.000 HD
BRANCH  28  30
ATOM     30  C   UNL     1     -13.092  57.187  49.983  0.00  0.00    +0.000 C 
BRANCH  30  31
ATOM     31  C   UNL     1     -13.859  57.718  51.159  0.00  0.00    +0.000 A 
ATOM     32  S   UNL     1     -14.584  59.273  51.081  0.00  0.00    +0.000 S 
ATOM     33  C   UNL     1     -14.122  57.098  52.365  0.00  0.00    +0.000 A 
ATOM     34  C   UNL     1     -15.255  59.107  52.644  0.00  0.00    +0.000 A 
ATOM     35  C   UNL     1     -14.931  57.899  53.220  0.00  0.00    +0.000 A 
ENDBRANCH  30  31
ENDBRANCH  28  30
ENDBRANCH   5  28
TORSDOF 5
ENDMDL
MODEL 8
REMARK VINA RESULT:      -8.0      4.539      7.372
REMARK  Name = 
REMARK  5 active torsions:
REMARK  status: ('A' for Active; 'I' for Inactive)
REMARK    1  A    between atoms: C_6  and  C_10
REMARK    2  A    between atoms: C_14  and  O_18
REMARK    3  A    between atoms: N_17  and  N_20
REMARK    4  A    between atoms: N_20  and  C_23
REMARK    5  A    between atoms: C_23  and  C_26
REMARK                            x       y       z     vdW  Elec       q    Type
REMARK                         _______ _______ _______ _____ _____    ______ ____
ROOT
ATOM      1  C   UNL     1     -11.281  54.710  48.351  0.00  0.00    +0.000 A 
ATOM      2  C   UNL     1     -11.103  54.212  49.747  0.00  0.00    +0.000 A 
ATOM      3  C   UNL     1     -12.138  55.713  48.091  0.00  0.00    +0.000 A 
ATOM      4  O   UNL     1     -10.313  53.278  49.920  0.00  0.00    +0.000 OA
ATOM      5  N   UNL     1     -11.815  54.843  50.770  0.00  0.00    +0.000 N 
ATOM      6  C   UNL     1     -12.884  56.360  49.180  0.00  0.00    +0.000 A 
ATOM      7  C   UNL     1     -12.718  55.915  50.504  0.00  0.00    +0.000 A 
ATOM      8  C   UNL     1     -13.756  57.431  48.915  0.00  0.00    +0.000 A 
ATOM      9  C   UNL     1     -13.438  56.546  51.532  0.00  0.00    +0.000 A 
ATOM     10  C   UNL     1     -14.452  58.059  49.947  0.00  0.00    +0.000 A 
ATOM     11  C   UNL     1     -14.294  57.615  51.254  0.00  0.00    +0.000 A 
ENDROOT
BRANCH   1  17
ATOM     12  S   UNL     1      -8.196  53.932  46.045  0.00  0.00    +0.000 S 
ATOM     13  O   UNL     1      -7.262  53.017  46.665  0.00  0.00    +0.000 OA
ATOM     14  O   UNL     1      -7.712  55.083  45.304  0.00  0.00    +0.000 OA
ATOM     15  N   UNL     1      -9.189  54.474  47.207  0.00  0.00    +0.000 N 
ATOM     16  C   UNL     1      -9.136  52.984  44.909  0.00  0.00    +0.000 A 
ATOM     17  C   UNL     1     -10.434  54.102  47.251  0.00  0.00    +0.000 C 
ATOM     18  C   UNL     1     -10.466  52.743  45.209  0.00  0.00    +0.000 A 
ATOM     19  C   UNL     1      -8.543  52.512  43.737  0.00  0.00    +0.000 A 
ATOM     20  N   UNL     1     -11.040  53.212  46.389  0.00  0.00    +0.000 N 
ATOM     21  C   UNL     1     -11.206  51.937  44.339  0.00  0.00    +0.000 A 
ATOM     22  C   UNL     1      -9.302  51.743  42.858  0.00  0.00    +0.000 A 
ATOM     23  C   UNL     1     -10.629  51.445  43.163  0.00  0.00    +0.000 A 
ATOM     24  H   UNL     1      -8.844  55.095  47.888  0.00  0.00    +0.000 HD
ATOM     25  H   UNL     1     -11.940  52.886  46.622  0.00  0.00    +0.000 HD
ENDBRANCH   1  17
BRANCH   3  26
ATOM     26  O   UNL     1     -12.369  56.235  46.831  0.00  0.00    +0.000 OA
ATOM     27  H   UNL     1     -12.256  57.152  46.675  0.00  0.00    +0.000 HD
ENDBRANCH   3  26
BRANCH   5  28
ATOM     28  N   UNL     1     -11.740  54.351  52.120  0.00  0.00    +0.000 N 
ATOM     29  H   UNL     1     -12.436  53.776  52.512  0.00  0.00    +0.000 HD
BRANCH  28  30
ATOM     30  C   UNL     1     -10.548  54.772  52.868  0.00  0.00    +0.000 C 
BRANCH  30  31
ATOM     31  C   UNL     1      -9.798  53.577  53.381  0.00  0.00    +0.000 A 
ATOM     32  S   UNL     1      -8.084  53.532  53.285  0.00  0.00    +0.000 S 
ATOM     33  C   UNL     1     -10.300  52.444  53.993  0.00  0.00    +0.000 A 
ATOM     34  C   UNL     1      -8.018  52.016  54.070  0.00  0.00    +0.000 A 
ATOM     35  C   UNL     1      -9.271  51.546  54.394  0.00  0.00    +0.000 A 
ENDBRANCH  30  31
ENDBRANCH  28  30
ENDBRANCH   5  28
TORSDOF 5
ENDMDL
MODEL 9
REMARK VINA RESULT:      -8.0      3.479      4.925
REMARK  Name = 
REMARK  5 active torsions:
REMARK  status: ('A' for Active; 'I' for Inactive)
REMARK    1  A    between atoms: C_6  and  C_10
REMARK    2  A    between atoms: C_14  and  O_18
REMARK    3  A    between atoms: N_17  and  N_20
REMARK    4  A    between atoms: N_20  and  C_23
REMARK    5  A    between atoms: C_23  and  C_26
REMARK                            x       y       z     vdW  Elec       q    Type
REMARK                         _______ _______ _______ _____ _____    ______ ____
ROOT
ATOM      1  C   UNL     1     -10.776  55.699  48.610  0.00  0.00    +0.000 A 
ATOM      2  C   UNL     1      -9.415  55.481  49.182  0.00  0.00    +0.000 A 
ATOM      3  C   UNL     1     -11.080  55.240  47.383  0.00  0.00    +0.000 A 
ATOM      4  O   UNL     1      -9.191  55.940  50.307  0.00  0.00    +0.000 OA
ATOM      5  N   UNL     1      -8.489  54.756  48.428  0.00  0.00    +0.000 N 
ATOM      6  C   UNL     1     -10.091  54.485  46.602  0.00  0.00    +0.000 A 
ATOM      7  C   UNL     1      -8.807  54.256  47.130  0.00  0.00    +0.000 A 
ATOM      8  C   UNL     1     -10.416  53.975  45.332  0.00  0.00    +0.000 A 
ATOM      9  C   UNL     1      -7.874  53.531  46.369  0.00  0.00    +0.000 A 
ATOM     10  C   UNL     1      -9.486  53.242  44.595  0.00  0.00    +0.000 A 
ATOM     11  C   UNL     1      -8.216  53.023  45.113  0.00  0.00    +0.000 A 
ENDROOT
BRANCH   1  17
ATOM     12  S   UNL     1     -13.447  56.327  51.423  0.00  0.00    +0.000 S 
ATOM     13  O   UNL     1     -12.841  56.623  52.703  0.00  0.00    +0.000 OA
ATOM     14  O   UNL     1     -14.601  55.449  51.344  0.00  0.00    +0.000 OA
ATOM     15  N   UNL     1     -12.291  55.712  50.467  0.00  0.00    +0.000 N 
ATOM     16  C   UNL     1     -13.963  57.863  50.752  0.00  0.00    +0.000 A 
ATOM     17  C   UNL     1     -11.819  56.392  49.465  0.00  0.00    +0.000 C 
ATOM     18  C   UNL     1     -13.273  58.358  49.659  0.00  0.00    +0.000 A 
ATOM     19  C   UNL     1     -15.047  58.540  51.314  0.00  0.00    +0.000 A 
ATOM     20  N   UNL     1     -12.185  57.676  49.118  0.00  0.00    +0.000 N 
ATOM     21  C   UNL     1     -13.638  59.611  49.157  0.00  0.00    +0.000 A 
ATOM     22  C   UNL     1     -15.426  59.769  50.780  0.00  0.00    +0.000 A 
ATOM     23  C   UNL     1     -14.716  60.311  49.710  0.00  0.00    +0.000 A 
ATOM     24  H   UNL     1     -11.942  54.809  50.648  0.00  0.00    +0.000 HD
ATOM     25  H   UNL     1     -11.642  58.142  48.441  0.00  0.00    +0.000 HD
ENDBRANCH   1  17
BRANCH   3  26
ATOM     26  O   UNL     1     -12.312  55.398  46.774  0.00  0.00    +0.000 OA
ATOM     27  H   UNL     1     -12.518  56.199  46.333  0.00  0.00    +0.000 HD
ENDBRANCH   3  26
BRANCH   5  28
ATOM     28  N   UNL     1      -7.140  54.586  48.898  0.00  0.00    +0.000 N 
ATOM     29  H   UNL     1      -6.409  55.189  48.633  0.00  0.00    +0.000 HD
BRANCH  28  30
ATOM     30  C   UNL     1      -6.937  53.447  49.802  0.00  0.00    +0.000 C 
BRANCH  30  31
ATOM     31  C   UNL     1      -6.013  53.820  50.924  0.00  0.00    +0.000 A 
ATOM     32  S   UNL     1      -6.654  54.304  52.441  0.00  0.00    +0.000 S 
ATOM     33  C   UNL     1      -4.631  53.801  50.942  0.00  0.00    +0.000 A 
ATOM     34  C   UNL     1      -5.094  54.471  53.118  0.00  0.00    +0.000 A 
ATOM     35  C   UNL     1      -4.102  54.174  52.210  0.00  0.00    +0.000 A 
ENDBRANCH  30  31
ENDBRANCH  28  30
ENDBRANCH   5  28
TORSDOF 5
ENDMDL
