MODEL 1
REMARK VINA RESULT:      -8.4      0.000      0.000
REMARK  Name = 
REMARK  5 active torsions:
REMARK  status: ('A' for Active; 'I' for Inactive)
REMARK    1  A    between atoms: C_6  and  C_10
REMARK    2  A    between atoms: C_14  and  O_18
REMARK    3  A    between atoms: N_17  and  N_20
REMARK    4  A    between atoms: N_20  and  C_23
REMARK    5  A    between atoms: C_23  and  C_26
REMARK                            x       y       z     vdW  Elec       q    Type
REMARK                         _______ _______ _______ _____ _____    ______ ____
ROOT
ATOM      1  C   UNL     1     -10.116  54.558  52.170  0.00  0.00    +0.000 A 
ATOM      2  C   UNL     1      -8.754  55.130  51.962  0.00  0.00    +0.000 A 
ATOM      3  C   UNL     1     -10.286  53.457  52.921  0.00  0.00    +0.000 A 
ATOM      4  O   UNL     1      -8.671  56.142  51.257  0.00  0.00    +0.000 OA
ATOM      5  N   UNL     1      -7.672  54.515  52.598  0.00  0.00    +0.000 N 
ATOM      6  C   UNL     1      -9.137  52.818  53.577  0.00  0.00    +0.000 A 
ATOM      7  C   UNL     1      -7.845  53.349  53.405  0.00  0.00    +0.000 A 
ATOM      8  C   UNL     1      -9.321  51.694  54.400  0.00  0.00    +0.000 A 
ATOM      9  C   UNL     1      -6.764  52.727  54.050  0.00  0.00    +0.000 A 
ATOM     10  C   UNL     1      -8.245  51.104  55.057  0.00  0.00    +0.000 A 
ATOM     11  C   UNL     1      -6.965  51.618  54.878  0.00  0.00    +0.000 A 
ENDROOT
BRANCH   1  17
ATOM     12  S   UNL     1     -12.599  56.055  49.525  0.00  0.00    +0.000 S 
ATOM     13  O   UNL     1     -13.504  55.044  49.007  0.00  0.00    +0.000 OA
ATOM     14  O   UNL     1     -12.015  57.039  48.639  0.00  0.00    +0.000 OA
ATOM     15  N   UNL     1     -11.392  55.285  50.281  0.00  0.00    +0.000 N 
ATOM     16  C   UNL     1     -13.510  56.957  50.724  0.00  0.00    +0.000 A 
ATOM     17  C   UNL     1     -11.307  55.282  51.577  0.00  0.00    +0.000 C 
ATOM     18  C   UNL     1     -13.189  56.769  52.057  0.00  0.00    +0.000 A 
ATOM     19  C   UNL     1     -14.516  57.839  50.318  0.00  0.00    +0.000 A 
ATOM     20  N   UNL     1     -12.196  55.875  52.448  0.00  0.00    +0.000 N 
ATOM     21  C   UNL     1     -13.951  57.440  53.022  0.00  0.00    +0.000 A 
ATOM     22  C   UNL     1     -15.242  58.525  51.286  0.00  0.00    +0.000 A 
ATOM     23  C   UNL     1     -14.967  58.320  52.638  0.00  0.00    +0.000 A 
ATOM     24  H   UNL     1     -10.712  54.811  49.750  0.00  0.00    +0.000 HD
ATOM     25  H   UNL     1     -12.126  55.652  53.404  0.00  0.00    +0.000 HD
ENDBRANCH   1  17
BRANCH   3  26
ATOM     26  O   UNL     1     -11.511  52.868  53.176  0.00  0.00    +0.000 OA
ATOM     27  H   UNL     1     -11.766  52.676  54.057  0.00  0.00    +0.000 HD
ENDBRANCH   3  26
BRANCH   5  28
ATOM     28  N   UNL     1      -6.328  55.008  52.402  0.00  0.00    +0.000 N 
ATOM     29  H   UNL     1      -5.827  55.481  53.105  0.00  0.00    +0.000 HD
BRANCH  28  30
ATOM     30  C   UNL     1      -5.766  54.744  51.069  0.00  0.00    +0.000 C 
BRANCH  30  31
ATOM     31  C   UNL     1      -4.935  53.510  51.109  0.00  0.00    +0.000 A 
ATOM     32  C   UNL     1      -5.178  52.337  50.416  0.00  0.00    +0.000 A 
ATOM     33  C   UNL     1      -3.708  53.289  51.794  0.00  0.00    +0.000 A 
ATOM     34  O   UNL     1      -4.195  51.430  50.634  0.00  0.00    +0.000 OA
ATOM     35  C   UNL     1      -3.302  52.015  51.473  0.00  0.00    +0.000 A 
ENDBRANCH  30  31
ENDBRANCH  28  30
ENDBRANCH   5  28
TORSDOF 5
ENDMDL
MODEL 2
REMARK VINA RESULT:      -8.3      2.171      2.457
REMARK  Name = 
REMARK  5 active torsions:
REMARK  status: ('A' for Active; 'I' for Inactive)
REMARK    1  A    between atoms: C_6  and  C_10
REMARK    2  A    between atoms: C_14  and  O_18
REMARK    3  A    between atoms: N_17  and  N_20
REMARK    4  A    between atoms: N_20  and  C_23
REMARK    5  A    between atoms: C_23  and  C_26
REMARK                            x       y       z     vdW  Elec       q    Type
REMARK                         _______ _______ _______ _____ _____    ______ ____
ROOT
ATOM      1  C   UNL     1     -11.138  54.665  50.940  0.00  0.00    +0.000 A 
ATOM      2  C   UNL     1      -9.736  55.082  50.652  0.00  0.00    +0.000 A 
ATOM      3  C   UNL     1     -11.407  53.416  51.357  0.00  0.00    +0.000 A 
ATOM      4  O   UNL     1      -9.561  56.244  50.269  0.00  0.00    +0.000 OA
ATOM      5  N   UNL     1      -8.711  54.154  50.863  0.00  0.00    +0.000 N 
ATOM      6  C   UNL     1     -10.320  52.451  51.568  0.00  0.00    +0.000 A 
ATOM      7  C   UNL     1      -8.988  52.827  51.315  0.00  0.00    +0.000 A 
ATOM      8  C   UNL     1     -10.597  51.159  52.048  0.00  0.00    +0.000 A 
ATOM      9  C   UNL     1      -7.965  51.890  51.533  0.00  0.00    +0.000 A 
ATOM     10  C   UNL     1      -9.571  50.250  52.287  0.00  0.00    +0.000 A 
ATOM     11  C   UNL     1      -8.255  50.614  52.026  0.00  0.00    +0.000 A 
ENDROOT
BRANCH   1  17
ATOM     12  S   UNL     1     -13.608  57.283  49.374  0.00  0.00    +0.000 S 
ATOM     13  O   UNL     1     -14.734  56.636  48.725  0.00  0.00    +0.000 OA
ATOM     14  O   UNL     1     -12.965  58.426  48.761  0.00  0.00    +0.000 OA
ATOM     15  N   UNL     1     -12.478  56.152  49.628  0.00  0.00    +0.000 N 
ATOM     16  C   UNL     1     -14.194  57.831  50.935  0.00  0.00    +0.000 A 
ATOM     17  C   UNL     1     -12.242  55.696  50.821  0.00  0.00    +0.000 C 
ATOM     18  C   UNL     1     -13.757  57.160  52.064  0.00  0.00    +0.000 A 
ATOM     19  C   UNL     1     -15.066  58.921  51.009  0.00  0.00    +0.000 A 
ATOM     20  N   UNL     1     -12.902  56.065  51.974  0.00  0.00    +0.000 N 
ATOM     21  C   UNL     1     -14.268  57.554  53.307  0.00  0.00    +0.000 A 
ATOM     22  C   UNL     1     -15.538  59.324  52.255  0.00  0.00    +0.000 A 
ATOM     23  C   UNL     1     -15.147  58.636  53.403  0.00  0.00    +0.000 A 
ATOM     24  H   UNL     1     -11.961  55.804  48.866  0.00  0.00    +0.000 HD
ATOM     25  H   UNL     1     -12.760  55.523  52.783  0.00  0.00    +0.000 HD
ENDBRANCH   1  17
BRANCH   3  26
ATOM     26  O   UNL     1     -12.675  52.950  51.658  0.00  0.00    +0.000 OA
ATOM     27  H   UNL     1     -12.870  52.037  51.578  0.00  0.00    +0.000 HD
ENDBRANCH   3  26
BRANCH   5  28
ATOM     28  N   UNL     1      -7.339  54.495  50.567  0.00  0.00    +0.000 N 
ATOM     29  H   UNL     1      -6.811  54.026  49.881  0.00  0.00    +0.000 HD
BRANCH  28  30
ATOM     30  C   UNL     1      -6.794  55.598  51.372  0.00  0.00    +0.000 C 
BRANCH  30  31
ATOM     31  C   UNL     1      -6.472  55.111  52.741  0.00  0.00    +0.000 A 
ATOM     32  C   UNL     1      -7.162  55.415  53.901  0.00  0.00    +0.000 A 
ATOM     33  C   UNL     1      -5.455  54.202  53.142  0.00  0.00    +0.000 A 
ATOM     34  O   UNL     1      -6.637  54.762  54.965  0.00  0.00    +0.000 OA
ATOM     35  C   UNL     1      -5.599  54.023  54.498  0.00  0.00    +0.000 A 
ENDBRANCH  30  31
ENDBRANCH  28  30
ENDBRANCH   5  28
TORSDOF 5
ENDMDL
MODEL 3
REMARK VINA RESULT:      -8.2      3.221      4.915
REMARK  Name = 
REMARK  5 active torsions:
REMARK  status: ('A' for Active; 'I' for Inactive)
REMARK    1  A    between atoms: C_6  and  C_10
REMARK    2  A    between atoms: C_14  and  O_18
REMARK    3  A    between atoms: N_17  and  N_20
REMARK    4  A    between atoms: N_20  and  C_23
REMARK    5  A    between atoms: C_23  and  C_26
REMARK                            x       y       z     vdW  Elec       q    Type
REMARK                         _______ _______ _______ _____ _____    ______ ____
ROOT
ATOM      1  C   UNL     1     -11.490  56.012  48.818  0.00  0.00    +0.000 A 
ATOM      2  C   UNL     1     -10.441  55.404  49.686  0.00  0.00    +0.000 A 
ATOM      3  C   UNL     1     -11.596  55.659  47.526  0.00  0.00    +0.000 A 
ATOM      4  O   UNL     1     -10.400  55.776  50.864  0.00  0.00    +0.000 OA
ATOM      5  N   UNL     1      -9.601  54.434  49.131  0.00  0.00    +0.000 N 
ATOM      6  C   UNL     1     -10.700  54.643  46.955  0.00  0.00    +0.000 A 
ATOM      7  C   UNL     1      -9.712  54.046  47.761  0.00  0.00    +0.000 A 
ATOM      8  C   UNL     1     -10.841  54.242  45.616  0.00  0.00    +0.000 A 
ATOM      9  C   UNL     1      -8.875  53.071  47.195  0.00  0.00    +0.000 A 
ATOM     10  C   UNL     1     -10.023  53.252  45.077  0.00  0.00    +0.000 A 
ATOM     11  C   UNL     1      -9.037  52.670  45.866  0.00  0.00    +0.000 A 
ENDROOT
BRANCH   1  17
ATOM     12  S   UNL     1     -13.571  59.278  49.457  0.00  0.00    +0.000 S 
ATOM     13  O   UNL     1     -14.706  59.376  48.555  0.00  0.00    +0.000 OA
ATOM     14  O   UNL     1     -12.777  60.448  49.764  0.00  0.00    +0.000 OA
ATOM     15  N   UNL     1     -12.579  58.143  48.867  0.00  0.00    +0.000 N 
ATOM     16  C   UNL     1     -14.211  58.705  50.987  0.00  0.00    +0.000 A 
ATOM     17  C   UNL     1     -12.476  56.980  49.439  0.00  0.00    +0.000 C 
ATOM     18  C   UNL     1     -13.925  57.405  51.363  0.00  0.00    +0.000 A 
ATOM     19  C   UNL     1     -14.975  59.560  51.787  0.00  0.00    +0.000 A 
ATOM     20  N   UNL     1     -13.177  56.559  50.548  0.00  0.00    +0.000 N 
ATOM     21  C   UNL     1     -14.482  56.922  52.554  0.00  0.00    +0.000 A 
ATOM     22  C   UNL     1     -15.494  59.078  52.986  0.00  0.00    +0.000 A 
ATOM     23  C   UNL     1     -15.256  57.757  53.365  0.00  0.00    +0.000 A 
ATOM     24  H   UNL     1     -12.046  58.336  48.062  0.00  0.00    +0.000 HD
ATOM     25  H   UNL     1     -13.148  55.603  50.779  0.00  0.00    +0.000 HD
ENDBRANCH   1  17
BRANCH   3  26
ATOM     26  O   UNL     1     -12.544  56.163  46.654  0.00  0.00    +0.000 OA
ATOM     27  H   UNL     1     -12.497  57.057  46.374  0.00  0.00    +0.000 HD
ENDBRANCH   3  26
BRANCH   5  28
ATOM     28  N   UNL     1      -8.547  53.837  49.918  0.00  0.00    +0.000 N 
ATOM     29  H   UNL     1      -8.638  52.957  50.350  0.00  0.00    +0.000 HD
BRANCH  28  30
ATOM     30  C   UNL     1      -7.326  54.649  50.022  0.00  0.00    +0.000 C 
BRANCH  30  31
ATOM     31  C   UNL     1      -7.045  54.955  51.452  0.00  0.00    +0.000 A 
ATOM     32  C   UNL     1      -7.313  56.147  52.101  0.00  0.00    +0.000 A 
ATOM     33  C   UNL     1      -6.515  54.097  52.455  0.00  0.00    +0.000 A 
ATOM     34  O   UNL     1      -6.984  56.071  53.413  0.00  0.00    +0.000 OA
ATOM     35  C   UNL     1      -6.500  54.820  53.624  0.00  0.00    +0.000 A 
ENDBRANCH  30  31
ENDBRANCH  28  30
ENDBRANCH   5  28
TORSDOF 5
ENDMDL
MODEL 4
REMARK VINA RESULT:      -8.2      4.141      5.279
REMARK  Name = 
REMARK  5 active torsions:
REMARK  status: ('A' for Active; 'I' for Inactive)
REMARK    1  A    between atoms: C_6  and  C_10
REMARK    2  A    between atoms: C_14  and  O_18
REMARK    3  A    between atoms: N_17  and  N_20
REMARK    4  A    between atoms: N_20  and  C_23
REMARK    5  A    between atoms: C_23  and  C_26
REMARK                            x       y       z     vdW  Elec       q    Type
REMARK                         _______ _______ _______ _____ _____    ______ ____
ROOT
ATOM      1  C   UNL     1     -12.284  54.328  49.981  0.00  0.00    +0.000 A 
ATOM      2  C   UNL     1     -11.950  54.061  48.552  0.00  0.00    +0.000 A 
ATOM      3  C   UNL     1     -11.780  53.552  50.955  0.00  0.00    +0.000 A 
ATOM      4  O   UNL     1     -12.450  54.811  47.707  0.00  0.00    +0.000 OA
ATOM      5  N   UNL     1     -11.074  53.011  48.260  0.00  0.00    +0.000 N 
ATOM      6  C   UNL     1     -10.866  52.448  50.632  0.00  0.00    +0.000 A 
ATOM      7  C   UNL     1     -10.527  52.187  49.291  0.00  0.00    +0.000 A 
ATOM      8  C   UNL     1     -10.304  51.666  51.655  0.00  0.00    +0.000 A 
ATOM      9  C   UNL     1      -9.644  51.132  49.008  0.00  0.00    +0.000 A 
ATOM     10  C   UNL     1      -9.407  50.642  51.362  0.00  0.00    +0.000 A 
ATOM     11  C   UNL     1      -9.081  50.373  50.037  0.00  0.00    +0.000 A 
ENDROOT
BRANCH   1  17
ATOM     12  S   UNL     1     -15.308  56.481  51.253  0.00  0.00    +0.000 S 
ATOM     13  O   UNL     1     -15.281  56.644  52.696  0.00  0.00    +0.000 OA
ATOM     14  O   UNL     1     -16.557  56.230  50.568  0.00  0.00    +0.000 OA
ATOM     15  N   UNL     1     -14.285  55.284  50.880  0.00  0.00    +0.000 N 
ATOM     16  C   UNL     1     -14.674  57.973  50.582  0.00  0.00    +0.000 A 
ATOM     17  C   UNL     1     -13.142  55.531  50.314  0.00  0.00    +0.000 C 
ATOM     18  C   UNL     1     -13.413  57.943  50.013  0.00  0.00    +0.000 A 
ATOM     19  C   UNL     1     -15.443  59.140  50.624  0.00  0.00    +0.000 A 
ATOM     20  N   UNL     1     -12.650  56.778  49.994  0.00  0.00    +0.000 N 
ATOM     21  C   UNL     1     -12.876  59.143  49.530  0.00  0.00    +0.000 A 
ATOM     22  C   UNL     1     -14.911  60.318  50.108  0.00  0.00    +0.000 A 
ATOM     23  C   UNL     1     -13.624  60.322  49.569  0.00  0.00    +0.000 A 
ATOM     24  H   UNL     1     -14.532  54.353  51.086  0.00  0.00    +0.000 HD
ATOM     25  H   UNL     1     -11.703  56.850  49.736  0.00  0.00    +0.000 HD
ENDBRANCH   1  17
BRANCH   3  26
ATOM     26  O   UNL     1     -12.027  53.735  52.304  0.00  0.00    +0.000 OA
ATOM     27  H   UNL     1     -12.906  53.702  52.629  0.00  0.00    +0.000 HD
ENDBRANCH   3  26
BRANCH   5  28
ATOM     28  N   UNL     1     -10.745  52.687  46.891  0.00  0.00    +0.000 N 
ATOM     29  H   UNL     1     -11.169  51.945  46.403  0.00  0.00    +0.000 HD
BRANCH  28  30
ATOM     30  C   UNL     1      -9.726  53.557  46.284  0.00  0.00    +0.000 C 
BRANCH  30  31
ATOM     31  C   UNL     1      -9.559  53.207  44.847  0.00  0.00    +0.000 A 
ATOM     32  C   UNL     1     -10.560  52.804  43.981  0.00  0.00    +0.000 A 
ATOM     33  C   UNL     1      -8.382  53.269  44.050  0.00  0.00    +0.000 A 
ATOM     34  O   UNL     1     -10.074  52.617  42.729  0.00  0.00    +0.000 OA
ATOM     35  C   UNL     1      -8.748  52.903  42.777  0.00  0.00    +0.000 A 
ENDBRANCH  30  31
ENDBRANCH  28  30
ENDBRANCH   5  28
TORSDOF 5
ENDMDL
MODEL 5
REMARK VINA RESULT:      -8.1      3.709      7.351
REMARK  Name = 
REMARK  5 active torsions:
REMARK  status: ('A' for Active; 'I' for Inactive)
REMARK    1  A    between atoms: C_6  and  C_10
REMARK    2  A    between atoms: C_14  and  O_18
REMARK    3  A    between atoms: N_17  and  N_20
REMARK    4  A    between atoms: N_20  and  C_23
REMARK    5  A    between atoms: C_23  and  C_26
REMARK                            x       y       z     vdW  Elec       q    Type
REMARK                         _______ _______ _______ _____ _____    ______ ____
ROOT
ATOM      1  C   UNL     1     -10.305  55.243  50.754  0.00  0.00    +0.000 A 
ATOM      2  C   UNL     1      -9.936  55.123  49.314  0.00  0.00    +0.000 A 
ATOM      3  C   UNL     1     -11.486  55.772  51.114  0.00  0.00    +0.000 A 
ATOM      4  O   UNL     1      -8.832  54.631  49.055  0.00  0.00    +0.000 OA
ATOM      5  N   UNL     1     -10.865  55.536  48.354  0.00  0.00    +0.000 N 
ATOM      6  C   UNL     1     -12.449  56.208  50.093  0.00  0.00    +0.000 A 
ATOM      7  C   UNL     1     -12.128  56.090  48.728  0.00  0.00    +0.000 A 
ATOM      8  C   UNL     1     -13.704  56.718  50.470  0.00  0.00    +0.000 A 
ATOM      9  C   UNL     1     -13.068  56.505  47.771  0.00  0.00    +0.000 A 
ATOM     10  C   UNL     1     -14.638  57.098  49.510  0.00  0.00    +0.000 A 
ATOM     11  C   UNL     1     -14.318  56.996  48.161  0.00  0.00    +0.000 A 
ENDROOT
BRANCH   1  17
ATOM     12  S   UNL     1      -7.065  54.744  52.912  0.00  0.00    +0.000 S 
ATOM     13  O   UNL     1      -6.968  55.735  53.970  0.00  0.00    +0.000 OA
ATOM     14  O   UNL     1      -5.891  54.361  52.158  0.00  0.00    +0.000 OA
ATOM     15  N   UNL     1      -8.185  55.262  51.864  0.00  0.00    +0.000 N 
ATOM     16  C   UNL     1      -7.659  53.278  53.670  0.00  0.00    +0.000 A 
ATOM     17  C   UNL     1      -9.352  54.696  51.796  0.00  0.00    +0.000 C 
ATOM     18  C   UNL     1      -8.961  52.892  53.402  0.00  0.00    +0.000 A 
ATOM     19  C   UNL     1      -6.821  52.534  54.505  0.00  0.00    +0.000 A 
ATOM     20  N   UNL     1      -9.791  53.652  52.582  0.00  0.00    +0.000 N 
ATOM     21  C   UNL     1      -9.462  51.756  54.050  0.00  0.00    +0.000 A 
ATOM     22  C   UNL     1      -7.320  51.387  55.115  0.00  0.00    +0.000 A 
ATOM     23  C   UNL     1      -8.643  51.003  54.896  0.00  0.00    +0.000 A 
ATOM     24  H   UNL     1      -7.978  56.019  51.269  0.00  0.00    +0.000 HD
ATOM     25  H   UNL     1     -10.750  53.429  52.562  0.00  0.00    +0.000 HD
ENDBRANCH   1  17
BRANCH   3  26
ATOM     26  O   UNL     1     -11.913  55.910  52.423  0.00  0.00    +0.000 OA
ATOM     27  H   UNL     1     -11.445  56.468  53.012  0.00  0.00    +0.000 HD
ENDBRANCH   3  26
BRANCH   5  28
ATOM     28  N   UNL     1     -10.545  55.473  46.947  0.00  0.00    +0.000 N 
ATOM     29  H   UNL     1      -9.945  56.118  46.508  0.00  0.00    +0.000 HD
BRANCH  28  30
ATOM     30  C   UNL     1     -11.186  54.366  46.222  0.00  0.00    +0.000 C 
BRANCH  30  31
ATOM     31  C   UNL     1     -10.212  53.751  45.279  0.00  0.00    +0.000 A 
ATOM     32  C   UNL     1      -8.833  53.844  45.352  0.00  0.00    +0.000 A 
ATOM     33  C   UNL     1     -10.469  52.904  44.165  0.00  0.00    +0.000 A 
ATOM     34  O   UNL     1      -8.244  53.121  44.368  0.00  0.00    +0.000 OA
ATOM     35  C   UNL     1      -9.245  52.550  43.650  0.00  0.00    +0.000 A 
ENDBRANCH  30  31
ENDBRANCH  28  30
ENDBRANCH   5  28
TORSDOF 5
ENDMDL
MODEL 6
REMARK VINA RESULT:      -8.1      4.057      5.533
REMARK  Name = 
REMARK  5 active torsions:
REMARK  status: ('A' for Active; 'I' for Inactive)
REMARK    1  A    between atoms: C_6  and  C_10
REMARK    2  A    between atoms: C_14  and  O_18
REMARK    3  A    between atoms: N_17  and  N_20
REMARK    4  A    between atoms: N_20  and  C_23
REMARK    5  A    between atoms: C_23  and  C_26
REMARK                            x       y       z     vdW  Elec       q    Type
REMARK                         _______ _______ _______ _____ _____    ______ ____
ROOT
ATOM      1  C   UNL     1     -10.332  54.910  47.758  0.00  0.00    +0.000 A 
ATOM      2  C   UNL     1      -8.843  55.000  47.760  0.00  0.00    +0.000 A 
ATOM      3  C   UNL     1     -10.982  54.380  46.708  0.00  0.00    +0.000 A 
ATOM      4  O   UNL     1      -8.311  55.501  48.756  0.00  0.00    +0.000 OA
ATOM      5  N   UNL     1      -8.146  54.486  46.662  0.00  0.00    +0.000 N 
ATOM      6  C   UNL     1     -10.234  53.850  45.559  0.00  0.00    +0.000 A 
ATOM      7  C   UNL     1      -8.828  53.913  45.546  0.00  0.00    +0.000 A 
ATOM      8  C   UNL     1     -10.913  53.255  44.482  0.00  0.00    +0.000 A 
ATOM      9  C   UNL     1      -8.136  53.391  44.441  0.00  0.00    +0.000 A 
ATOM     10  C   UNL     1     -10.213  52.715  43.406  0.00  0.00    +0.000 A 
ATOM     11  C   UNL     1      -8.824  52.788  43.384  0.00  0.00    +0.000 A 
ENDROOT
BRANCH   1  17
ATOM     12  S   UNL     1     -11.769  54.964  51.409  0.00  0.00    +0.000 S 
ATOM     13  O   UNL     1     -10.789  55.450  52.364  0.00  0.00    +0.000 OA
ATOM     14  O   UNL     1     -12.619  53.840  51.739  0.00  0.00    +0.000 OA
ATOM     15  N   UNL     1     -10.980  54.608  50.042  0.00  0.00    +0.000 N 
ATOM     16  C   UNL     1     -12.845  56.312  51.086  0.00  0.00    +0.000 A 
ATOM     17  C   UNL     1     -11.089  55.362  48.989  0.00  0.00    +0.000 C 
ATOM     18  C   UNL     1     -12.756  56.930  49.852  0.00  0.00    +0.000 A 
ATOM     19  C   UNL     1     -13.762  56.722  52.059  0.00  0.00    +0.000 A 
ATOM     20  N   UNL     1     -11.826  56.523  48.899  0.00  0.00    +0.000 N 
ATOM     21  C   UNL     1     -13.570  58.045  49.609  0.00  0.00    +0.000 A 
ATOM     22  C   UNL     1     -14.589  57.808  51.791  0.00  0.00    +0.000 A 
ATOM     23  C   UNL     1     -14.487  58.476  50.571  0.00  0.00    +0.000 A 
ATOM     24  H   UNL     1     -10.407  53.808  50.007  0.00  0.00    +0.000 HD
ATOM     25  H   UNL     1     -11.688  57.099  48.113  0.00  0.00    +0.000 HD
ENDBRANCH   1  17
BRANCH   3  26
ATOM     26  O   UNL     1     -12.356  54.247  46.628  0.00  0.00    +0.000 OA
ATOM     27  H   UNL     1     -12.855  54.054  47.397  0.00  0.00    +0.000 HD
ENDBRANCH   3  26
BRANCH   5  28
ATOM     28  N   UNL     1      -6.705  54.579  46.598  0.00  0.00    +0.000 N 
ATOM     29  H   UNL     1      -6.238  55.374  46.252  0.00  0.00    +0.000 HD
BRANCH  28  30
ATOM     30  C   UNL     1      -5.992  53.392  47.092  0.00  0.00    +0.000 C 
BRANCH  30  31
ATOM     31  C   UNL     1      -5.673  53.562  48.536  0.00  0.00    +0.000 A 
ATOM     32  C   UNL     1      -6.118  52.760  49.572  0.00  0.00    +0.000 A 
ATOM     33  C   UNL     1      -4.815  54.518  49.149  0.00  0.00    +0.000 A 
ATOM     34  O   UNL     1      -5.596  53.161  50.757  0.00  0.00    +0.000 OA
ATOM     35  C   UNL     1      -4.802  54.230  50.493  0.00  0.00    +0.000 A 
ENDBRANCH  30  31
ENDBRANCH  28  30
ENDBRANCH   5  28
TORSDOF 5
ENDMDL
MODEL 7
REMARK VINA RESULT:      -8.1      3.572      5.062
REMARK  Name = 
REMARK  5 active torsions:
REMARK  status: ('A' for Active; 'I' for Inactive)
REMARK    1  A    between atoms: C_6  and  C_10
REMARK    2  A    between atoms: C_14  and  O_18
REMARK    3  A    between atoms: N_17  and  N_20
REMARK    4  A    between atoms: N_20  and  C_23
REMARK    5  A    between atoms: C_23  and  C_26
REMARK                            x       y       z     vdW  Elec       q    Type
REMARK                         _______ _______ _______ _____ _____    ______ ____
ROOT
ATOM      1  C   UNL     1     -10.595  55.727  48.295  0.00  0.00    +0.000 A 
ATOM      2  C   UNL     1      -9.144  55.818  48.628  0.00  0.00    +0.000 A 
ATOM      3  C   UNL     1     -11.002  55.088  47.186  0.00  0.00    +0.000 A 
ATOM      4  O   UNL     1      -8.841  56.424  49.662  0.00  0.00    +0.000 OA
ATOM      5  N   UNL     1      -8.228  55.190  47.780  0.00  0.00    +0.000 N 
ATOM      6  C   UNL     1     -10.026  54.438  46.300  0.00  0.00    +0.000 A 
ATOM      7  C   UNL     1      -8.653  54.499  46.603  0.00  0.00    +0.000 A 
ATOM      8  C   UNL     1     -10.455  53.730  45.165  0.00  0.00    +0.000 A 
ATOM      9  C   UNL     1      -7.740  53.862  45.747  0.00  0.00    +0.000 A 
ATOM     10  C   UNL     1      -9.542  53.078  44.340  0.00  0.00    +0.000 A 
ATOM     11  C   UNL     1      -8.184  53.149  44.630  0.00  0.00    +0.000 A 
ENDROOT
BRANCH   1  17
ATOM     12  S   UNL     1     -13.107  56.013  51.297  0.00  0.00    +0.000 S 
ATOM     13  O   UNL     1     -12.416  56.230  52.556  0.00  0.00    +0.000 OA
ATOM     14  O   UNL     1     -14.234  55.109  51.228  0.00  0.00    +0.000 OA
ATOM     15  N   UNL     1     -12.006  55.521  50.217  0.00  0.00    +0.000 N 
ATOM     16  C   UNL     1     -13.707  57.583  50.793  0.00  0.00    +0.000 A 
ATOM     17  C   UNL     1     -11.601  56.309  49.266  0.00  0.00    +0.000 C 
ATOM     18  C   UNL     1     -13.089  58.198  49.718  0.00  0.00    +0.000 A 
ATOM     19  C   UNL     1     -14.784  58.167  51.465  0.00  0.00    +0.000 A 
ATOM     20  N   UNL     1     -12.006  57.611  49.068  0.00  0.00    +0.000 N 
ATOM     21  C   UNL     1     -13.523  59.477  49.348  0.00  0.00    +0.000 A 
ATOM     22  C   UNL     1     -15.229  59.424  51.064  0.00  0.00    +0.000 A 
ATOM     23  C   UNL     1     -14.593  60.082  50.012  0.00  0.00    +0.000 A 
ATOM     24  H   UNL     1     -11.636  54.611  50.282  0.00  0.00    +0.000 HD
ATOM     25  H   UNL     1     -11.498  58.162  48.429  0.00  0.00    +0.000 HD
ENDBRANCH   1  17
BRANCH   3  26
ATOM     26  O   UNL     1     -12.325  54.946  46.808  0.00  0.00    +0.000 OA
ATOM     27  H   UNL     1     -12.540  54.745  45.918  0.00  0.00    +0.000 HD
ENDBRANCH   3  26
BRANCH   5  28
ATOM     28  N   UNL     1      -6.809  55.276  48.037  0.00  0.00    +0.000 N 
ATOM     29  H   UNL     1      -6.290  56.099  47.887  0.00  0.00    +0.000 HD
BRANCH  28  30
ATOM     30  C   UNL     1      -6.202  54.036  48.543  0.00  0.00    +0.000 C 
BRANCH  30  31
ATOM     31  C   UNL     1      -6.364  53.964  50.021  0.00  0.00    +0.000 A 
ATOM     32  C   UNL     1      -7.323  53.236  50.704  0.00  0.00    +0.000 A 
ATOM     33  C   UNL     1      -5.557  54.555  51.033  0.00  0.00    +0.000 A 
ATOM     34  O   UNL     1      -7.155  53.346  52.044  0.00  0.00    +0.000 OA
ATOM     35  C   UNL     1      -6.078  54.149  52.239  0.00  0.00    +0.000 A 
ENDBRANCH  30  31
ENDBRANCH  28  30
ENDBRANCH   5  28
TORSDOF 5
ENDMDL
MODEL 8
REMARK VINA RESULT:      -8.1      2.981      8.305
REMARK  Name = 
REMARK  5 active torsions:
REMARK  status: ('A' for Active; 'I' for Inactive)
REMARK    1  A    between atoms: C_6  and  C_10
REMARK    2  A    between atoms: C_14  and  O_18
REMARK    3  A    between atoms: N_17  and  N_20
REMARK    4  A    between atoms: N_20  and  C_23
REMARK    5  A    between atoms: C_23  and  C_26
REMARK                            x       y       z     vdW  Elec       q    Type
REMARK                         _______ _______ _______ _____ _____    ______ ____
ROOT
ATOM      1  C   UNL     1      -9.899  54.360  50.646  0.00  0.00    +0.000 A 
ATOM      2  C   UNL     1     -11.205  55.031  50.908  0.00  0.00    +0.000 A 
ATOM      3  C   UNL     1      -9.510  54.091  49.389  0.00  0.00    +0.000 A 
ATOM      4  O   UNL     1     -11.501  55.245  52.089  0.00  0.00    +0.000 OA
ATOM      5  N   UNL     1     -11.990  55.404  49.814  0.00  0.00    +0.000 N 
ATOM      6  C   UNL     1     -10.351  54.483  48.249  0.00  0.00    +0.000 A 
ATOM      7  C   UNL     1     -11.580  55.130  48.473  0.00  0.00    +0.000 A 
ATOM      8  C   UNL     1      -9.922  54.243  46.933  0.00  0.00    +0.000 A 
ATOM      9  C   UNL     1     -12.362  55.504  47.367  0.00  0.00    +0.000 A 
ATOM     10  C   UNL     1     -10.693  54.645  45.845  0.00  0.00    +0.000 A 
ATOM     11  C   UNL     1     -11.915  55.272  46.063  0.00  0.00    +0.000 A 
ENDROOT
BRANCH   1  17
ATOM     12  S   UNL     1      -6.867  54.546  53.132  0.00  0.00    +0.000 S 
ATOM     13  O   UNL     1      -7.028  55.621  54.095  0.00  0.00    +0.000 OA
ATOM     14  O   UNL     1      -5.577  54.291  52.528  0.00  0.00    +0.000 OA
ATOM     15  N   UNL     1      -7.934  54.798  51.940  0.00  0.00    +0.000 N 
ATOM     16  C   UNL     1      -7.317  53.070  53.968  0.00  0.00    +0.000 A 
ATOM     17  C   UNL     1      -8.992  54.053  51.820  0.00  0.00    +0.000 C 
ATOM     18  C   UNL     1      -8.512  52.467  53.619  0.00  0.00    +0.000 A 
ATOM     19  C   UNL     1      -6.470  52.536  54.944  0.00  0.00    +0.000 A 
ATOM     20  N   UNL     1      -9.353  53.020  52.657  0.00  0.00    +0.000 N 
ATOM     21  C   UNL     1      -8.906  51.322  54.324  0.00  0.00    +0.000 A 
ATOM     22  C   UNL     1      -6.858  51.378  55.612  0.00  0.00    +0.000 A 
ATOM     23  C   UNL     1      -8.079  50.776  55.309  0.00  0.00    +0.000 A 
ATOM     24  H   UNL     1      -7.779  55.526  51.297  0.00  0.00    +0.000 HD
ATOM     25  H   UNL     1     -10.261  52.650  52.571  0.00  0.00    +0.000 HD
ENDBRANCH   1  17
BRANCH   3  26
ATOM     26  O   UNL     1      -8.313  53.484  49.055  0.00  0.00    +0.000 OA
ATOM     27  H   UNL     1      -7.503  53.847  49.356  0.00  0.00    +0.000 HD
ENDBRANCH   3  26
BRANCH   5  28
ATOM     28  N   UNL     1     -13.279  56.026  50.012  0.00  0.00    +0.000 N 
ATOM     29  H   UNL     1     -14.114  55.509  50.082  0.00  0.00    +0.000 HD
BRANCH  28  30
ATOM     30  C   UNL     1     -13.245  57.493  50.103  0.00  0.00    +0.000 C 
BRANCH  30  31
ATOM     31  C   UNL     1     -14.019  57.942  51.292  0.00  0.00    +0.000 A 
ATOM     32  C   UNL     1     -14.560  59.200  51.489  0.00  0.00    +0.000 A 
ATOM     33  C   UNL     1     -14.419  57.184  52.428  0.00  0.00    +0.000 A 
ATOM     34  O   UNL     1     -15.251  59.256  52.654  0.00  0.00    +0.000 OA
ATOM     35  C   UNL     1     -15.163  58.026  53.221  0.00  0.00    +0.000 A 
ENDBRANCH  30  31
ENDBRANCH  28  30
ENDBRANCH   5  28
TORSDOF 5
ENDMDL
MODEL 9
REMARK VINA RESULT:      -8.0      3.946      7.477
REMARK  Name = 
REMARK  5 active torsions:
REMARK  status: ('A' for Active; 'I' for Inactive)
REMARK    1  A    between atoms: C_6  and  C_10
REMARK    2  A    between atoms: C_14  and  O_18
REMARK    3  A    between atoms: N_17  and  N_20
REMARK    4  A    between atoms: N_20  and  C_23
REMARK    5  A    between atoms: C_23  and  C_26
REMARK                            x       y       z     vdW  Elec       q    Type
REMARK                         _______ _______ _______ _____ _____    ______ ____
ROOT
ATOM      1  C   UNL     1     -10.310  54.871  50.256  0.00  0.00    +0.000 A 
ATOM      2  C   UNL     1     -10.110  54.742  48.784  0.00  0.00    +0.000 A 
ATOM      3  C   UNL     1     -11.354  55.561  50.746  0.00  0.00    +0.000 A 
ATOM      4  O   UNL     1      -9.128  54.096  48.403  0.00  0.00    +0.000 OA
ATOM      5  N   UNL     1     -11.056  55.322  47.933  0.00  0.00    +0.000 N 
ATOM      6  C   UNL     1     -12.335  56.171  49.838  0.00  0.00    +0.000 A 
ATOM      7  C   UNL     1     -12.174  56.049  48.445  0.00  0.00    +0.000 A 
ATOM      8  C   UNL     1     -13.451  56.853  50.351  0.00  0.00    +0.000 A 
ATOM      9  C   UNL     1     -13.130  56.633  47.598  0.00  0.00    +0.000 A 
ATOM     10  C   UNL     1     -14.407  57.402  49.500  0.00  0.00    +0.000 A 
ATOM     11  C   UNL     1     -14.243  57.295  48.123  0.00  0.00    +0.000 A 
ENDROOT
BRANCH   1  17
ATOM     12  S   UNL     1      -8.533  51.980  52.228  0.00  0.00    +0.000 S 
ATOM     13  O   UNL     1      -7.572  51.275  51.397  0.00  0.00    +0.000 OA
ATOM     14  O   UNL     1      -9.394  51.249  53.132  0.00  0.00    +0.000 OA
ATOM     15  N   UNL     1      -9.472  52.859  51.246  0.00  0.00    +0.000 N 
ATOM     16  C   UNL     1      -7.600  53.081  53.225  0.00  0.00    +0.000 A 
ATOM     17  C   UNL     1      -9.353  54.151  51.185  0.00  0.00    +0.000 C 
ATOM     18  C   UNL     1      -7.676  54.434  52.943  0.00  0.00    +0.000 A 
ATOM     19  C   UNL     1      -6.820  52.584  54.273  0.00  0.00    +0.000 A 
ATOM     20  N   UNL     1      -8.444  54.914  51.885  0.00  0.00    +0.000 N 
ATOM     21  C   UNL     1      -6.888  55.313  53.696  0.00  0.00    +0.000 A 
ATOM     22  C   UNL     1      -6.068  53.472  55.037  0.00  0.00    +0.000 A 
ATOM     23  C   UNL     1      -6.095  54.835  54.743  0.00  0.00    +0.000 A 
ATOM     24  H   UNL     1     -10.143  52.408  50.685  0.00  0.00    +0.000 HD
ATOM     25  H   UNL     1      -8.329  55.856  51.622  0.00  0.00    +0.000 HD
ENDBRANCH   1  17
BRANCH   3  26
ATOM     26  O   UNL     1     -11.620  55.720  52.093  0.00  0.00    +0.000 OA
ATOM     27  H   UNL     1     -12.234  56.369  52.377  0.00  0.00    +0.000 HD
ENDBRANCH   3  26
BRANCH   5  28
ATOM     28  N   UNL     1     -10.892  55.256  46.499  0.00  0.00    +0.000 N 
ATOM     29  H   UNL     1     -10.451  55.967  45.981  0.00  0.00    +0.000 HD
BRANCH  28  30
ATOM     30  C   UNL     1     -11.436  54.041  45.875  0.00  0.00    +0.000 C 
BRANCH  30  31
ATOM     31  C   UNL     1     -10.441  53.475  44.924  0.00  0.00    +0.000 A 
ATOM     32  C   UNL     1      -9.071  53.661  44.967  0.00  0.00    +0.000 A 
ATOM     33  C   UNL     1     -10.662  52.592  43.830  0.00  0.00    +0.000 A 
ATOM     34  O   UNL     1      -8.454  52.961  43.984  0.00  0.00    +0.000 OA
ATOM     35  C   UNL     1      -9.427  52.311  43.296  0.00  0.00    +0.000 A 
ENDBRANCH  30  31
ENDBRANCH  28  30
ENDBRANCH   5  28
TORSDOF 5
ENDMDL
