MODEL 1
REMARK VINA RESULT:      -8.2      0.000      0.000
REMARK  Name = 
REMARK  5 active torsions:
REMARK  status: ('A' for Active; 'I' for Inactive)
REMARK    1  A    between atoms: C_6  and  C_10
REMARK    2  A    between atoms: C_14  and  O_18
REMARK    3  A    between atoms: N_17  and  N_20
REMARK    4  A    between atoms: N_20  and  C_23
REMARK    5  A    between atoms: C_23  and  C_26
REMARK                            x       y       z     vdW  Elec       q    Type
REMARK                         _______ _______ _______ _____ _____    ______ ____
ROOT
ATOM      1  C   UNL     1      -9.921  54.168  50.962  0.00  0.00    +0.000 A 
ATOM      2  C   UNL     1     -11.018  55.146  51.284  0.00  0.00    +0.000 A 
ATOM      3  C   UNL     1      -9.738  53.793  49.679  0.00  0.00    +0.000 A 
ATOM      4  O   UNL     1     -11.202  55.490  52.459  0.00  0.00    +0.000 OA
ATOM      5  N   UNL     1     -11.803  55.632  50.232  0.00  0.00    +0.000 N 
ATOM      6  C   UNL     1     -10.523  54.385  48.586  0.00  0.00    +0.000 A 
ATOM      7  C   UNL     1     -11.505  55.340  48.872  0.00  0.00    +0.000 A 
ATOM      8  C   UNL     1     -10.280  54.030  47.248  0.00  0.00    +0.000 A 
ATOM      9  C   UNL     1     -12.174  55.973  47.812  0.00  0.00    +0.000 A 
ATOM     10  C   UNL     1     -10.985  54.629  46.207  0.00  0.00    +0.000 A 
ATOM     11  C   UNL     1     -11.925  55.611  46.489  0.00  0.00    +0.000 A 
ENDROOT
BRANCH   1  17
ATOM     12  S   UNL     1      -6.713  53.439  53.145  0.00  0.00    +0.000 S 
ATOM     13  O   UNL     1      -6.387  54.573  53.984  0.00  0.00    +0.000 OA
ATOM     14  O   UNL     1      -5.659  52.710  52.461  0.00  0.00    +0.000 OA
ATOM     15  N   UNL     1      -7.770  53.926  52.023  0.00  0.00    +0.000 N 
ATOM     16  C   UNL     1      -7.516  52.276  54.177  0.00  0.00    +0.000 A 
ATOM     17  C   UNL     1      -9.032  53.610  52.077  0.00  0.00    +0.000 C 
ATOM     18  C   UNL     1      -8.884  52.111  54.020  0.00  0.00    +0.000 A 
ATOM     19  C   UNL     1      -6.775  51.557  55.121  0.00  0.00    +0.000 A 
ATOM     20  N   UNL     1      -9.597  52.819  53.055  0.00  0.00    +0.000 N 
ATOM     21  C   UNL     1      -9.532  51.212  54.872  0.00  0.00    +0.000 A 
ATOM     22  C   UNL     1      -7.431  50.654  55.947  0.00  0.00    +0.000 A 
ATOM     23  C   UNL     1      -8.811  50.486  55.826  0.00  0.00    +0.000 A 
ATOM     24  H   UNL     1      -7.449  54.480  51.275  0.00  0.00    +0.000 HD
ATOM     25  H   UNL     1     -10.578  52.750  53.072  0.00  0.00    +0.000 HD
ENDBRANCH   1  17
BRANCH   3  26
ATOM     26  O   UNL     1      -8.796  52.871  49.251  0.00  0.00    +0.000 OA
ATOM     27  H   UNL     1      -8.988  52.307  48.528  0.00  0.00    +0.000 HD
ENDBRANCH   3  26
BRANCH   5  28
ATOM     28  N   UNL     1     -12.849  56.568  50.553  0.00  0.00    +0.000 N 
ATOM     29  H   UNL     1     -12.749  57.544  50.478  0.00  0.00    +0.000 HD
BRANCH  28  30
ATOM     30  C   UNL     1     -14.087  55.905  51.007  0.00  0.00    +0.000 C 
BRANCH  30  31
ATOM     31  C   UNL     1     -14.880  56.843  51.916  0.00  0.00    +0.000 C 
ATOM     32  C   UNL     1     -15.221  58.233  51.305  0.00  0.00    +0.000 C 
ATOM     33  C   UNL     1     -14.125  57.634  53.028  0.00  0.00    +0.000 C 
ATOM     34  C   UNL     1     -15.070  58.817  52.724  0.00  0.00    +0.000 C 
ENDBRANCH  30  31
ENDBRANCH  28  30
ENDBRANCH   5  28
TORSDOF 5
ENDMDL
MODEL 2
REMARK VINA RESULT:      -8.0      3.797      8.162
REMARK  Name = 
REMARK  5 active torsions:
REMARK  status: ('A' for Active; 'I' for Inactive)
REMARK    1  A    between atoms: C_6  and  C_10
REMARK    2  A    between atoms: C_14  and  O_18
REMARK    3  A    between atoms: N_17  and  N_20
REMARK    4  A    between atoms: N_20  and  C_23
REMARK    5  A    between atoms: C_23  and  C_26
REMARK                            x       y       z     vdW  Elec       q    Type
REMARK                         _______ _______ _______ _____ _____    ______ ____
ROOT
ATOM      1  C   UNL     1     -12.349  54.173  49.831  0.00  0.00    +0.000 A 
ATOM      2  C   UNL     1     -11.930  53.902  48.412  0.00  0.00    +0.000 A 
ATOM      3  C   UNL     1     -11.992  53.298  50.794  0.00  0.00    +0.000 A 
ATOM      4  O   UNL     1     -12.260  54.692  47.517  0.00  0.00    +0.000 OA
ATOM      5  N   UNL     1     -11.179  52.750  48.150  0.00  0.00    +0.000 N 
ATOM      6  C   UNL     1     -11.132  52.143  50.502  0.00  0.00    +0.000 A 
ATOM      7  C   UNL     1     -10.688  51.917  49.194  0.00  0.00    +0.000 A 
ATOM      8  C   UNL     1     -10.718  51.274  51.527  0.00  0.00    +0.000 A 
ATOM      9  C   UNL     1      -9.784  50.872  48.948  0.00  0.00    +0.000 A 
ATOM     10  C   UNL     1      -9.859  50.209  51.262  0.00  0.00    +0.000 A 
ATOM     11  C   UNL     1      -9.381  50.016  49.972  0.00  0.00    +0.000 A 
ENDROOT
BRANCH   1  17
ATOM     12  S   UNL     1     -15.284  56.437  51.190  0.00  0.00    +0.000 S 
ATOM     13  O   UNL     1     -15.216  56.565  52.630  0.00  0.00    +0.000 OA
ATOM     14  O   UNL     1     -16.564  56.239  50.534  0.00  0.00    +0.000 OA
ATOM     15  N   UNL     1     -14.319  55.218  50.744  0.00  0.00    +0.000 N 
ATOM     16  C   UNL     1     -14.625  57.918  50.532  0.00  0.00    +0.000 A 
ATOM     17  C   UNL     1     -13.168  55.421  50.169  0.00  0.00    +0.000 C 
ATOM     18  C   UNL     1     -13.368  57.861  49.947  0.00  0.00    +0.000 A 
ATOM     19  C   UNL     1     -15.364  59.103  50.613  0.00  0.00    +0.000 A 
ATOM     20  N   UNL     1     -12.662  56.664  49.854  0.00  0.00    +0.000 N 
ATOM     21  C   UNL     1     -12.825  59.052  49.458  0.00  0.00    +0.000 A 
ATOM     22  C   UNL     1     -14.818  60.274  50.104  0.00  0.00    +0.000 A 
ATOM     23  C   UNL     1     -13.545  60.249  49.532  0.00  0.00    +0.000 A 
ATOM     24  H   UNL     1     -14.611  54.293  50.913  0.00  0.00    +0.000 HD
ATOM     25  H   UNL     1     -11.731  56.709  49.540  0.00  0.00    +0.000 HD
ENDBRANCH   1  17
BRANCH   3  26
ATOM     26  O   UNL     1     -12.347  53.404  52.130  0.00  0.00    +0.000 OA
ATOM     27  H   UNL     1     -12.289  54.232  52.565  0.00  0.00    +0.000 HD
ENDBRANCH   3  26
BRANCH   5  28
ATOM     28  N   UNL     1     -10.783  52.503  46.788  0.00  0.00    +0.000 N 
ATOM     29  H   UNL     1     -11.273  51.906  46.177  0.00  0.00    +0.000 HD
BRANCH  28  30
ATOM     30  C   UNL     1      -9.564  53.243  46.406  0.00  0.00    +0.000 C 
BRANCH  30  31
ATOM     31  C   UNL     1      -9.542  53.470  44.895  0.00  0.00    +0.000 C 
ATOM     32  C   UNL     1     -10.790  52.953  44.125  0.00  0.00    +0.000 C 
ATOM     33  C   UNL     1      -8.716  52.498  43.998  0.00  0.00    +0.000 C 
ATOM     34  C   UNL     1      -9.845  52.623  42.953  0.00  0.00    +0.000 C 
ENDBRANCH  30  31
ENDBRANCH  28  30
ENDBRANCH   5  28
TORSDOF 5
ENDMDL
MODEL 3
REMARK VINA RESULT:      -8.0      2.272      2.933
REMARK  Name = 
REMARK  5 active torsions:
REMARK  status: ('A' for Active; 'I' for Inactive)
REMARK    1  A    between atoms: C_6  and  C_10
REMARK    2  A    between atoms: C_14  and  O_18
REMARK    3  A    between atoms: N_17  and  N_20
REMARK    4  A    between atoms: N_20  and  C_23
REMARK    5  A    between atoms: C_23  and  C_26
REMARK                            x       y       z     vdW  Elec       q    Type
REMARK                         _______ _______ _______ _____ _____    ______ ____
ROOT
ATOM      1  C   UNL     1      -9.148  54.382  49.916  0.00  0.00    +0.000 A 
ATOM      2  C   UNL     1     -10.279  55.369  50.020  0.00  0.00    +0.000 A 
ATOM      3  C   UNL     1      -9.040  53.630  48.801  0.00  0.00    +0.000 A 
ATOM      4  O   UNL     1     -10.395  56.058  51.042  0.00  0.00    +0.000 OA
ATOM      5  N   UNL     1     -11.173  55.470  48.947  0.00  0.00    +0.000 N 
ATOM      6  C   UNL     1      -9.944  53.819  47.656  0.00  0.00    +0.000 A 
ATOM      7  C   UNL     1     -10.961  54.777  47.723  0.00  0.00    +0.000 A 
ATOM      8  C   UNL     1      -9.781  53.071  46.477  0.00  0.00    +0.000 A 
ATOM      9  C   UNL     1     -11.749  55.019  46.586  0.00  0.00    +0.000 A 
ATOM     10  C   UNL     1     -10.602  53.285  45.373  0.00  0.00    +0.000 A 
ATOM     11  C   UNL     1     -11.580  54.270  45.423  0.00  0.00    +0.000 A 
ENDROOT
BRANCH   1  17
ATOM     12  S   UNL     1      -7.695  54.139  53.579  0.00  0.00    +0.000 S 
ATOM     13  O   UNL     1      -7.949  52.834  54.152  0.00  0.00    +0.000 OA
ATOM     14  O   UNL     1      -7.862  55.336  54.384  0.00  0.00    +0.000 OA
ATOM     15  N   UNL     1      -8.627  54.306  52.268  0.00  0.00    +0.000 N 
ATOM     16  C   UNL     1      -6.024  54.133  53.059  0.00  0.00    +0.000 A 
ATOM     17  C   UNL     1      -8.143  54.237  51.061  0.00  0.00    +0.000 C 
ATOM     18  C   UNL     1      -5.773  54.072  51.696  0.00  0.00    +0.000 A 
ATOM     19  C   UNL     1      -5.001  54.186  54.011  0.00  0.00    +0.000 A 
ATOM     20  N   UNL     1      -6.810  54.048  50.765  0.00  0.00    +0.000 N 
ATOM     21  C   UNL     1      -4.439  54.027  51.283  0.00  0.00    +0.000 A 
ATOM     22  C   UNL     1      -3.680  54.160  53.582  0.00  0.00    +0.000 A 
ATOM     23  C   UNL     1      -3.400  54.074  52.218  0.00  0.00    +0.000 A 
ATOM     24  H   UNL     1      -9.591  54.465  52.386  0.00  0.00    +0.000 HD
ATOM     25  H   UNL     1      -6.572  53.883  49.824  0.00  0.00    +0.000 HD
ENDBRANCH   1  17
BRANCH   3  26
ATOM     26  O   UNL     1      -8.076  52.657  48.594  0.00  0.00    +0.000 OA
ATOM     27  H   UNL     1      -7.433  52.770  47.922  0.00  0.00    +0.000 HD
ENDBRANCH   3  26
BRANCH   5  28
ATOM     28  N   UNL     1     -12.250  56.419  49.059  0.00  0.00    +0.000 N 
ATOM     29  H   UNL     1     -12.186  57.354  48.756  0.00  0.00    +0.000 HD
BRANCH  28  30
ATOM     30  C   UNL     1     -13.459  55.839  49.675  0.00  0.00    +0.000 C 
BRANCH  30  31
ATOM     31  C   UNL     1     -14.112  56.859  50.608  0.00  0.00    +0.000 C 
ATOM     32  C   UNL     1     -13.754  56.709  52.114  0.00  0.00    +0.000 C 
ATOM     33  C   UNL     1     -15.592  56.643  51.045  0.00  0.00    +0.000 C 
ATOM     34  C   UNL     1     -15.184  57.188  52.431  0.00  0.00    +0.000 C 
ENDBRANCH  30  31
ENDBRANCH  28  30
ENDBRANCH   5  28
TORSDOF 5
ENDMDL
MODEL 4
REMARK VINA RESULT:      -8.0      3.637      7.548
REMARK  Name = 
REMARK  5 active torsions:
REMARK  status: ('A' for Active; 'I' for Inactive)
REMARK    1  A    between atoms: C_6  and  C_10
REMARK    2  A    between atoms: C_14  and  O_18
REMARK    3  A    between atoms: N_17  and  N_20
REMARK    4  A    between atoms: N_20  and  C_23
REMARK    5  A    between atoms: C_23  and  C_26
REMARK                            x       y       z     vdW  Elec       q    Type
REMARK                         _______ _______ _______ _____ _____    ______ ____
ROOT
ATOM      1  C   UNL     1     -10.647  55.642  48.206  0.00  0.00    +0.000 A 
ATOM      2  C   UNL     1      -9.174  55.691  48.508  0.00  0.00    +0.000 A 
ATOM      3  C   UNL     1     -11.059  55.050  47.065  0.00  0.00    +0.000 A 
ATOM      4  O   UNL     1      -8.782  56.239  49.547  0.00  0.00    +0.000 OA
ATOM      5  N   UNL     1      -8.289  55.112  47.591  0.00  0.00    +0.000 N 
ATOM      6  C   UNL     1     -10.113  54.377  46.164  0.00  0.00    +0.000 A 
ATOM      7  C   UNL     1      -8.747  54.367  46.469  0.00  0.00    +0.000 A 
ATOM      8  C   UNL     1     -10.564  53.712  45.010  0.00  0.00    +0.000 A 
ATOM      9  C   UNL     1      -7.870  53.632  45.655  0.00  0.00    +0.000 A 
ATOM     10  C   UNL     1      -9.676  53.028  44.183  0.00  0.00    +0.000 A 
ATOM     11  C   UNL     1      -8.328  52.978  44.513  0.00  0.00    +0.000 A 
ENDROOT
BRANCH   1  17
ATOM     12  S   UNL     1     -13.087  56.017  51.287  0.00  0.00    +0.000 S 
ATOM     13  O   UNL     1     -12.348  56.259  52.508  0.00  0.00    +0.000 OA
ATOM     14  O   UNL     1     -14.219  55.107  51.287  0.00  0.00    +0.000 OA
ATOM     15  N   UNL     1     -12.049  55.498  50.161  0.00  0.00    +0.000 N 
ATOM     16  C   UNL     1     -13.712  57.568  50.774  0.00  0.00    +0.000 A 
ATOM     17  C   UNL     1     -11.655  56.257  49.179  0.00  0.00    +0.000 C 
ATOM     18  C   UNL     1     -13.122  58.168  49.671  0.00  0.00    +0.000 A 
ATOM     19  C   UNL     1     -14.769  58.157  51.475  0.00  0.00    +0.000 A 
ATOM     20  N   UNL     1     -12.088  57.550  48.971  0.00  0.00    +0.000 N 
ATOM     21  C   UNL     1     -13.595  59.426  49.285  0.00  0.00    +0.000 A 
ATOM     22  C   UNL     1     -15.240  59.399  51.067  0.00  0.00    +0.000 A 
ATOM     23  C   UNL     1     -14.648  60.035  49.975  0.00  0.00    +0.000 A 
ATOM     24  H   UNL     1     -11.703  54.578  50.220  0.00  0.00    +0.000 HD
ATOM     25  H   UNL     1     -11.631  58.075  48.276  0.00  0.00    +0.000 HD
ENDBRANCH   1  17
BRANCH   3  26
ATOM     26  O   UNL     1     -12.378  54.975  46.646  0.00  0.00    +0.000 OA
ATOM     27  H   UNL     1     -13.072  55.043  47.270  0.00  0.00    +0.000 HD
ENDBRANCH   3  26
BRANCH   5  28
ATOM     28  N   UNL     1      -6.882  55.164  47.893  0.00  0.00    +0.000 N 
ATOM     29  H   UNL     1      -6.279  55.869  47.564  0.00  0.00    +0.000 HD
BRANCH  28  30
ATOM     30  C   UNL     1      -6.442  54.045  48.749  0.00  0.00    +0.000 C 
BRANCH  30  31
ATOM     31  C   UNL     1      -5.498  54.559  49.836  0.00  0.00    +0.000 C 
ATOM     32  C   UNL     1      -4.418  53.546  50.313  0.00  0.00    +0.000 C 
ATOM     33  C   UNL     1      -5.987  54.576  51.316  0.00  0.00    +0.000 C 
ATOM     34  C   UNL     1      -4.553  54.170  51.717  0.00  0.00    +0.000 C 
ENDBRANCH  30  31
ENDBRANCH  28  30
ENDBRANCH   5  28
TORSDOF 5
ENDMDL
MODEL 5
REMARK VINA RESULT:      -8.0      2.981      7.722
REMARK  Name = 
REMARK  5 active torsions:
REMARK  status: ('A' for Active; 'I' for Inactive)
REMARK    1  A    between atoms: C_6  and  C_10
REMARK    2  A    between atoms: C_14  and  O_18
REMARK    3  A    between atoms: N_17  and  N_20
REMARK    4  A    between atoms: N_20  and  C_23
REMARK    5  A    between atoms: C_23  and  C_26
REMARK                            x       y       z     vdW  Elec       q    Type
REMARK                         _______ _______ _______ _____ _____    ______ ____
ROOT
ATOM      1  C   UNL     1     -11.459  54.092  51.554  0.00  0.00    +0.000 A 
ATOM      2  C   UNL     1     -10.468  54.207  52.679  0.00  0.00    +0.000 A 
ATOM      3  C   UNL     1     -11.551  52.926  50.882  0.00  0.00    +0.000 A 
ATOM      4  O   UNL     1     -10.367  55.276  53.297  0.00  0.00    +0.000 OA
ATOM      5  N   UNL     1      -9.682  53.090  52.988  0.00  0.00    +0.000 N 
ATOM      6  C   UNL     1     -10.772  51.745  51.284  0.00  0.00    +0.000 A 
ATOM      7  C   UNL     1      -9.892  51.827  52.369  0.00  0.00    +0.000 A 
ATOM      8  C   UNL     1     -10.923  50.519  50.614  0.00  0.00    +0.000 A 
ATOM      9  C   UNL     1      -9.234  50.666  52.806  0.00  0.00    +0.000 A 
ATOM     10  C   UNL     1     -10.227  49.385  51.027  0.00  0.00    +0.000 A 
ATOM     11  C   UNL     1      -9.390  49.456  52.133  0.00  0.00    +0.000 A 
ENDROOT
BRANCH   1  17
ATOM     12  S   UNL     1     -13.179  56.910  49.388  0.00  0.00    +0.000 S 
ATOM     13  O   UNL     1     -14.240  56.362  48.571  0.00  0.00    +0.000 OA
ATOM     14  O   UNL     1     -12.270  57.900  48.838  0.00  0.00    +0.000 OA
ATOM     15  N   UNL     1     -12.281  55.685  49.942  0.00  0.00    +0.000 N 
ATOM     16  C   UNL     1     -13.956  57.675  50.757  0.00  0.00    +0.000 A 
ATOM     17  C   UNL     1     -12.344  55.284  51.180  0.00  0.00    +0.000 C 
ATOM     18  C   UNL     1     -13.858  57.044  51.989  0.00  0.00    +0.000 A 
ATOM     19  C   UNL     1     -14.647  58.878  50.581  0.00  0.00    +0.000 A 
ATOM     20  N   UNL     1     -13.141  55.860  52.146  0.00  0.00    +0.000 N 
ATOM     21  C   UNL     1     -14.512  57.634  53.074  0.00  0.00    +0.000 A 
ATOM     22  C   UNL     1     -15.276  59.461  51.674  0.00  0.00    +0.000 A 
ATOM     23  C   UNL     1     -15.213  58.834  52.919  0.00  0.00    +0.000 A 
ATOM     24  H   UNL     1     -11.667  55.227  49.324  0.00  0.00    +0.000 HD
ATOM     25  H   UNL     1     -13.208  55.399  53.013  0.00  0.00    +0.000 HD
ENDBRANCH   1  17
BRANCH   3  26
ATOM     26  O   UNL     1     -12.387  52.699  49.801  0.00  0.00    +0.000 OA
ATOM     27  H   UNL     1     -12.042  52.718  48.930  0.00  0.00    +0.000 HD
ENDBRANCH   3  26
BRANCH   5  28
ATOM     28  N   UNL     1      -8.738  53.213  54.069  0.00  0.00    +0.000 N 
ATOM     29  H   UNL     1      -8.863  52.796  54.951  0.00  0.00    +0.000 HD
BRANCH  28  30
ATOM     30  C   UNL     1      -7.563  54.031  53.709  0.00  0.00    +0.000 C 
BRANCH  30  31
ATOM     31  C   UNL     1      -6.278  53.272  54.036  0.00  0.00    +0.000 C 
ATOM     32  C   UNL     1      -5.659  52.471  52.855  0.00  0.00    +0.000 C 
ATOM     33  C   UNL     1      -6.376  51.904  54.777  0.00  0.00    +0.000 C 
ATOM     34  C   UNL     1      -5.203  51.427  53.894  0.00  0.00    +0.000 C 
ENDBRANCH  30  31
ENDBRANCH  28  30
ENDBRANCH   5  28
TORSDOF 5
ENDMDL
MODEL 6
REMARK VINA RESULT:      -8.0      3.483      7.169
REMARK  Name = 
REMARK  5 active torsions:
REMARK  status: ('A' for Active; 'I' for Inactive)
REMARK    1  A    between atoms: C_6  and  C_10
REMARK    2  A    between atoms: C_14  and  O_18
REMARK    3  A    between atoms: N_17  and  N_20
REMARK    4  A    between atoms: N_20  and  C_23
REMARK    5  A    between atoms: C_23  and  C_26
REMARK                            x       y       z     vdW  Elec       q    Type
REMARK                         _______ _______ _______ _____ _____    ______ ____
ROOT
ATOM      1  C   UNL     1     -11.650  56.035  48.673  0.00  0.00    +0.000 A 
ATOM      2  C   UNL     1     -10.462  55.458  49.394  0.00  0.00    +0.000 A 
ATOM      3  C   UNL     1     -11.871  55.676  47.391  0.00  0.00    +0.000 A 
ATOM      4  O   UNL     1     -10.242  55.787  50.567  0.00  0.00    +0.000 OA
ATOM      5  N   UNL     1      -9.636  54.564  48.702  0.00  0.00    +0.000 N 
ATOM      6  C   UNL     1     -11.035  54.671  46.719  0.00  0.00    +0.000 A 
ATOM      7  C   UNL     1      -9.964  54.085  47.403  0.00  0.00    +0.000 A 
ATOM      8  C   UNL     1     -11.314  54.262  45.403  0.00  0.00    +0.000 A 
ATOM      9  C   UNL     1      -9.239  53.053  46.787  0.00  0.00    +0.000 A 
ATOM     10  C   UNL     1     -10.557  53.271  44.784  0.00  0.00    +0.000 A 
ATOM     11  C   UNL     1      -9.524  52.657  45.481  0.00  0.00    +0.000 A 
ENDROOT
BRANCH   1  17
ATOM     12  S   UNL     1     -13.642  59.342  49.496  0.00  0.00    +0.000 S 
ATOM     13  O   UNL     1     -14.786  59.490  48.621  0.00  0.00    +0.000 OA
ATOM     14  O   UNL     1     -12.815  60.491  49.819  0.00  0.00    +0.000 OA
ATOM     15  N   UNL     1     -12.673  58.208  48.874  0.00  0.00    +0.000 N 
ATOM     16  C   UNL     1     -14.262  58.748  51.021  0.00  0.00    +0.000 A 
ATOM     17  C   UNL     1     -12.586  57.013  49.386  0.00  0.00    +0.000 C 
ATOM     18  C   UNL     1     -14.013  57.422  51.346  0.00  0.00    +0.000 A 
ATOM     19  C   UNL     1     -14.982  59.605  51.859  0.00  0.00    +0.000 A 
ATOM     20  N   UNL     1     -13.270  56.594  50.507  0.00  0.00    +0.000 N 
ATOM     21  C   UNL     1     -14.543  56.937  52.545  0.00  0.00    +0.000 A 
ATOM     22  C   UNL     1     -15.485  59.112  53.056  0.00  0.00    +0.000 A 
ATOM     23  C   UNL     1     -15.270  57.776  53.396  0.00  0.00    +0.000 A 
ATOM     24  H   UNL     1     -12.130  58.427  48.082  0.00  0.00    +0.000 HD
ATOM     25  H   UNL     1     -13.230  55.637  50.732  0.00  0.00    +0.000 HD
ENDBRANCH   1  17
BRANCH   3  26
ATOM     26  O   UNL     1     -12.899  56.164  46.599  0.00  0.00    +0.000 OA
ATOM     27  H   UNL     1     -13.613  55.605  46.362  0.00  0.00    +0.000 HD
ENDBRANCH   3  26
BRANCH   5  28
ATOM     28  N   UNL     1      -8.503  54.018  49.405  0.00  0.00    +0.000 N 
ATOM     29  H   UNL     1      -8.544  53.203  49.955  0.00  0.00    +0.000 HD
BRANCH  28  30
ATOM     30  C   UNL     1      -7.275  54.813  49.209  0.00  0.00    +0.000 C 
BRANCH  30  31
ATOM     31  C   UNL     1      -6.733  55.278  50.560  0.00  0.00    +0.000 C 
ATOM     32  C   UNL     1      -7.318  54.546  51.801  0.00  0.00    +0.000 C 
ATOM     33  C   UNL     1      -7.302  56.585  51.192  0.00  0.00    +0.000 C 
ATOM     34  C   UNL     1      -7.192  55.881  52.562  0.00  0.00    +0.000 C 
ENDBRANCH  30  31
ENDBRANCH  28  30
ENDBRANCH   5  28
TORSDOF 5
ENDMDL
MODEL 7
REMARK VINA RESULT:      -7.8      2.044      2.701
REMARK  Name = 
REMARK  5 active torsions:
REMARK  status: ('A' for Active; 'I' for Inactive)
REMARK    1  A    between atoms: C_6  and  C_10
REMARK    2  A    between atoms: C_14  and  O_18
REMARK    3  A    between atoms: N_17  and  N_20
REMARK    4  A    between atoms: N_20  and  C_23
REMARK    5  A    between atoms: C_23  and  C_26
REMARK                            x       y       z     vdW  Elec       q    Type
REMARK                         _______ _______ _______ _____ _____    ______ ____
ROOT
ATOM      1  C   UNL     1      -9.601  53.889  50.578  0.00  0.00    +0.000 A 
ATOM      2  C   UNL     1     -10.844  54.217  51.359  0.00  0.00    +0.000 A 
ATOM      3  C   UNL     1      -9.579  54.141  49.252  0.00  0.00    +0.000 A 
ATOM      4  O   UNL     1     -10.880  53.981  52.574  0.00  0.00    +0.000 OA
ATOM      5  N   UNL     1     -11.929  54.779  50.675  0.00  0.00    +0.000 N 
ATOM      6  C   UNL     1     -10.702  54.809  48.578  0.00  0.00    +0.000 A 
ATOM      7  C   UNL     1     -11.838  55.172  49.311  0.00  0.00    +0.000 A 
ATOM      8  C   UNL     1     -10.640  55.120  47.209  0.00  0.00    +0.000 A 
ATOM      9  C   UNL     1     -12.857  55.901  48.678  0.00  0.00    +0.000 A 
ATOM     10  C   UNL     1     -11.680  55.801  46.580  0.00  0.00    +0.000 A 
ATOM     11  C   UNL     1     -12.785  56.203  47.319  0.00  0.00    +0.000 A 
ENDROOT
BRANCH   1  17
ATOM     12  S   UNL     1      -7.427  51.449  52.793  0.00  0.00    +0.000 S 
ATOM     13  O   UNL     1      -7.159  50.212  52.092  0.00  0.00    +0.000 OA
ATOM     14  O   UNL     1      -7.774  51.429  54.203  0.00  0.00    +0.000 OA
ATOM     15  N   UNL     1      -8.613  52.225  52.015  0.00  0.00    +0.000 N 
ATOM     16  C   UNL     1      -5.973  52.414  52.666  0.00  0.00    +0.000 A 
ATOM     17  C   UNL     1      -8.387  53.277  51.280  0.00  0.00    +0.000 C 
ATOM     18  C   UNL     1      -5.998  53.510  51.815  0.00  0.00    +0.000 A 
ATOM     19  C   UNL     1      -4.840  52.064  53.408  0.00  0.00    +0.000 A 
ATOM     20  N   UNL     1      -7.147  53.855  51.107  0.00  0.00    +0.000 N 
ATOM     21  C   UNL     1      -4.824  54.256  51.682  0.00  0.00    +0.000 A 
ATOM     22  C   UNL     1      -3.687  52.828  53.279  0.00  0.00    +0.000 A 
ATOM     23  C   UNL     1      -3.678  53.921  52.411  0.00  0.00    +0.000 A 
ATOM     24  H   UNL     1      -9.535  51.893  52.099  0.00  0.00    +0.000 HD
ATOM     25  H   UNL     1      -7.068  54.565  50.430  0.00  0.00    +0.000 HD
ENDBRANCH   1  17
BRANCH   3  26
ATOM     26  O   UNL     1      -8.519  53.848  48.409  0.00  0.00    +0.000 OA
ATOM     27  H   UNL     1      -7.709  54.311  48.497  0.00  0.00    +0.000 HD
ENDBRANCH   3  26
BRANCH   5  28
ATOM     28  N   UNL     1     -13.112  55.090  51.435  0.00  0.00    +0.000 N 
ATOM     29  H   UNL     1     -13.905  54.508  51.472  0.00  0.00    +0.000 HD
BRANCH  28  30
ATOM     30  C   UNL     1     -13.005  56.375  52.154  0.00  0.00    +0.000 C 
BRANCH  30  31
ATOM     31  C   UNL     1     -14.288  57.185  51.968  0.00  0.00    +0.000 C 
ATOM     32  C   UNL     1     -14.152  58.450  51.073  0.00  0.00    +0.000 C 
ATOM     33  C   UNL     1     -14.734  58.161  53.099  0.00  0.00    +0.000 C 
ATOM     34  C   UNL     1     -15.199  59.122  51.983  0.00  0.00    +0.000 C 
ENDBRANCH  30  31
ENDBRANCH  28  30
ENDBRANCH   5  28
TORSDOF 5
ENDMDL
MODEL 8
REMARK VINA RESULT:      -7.8      1.614      4.300
REMARK  Name = 
REMARK  5 active torsions:
REMARK  status: ('A' for Active; 'I' for Inactive)
REMARK    1  A    between atoms: C_6  and  C_10
REMARK    2  A    between atoms: C_14  and  O_18
REMARK    3  A    between atoms: N_17  and  N_20
REMARK    4  A    between atoms: N_20  and  C_23
REMARK    5  A    between atoms: C_23  and  C_26
REMARK                            x       y       z     vdW  Elec       q    Type
REMARK                         _______ _______ _______ _____ _____    ______ ____
ROOT
ATOM      1  C   UNL     1     -10.159  55.152  50.770  0.00  0.00    +0.000 A 
ATOM      2  C   UNL     1      -9.693  55.221  49.342  0.00  0.00    +0.000 A 
ATOM      3  C   UNL     1     -11.393  55.605  51.076  0.00  0.00    +0.000 A 
ATOM      4  O   UNL     1      -8.559  54.817  49.050  0.00  0.00    +0.000 OA
ATOM      5  N   UNL     1     -10.565  55.751  48.384  0.00  0.00    +0.000 N 
ATOM      6  C   UNL     1     -12.317  56.077  50.035  0.00  0.00    +0.000 A 
ATOM      7  C   UNL     1     -11.912  56.089  48.695  0.00  0.00    +0.000 A 
ATOM      8  C   UNL     1     -13.622  56.490  50.360  0.00  0.00    +0.000 A 
ATOM      9  C   UNL     1     -12.838  56.443  47.702  0.00  0.00    +0.000 A 
ATOM     10  C   UNL     1     -14.517  56.886  49.370  0.00  0.00    +0.000 A 
ATOM     11  C   UNL     1     -14.128  56.851  48.036  0.00  0.00    +0.000 A 
ENDROOT
BRANCH   1  17
ATOM     12  S   UNL     1      -7.020  54.679  53.116  0.00  0.00    +0.000 S 
ATOM     13  O   UNL     1      -7.010  55.665  54.175  0.00  0.00    +0.000 OA
ATOM     14  O   UNL     1      -5.788  54.332  52.429  0.00  0.00    +0.000 OA
ATOM     15  N   UNL     1      -8.083  55.151  51.994  0.00  0.00    +0.000 N 
ATOM     16  C   UNL     1      -7.610  53.194  53.831  0.00  0.00    +0.000 A 
ATOM     17  C   UNL     1      -9.244  54.578  51.854  0.00  0.00    +0.000 C 
ATOM     18  C   UNL     1      -8.894  52.786  53.501  0.00  0.00    +0.000 A 
ATOM     19  C   UNL     1      -6.791  52.470  54.703  0.00  0.00    +0.000 A 
ATOM     20  N   UNL     1      -9.681  53.510  52.608  0.00  0.00    +0.000 N 
ATOM     21  C   UNL     1      -9.380  51.622  54.103  0.00  0.00    +0.000 A 
ATOM     22  C   UNL     1      -7.283  51.305  55.278  0.00  0.00    +0.000 A 
ATOM     23  C   UNL     1      -8.580  50.885  54.982  0.00  0.00    +0.000 A 
ATOM     24  H   UNL     1      -7.845  55.896  51.396  0.00  0.00    +0.000 HD
ATOM     25  H   UNL     1     -10.622  53.238  52.508  0.00  0.00    +0.000 HD
ENDBRANCH   1  17
BRANCH   3  26
ATOM     26  O   UNL     1     -11.929  55.640  52.353  0.00  0.00    +0.000 OA
ATOM     27  H   UNL     1     -11.369  55.546  53.098  0.00  0.00    +0.000 HD
ENDBRANCH   3  26
BRANCH   5  28
ATOM     28  N   UNL     1     -10.107  55.810  47.020  0.00  0.00    +0.000 N 
ATOM     29  H   UNL     1      -9.977  56.650  46.524  0.00  0.00    +0.000 HD
BRANCH  28  30
ATOM     30  C   UNL     1      -9.851  54.474  46.447  0.00  0.00    +0.000 C 
BRANCH  30  31
ATOM     31  C   UNL     1     -11.097  53.971  45.717  0.00  0.00    +0.000 C 
ATOM     32  C   UNL     1     -11.856  52.809  46.418  0.00  0.00    +0.000 C 
ATOM     33  C   UNL     1     -10.924  52.994  44.515  0.00  0.00    +0.000 C 
ATOM     34  C   UNL     1     -12.196  52.275  45.012  0.00  0.00    +0.000 C 
ENDBRANCH  30  31
ENDBRANCH  28  30
ENDBRANCH   5  28
TORSDOF 5
ENDMDL
MODEL 9
REMARK VINA RESULT:      -7.5      2.175      5.101
REMARK  Name = 
REMARK  5 active torsions:
REMARK  status: ('A' for Active; 'I' for Inactive)
REMARK    1  A    between atoms: C_6  and  C_10
REMARK    2  A    between atoms: C_14  and  O_18
REMARK    3  A    between atoms: N_17  and  N_20
REMARK    4  A    between atoms: N_20  and  C_23
REMARK    5  A    between atoms: C_23  and  C_26
REMARK                            x       y       z     vdW  Elec       q    Type
REMARK                         _______ _______ _______ _____ _____    ______ ____
ROOT
ATOM      1  C   UNL     1     -10.216  54.803  50.093  0.00  0.00    +0.000 A 
ATOM      2  C   UNL     1      -9.999  54.677  48.610  0.00  0.00    +0.000 A 
ATOM      3  C   UNL     1     -11.240  55.559  50.540  0.00  0.00    +0.000 A 
ATOM      4  O   UNL     1      -9.056  53.994  48.188  0.00  0.00    +0.000 OA
ATOM      5  N   UNL     1     -10.878  55.348  47.752  0.00  0.00    +0.000 N 
ATOM      6  C   UNL     1     -12.196  56.182  49.613  0.00  0.00    +0.000 A 
ATOM      7  C   UNL     1     -12.036  56.019  48.233  0.00  0.00    +0.000 A 
ATOM      8  C   UNL     1     -13.295  56.917  50.095  0.00  0.00    +0.000 A 
ATOM      9  C   UNL     1     -13.013  56.531  47.364  0.00  0.00    +0.000 A 
ATOM     10  C   UNL     1     -14.231  57.462  49.220  0.00  0.00    +0.000 A 
ATOM     11  C   UNL     1     -14.097  57.259  47.853  0.00  0.00    +0.000 A 
ENDROOT
BRANCH   1  17
ATOM     12  S   UNL     1      -8.420  51.888  52.059  0.00  0.00    +0.000 S 
ATOM     13  O   UNL     1      -7.409  51.255  51.239  0.00  0.00    +0.000 OA
ATOM     14  O   UNL     1      -9.295  51.082  52.892  0.00  0.00    +0.000 OA
ATOM     15  N   UNL     1      -9.361  52.787  51.099  0.00  0.00    +0.000 N 
ATOM     16  C   UNL     1      -7.571  52.964  53.146  0.00  0.00    +0.000 A 
ATOM     17  C   UNL     1      -9.285  54.087  51.074  0.00  0.00    +0.000 C 
ATOM     18  C   UNL     1      -7.666  54.328  52.910  0.00  0.00    +0.000 A 
ATOM     19  C   UNL     1      -6.827  52.435  54.206  0.00  0.00    +0.000 A 
ATOM     20  N   UNL     1      -8.436  54.833  51.863  0.00  0.00    +0.000 N 
ATOM     21  C   UNL     1      -6.956  55.185  53.754  0.00  0.00    +0.000 A 
ATOM     22  C   UNL     1      -6.142  53.302  55.048  0.00  0.00    +0.000 A 
ATOM     23  C   UNL     1      -6.202  54.677  54.817  0.00  0.00    +0.000 A 
ATOM     24  H   UNL     1     -10.013  52.337  50.514  0.00  0.00    +0.000 HD
ATOM     25  H   UNL     1      -8.367  55.796  51.672  0.00  0.00    +0.000 HD
ENDBRANCH   1  17
BRANCH   3  26
ATOM     26  O   UNL     1     -11.526  55.795  51.876  0.00  0.00    +0.000 OA
ATOM     27  H   UNL     1     -12.399  56.013  52.136  0.00  0.00    +0.000 HD
ENDBRANCH   3  26
BRANCH   5  28
ATOM     28  N   UNL     1     -10.660  55.217  46.334  0.00  0.00    +0.000 N 
ATOM     29  H   UNL     1     -10.134  55.856  45.802  0.00  0.00    +0.000 HD
BRANCH  28  30
ATOM     30  C   UNL     1     -11.311  54.020  45.766  0.00  0.00    +0.000 C 
BRANCH  30  31
ATOM     31  C   UNL     1     -10.345  53.294  44.830  0.00  0.00    +0.000 C 
ATOM     32  C   UNL     1      -9.812  51.929  45.350  0.00  0.00    +0.000 C 
ATOM     33  C   UNL     1      -8.853  53.744  44.788  0.00  0.00    +0.000 C 
ATOM     34  C   UNL     1      -8.486  52.252  44.632  0.00  0.00    +0.000 C 
ENDBRANCH  30  31
ENDBRANCH  28  30
ENDBRANCH   5  28
TORSDOF 5
ENDMDL
