MODEL 1
REMARK VINA RESULT:      -8.0      0.000      0.000
REMARK  Name = 
REMARK  9 active torsions:
REMARK  status: ('A' for Active; 'I' for Inactive)
REMARK    1  A    between atoms: C_6  and  C_10
REMARK    2  A    between atoms: C_14  and  O_18
REMARK    3  A    between atoms: N_17  and  N_20
REMARK    4  A    between atoms: N_20  and  C_23
REMARK    5  A    between atoms: C_23  and  C_26
REMARK    6  A    between atoms: C_23  and  C_27
REMARK    7  A    between atoms: C_26  and  C_29
REMARK    8  A    between atoms: C_27  and  C_30
REMARK    9  A    between atoms: C_29  and  C_31
REMARK                            x       y       z     vdW  Elec       q    Type
REMARK                         _______ _______ _______ _____ _____    ______ ____
ROOT
ATOM      1  C   UNL     1      -9.025  54.777  50.312  0.00  0.00    +0.000 A 
ATOM      2  C   UNL     1     -10.428  54.780  50.838  0.00  0.00    +0.000 A 
ATOM      3  C   UNL     1      -8.826  54.727  48.981  0.00  0.00    +0.000 A 
ATOM      4  O   UNL     1     -10.597  54.502  52.030  0.00  0.00    +0.000 OA
ATOM      5  N   UNL     1     -11.441  55.181  49.948  0.00  0.00    +0.000 N 
ATOM      6  C   UNL     1      -9.958  54.773  48.046  0.00  0.00    +0.000 A 
ATOM      7  C   UNL     1     -11.247  55.059  48.527  0.00  0.00    +0.000 A 
ATOM      8  C   UNL     1      -9.744  54.602  46.664  0.00  0.00    +0.000 A 
ATOM      9  C   UNL     1     -12.293  55.170  47.591  0.00  0.00    +0.000 A 
ATOM     10  C   UNL     1     -10.790  54.720  45.755  0.00  0.00    +0.000 A 
ATOM     11  C   UNL     1     -12.063  55.007  46.220  0.00  0.00    +0.000 A 
ENDROOT
BRANCH   1  17
ATOM     12  S   UNL     1      -6.982  55.810  53.504  0.00  0.00    +0.000 S 
ATOM     13  O   UNL     1      -7.521  55.129  54.669  0.00  0.00    +0.000 OA
ATOM     14  O   UNL     1      -6.584  57.199  53.587  0.00  0.00    +0.000 OA
ATOM     15  N   UNL     1      -8.060  55.674  52.312  0.00  0.00    +0.000 N 
ATOM     16  C   UNL     1      -5.547  54.913  53.050  0.00  0.00    +0.000 A 
ATOM     17  C   UNL     1      -7.859  54.896  51.287  0.00  0.00    +0.000 C 
ATOM     18  C   UNL     1      -5.582  54.180  51.873  0.00  0.00    +0.000 A 
ATOM     19  C   UNL     1      -4.424  54.947  53.883  0.00  0.00    +0.000 A 
ATOM     20  N   UNL     1      -6.712  54.165  51.063  0.00  0.00    +0.000 N 
ATOM     21  C   UNL     1      -4.449  53.427  51.544  0.00  0.00    +0.000 A 
ATOM     22  C   UNL     1      -3.300  54.209  53.531  0.00  0.00    +0.000 A 
ATOM     23  C   UNL     1      -3.314  53.442  52.367  0.00  0.00    +0.000 A 
ATOM     24  H   UNL     1      -8.895  56.193  52.361  0.00  0.00    +0.000 HD
ATOM     25  H   UNL     1      -6.691  53.587  50.266  0.00  0.00    +0.000 HD
ENDBRANCH   1  17
BRANCH   3  26
ATOM     26  O   UNL     1      -7.587  54.693  48.367  0.00  0.00    +0.000 OA
ATOM     27  H   UNL     1      -7.014  53.966  48.509  0.00  0.00    +0.000 HD
ENDBRANCH   3  26
BRANCH   5  28
ATOM     28  N   UNL     1     -12.761  55.408  50.461  0.00  0.00    +0.000 N 
ATOM     29  H   UNL     1     -13.400  54.670  50.589  0.00  0.00    +0.000 HD
BRANCH  28  30
ATOM     30  C   UNL     1     -13.116  56.813  50.786  0.00  0.00    +0.000 C 
BRANCH  30  31
ATOM     31  C   UNL     1     -13.632  56.802  52.247  0.00  0.00    +0.000 C 
ATOM     32  C   UNL     1     -15.133  57.039  52.371  0.00  0.00    +0.000 C 
ENDBRANCH  30  31
BRANCH  30  33
ATOM     33  C   UNL     1     -14.184  57.405  49.830  0.00  0.00    +0.000 C 
BRANCH  33  34
ATOM     34  C   UNL     1     -13.717  58.695  49.135  0.00  0.00    +0.000 C 
ATOM     35  C   UNL     1     -13.973  59.942  49.969  0.00  0.00    +0.000 C 
ENDBRANCH  33  34
ENDBRANCH  30  33
ENDBRANCH  28  30
ENDBRANCH   5  28
TORSDOF 7
ENDMDL
MODEL 2
REMARK VINA RESULT:      -7.9      2.355      4.790
REMARK  Name = 
REMARK  9 active torsions:
REMARK  status: ('A' for Active; 'I' for Inactive)
REMARK    1  A    between atoms: C_6  and  C_10
REMARK    2  A    between atoms: C_14  and  O_18
REMARK    3  A    between atoms: N_17  and  N_20
REMARK    4  A    between atoms: N_20  and  C_23
REMARK    5  A    between atoms: C_23  and  C_26
REMARK    6  A    between atoms: C_23  and  C_27
REMARK    7  A    between atoms: C_26  and  C_29
REMARK    8  A    between atoms: C_27  and  C_30
REMARK    9  A    between atoms: C_29  and  C_31
REMARK                            x       y       z     vdW  Elec       q    Type
REMARK                         _______ _______ _______ _____ _____    ______ ____
ROOT
ATOM      1  C   UNL     1      -9.915  55.278  50.361  0.00  0.00    +0.000 A 
ATOM      2  C   UNL     1      -9.435  55.346  48.944  0.00  0.00    +0.000 A 
ATOM      3  C   UNL     1     -11.155  55.717  50.653  0.00  0.00    +0.000 A 
ATOM      4  O   UNL     1      -8.219  55.252  48.743  0.00  0.00    +0.000 OA
ATOM      5  N   UNL     1     -10.417  55.432  47.941  0.00  0.00    +0.000 N 
ATOM      6  C   UNL     1     -12.065  56.167  49.593  0.00  0.00    +0.000 A 
ATOM      7  C   UNL     1     -11.718  55.968  48.246  0.00  0.00    +0.000 A 
ATOM      8  C   UNL     1     -13.313  56.733  49.922  0.00  0.00    +0.000 A 
ATOM      9  C   UNL     1     -12.650  56.344  47.260  0.00  0.00    +0.000 A 
ATOM     10  C   UNL     1     -14.221  57.094  48.933  0.00  0.00    +0.000 A 
ATOM     11  C   UNL     1     -13.890  56.895  47.603  0.00  0.00    +0.000 A 
ENDROOT
BRANCH   1  17
ATOM     12  S   UNL     1      -6.921  54.848  52.868  0.00  0.00    +0.000 S 
ATOM     13  O   UNL     1      -7.035  55.827  53.935  0.00  0.00    +0.000 OA
ATOM     14  O   UNL     1      -5.633  54.552  52.280  0.00  0.00    +0.000 OA
ATOM     15  N   UNL     1      -7.916  55.297  51.680  0.00  0.00    +0.000 N 
ATOM     16  C   UNL     1      -7.514  53.341  53.539  0.00  0.00    +0.000 A 
ATOM     17  C   UNL     1      -9.021  54.655  51.427  0.00  0.00    +0.000 C 
ATOM     18  C   UNL     1      -8.719  52.846  53.064  0.00  0.00    +0.000 A 
ATOM     19  C   UNL     1      -6.773  52.693  54.532  0.00  0.00    +0.000 A 
ATOM     20  N   UNL     1      -9.436  53.511  52.075  0.00  0.00    +0.000 N 
ATOM     21  C   UNL     1      -9.209  51.669  53.641  0.00  0.00    +0.000 A 
ATOM     22  C   UNL     1      -7.264  51.514  55.080  0.00  0.00    +0.000 A 
ATOM     23  C   UNL     1      -8.486  51.005  54.642  0.00  0.00    +0.000 A 
ATOM     24  H   UNL     1      -7.682  56.080  51.131  0.00  0.00    +0.000 HD
ATOM     25  H   UNL     1     -10.307  53.134  51.816  0.00  0.00    +0.000 HD
ENDBRANCH   1  17
BRANCH   3  26
ATOM     26  O   UNL     1     -11.710  55.733  51.920  0.00  0.00    +0.000 OA
ATOM     27  H   UNL     1     -11.644  56.502  52.451  0.00  0.00    +0.000 HD
ENDBRANCH   3  26
BRANCH   5  28
ATOM     28  N   UNL     1     -10.022  55.282  46.571  0.00  0.00    +0.000 N 
ATOM     29  H   UNL     1      -9.731  56.051  46.029  0.00  0.00    +0.000 HD
BRANCH  28  30
ATOM     30  C   UNL     1     -10.074  53.908  46.009  0.00  0.00    +0.000 C 
BRANCH  30  31
ATOM     31  C   UNL     1      -8.812  53.754  45.122  0.00  0.00    +0.000 C 
ATOM     32  C   UNL     1      -7.791  54.871  45.307  0.00  0.00    +0.000 C 
ENDBRANCH  30  31
BRANCH  30  33
ATOM     33  C   UNL     1     -11.361  53.638  45.188  0.00  0.00    +0.000 C 
BRANCH  33  34
ATOM     34  C   UNL     1     -12.157  52.426  45.702  0.00  0.00    +0.000 C 
ATOM     35  C   UNL     1     -12.220  52.360  47.220  0.00  0.00    +0.000 C 
ENDBRANCH  33  34
ENDBRANCH  30  33
ENDBRANCH  28  30
ENDBRANCH   5  28
TORSDOF 7
ENDMDL
MODEL 3
REMARK VINA RESULT:      -7.9      2.318      4.799
REMARK  Name = 
REMARK  9 active torsions:
REMARK  status: ('A' for Active; 'I' for Inactive)
REMARK    1  A    between atoms: C_6  and  C_10
REMARK    2  A    between atoms: C_14  and  O_18
REMARK    3  A    between atoms: N_17  and  N_20
REMARK    4  A    between atoms: N_20  and  C_23
REMARK    5  A    between atoms: C_23  and  C_26
REMARK    6  A    between atoms: C_23  and  C_27
REMARK    7  A    between atoms: C_26  and  C_29
REMARK    8  A    between atoms: C_27  and  C_30
REMARK    9  A    between atoms: C_29  and  C_31
REMARK                            x       y       z     vdW  Elec       q    Type
REMARK                         _______ _______ _______ _____ _____    ______ ____
ROOT
ATOM      1  C   UNL     1     -10.344  55.179  50.514  0.00  0.00    +0.000 A 
ATOM      2  C   UNL     1      -9.777  55.298  49.133  0.00  0.00    +0.000 A 
ATOM      3  C   UNL     1     -11.584  55.647  50.754  0.00  0.00    +0.000 A 
ATOM      4  O   UNL     1      -8.555  55.170  48.999  0.00  0.00    +0.000 OA
ATOM      5  N   UNL     1     -10.693  55.468  48.079  0.00  0.00    +0.000 N 
ATOM      6  C   UNL     1     -12.413  56.181  49.666  0.00  0.00    +0.000 A 
ATOM      7  C   UNL     1     -11.991  56.035  48.334  0.00  0.00    +0.000 A 
ATOM      8  C   UNL     1     -13.659  56.775  49.949  0.00  0.00    +0.000 A 
ATOM      9  C   UNL     1     -12.849  56.491  47.315  0.00  0.00    +0.000 A 
ATOM     10  C   UNL     1     -14.493  57.216  48.928  0.00  0.00    +0.000 A 
ATOM     11  C   UNL     1     -14.089  57.070  47.611  0.00  0.00    +0.000 A 
ENDROOT
BRANCH   1  17
ATOM     12  S   UNL     1      -9.164  52.359  52.981  0.00  0.00    +0.000 S 
ATOM     13  O   UNL     1      -8.582  51.263  52.226  0.00  0.00    +0.000 OA
ATOM     14  O   UNL     1     -10.030  52.092  54.109  0.00  0.00    +0.000 OA
ATOM     15  N   UNL     1      -9.972  53.295  51.946  0.00  0.00    +0.000 N 
ATOM     16  C   UNL     1      -7.809  53.277  53.608  0.00  0.00    +0.000 A 
ATOM     17  C   UNL     1      -9.537  54.472  51.597  0.00  0.00    +0.000 C 
ATOM     18  C   UNL     1      -7.580  54.540  53.083  0.00  0.00    +0.000 A 
ATOM     19  C   UNL     1      -6.998  52.714  54.598  0.00  0.00    +0.000 A 
ATOM     20  N   UNL     1      -8.403  55.075  52.099  0.00  0.00    +0.000 N 
ATOM     21  C   UNL     1      -6.466  55.245  53.553  0.00  0.00    +0.000 A 
ATOM     22  C   UNL     1      -5.907  53.436  55.069  0.00  0.00    +0.000 A 
ATOM     23  C   UNL     1      -5.635  54.698  54.542  0.00  0.00    +0.000 A 
ATOM     24  H   UNL     1     -10.819  52.967  51.566  0.00  0.00    +0.000 HD
ATOM     25  H   UNL     1      -8.159  55.956  51.733  0.00  0.00    +0.000 HD
ENDBRANCH   1  17
BRANCH   3  26
ATOM     26  O   UNL     1     -12.214  55.622  51.985  0.00  0.00    +0.000 OA
ATOM     27  H   UNL     1     -11.712  55.495  52.766  0.00  0.00    +0.000 HD
ENDBRANCH   3  26
BRANCH   5  28
ATOM     28  N   UNL     1     -10.220  55.370  46.729  0.00  0.00    +0.000 N 
ATOM     29  H   UNL     1      -9.914  56.161  46.230  0.00  0.00    +0.000 HD
BRANCH  28  30
ATOM     30  C   UNL     1     -10.218  54.016  46.120  0.00  0.00    +0.000 C 
BRANCH  30  31
ATOM     31  C   UNL     1      -8.994  53.969  45.171  0.00  0.00    +0.000 C 
ATOM     32  C   UNL     1      -7.816  54.812  45.645  0.00  0.00    +0.000 C 
ENDBRANCH  30  31
BRANCH  30  33
ATOM     33  C   UNL     1     -11.525  53.695  45.350  0.00  0.00    +0.000 C 
BRANCH  33  34
ATOM     34  C   UNL     1     -12.198  52.396  45.826  0.00  0.00    +0.000 C 
ATOM     35  C   UNL     1     -12.196  52.249  47.340  0.00  0.00    +0.000 C 
ENDBRANCH  33  34
ENDBRANCH  30  33
ENDBRANCH  28  30
ENDBRANCH   5  28
TORSDOF 7
ENDMDL
MODEL 4
REMARK VINA RESULT:      -7.6      3.648      7.835
REMARK  Name = 
REMARK  9 active torsions:
REMARK  status: ('A' for Active; 'I' for Inactive)
REMARK    1  A    between atoms: C_6  and  C_10
REMARK    2  A    between atoms: C_14  and  O_18
REMARK    3  A    between atoms: N_17  and  N_20
REMARK    4  A    between atoms: N_20  and  C_23
REMARK    5  A    between atoms: C_23  and  C_26
REMARK    6  A    between atoms: C_23  and  C_27
REMARK    7  A    between atoms: C_26  and  C_29
REMARK    8  A    between atoms: C_27  and  C_30
REMARK    9  A    between atoms: C_29  and  C_31
REMARK                            x       y       z     vdW  Elec       q    Type
REMARK                         _______ _______ _______ _____ _____    ______ ____
ROOT
ATOM      1  C   UNL     1     -11.637  54.067  51.100  0.00  0.00    +0.000 A 
ATOM      2  C   UNL     1     -10.714  53.902  52.268  0.00  0.00    +0.000 A 
ATOM      3  C   UNL     1     -11.786  53.045  50.235  0.00  0.00    +0.000 A 
ATOM      4  O   UNL     1     -10.341  54.924  52.856  0.00  0.00    +0.000 OA
ATOM      5  N   UNL     1     -10.407  52.586  52.658  0.00  0.00    +0.000 N 
ATOM      6  C   UNL     1     -11.134  51.751  50.476  0.00  0.00    +0.000 A 
ATOM      7  C   UNL     1     -10.501  51.510  51.707  0.00  0.00    +0.000 A 
ATOM      8  C   UNL     1     -11.201  50.732  49.506  0.00  0.00    +0.000 A 
ATOM      9  C   UNL     1      -9.953  50.232  51.929  0.00  0.00    +0.000 A 
ATOM     10  C   UNL     1     -10.657  49.475  49.746  0.00  0.00    +0.000 A 
ATOM     11  C   UNL     1     -10.037  49.225  50.960  0.00  0.00    +0.000 A 
ENDROOT
BRANCH   1  17
ATOM     12  S   UNL     1     -13.396  57.136  49.392  0.00  0.00    +0.000 S 
ATOM     13  O   UNL     1     -14.528  56.674  48.608  0.00  0.00    +0.000 OA
ATOM     14  O   UNL     1     -12.523  58.170  48.879  0.00  0.00    +0.000 OA
ATOM     15  N   UNL     1     -12.488  55.852  49.749  0.00  0.00    +0.000 N 
ATOM     16  C   UNL     1     -14.073  57.759  50.884  0.00  0.00    +0.000 A 
ATOM     17  C   UNL     1     -12.437  55.357  50.952  0.00  0.00    +0.000 C 
ATOM     18  C   UNL     1     -13.839  57.049  52.052  0.00  0.00    +0.000 A 
ATOM     19  C   UNL     1     -14.834  58.932  50.856  0.00  0.00    +0.000 A 
ATOM     20  N   UNL     1     -13.078  55.886  52.052  0.00  0.00    +0.000 N 
ATOM     21  C   UNL     1     -14.425  57.527  53.230  0.00  0.00    +0.000 A 
ATOM     22  C   UNL     1     -15.392  59.404  52.038  0.00  0.00    +0.000 A 
ATOM     23  C   UNL     1     -15.196  58.698  53.224  0.00  0.00    +0.000 A 
ATOM     24  H   UNL     1     -11.957  55.430  49.035  0.00  0.00    +0.000 HD
ATOM     25  H   UNL     1     -12.989  55.402  52.905  0.00  0.00    +0.000 HD
ENDBRANCH   1  17
BRANCH   3  26
ATOM     26  O   UNL     1     -12.584  53.074  49.106  0.00  0.00    +0.000 OA
ATOM     27  H   UNL     1     -12.945  52.279  48.766  0.00  0.00    +0.000 HD
ENDBRANCH   3  26
BRANCH   5  28
ATOM     28  N   UNL     1      -9.708  52.375  53.892  0.00  0.00    +0.000 N 
ATOM     29  H   UNL     1     -10.146  52.510  54.763  0.00  0.00    +0.000 HD
BRANCH  28  30
ATOM     30  C   UNL     1      -8.291  51.945  53.789  0.00  0.00    +0.000 C 
BRANCH  30  31
ATOM     31  C   UNL     1      -7.938  51.286  55.148  0.00  0.00    +0.000 C 
ATOM     32  C   UNL     1      -9.047  50.404  55.709  0.00  0.00    +0.000 C 
ENDBRANCH  30  31
BRANCH  30  33
ATOM     33  C   UNL     1      -7.323  53.115  53.478  0.00  0.00    +0.000 C 
BRANCH  33  34
ATOM     34  C   UNL     1      -6.202  53.260  54.521  0.00  0.00    +0.000 C 
ATOM     35  C   UNL     1      -5.941  54.707  54.913  0.00  0.00    +0.000 C 
ENDBRANCH  33  34
ENDBRANCH  30  33
ENDBRANCH  28  30
ENDBRANCH   5  28
TORSDOF 7
ENDMDL
MODEL 5
REMARK VINA RESULT:      -7.5      3.296      7.086
REMARK  Name = 
REMARK  9 active torsions:
REMARK  status: ('A' for Active; 'I' for Inactive)
REMARK    1  A    between atoms: C_6  and  C_10
REMARK    2  A    between atoms: C_14  and  O_18
REMARK    3  A    between atoms: N_17  and  N_20
REMARK    4  A    between atoms: N_20  and  C_23
REMARK    5  A    between atoms: C_23  and  C_26
REMARK    6  A    between atoms: C_23  and  C_27
REMARK    7  A    between atoms: C_26  and  C_29
REMARK    8  A    between atoms: C_27  and  C_30
REMARK    9  A    between atoms: C_29  and  C_31
REMARK                            x       y       z     vdW  Elec       q    Type
REMARK                         _______ _______ _______ _____ _____    ______ ____
ROOT
ATOM      1  C   UNL     1     -11.541  56.096  48.654  0.00  0.00    +0.000 A 
ATOM      2  C   UNL     1     -10.310  55.537  49.298  0.00  0.00    +0.000 A 
ATOM      3  C   UNL     1     -11.883  55.674  47.421  0.00  0.00    +0.000 A 
ATOM      4  O   UNL     1      -9.835  56.150  50.261  0.00  0.00    +0.000 OA
ATOM      5  N   UNL     1      -9.834  54.309  48.805  0.00  0.00    +0.000 N 
ATOM      6  C   UNL     1     -11.123  54.614  46.748  0.00  0.00    +0.000 A 
ATOM      7  C   UNL     1     -10.146  53.898  47.461  0.00  0.00    +0.000 A 
ATOM      8  C   UNL     1     -11.417  54.266  45.416  0.00  0.00    +0.000 A 
ATOM      9  C   UNL     1      -9.491  52.839  46.805  0.00  0.00    +0.000 A 
ATOM     10  C   UNL     1     -10.763  53.213  44.786  0.00  0.00    +0.000 A 
ATOM     11  C   UNL     1      -9.803  52.498  45.483  0.00  0.00    +0.000 A 
ENDROOT
BRANCH   1  17
ATOM     12  S   UNL     1     -13.576  59.348  49.500  0.00  0.00    +0.000 S 
ATOM     13  O   UNL     1     -14.736  59.437  48.631  0.00  0.00    +0.000 OA
ATOM     14  O   UNL     1     -12.797  60.529  49.804  0.00  0.00    +0.000 OA
ATOM     15  N   UNL     1     -12.579  58.243  48.879  0.00  0.00    +0.000 N 
ATOM     16  C   UNL     1     -14.175  58.746  51.033  0.00  0.00    +0.000 A 
ATOM     17  C   UNL     1     -12.415  57.074  49.431  0.00  0.00    +0.000 C 
ATOM     18  C   UNL     1     -13.820  57.459  51.411  0.00  0.00    +0.000 A 
ATOM     19  C   UNL     1     -14.995  59.562  51.819  0.00  0.00    +0.000 A 
ATOM     20  N   UNL     1     -13.002  56.669  50.611  0.00  0.00    +0.000 N 
ATOM     21  C   UNL     1     -14.344  56.968  52.612  0.00  0.00    +0.000 A 
ATOM     22  C   UNL     1     -15.490  59.066  53.019  0.00  0.00    +0.000 A 
ATOM     23  C   UNL     1     -15.173  57.767  53.413  0.00  0.00    +0.000 A 
ATOM     24  H   UNL     1     -12.079  58.457  48.058  0.00  0.00    +0.000 HD
ATOM     25  H   UNL     1     -12.827  55.748  50.911  0.00  0.00    +0.000 HD
ENDBRANCH   1  17
BRANCH   3  26
ATOM     26  O   UNL     1     -12.977  56.126  46.706  0.00  0.00    +0.000 OA
ATOM     27  H   UNL     1     -13.808  56.218  47.129  0.00  0.00    +0.000 HD
ENDBRANCH   3  26
BRANCH   5  28
ATOM     28  N   UNL     1      -8.794  53.631  49.524  0.00  0.00    +0.000 N 
ATOM     29  H   UNL     1      -7.848  53.717  49.269  0.00  0.00    +0.000 HD
BRANCH  28  30
ATOM     30  C   UNL     1      -9.219  52.791  50.673  0.00  0.00    +0.000 C 
BRANCH  30  31
ATOM     31  C   UNL     1      -8.191  51.635  50.769  0.00  0.00    +0.000 C 
ATOM     32  C   UNL     1      -7.905  51.183  52.197  0.00  0.00    +0.000 C 
ENDBRANCH  30  31
BRANCH  30  33
ATOM     33  C   UNL     1     -10.658  52.236  50.519  0.00  0.00    +0.000 C 
BRANCH  33  34
ATOM     34  C   UNL     1     -11.652  52.863  51.512  0.00  0.00    +0.000 C 
ATOM     35  C   UNL     1     -10.973  53.726  52.565  0.00  0.00    +0.000 C 
ENDBRANCH  33  34
ENDBRANCH  30  33
ENDBRANCH  28  30
ENDBRANCH   5  28
TORSDOF 7
ENDMDL
MODEL 6
REMARK VINA RESULT:      -7.5      2.459      7.242
REMARK  Name = 
REMARK  9 active torsions:
REMARK  status: ('A' for Active; 'I' for Inactive)
REMARK    1  A    between atoms: C_6  and  C_10
REMARK    2  A    between atoms: C_14  and  O_18
REMARK    3  A    between atoms: N_17  and  N_20
REMARK    4  A    between atoms: N_20  and  C_23
REMARK    5  A    between atoms: C_23  and  C_26
REMARK    6  A    between atoms: C_23  and  C_27
REMARK    7  A    between atoms: C_26  and  C_29
REMARK    8  A    between atoms: C_27  and  C_30
REMARK    9  A    between atoms: C_29  and  C_31
REMARK                            x       y       z     vdW  Elec       q    Type
REMARK                         _______ _______ _______ _____ _____    ______ ____
ROOT
ATOM      1  C   UNL     1     -10.604  55.872  48.320  0.00  0.00    +0.000 A 
ATOM      2  C   UNL     1      -9.179  56.178  48.663  0.00  0.00    +0.000 A 
ATOM      3  C   UNL     1     -10.868  55.098  47.250  0.00  0.00    +0.000 A 
ATOM      4  O   UNL     1      -8.961  57.126  49.425  0.00  0.00    +0.000 OA
ATOM      5  N   UNL     1      -8.199  55.309  48.151  0.00  0.00    +0.000 N 
ATOM      6  C   UNL     1      -9.781  54.480  46.480  0.00  0.00    +0.000 A 
ATOM      7  C   UNL     1      -8.464  54.537  46.965  0.00  0.00    +0.000 A 
ATOM      8  C   UNL     1     -10.065  53.772  45.295  0.00  0.00    +0.000 A 
ATOM      9  C   UNL     1      -7.461  53.868  46.238  0.00  0.00    +0.000 A 
ATOM     10  C   UNL     1      -9.061  53.113  44.594  0.00  0.00    +0.000 A 
ATOM     11  C   UNL     1      -7.761  53.159  45.068  0.00  0.00    +0.000 A 
ENDROOT
BRANCH   1  17
ATOM     12  S   UNL     1     -13.144  56.022  51.313  0.00  0.00    +0.000 S 
ATOM     13  O   UNL     1     -12.422  56.231  52.556  0.00  0.00    +0.000 OA
ATOM     14  O   UNL     1     -14.253  55.094  51.259  0.00  0.00    +0.000 OA
ATOM     15  N   UNL     1     -12.074  55.583  50.189  0.00  0.00    +0.000 N 
ATOM     16  C   UNL     1     -13.793  57.589  50.870  0.00  0.00    +0.000 A 
ATOM     17  C   UNL     1     -11.719  56.384  49.225  0.00  0.00    +0.000 C 
ATOM     18  C   UNL     1     -13.254  58.227  49.763  0.00  0.00    +0.000 A 
ATOM     19  C   UNL     1     -14.812  58.154  51.643  0.00  0.00    +0.000 A 
ATOM     20  N   UNL     1     -12.241  57.642  49.011  0.00  0.00    +0.000 N 
ATOM     21  C   UNL     1     -13.743  59.500  49.446  0.00  0.00    +0.000 A 
ATOM     22  C   UNL     1     -15.300  59.410  51.303  0.00  0.00    +0.000 A 
ATOM     23  C   UNL     1     -14.761  60.088  50.210  0.00  0.00    +0.000 A 
ATOM     24  H   UNL     1     -11.677  54.683  50.233  0.00  0.00    +0.000 HD
ATOM     25  H   UNL     1     -11.869  58.167  48.266  0.00  0.00    +0.000 HD
ENDBRANCH   1  17
BRANCH   3  26
ATOM     26  O   UNL     1     -12.135  54.761  46.811  0.00  0.00    +0.000 OA
ATOM     27  H   UNL     1     -12.330  54.762  45.894  0.00  0.00    +0.000 HD
ENDBRANCH   3  26
BRANCH   5  28
ATOM     28  N   UNL     1      -6.850  55.431  48.624  0.00  0.00    +0.000 N 
ATOM     29  H   UNL     1      -6.165  55.917  48.112  0.00  0.00    +0.000 HD
BRANCH  28  30
ATOM     30  C   UNL     1      -6.540  54.785  49.924  0.00  0.00    +0.000 C 
BRANCH  30  31
ATOM     31  C   UNL     1      -5.007  54.559  49.941  0.00  0.00    +0.000 C 
ATOM     32  C   UNL     1      -4.475  54.057  51.279  0.00  0.00    +0.000 C 
ENDBRANCH  30  31
BRANCH  30  33
ATOM     33  C   UNL     1      -7.296  53.447  50.132  0.00  0.00    +0.000 C 
BRANCH  33  34
ATOM     34  C   UNL     1      -8.404  53.544  51.195  0.00  0.00    +0.000 C 
ATOM     35  C   UNL     1      -8.298  54.799  52.049  0.00  0.00    +0.000 C 
ENDBRANCH  33  34
ENDBRANCH  30  33
ENDBRANCH  28  30
ENDBRANCH   5  28
TORSDOF 7
ENDMDL
MODEL 7
REMARK VINA RESULT:      -7.4      3.514      6.917
REMARK  Name = 
REMARK  9 active torsions:
REMARK  status: ('A' for Active; 'I' for Inactive)
REMARK    1  A    between atoms: C_6  and  C_10
REMARK    2  A    between atoms: C_14  and  O_18
REMARK    3  A    between atoms: N_17  and  N_20
REMARK    4  A    between atoms: N_20  and  C_23
REMARK    5  A    between atoms: C_23  and  C_26
REMARK    6  A    between atoms: C_23  and  C_27
REMARK    7  A    between atoms: C_26  and  C_29
REMARK    8  A    between atoms: C_27  and  C_30
REMARK    9  A    between atoms: C_29  and  C_31
REMARK                            x       y       z     vdW  Elec       q    Type
REMARK                         _______ _______ _______ _____ _____    ______ ____
ROOT
ATOM      1  C   UNL     1     -11.739  54.440  48.274  0.00  0.00    +0.000 A 
ATOM      2  C   UNL     1     -11.787  53.634  49.536  0.00  0.00    +0.000 A 
ATOM      3  C   UNL     1     -12.457  55.578  48.198  0.00  0.00    +0.000 A 
ATOM      4  O   UNL     1     -11.401  52.461  49.484  0.00  0.00    +0.000 OA
ATOM      5  N   UNL     1     -12.195  54.301  50.704  0.00  0.00    +0.000 N 
ATOM      6  C   UNL     1     -13.203  56.079  49.359  0.00  0.00    +0.000 A 
ATOM      7  C   UNL     1     -13.022  55.477  50.615  0.00  0.00    +0.000 A 
ATOM      8  C   UNL     1     -14.043  57.203  49.232  0.00  0.00    +0.000 A 
ATOM      9  C   UNL     1     -13.695  56.033  51.719  0.00  0.00    +0.000 A 
ATOM     10  C   UNL     1     -14.696  57.741  50.335  0.00  0.00    +0.000 A 
ATOM     11  C   UNL     1     -14.518  57.157  51.579  0.00  0.00    +0.000 A 
ENDROOT
BRANCH   1  17
ATOM     12  S   UNL     1      -8.503  54.038  46.084  0.00  0.00    +0.000 S 
ATOM     13  O   UNL     1      -7.525  53.240  46.801  0.00  0.00    +0.000 OA
ATOM     14  O   UNL     1      -8.089  55.205  45.335  0.00  0.00    +0.000 OA
ATOM     15  N   UNL     1      -9.631  54.502  47.140  0.00  0.00    +0.000 N 
ATOM     16  C   UNL     1      -9.249  52.952  44.928  0.00  0.00    +0.000 A 
ATOM     17  C   UNL     1     -10.831  53.995  47.134  0.00  0.00    +0.000 C 
ATOM     18  C   UNL     1     -10.571  52.588  45.136  0.00  0.00    +0.000 A 
ATOM     19  C   UNL     1      -8.497  52.476  43.850  0.00  0.00    +0.000 A 
ATOM     20  N   UNL     1     -11.295  53.077  46.216  0.00  0.00    +0.000 N 
ATOM     21  C   UNL     1     -11.142  51.680  44.236  0.00  0.00    +0.000 A 
ATOM     22  C   UNL     1      -9.086  51.590  42.954  0.00  0.00    +0.000 A 
ATOM     23  C   UNL     1     -10.406  51.185  43.151  0.00  0.00    +0.000 A 
ATOM     24  H   UNL     1      -9.405  55.188  47.809  0.00  0.00    +0.000 HD
ATOM     25  H   UNL     1     -12.214  52.743  46.335  0.00  0.00    +0.000 HD
ENDBRANCH   1  17
BRANCH   3  26
ATOM     26  O   UNL     1     -12.521  56.399  47.087  0.00  0.00    +0.000 OA
ATOM     27  H   UNL     1     -12.806  56.054  46.264  0.00  0.00    +0.000 HD
ENDBRANCH   3  26
BRANCH   5  28
ATOM     28  N   UNL     1     -12.051  53.636  51.967  0.00  0.00    +0.000 N 
ATOM     29  H   UNL     1     -12.823  53.242  52.434  0.00  0.00    +0.000 HD
BRANCH  28  30
ATOM     30  C   UNL     1     -10.681  53.575  52.534  0.00  0.00    +0.000 C 
BRANCH  30  31
ATOM     31  C   UNL     1     -10.749  52.586  53.726  0.00  0.00    +0.000 C 
ATOM     32  C   UNL     1      -9.502  51.722  53.879  0.00  0.00    +0.000 C 
ENDBRANCH  30  31
BRANCH  30  33
ATOM     33  C   UNL     1     -10.153  54.958  52.996  0.00  0.00    +0.000 C 
BRANCH  33  34
ATOM     34  C   UNL     1      -8.637  55.120  52.791  0.00  0.00    +0.000 C 
ATOM     35  C   UNL     1      -7.887  55.373  54.090  0.00  0.00    +0.000 C 
ENDBRANCH  33  34
ENDBRANCH  30  33
ENDBRANCH  28  30
ENDBRANCH   5  28
TORSDOF 7
ENDMDL
MODEL 8
REMARK VINA RESULT:      -7.4      3.551      7.682
REMARK  Name = 
REMARK  9 active torsions:
REMARK  status: ('A' for Active; 'I' for Inactive)
REMARK    1  A    between atoms: C_6  and  C_10
REMARK    2  A    between atoms: C_14  and  O_18
REMARK    3  A    between atoms: N_17  and  N_20
REMARK    4  A    between atoms: N_20  and  C_23
REMARK    5  A    between atoms: C_23  and  C_26
REMARK    6  A    between atoms: C_23  and  C_27
REMARK    7  A    between atoms: C_26  and  C_29
REMARK    8  A    between atoms: C_27  and  C_30
REMARK    9  A    between atoms: C_29  and  C_31
REMARK                            x       y       z     vdW  Elec       q    Type
REMARK                         _______ _______ _______ _____ _____    ______ ____
ROOT
ATOM      1  C   UNL     1     -11.984  54.371  50.577  0.00  0.00    +0.000 A 
ATOM      2  C   UNL     1     -11.810  53.578  49.319  0.00  0.00    +0.000 A 
ATOM      3  C   UNL     1     -11.227  54.068  51.651  0.00  0.00    +0.000 A 
ATOM      4  O   UNL     1     -12.706  53.641  48.470  0.00  0.00    +0.000 OA
ATOM      5  N   UNL     1     -10.596  52.884  49.165  0.00  0.00    +0.000 N 
ATOM      6  C   UNL     1     -10.178  53.044  51.570  0.00  0.00    +0.000 A 
ATOM      7  C   UNL     1      -9.829  52.503  50.321  0.00  0.00    +0.000 A 
ATOM      8  C   UNL     1      -9.477  52.655  52.727  0.00  0.00    +0.000 A 
ATOM      9  C   UNL     1      -8.767  51.579  50.274  0.00  0.00    +0.000 A 
ATOM     10  C   UNL     1      -8.428  51.744  52.660  0.00  0.00    +0.000 A 
ATOM     11  C   UNL     1      -8.072  51.210  51.432  0.00  0.00    +0.000 A 
ENDROOT
BRANCH   1  17
ATOM     12  S   UNL     1     -15.238  56.442  51.319  0.00  0.00    +0.000 S 
ATOM     13  O   UNL     1     -15.339  56.697  52.746  0.00  0.00    +0.000 OA
ATOM     14  O   UNL     1     -16.414  56.082  50.555  0.00  0.00    +0.000 OA
ATOM     15  N   UNL     1     -14.134  55.287  51.102  0.00  0.00    +0.000 N 
ATOM     16  C   UNL     1     -14.627  57.924  50.612  0.00  0.00    +0.000 A 
ATOM     17  C   UNL     1     -12.960  55.542  50.597  0.00  0.00    +0.000 C 
ATOM     18  C   UNL     1     -13.336  57.920  50.106  0.00  0.00    +0.000 A 
ATOM     19  C   UNL     1     -15.441  59.061  50.591  0.00  0.00    +0.000 A 
ATOM     20  N   UNL     1     -12.549  56.775  50.139  0.00  0.00    +0.000 N 
ATOM     21  C   UNL     1     -12.839  59.122  49.588  0.00  0.00    +0.000 A 
ATOM     22  C   UNL     1     -14.938  60.241  50.056  0.00  0.00    +0.000 A 
ATOM     23  C   UNL     1     -13.635  60.276  49.562  0.00  0.00    +0.000 A 
ATOM     24  H   UNL     1     -14.352  54.362  51.360  0.00  0.00    +0.000 HD
ATOM     25  H   UNL     1     -11.625  56.850  49.808  0.00  0.00    +0.000 HD
ENDBRANCH   1  17
BRANCH   3  26
ATOM     26  O   UNL     1     -11.305  54.703  52.877  0.00  0.00    +0.000 OA
ATOM     27  H   UNL     1     -11.243  54.204  53.668  0.00  0.00    +0.000 HD
ENDBRANCH   3  26
BRANCH   5  28
ATOM     28  N   UNL     1     -10.294  52.292  47.894  0.00  0.00    +0.000 N 
ATOM     29  H   UNL     1     -10.456  51.338  47.716  0.00  0.00    +0.000 HD
BRANCH  28  30
ATOM     30  C   UNL     1      -9.723  53.192  46.860  0.00  0.00    +0.000 C 
BRANCH  30  31
ATOM     31  C   UNL     1     -10.285  52.703  45.501  0.00  0.00    +0.000 C 
ATOM     32  C   UNL     1     -11.412  53.572  44.954  0.00  0.00    +0.000 C 
ENDBRANCH  30  31
BRANCH  30  33
ATOM     33  C   UNL     1      -8.172  53.191  46.846  0.00  0.00    +0.000 C 
BRANCH  33  34
ATOM     34  C   UNL     1      -7.569  54.576  47.136  0.00  0.00    +0.000 C 
ATOM     35  C   UNL     1      -8.516  55.485  47.905  0.00  0.00    +0.000 C 
ENDBRANCH  33  34
ENDBRANCH  30  33
ENDBRANCH  28  30
ENDBRANCH   5  28
TORSDOF 7
ENDMDL
MODEL 9
REMARK VINA RESULT:      -7.4      3.023      7.928
REMARK  Name = 
REMARK  9 active torsions:
REMARK  status: ('A' for Active; 'I' for Inactive)
REMARK    1  A    between atoms: C_6  and  C_10
REMARK    2  A    between atoms: C_14  and  O_18
REMARK    3  A    between atoms: N_17  and  N_20
REMARK    4  A    between atoms: N_20  and  C_23
REMARK    5  A    between atoms: C_23  and  C_26
REMARK    6  A    between atoms: C_23  and  C_27
REMARK    7  A    between atoms: C_26  and  C_29
REMARK    8  A    between atoms: C_27  and  C_30
REMARK    9  A    between atoms: C_29  and  C_31
REMARK                            x       y       z     vdW  Elec       q    Type
REMARK                         _______ _______ _______ _____ _____    ______ ____
ROOT
ATOM      1  C   UNL     1     -11.115  54.505  50.853  0.00  0.00    +0.000 A 
ATOM      2  C   UNL     1      -9.662  54.762  50.595  0.00  0.00    +0.000 A 
ATOM      3  C   UNL     1     -11.513  53.254  51.155  0.00  0.00    +0.000 A 
ATOM      4  O   UNL     1      -9.358  55.810  50.015  0.00  0.00    +0.000 OA
ATOM      5  N   UNL     1      -8.747  53.826  51.108  0.00  0.00    +0.000 N 
ATOM      6  C   UNL     1     -10.536  52.171  51.327  0.00  0.00    +0.000 A 
ATOM      7  C   UNL     1      -9.164  52.471  51.362  0.00  0.00    +0.000 A 
ATOM      8  C   UNL     1     -10.973  50.847  51.526  0.00  0.00    +0.000 A 
ATOM      9  C   UNL     1      -8.262  51.418  51.604  0.00  0.00    +0.000 A 
ATOM     10  C   UNL     1     -10.067  49.820  51.768  0.00  0.00    +0.000 A 
ATOM     11  C   UNL     1      -8.712  50.108  51.810  0.00  0.00    +0.000 A 
ENDROOT
BRANCH   1  17
ATOM     12  S   UNL     1     -13.418  57.360  49.449  0.00  0.00    +0.000 S 
ATOM     13  O   UNL     1     -14.531  56.775  48.721  0.00  0.00    +0.000 OA
ATOM     14  O   UNL     1     -12.743  58.533  48.935  0.00  0.00    +0.000 OA
ATOM     15  N   UNL     1     -12.312  56.207  49.668  0.00  0.00    +0.000 N 
ATOM     16  C   UNL     1     -14.059  57.810  51.017  0.00  0.00    +0.000 A 
ATOM     17  C   UNL     1     -12.098  55.670  50.835  0.00  0.00    +0.000 C 
ATOM     18  C   UNL     1     -13.637  57.088  52.124  0.00  0.00    +0.000 A 
ATOM     19  C   UNL     1     -14.978  58.860  51.108  0.00  0.00    +0.000 A 
ATOM     20  N   UNL     1     -12.721  56.049  52.005  0.00  0.00    +0.000 N 
ATOM     21  C   UNL     1     -14.192  57.421  53.365  0.00  0.00    +0.000 A 
ATOM     22  C   UNL     1     -15.505  59.190  52.351  0.00  0.00    +0.000 A 
ATOM     23  C   UNL     1     -15.119  58.467  53.479  0.00  0.00    +0.000 A 
ATOM     24  H   UNL     1     -11.783  55.900  48.896  0.00  0.00    +0.000 HD
ATOM     25  H   UNL     1     -12.499  55.545  52.820  0.00  0.00    +0.000 HD
ENDBRANCH   1  17
BRANCH   3  26
ATOM     26  O   UNL     1     -12.823  52.876  51.391  0.00  0.00    +0.000 OA
ATOM     27  H   UNL     1     -13.307  52.424  50.728  0.00  0.00    +0.000 HD
ENDBRANCH   3  26
BRANCH   5  28
ATOM     28  N   UNL     1      -7.348  54.137  51.076  0.00  0.00    +0.000 N 
ATOM     29  H   UNL     1      -6.781  53.890  50.310  0.00  0.00    +0.000 HD
BRANCH  28  30
ATOM     30  C   UNL     1      -6.797  54.848  52.257  0.00  0.00    +0.000 C 
BRANCH  30  31
ATOM     31  C   UNL     1      -5.278  54.540  52.280  0.00  0.00    +0.000 C 
ATOM     32  C   UNL     1      -4.770  53.862  51.013  0.00  0.00    +0.000 C 
ENDBRANCH  30  31
BRANCH  30  33
ATOM     33  C   UNL     1      -7.465  54.419  53.589  0.00  0.00    +0.000 C 
BRANCH  33  34
ATOM     34  C   UNL     1      -6.480  53.756  54.568  0.00  0.00    +0.000 C 
ATOM     35  C   UNL     1      -6.762  52.276  54.780  0.00  0.00    +0.000 C 
ENDBRANCH  33  34
ENDBRANCH  30  33
ENDBRANCH  28  30
ENDBRANCH   5  28
TORSDOF 7
ENDMDL
