MODEL 1
REMARK VINA RESULT:      -9.0      0.000      0.000
REMARK  Name = 
REMARK  5 active torsions:
REMARK  status: ('A' for Active; 'I' for Inactive)
REMARK    1  A    between atoms: C_6  and  C_10
REMARK    2  A    between atoms: C_14  and  O_18
REMARK    3  A    between atoms: N_17  and  N_20
REMARK    4  A    between atoms: N_20  and  C_23
REMARK    5  A    between atoms: C_23  and  C_26
REMARK                            x       y       z     vdW  Elec       q    Type
REMARK                         _______ _______ _______ _____ _____    ______ ____
ROOT
ATOM      1  C   UNL     1      -9.474  54.076  50.670  0.00  0.00    +0.000 A 
ATOM      2  C   UNL     1     -10.702  54.444  51.434  0.00  0.00    +0.000 A 
ATOM      3  C   UNL     1      -9.430  54.221  49.336  0.00  0.00    +0.000 A 
ATOM      4  O   UNL     1     -10.661  54.243  52.651  0.00  0.00    +0.000 OA
ATOM      5  N   UNL     1     -11.802  54.959  50.725  0.00  0.00    +0.000 N 
ATOM      6  C   UNL     1     -10.550  54.832  48.615  0.00  0.00    +0.000 A 
ATOM      7  C   UNL     1     -11.722  55.194  49.305  0.00  0.00    +0.000 A 
ATOM      8  C   UNL     1     -10.447  55.070  47.232  0.00  0.00    +0.000 A 
ATOM      9  C   UNL     1     -12.763  55.798  48.574  0.00  0.00    +0.000 A 
ATOM     10  C   UNL     1     -11.475  55.692  46.533  0.00  0.00    +0.000 A 
ATOM     11  C   UNL     1     -12.630  56.062  47.206  0.00  0.00    +0.000 A 
ENDROOT
BRANCH   1  17
ATOM     12  S   UNL     1      -7.435  51.601  52.916  0.00  0.00    +0.000 S 
ATOM     13  O   UNL     1      -7.215  50.348  52.221  0.00  0.00    +0.000 OA
ATOM     14  O   UNL     1      -7.775  51.607  54.330  0.00  0.00    +0.000 OA
ATOM     15  N   UNL     1      -8.590  52.420  52.147  0.00  0.00    +0.000 N 
ATOM     16  C   UNL     1      -5.937  52.503  52.778  0.00  0.00    +0.000 A 
ATOM     17  C   UNL     1      -8.309  53.458  51.413  0.00  0.00    +0.000 C 
ATOM     18  C   UNL     1      -5.913  53.587  51.918  0.00  0.00    +0.000 A 
ATOM     19  C   UNL     1      -4.817  52.108  53.517  0.00  0.00    +0.000 A 
ATOM     20  N   UNL     1      -7.064  54.022  51.271  0.00  0.00    +0.000 N 
ATOM     21  C   UNL     1      -4.715  54.302  51.795  0.00  0.00    +0.000 A 
ATOM     22  C   UNL     1      -3.634  52.827  53.382  0.00  0.00    +0.000 A 
ATOM     23  C   UNL     1      -3.583  53.919  52.518  0.00  0.00    +0.000 A 
ATOM     24  H   UNL     1      -9.527  52.131  52.234  0.00  0.00    +0.000 HD
ATOM     25  H   UNL     1      -6.980  54.793  50.664  0.00  0.00    +0.000 HD
ENDBRANCH   1  17
BRANCH   3  26
ATOM     26  O   UNL     1      -8.368  53.823  48.541  0.00  0.00    +0.000 OA
ATOM     27  H   UNL     1      -7.709  54.441  48.297  0.00  0.00    +0.000 HD
ENDBRANCH   3  26
BRANCH   5  28
ATOM     28  N   UNL     1     -13.111  55.076  51.362  0.00  0.00    +0.000 N 
ATOM     29  H   UNL     1     -13.783  54.357  51.312  0.00  0.00    +0.000 HD
BRANCH  28  30
ATOM     30  C   UNL     1     -13.366  56.333  52.084  0.00  0.00    +0.000 C 
BRANCH  30  31
ATOM     31  C   UNL     1     -14.863  56.717  52.143  0.00  0.00    +0.000 C 
ATOM     32  C   UNL     1     -15.506  57.019  50.783  0.00  0.00    +0.000 C 
ATOM     33  C   UNL     1     -15.053  57.929  53.080  0.00  0.00    +0.000 C 
ATOM     34  C   UNL     1     -14.952  58.292  50.153  0.00  0.00    +0.000 C 
ATOM     35  C   UNL     1     -14.545  59.238  52.471  0.00  0.00    +0.000 C 
ATOM     36  C   UNL     1     -15.128  59.489  51.083  0.00  0.00    +0.000 C 
ENDBRANCH  30  31
ENDBRANCH  28  30
ENDBRANCH   5  28
TORSDOF 5
ENDMDL
MODEL 2
REMARK VINA RESULT:      -8.9      1.406      1.727
REMARK  Name = 
REMARK  5 active torsions:
REMARK  status: ('A' for Active; 'I' for Inactive)
REMARK    1  A    between atoms: C_6  and  C_10
REMARK    2  A    between atoms: C_14  and  O_18
REMARK    3  A    between atoms: N_17  and  N_20
REMARK    4  A    between atoms: N_20  and  C_23
REMARK    5  A    between atoms: C_23  and  C_26
REMARK                            x       y       z     vdW  Elec       q    Type
REMARK                         _______ _______ _______ _____ _____    ______ ____
ROOT
ATOM      1  C   UNL     1      -8.933  54.493  50.968  0.00  0.00    +0.000 A 
ATOM      2  C   UNL     1     -10.193  54.773  51.716  0.00  0.00    +0.000 A 
ATOM      3  C   UNL     1      -8.905  54.557  49.627  0.00  0.00    +0.000 A 
ATOM      4  O   UNL     1     -10.129  54.655  52.943  0.00  0.00    +0.000 OA
ATOM      5  N   UNL     1     -11.343  55.119  50.984  0.00  0.00    +0.000 N 
ATOM      6  C   UNL     1     -10.086  54.995  48.877  0.00  0.00    +0.000 A 
ATOM      7  C   UNL     1     -11.290  55.270  49.552  0.00  0.00    +0.000 A 
ATOM      8  C   UNL     1     -10.010  55.155  47.481  0.00  0.00    +0.000 A 
ATOM      9  C   UNL     1     -12.391  55.710  48.792  0.00  0.00    +0.000 A 
ATOM     10  C   UNL     1     -11.100  55.615  46.752  0.00  0.00    +0.000 A 
ATOM     11  C   UNL     1     -12.289  55.899  47.409  0.00  0.00    +0.000 A 
ENDROOT
BRANCH   1  17
ATOM     12  S   UNL     1      -6.099  54.455  53.669  0.00  0.00    +0.000 S 
ATOM     13  O   UNL     1      -6.631  54.064  54.959  0.00  0.00    +0.000 OA
ATOM     14  O   UNL     1      -5.122  55.528  53.572  0.00  0.00    +0.000 OA
ATOM     15  N   UNL     1      -7.328  54.844  52.701  0.00  0.00    +0.000 N 
ATOM     16  C   UNL     1      -5.313  53.030  53.015  0.00  0.00    +0.000 A 
ATOM     17  C   UNL     1      -7.707  54.053  51.740  0.00  0.00    +0.000 C 
ATOM     18  C   UNL     1      -5.938  52.370  51.972  0.00  0.00    +0.000 A 
ATOM     19  C   UNL     1      -4.101  52.592  53.559  0.00  0.00    +0.000 A 
ATOM     20  N   UNL     1      -7.089  52.879  51.380  0.00  0.00    +0.000 N 
ATOM     21  C   UNL     1      -5.321  51.224  51.454  0.00  0.00    +0.000 A 
ATOM     22  C   UNL     1      -3.502  51.451  53.036  0.00  0.00    +0.000 A 
ATOM     23  C   UNL     1      -4.115  50.766  51.989  0.00  0.00    +0.000 A 
ATOM     24  H   UNL     1      -7.800  55.697  52.839  0.00  0.00    +0.000 HD
ATOM     25  H   UNL     1      -7.492  52.359  50.648  0.00  0.00    +0.000 HD
ENDBRANCH   1  17
BRANCH   3  26
ATOM     26  O   UNL     1      -7.807  54.227  48.851  0.00  0.00    +0.000 OA
ATOM     27  H   UNL     1      -7.720  54.580  47.988  0.00  0.00    +0.000 HD
ENDBRANCH   3  26
BRANCH   5  28
ATOM     28  N   UNL     1     -12.657  55.133  51.622  0.00  0.00    +0.000 N 
ATOM     29  H   UNL     1     -13.212  54.323  51.691  0.00  0.00    +0.000 HD
BRANCH  28  30
ATOM     30  C   UNL     1     -13.099  56.431  52.158  0.00  0.00    +0.000 C 
BRANCH  30  31
ATOM     31  C   UNL     1     -14.629  56.641  52.077  0.00  0.00    +0.000 C 
ATOM     32  C   UNL     1     -15.171  56.908  50.667  0.00  0.00    +0.000 C 
ATOM     33  C   UNL     1     -15.046  57.795  53.014  0.00  0.00    +0.000 C 
ATOM     34  C   UNL     1     -14.711  58.253  50.118  0.00  0.00    +0.000 C 
ATOM     35  C   UNL     1     -14.638  59.171  52.482  0.00  0.00    +0.000 C 
ATOM     36  C   UNL     1     -15.112  59.395  51.048  0.00  0.00    +0.000 C 
ENDBRANCH  30  31
ENDBRANCH  28  30
ENDBRANCH   5  28
TORSDOF 5
ENDMDL
MODEL 3
REMARK VINA RESULT:      -8.8      2.742      8.439
REMARK  Name = 
REMARK  5 active torsions:
REMARK  status: ('A' for Active; 'I' for Inactive)
REMARK    1  A    between atoms: C_6  and  C_10
REMARK    2  A    between atoms: C_14  and  O_18
REMARK    3  A    between atoms: N_17  and  N_20
REMARK    4  A    between atoms: N_20  and  C_23
REMARK    5  A    between atoms: C_23  and  C_26
REMARK                            x       y       z     vdW  Elec       q    Type
REMARK                         _______ _______ _______ _____ _____    ______ ____
ROOT
ATOM      1  C   UNL     1     -10.063  54.512  52.362  0.00  0.00    +0.000 A 
ATOM      2  C   UNL     1      -8.667  55.001  52.163  0.00  0.00    +0.000 A 
ATOM      3  C   UNL     1     -10.302  53.396  53.070  0.00  0.00    +0.000 A 
ATOM      4  O   UNL     1      -8.545  56.014  51.468  0.00  0.00    +0.000 OA
ATOM      5  N   UNL     1      -7.614  54.275  52.747  0.00  0.00    +0.000 N 
ATOM      6  C   UNL     1      -9.207  52.691  53.742  0.00  0.00    +0.000 A 
ATOM      7  C   UNL     1      -7.879  53.128  53.578  0.00  0.00    +0.000 A 
ATOM      8  C   UNL     1      -9.486  51.584  54.564  0.00  0.00    +0.000 A 
ATOM      9  C   UNL     1      -6.863  52.433  54.261  0.00  0.00    +0.000 A 
ATOM     10  C   UNL     1      -8.472  50.927  55.250  0.00  0.00    +0.000 A 
ATOM     11  C   UNL     1      -7.161  51.357  55.104  0.00  0.00    +0.000 A 
ENDROOT
BRANCH   1  17
ATOM     12  S   UNL     1     -12.382  55.885  49.522  0.00  0.00    +0.000 S 
ATOM     13  O   UNL     1     -13.192  54.819  48.967  0.00  0.00    +0.000 OA
ATOM     14  O   UNL     1     -11.787  56.886  48.651  0.00  0.00    +0.000 OA
ATOM     15  N   UNL     1     -11.185  55.230  50.380  0.00  0.00    +0.000 N 
ATOM     16  C   UNL     1     -13.427  56.767  50.621  0.00  0.00    +0.000 A 
ATOM     17  C   UNL     1     -11.199  55.245  51.680  0.00  0.00    +0.000 C 
ATOM     18  C   UNL     1     -13.217  56.607  51.980  0.00  0.00    +0.000 A 
ATOM     19  C   UNL     1     -14.440  57.586  50.112  0.00  0.00    +0.000 A 
ATOM     20  N   UNL     1     -12.143  55.867  52.462  0.00  0.00    +0.000 N 
ATOM     21  C   UNL     1     -14.057  57.299  52.861  0.00  0.00    +0.000 A 
ATOM     22  C   UNL     1     -15.267  58.265  51.000  0.00  0.00    +0.000 A 
ATOM     23  C   UNL     1     -15.078  58.116  52.373  0.00  0.00    +0.000 A 
ATOM     24  H   UNL     1     -10.429  54.810  49.910  0.00  0.00    +0.000 HD
ATOM     25  H   UNL     1     -12.052  55.783  53.439  0.00  0.00    +0.000 HD
ENDBRANCH   1  17
BRANCH   3  26
ATOM     26  O   UNL     1     -11.553  52.824  53.228  0.00  0.00    +0.000 OA
ATOM     27  H   UNL     1     -11.637  51.995  53.657  0.00  0.00    +0.000 HD
ENDBRANCH   3  26
BRANCH   5  28
ATOM     28  N   UNL     1      -6.228  54.536  52.366  0.00  0.00    +0.000 N 
ATOM     29  H   UNL     1      -5.694  55.243  52.794  0.00  0.00    +0.000 HD
BRANCH  28  30
ATOM     30  C   UNL     1      -5.680  53.676  51.304  0.00  0.00    +0.000 C 
BRANCH  30  31
ATOM     31  C   UNL     1      -5.004  54.468  50.159  0.00  0.00    +0.000 C 
ATOM     32  C   UNL     1      -5.913  55.482  49.452  0.00  0.00    +0.000 C 
ATOM     33  C   UNL     1      -4.425  53.485  49.119  0.00  0.00    +0.000 C 
ATOM     34  C   UNL     1      -7.024  54.805  48.658  0.00  0.00    +0.000 C 
ATOM     35  C   UNL     1      -5.505  52.810  48.271  0.00  0.00    +0.000 C 
ATOM     36  C   UNL     1      -6.453  53.825  47.637  0.00  0.00    +0.000 C 
ENDBRANCH  30  31
ENDBRANCH  28  30
ENDBRANCH   5  28
TORSDOF 5
ENDMDL
MODEL 4
REMARK VINA RESULT:      -8.8      1.876      2.706
REMARK  Name = 
REMARK  5 active torsions:
REMARK  status: ('A' for Active; 'I' for Inactive)
REMARK    1  A    between atoms: C_6  and  C_10
REMARK    2  A    between atoms: C_14  and  O_18
REMARK    3  A    between atoms: N_17  and  N_20
REMARK    4  A    between atoms: N_20  and  C_23
REMARK    5  A    between atoms: C_23  and  C_26
REMARK                            x       y       z     vdW  Elec       q    Type
REMARK                         _______ _______ _______ _____ _____    ______ ____
ROOT
ATOM      1  C   UNL     1      -9.663  54.295  50.468  0.00  0.00    +0.000 A 
ATOM      2  C   UNL     1     -10.898  55.086  50.746  0.00  0.00    +0.000 A 
ATOM      3  C   UNL     1      -9.385  53.877  49.223  0.00  0.00    +0.000 A 
ATOM      4  O   UNL     1     -11.086  55.395  51.927  0.00  0.00    +0.000 OA
ATOM      5  N   UNL     1     -11.751  55.395  49.672  0.00  0.00    +0.000 N 
ATOM      6  C   UNL     1     -10.237  54.271  48.097  0.00  0.00    +0.000 A 
ATOM      7  C   UNL     1     -11.407  55.020  48.324  0.00  0.00    +0.000 A 
ATOM      8  C   UNL     1      -9.875  53.911  46.785  0.00  0.00    +0.000 A 
ATOM      9  C   UNL     1     -12.181  55.394  47.208  0.00  0.00    +0.000 A 
ATOM     10  C   UNL     1     -10.640  54.312  45.696  0.00  0.00    +0.000 A 
ATOM     11  C   UNL     1     -11.789  55.060  45.908  0.00  0.00    +0.000 A 
ENDROOT
BRANCH   1  17
ATOM     12  S   UNL     1      -6.631  54.275  52.945  0.00  0.00    +0.000 S 
ATOM     13  O   UNL     1      -6.687  55.424  53.826  0.00  0.00    +0.000 OA
ATOM     14  O   UNL     1      -5.362  53.840  52.384  0.00  0.00    +0.000 OA
ATOM     15  N   UNL     1      -7.636  54.524  51.709  0.00  0.00    +0.000 N 
ATOM     16  C   UNL     1      -7.233  52.917  53.878  0.00  0.00    +0.000 A 
ATOM     17  C   UNL     1      -8.774  53.898  51.627  0.00  0.00    +0.000 C 
ATOM     18  C   UNL     1      -8.493  52.433  53.574  0.00  0.00    +0.000 A 
ATOM     19  C   UNL     1      -6.447  52.371  54.899  0.00  0.00    +0.000 A 
ATOM     20  N   UNL     1      -9.214  52.924  52.491  0.00  0.00    +0.000 N 
ATOM     21  C   UNL     1      -8.983  51.356  54.325  0.00  0.00    +0.000 A 
ATOM     22  C   UNL     1      -6.949  51.305  55.637  0.00  0.00    +0.000 A 
ATOM     23  C   UNL     1      -8.217  50.803  55.353  0.00  0.00    +0.000 A 
ATOM     24  H   UNL     1      -7.384  55.162  51.003  0.00  0.00    +0.000 HD
ATOM     25  H   UNL     1     -10.109  52.545  52.331  0.00  0.00    +0.000 HD
ENDBRANCH   1  17
BRANCH   3  26
ATOM     26  O   UNL     1      -8.313  53.066  48.892  0.00  0.00    +0.000 OA
ATOM     27  H   UNL     1      -8.374  52.138  49.009  0.00  0.00    +0.000 HD
ENDBRANCH   3  26
BRANCH   5  28
ATOM     28  N   UNL     1     -13.093  55.917  49.912  0.00  0.00    +0.000 N 
ATOM     29  H   UNL     1     -13.879  55.327  49.977  0.00  0.00    +0.000 HD
BRANCH  28  30
ATOM     30  C   UNL     1     -13.200  57.379  50.052  0.00  0.00    +0.000 C 
BRANCH  30  31
ATOM     31  C   UNL     1     -14.658  57.880  50.183  0.00  0.00    +0.000 C 
ATOM     32  C   UNL     1     -14.812  59.249  50.859  0.00  0.00    +0.000 C 
ATOM     33  C   UNL     1     -15.501  56.834  50.945  0.00  0.00    +0.000 C 
ATOM     34  C   UNL     1     -14.434  59.209  52.335  0.00  0.00    +0.000 C 
ATOM     35  C   UNL     1     -15.181  56.787  52.441  0.00  0.00    +0.000 C 
ATOM     36  C   UNL     1     -15.258  58.168  53.088  0.00  0.00    +0.000 C 
ENDBRANCH  30  31
ENDBRANCH  28  30
ENDBRANCH   5  28
TORSDOF 5
ENDMDL
MODEL 5
REMARK VINA RESULT:      -8.7      2.943      8.475
REMARK  Name = 
REMARK  5 active torsions:
REMARK  status: ('A' for Active; 'I' for Inactive)
REMARK    1  A    between atoms: C_6  and  C_10
REMARK    2  A    between atoms: C_14  and  O_18
REMARK    3  A    between atoms: N_17  and  N_20
REMARK    4  A    between atoms: N_20  and  C_23
REMARK    5  A    between atoms: C_23  and  C_26
REMARK                            x       y       z     vdW  Elec       q    Type
REMARK                         _______ _______ _______ _____ _____    ______ ____
ROOT
ATOM      1  C   UNL     1     -11.342  53.948  51.770  0.00  0.00    +0.000 A 
ATOM      2  C   UNL     1     -10.381  54.091  52.902  0.00  0.00    +0.000 A 
ATOM      3  C   UNL     1     -11.442  52.789  51.100  0.00  0.00    +0.000 A 
ATOM      4  O   UNL     1     -10.335  55.205  53.433  0.00  0.00    +0.000 OA
ATOM      5  N   UNL     1      -9.597  52.980  53.259  0.00  0.00    +0.000 N 
ATOM      6  C   UNL     1     -10.680  51.613  51.529  0.00  0.00    +0.000 A 
ATOM      7  C   UNL     1      -9.767  51.712  52.596  0.00  0.00    +0.000 A 
ATOM      8  C   UNL     1     -10.872  50.378  50.881  0.00  0.00    +0.000 A 
ATOM      9  C   UNL     1      -9.074  50.550  52.986  0.00  0.00    +0.000 A 
ATOM     10  C   UNL     1     -10.197  49.237  51.299  0.00  0.00    +0.000 A 
ATOM     11  C   UNL     1      -9.304  49.322  52.356  0.00  0.00    +0.000 A 
ENDROOT
BRANCH   1  17
ATOM     12  S   UNL     1     -12.850  56.729  49.462  0.00  0.00    +0.000 S 
ATOM     13  O   UNL     1     -13.861  56.170  48.587  0.00  0.00    +0.000 OA
ATOM     14  O   UNL     1     -11.904  57.712  48.959  0.00  0.00    +0.000 OA
ATOM     15  N   UNL     1     -11.989  55.521  50.093  0.00  0.00    +0.000 N 
ATOM     16  C   UNL     1     -13.719  57.522  50.764  0.00  0.00    +0.000 A 
ATOM     17  C   UNL     1     -12.142  55.157  51.333  0.00  0.00    +0.000 C 
ATOM     18  C   UNL     1     -13.714  56.915  52.007  0.00  0.00    +0.000 A 
ATOM     19  C   UNL     1     -14.396  58.721  50.519  0.00  0.00    +0.000 A 
ATOM     20  N   UNL     1     -12.953  55.778  52.253  0.00  0.00    +0.000 N 
ATOM     21  C   UNL     1     -14.417  57.538  53.046  0.00  0.00    +0.000 A 
ATOM     22  C   UNL     1     -15.091  59.326  51.560  0.00  0.00    +0.000 A 
ATOM     23  C   UNL     1     -15.105  58.732  52.820  0.00  0.00    +0.000 A 
ATOM     24  H   UNL     1     -11.335  55.049  49.529  0.00  0.00    +0.000 HD
ATOM     25  H   UNL     1     -12.998  55.387  53.156  0.00  0.00    +0.000 HD
ENDBRANCH   1  17
BRANCH   3  26
ATOM     26  O   UNL     1     -12.239  52.596  49.984  0.00  0.00    +0.000 OA
ATOM     27  H   UNL     1     -12.265  51.758  49.567  0.00  0.00    +0.000 HD
ENDBRANCH   3  26
BRANCH   5  28
ATOM     28  N   UNL     1      -8.457  53.130  54.160  0.00  0.00    +0.000 N 
ATOM     29  H   UNL     1      -8.479  52.802  55.088  0.00  0.00    +0.000 HD
BRANCH  28  30
ATOM     30  C   UNL     1      -7.275  53.802  53.597  0.00  0.00    +0.000 C 
BRANCH  30  31
ATOM     31  C   UNL     1      -5.949  53.387  54.277  0.00  0.00    +0.000 C 
ATOM     32  C   UNL     1      -4.720  54.198  53.844  0.00  0.00    +0.000 C 
ATOM     33  C   UNL     1      -5.685  51.886  54.032  0.00  0.00    +0.000 C 
ATOM     34  C   UNL     1      -4.340  53.938  52.391  0.00  0.00    +0.000 C 
ATOM     35  C   UNL     1      -5.263  51.583  52.592  0.00  0.00    +0.000 C 
ATOM     36  C   UNL     1      -4.091  52.452  52.143  0.00  0.00    +0.000 C 
ENDBRANCH  30  31
ENDBRANCH  28  30
ENDBRANCH   5  28
TORSDOF 5
ENDMDL
MODEL 6
REMARK VINA RESULT:      -8.5      3.138      5.821
REMARK  Name = 
REMARK  5 active torsions:
REMARK  status: ('A' for Active; 'I' for Inactive)
REMARK    1  A    between atoms: C_6  and  C_10
REMARK    2  A    between atoms: C_14  and  O_18
REMARK    3  A    between atoms: N_17  and  N_20
REMARK    4  A    between atoms: N_20  and  C_23
REMARK    5  A    between atoms: C_23  and  C_26
REMARK                            x       y       z     vdW  Elec       q    Type
REMARK                         _______ _______ _______ _____ _____    ______ ____
ROOT
ATOM      1  C   UNL     1     -10.064  53.418  49.335  0.00  0.00    +0.000 A 
ATOM      2  C   UNL     1     -11.291  53.748  50.118  0.00  0.00    +0.000 A 
ATOM      3  C   UNL     1      -8.844  53.672  49.836  0.00  0.00    +0.000 A 
ATOM      4  O   UNL     1     -12.366  53.511  49.560  0.00  0.00    +0.000 OA
ATOM      5  N   UNL     1     -11.137  54.315  51.396  0.00  0.00    +0.000 N 
ATOM      6  C   UNL     1      -8.692  54.189  51.199  0.00  0.00    +0.000 A 
ATOM      7  C   UNL     1      -9.828  54.507  51.966  0.00  0.00    +0.000 A 
ATOM      8  C   UNL     1      -7.405  54.353  51.746  0.00  0.00    +0.000 A 
ATOM      9  C   UNL     1      -9.631  54.979  53.278  0.00  0.00    +0.000 A 
ATOM     10  C   UNL     1      -7.233  54.796  53.053  0.00  0.00    +0.000 A 
ATOM     11  C   UNL     1      -8.348  55.102  53.820  0.00  0.00    +0.000 A 
ENDROOT
BRANCH   1  17
ATOM     12  S   UNL     1     -11.327  51.205  46.363  0.00  0.00    +0.000 S 
ATOM     13  O   UNL     1     -12.686  51.560  46.006  0.00  0.00    +0.000 OA
ATOM     14  O   UNL     1     -10.916  49.810  46.397  0.00  0.00    +0.000 OA
ATOM     15  N   UNL     1     -10.992  51.833  47.809  0.00  0.00    +0.000 N 
ATOM     16  C   UNL     1     -10.294  51.979  45.175  0.00  0.00    +0.000 A 
ATOM     17  C   UNL     1     -10.218  52.871  47.932  0.00  0.00    +0.000 C 
ATOM     18  C   UNL     1      -9.558  53.079  45.579  0.00  0.00    +0.000 A 
ATOM     19  C   UNL     1     -10.248  51.487  43.866  0.00  0.00    +0.000 A 
ATOM     20  N   UNL     1      -9.542  53.490  46.907  0.00  0.00    +0.000 N 
ATOM     21  C   UNL     1      -8.742  53.709  44.630  0.00  0.00    +0.000 A 
ATOM     22  C   UNL     1      -9.434  52.124  42.936  0.00  0.00    +0.000 A 
ATOM     23  C   UNL     1      -8.687  53.237  43.317  0.00  0.00    +0.000 A 
ATOM     24  H   UNL     1     -11.382  51.424  48.615  0.00  0.00    +0.000 HD
ATOM     25  H   UNL     1      -9.006  54.285  47.130  0.00  0.00    +0.000 HD
ENDBRANCH   1  17
BRANCH   3  26
ATOM     26  O   UNL     1      -7.660  53.482  49.145  0.00  0.00    +0.000 OA
ATOM     27  H   UNL     1      -7.423  54.067  48.452  0.00  0.00    +0.000 HD
ENDBRANCH   3  26
BRANCH   5  28
ATOM     28  N   UNL     1     -12.277  54.909  52.089  0.00  0.00    +0.000 N 
ATOM     29  H   UNL     1     -12.733  54.451  52.831  0.00  0.00    +0.000 HD
BRANCH  28  30
ATOM     30  C   UNL     1     -12.701  56.236  51.612  0.00  0.00    +0.000 C 
BRANCH  30  31
ATOM     31  C   UNL     1     -14.212  56.321  51.293  0.00  0.00    +0.000 C 
ATOM     32  C   UNL     1     -14.557  57.058  49.993  0.00  0.00    +0.000 C 
ATOM     33  C   UNL     1     -14.956  56.985  52.472  0.00  0.00    +0.000 C 
ATOM     34  C   UNL     1     -14.240  58.547  50.072  0.00  0.00    +0.000 C 
ATOM     35  C   UNL     1     -14.697  58.491  52.567  0.00  0.00    +0.000 C 
ATOM     36  C   UNL     1     -14.966  59.204  51.244  0.00  0.00    +0.000 C 
ENDBRANCH  30  31
ENDBRANCH  28  30
ENDBRANCH   5  28
TORSDOF 5
ENDMDL
MODEL 7
REMARK VINA RESULT:      -8.4      2.992      8.426
REMARK  Name = 
REMARK  5 active torsions:
REMARK  status: ('A' for Active; 'I' for Inactive)
REMARK    1  A    between atoms: C_6  and  C_10
REMARK    2  A    between atoms: C_14  and  O_18
REMARK    3  A    between atoms: N_17  and  N_20
REMARK    4  A    between atoms: N_20  and  C_23
REMARK    5  A    between atoms: C_23  and  C_26
REMARK                            x       y       z     vdW  Elec       q    Type
REMARK                         _______ _______ _______ _____ _____    ______ ____
ROOT
ATOM      1  C   UNL     1     -10.722  55.748  48.523  0.00  0.00    +0.000 A 
ATOM      2  C   UNL     1      -9.321  55.777  49.039  0.00  0.00    +0.000 A 
ATOM      3  C   UNL     1     -10.996  55.222  47.319  0.00  0.00    +0.000 A 
ATOM      4  O   UNL     1      -9.163  56.312  50.140  0.00  0.00    +0.000 OA
ATOM      5  N   UNL     1      -8.303  55.229  48.239  0.00  0.00    +0.000 N 
ATOM      6  C   UNL     1      -9.942  54.581  46.528  0.00  0.00    +0.000 A 
ATOM      7  C   UNL     1      -8.611  54.588  46.986  0.00  0.00    +0.000 A 
ATOM      8  C   UNL     1     -10.264  53.945  45.314  0.00  0.00    +0.000 A 
ATOM      9  C   UNL     1      -7.636  53.941  46.202  0.00  0.00    +0.000 A 
ATOM     10  C   UNL     1      -9.292  53.289  44.569  0.00  0.00    +0.000 A 
ATOM     11  C   UNL     1      -7.979  53.281  45.017  0.00  0.00    +0.000 A 
ENDROOT
BRANCH   1  17
ATOM     12  S   UNL     1     -13.401  56.273  51.330  0.00  0.00    +0.000 S 
ATOM     13  O   UNL     1     -12.759  56.541  52.601  0.00  0.00    +0.000 OA
ATOM     14  O   UNL     1     -14.563  55.402  51.262  0.00  0.00    +0.000 OA
ATOM     15  N   UNL     1     -12.301  55.677  50.313  0.00  0.00    +0.000 N 
ATOM     16  C   UNL     1     -13.931  57.829  50.715  0.00  0.00    +0.000 A 
ATOM     17  C   UNL     1     -11.816  56.397  49.344  0.00  0.00    +0.000 C 
ATOM     18  C   UNL     1     -13.231  58.376  49.654  0.00  0.00    +0.000 A 
ATOM     19  C   UNL     1     -15.020  58.476  51.308  0.00  0.00    +0.000 A 
ATOM     20  N   UNL     1     -12.217  57.670  49.016  0.00  0.00    +0.000 N 
ATOM     21  C   UNL     1     -13.643  59.623  49.168  0.00  0.00    +0.000 A 
ATOM     22  C   UNL     1     -15.415  59.716  50.816  0.00  0.00    +0.000 A 
ATOM     23  C   UNL     1     -14.723  60.289  49.751  0.00  0.00    +0.000 A 
ATOM     24  H   UNL     1     -11.991  54.749  50.428  0.00  0.00    +0.000 HD
ATOM     25  H   UNL     1     -11.751  58.116  48.273  0.00  0.00    +0.000 HD
ENDBRANCH   1  17
BRANCH   3  26
ATOM     26  O   UNL     1     -12.248  55.235  46.727  0.00  0.00    +0.000 OA
ATOM     27  H   UNL     1     -12.562  56.014  46.313  0.00  0.00    +0.000 HD
ENDBRANCH   3  26
BRANCH   5  28
ATOM     28  N   UNL     1      -6.897  55.471  48.554  0.00  0.00    +0.000 N 
ATOM     29  H   UNL     1      -6.373  56.168  48.097  0.00  0.00    +0.000 HD
BRANCH  28  30
ATOM     30  C   UNL     1      -6.313  54.610  49.595  0.00  0.00    +0.000 C 
BRANCH  30  31
ATOM     31  C   UNL     1      -4.799  54.354  49.404  0.00  0.00    +0.000 C 
ATOM     32  C   UNL     1      -4.430  53.585  48.128  0.00  0.00    +0.000 C 
ATOM     33  C   UNL     1      -4.239  53.606  50.633  0.00  0.00    +0.000 C 
ATOM     34  C   UNL     1      -4.919  52.142  48.162  0.00  0.00    +0.000 C 
ATOM     35  C   UNL     1      -4.673  52.139  50.687  0.00  0.00    +0.000 C 
ATOM     36  C   UNL     1      -4.376  51.404  49.383  0.00  0.00    +0.000 C 
ENDBRANCH  30  31
ENDBRANCH  28  30
ENDBRANCH   5  28
TORSDOF 5
ENDMDL
MODEL 8
REMARK VINA RESULT:      -8.3      2.615      5.446
REMARK  Name = 
REMARK  5 active torsions:
REMARK  status: ('A' for Active; 'I' for Inactive)
REMARK    1  A    between atoms: C_6  and  C_10
REMARK    2  A    between atoms: C_14  and  O_18
REMARK    3  A    between atoms: N_17  and  N_20
REMARK    4  A    between atoms: N_20  and  C_23
REMARK    5  A    between atoms: C_23  and  C_26
REMARK                            x       y       z     vdW  Elec       q    Type
REMARK                         _______ _______ _______ _____ _____    ______ ____
ROOT
ATOM      1  C   UNL     1     -10.256  54.932  50.789  0.00  0.00    +0.000 A 
ATOM      2  C   UNL     1      -9.869  54.869  49.349  0.00  0.00    +0.000 A 
ATOM      3  C   UNL     1     -11.411  55.506  51.162  0.00  0.00    +0.000 A 
ATOM      4  O   UNL     1      -8.773  54.354  49.108  0.00  0.00    +0.000 OA
ATOM      5  N   UNL     1     -10.749  55.410  48.396  0.00  0.00    +0.000 N 
ATOM      6  C   UNL     1     -12.359  55.995  50.156  0.00  0.00    +0.000 A 
ATOM      7  C   UNL     1     -12.027  55.948  48.790  0.00  0.00    +0.000 A 
ATOM      8  C   UNL     1     -13.609  56.501  50.559  0.00  0.00    +0.000 A 
ATOM      9  C   UNL     1     -12.978  56.409  47.860  0.00  0.00    +0.000 A 
ATOM     10  C   UNL     1     -14.545  56.927  49.624  0.00  0.00    +0.000 A 
ATOM     11  C   UNL     1     -14.231  56.874  48.273  0.00  0.00    +0.000 A 
ENDROOT
BRANCH   1  17
ATOM     12  S   UNL     1      -7.077  54.687  53.061  0.00  0.00    +0.000 S 
ATOM     13  O   UNL     1      -7.109  55.705  54.092  0.00  0.00    +0.000 OA
ATOM     14  O   UNL     1      -5.834  54.375  52.374  0.00  0.00    +0.000 OA
ATOM     15  N   UNL     1      -8.162  55.063  51.931  0.00  0.00    +0.000 N 
ATOM     16  C   UNL     1      -7.583  53.196  53.835  0.00  0.00    +0.000 A 
ATOM     17  C   UNL     1      -9.286  54.415  51.830  0.00  0.00    +0.000 C 
ATOM     18  C   UNL     1      -8.846  52.713  53.541  0.00  0.00    +0.000 A 
ATOM     19  C   UNL     1      -6.722  52.547  54.725  0.00  0.00    +0.000 A 
ATOM     20  N   UNL     1      -9.646  53.320  52.578  0.00  0.00    +0.000 N 
ATOM     21  C   UNL     1      -9.260  51.530  54.166  0.00  0.00    +0.000 A 
ATOM     22  C   UNL     1      -7.148  51.374  55.339  0.00  0.00    +0.000 A 
ATOM     23  C   UNL     1      -8.418  50.871  55.063  0.00  0.00    +0.000 A 
ATOM     24  H   UNL     1      -7.971  55.798  51.304  0.00  0.00    +0.000 HD
ATOM     25  H   UNL     1     -10.538  52.934  52.421  0.00  0.00    +0.000 HD
ENDBRANCH   1  17
BRANCH   3  26
ATOM     26  O   UNL     1     -11.805  55.687  52.477  0.00  0.00    +0.000 OA
ATOM     27  H   UNL     1     -12.293  55.019  52.916  0.00  0.00    +0.000 HD
ENDBRANCH   3  26
BRANCH   5  28
ATOM     28  N   UNL     1     -10.313  55.628  47.019  0.00  0.00    +0.000 N 
ATOM     29  H   UNL     1     -10.165  56.531  46.655  0.00  0.00    +0.000 HD
BRANCH  28  30
ATOM     30  C   UNL     1     -10.110  54.416  46.208  0.00  0.00    +0.000 C 
BRANCH  30  31
ATOM     31  C   UNL     1     -11.430  53.753  45.750  0.00  0.00    +0.000 C 
ATOM     32  C   UNL     1     -11.980  52.683  46.701  0.00  0.00    +0.000 C 
ATOM     33  C   UNL     1     -11.245  53.143  44.344  0.00  0.00    +0.000 C 
ATOM     34  C   UNL     1     -11.090  51.445  46.753  0.00  0.00    +0.000 C 
ATOM     35  C   UNL     1     -10.390  51.874  44.352  0.00  0.00    +0.000 C 
ATOM     36  C   UNL     1     -10.897  50.847  45.362  0.00  0.00    +0.000 C 
ENDBRANCH  30  31
ENDBRANCH  28  30
ENDBRANCH   5  28
TORSDOF 5
ENDMDL
MODEL 9
REMARK VINA RESULT:      -8.1      3.268      8.139
REMARK  Name = 
REMARK  5 active torsions:
REMARK  status: ('A' for Active; 'I' for Inactive)
REMARK    1  A    between atoms: C_6  and  C_10
REMARK    2  A    between atoms: C_14  and  O_18
REMARK    3  A    between atoms: N_17  and  N_20
REMARK    4  A    between atoms: N_20  and  C_23
REMARK    5  A    between atoms: C_23  and  C_26
REMARK                            x       y       z     vdW  Elec       q    Type
REMARK                         _______ _______ _______ _____ _____    ______ ____
ROOT
ATOM      1  C   UNL     1     -11.771  54.771  50.606  0.00  0.00    +0.000 A 
ATOM      2  C   UNL     1     -11.852  54.062  49.296  0.00  0.00    +0.000 A 
ATOM      3  C   UNL     1     -10.947  54.333  51.571  0.00  0.00    +0.000 A 
ATOM      4  O   UNL     1     -12.665  54.518  48.485  0.00  0.00    +0.000 OA
ATOM      5  N   UNL     1     -11.035  52.937  49.092  0.00  0.00    +0.000 N 
ATOM      6  C   UNL     1     -10.040  53.209  51.322  0.00  0.00    +0.000 A 
ATOM      7  C   UNL     1     -10.088  52.520  50.096  0.00  0.00    +0.000 A 
ATOM      8  C   UNL     1      -9.111  52.827  52.307  0.00  0.00    +0.000 A 
ATOM      9  C   UNL     1      -9.183  51.460  49.895  0.00  0.00    +0.000 A 
ATOM     10  C   UNL     1      -8.208  51.795  52.079  0.00  0.00    +0.000 A 
ATOM     11  C   UNL     1      -8.240  51.117  50.869  0.00  0.00    +0.000 A 
ENDROOT
BRANCH   1  17
ATOM     12  S   UNL     1     -14.438  57.046  52.351  0.00  0.00    +0.000 S 
ATOM     13  O   UNL     1     -13.880  57.669  53.533  0.00  0.00    +0.000 OA
ATOM     14  O   UNL     1     -15.797  56.526  52.366  0.00  0.00    +0.000 OA
ATOM     15  N   UNL     1     -13.473  55.837  51.900  0.00  0.00    +0.000 N 
ATOM     16  C   UNL     1     -14.408  58.271  51.095  0.00  0.00    +0.000 A 
ATOM     17  C   UNL     1     -12.696  55.943  50.862  0.00  0.00    +0.000 C 
ATOM     18  C   UNL     1     -13.471  58.136  50.085  0.00  0.00    +0.000 A 
ATOM     19  C   UNL     1     -15.305  59.343  51.147  0.00  0.00    +0.000 A 
ATOM     20  N   UNL     1     -12.658  57.012  49.999  0.00  0.00    +0.000 N 
ATOM     21  C   UNL     1     -13.435  59.119  49.087  0.00  0.00    +0.000 A 
ATOM     22  C   UNL     1     -15.254  60.311  50.150  0.00  0.00    +0.000 A 
ATOM     23  C   UNL     1     -14.316  60.201  49.125  0.00  0.00    +0.000 A 
ATOM     24  H   UNL     1     -13.471  55.001  52.421  0.00  0.00    +0.000 HD
ATOM     25  H   UNL     1     -12.005  56.979  49.263  0.00  0.00    +0.000 HD
ENDBRANCH   1  17
BRANCH   3  26
ATOM     26  O   UNL     1     -10.874  54.875  52.843  0.00  0.00    +0.000 OA
ATOM     27  H   UNL     1     -10.089  54.786  53.346  0.00  0.00    +0.000 HD
ENDBRANCH   3  26
BRANCH   5  28
ATOM     28  N   UNL     1     -11.262  52.046  47.958  0.00  0.00    +0.000 N 
ATOM     29  H   UNL     1     -12.001  51.395  47.945  0.00  0.00    +0.000 HD
BRANCH  28  30
ATOM     30  C   UNL     1     -10.319  52.179  46.835  0.00  0.00    +0.000 C 
BRANCH  30  31
ATOM     31  C   UNL     1     -10.687  53.318  45.854  0.00  0.00    +0.000 C 
ATOM     32  C   UNL     1     -10.441  53.000  44.374  0.00  0.00    +0.000 C 
ATOM     33  C   UNL     1      -9.920  54.602  46.238  0.00  0.00    +0.000 C 
ATOM     34  C   UNL     1      -8.956  52.870  44.051  0.00  0.00    +0.000 C 
ATOM     35  C   UNL     1      -8.430  54.531  45.895  0.00  0.00    +0.000 C 
ATOM     36  C   UNL     1      -8.195  54.134  44.440  0.00  0.00    +0.000 C 
ENDBRANCH  30  31
ENDBRANCH  28  30
ENDBRANCH   5  28
TORSDOF 5
ENDMDL
