MODEL 1
REMARK VINA RESULT:      -8.3      0.000      0.000
REMARK  Name = 
REMARK  5 active torsions:
REMARK  status: ('A' for Active; 'I' for Inactive)
REMARK    1  A    between atoms: C_6  and  C_10
REMARK    2  A    between atoms: C_14  and  O_18
REMARK    3  A    between atoms: N_17  and  N_20
REMARK    4  A    between atoms: N_20  and  C_23
REMARK    5  A    between atoms: C_23  and  C_26
REMARK                            x       y       z     vdW  Elec       q    Type
REMARK                         _______ _______ _______ _____ _____    ______ ____
ROOT
ATOM      1  C   UNL     1     -11.347  53.900  51.574  0.00  0.00    +0.000 A 
ATOM      2  C   UNL     1     -10.385  54.067  52.703  0.00  0.00    +0.000 A 
ATOM      3  C   UNL     1     -11.496  52.704  50.980  0.00  0.00    +0.000 A 
ATOM      4  O   UNL     1     -10.270  55.199  53.185  0.00  0.00    +0.000 OA
ATOM      5  N   UNL     1      -9.701  52.939  53.163  0.00  0.00    +0.000 N 
ATOM      6  C   UNL     1     -10.744  51.533  51.457  0.00  0.00    +0.000 A 
ATOM      7  C   UNL     1      -9.855  51.664  52.541  0.00  0.00    +0.000 A 
ATOM      8  C   UNL     1     -10.916  50.276  50.852  0.00  0.00    +0.000 A 
ATOM      9  C   UNL     1      -9.147  50.534  52.983  0.00  0.00    +0.000 A 
ATOM     10  C   UNL     1     -10.221  49.159  51.311  0.00  0.00    +0.000 A 
ATOM     11  C   UNL     1      -9.333  49.290  52.372  0.00  0.00    +0.000 A 
ENDROOT
BRANCH   1  17
ATOM     12  S   UNL     1     -12.862  56.783  49.381  0.00  0.00    +0.000 S 
ATOM     13  O   UNL     1     -13.886  56.313  48.470  0.00  0.00    +0.000 OA
ATOM     14  O   UNL     1     -11.887  57.765  48.946  0.00  0.00    +0.000 OA
ATOM     15  N   UNL     1     -12.060  55.488  49.928  0.00  0.00    +0.000 N 
ATOM     16  C   UNL     1     -13.717  57.517  50.727  0.00  0.00    +0.000 A 
ATOM     17  C   UNL     1     -12.188  55.090  51.159  0.00  0.00    +0.000 C 
ATOM     18  C   UNL     1     -13.679  56.868  51.951  0.00  0.00    +0.000 A 
ATOM     19  C   UNL     1     -14.393  58.726  50.554  0.00  0.00    +0.000 A 
ATOM     20  N   UNL     1     -13.013  55.655  52.108  0.00  0.00    +0.000 N 
ATOM     21  C   UNL     1     -14.403  57.418  53.014  0.00  0.00    +0.000 A 
ATOM     22  C   UNL     1     -15.080  59.281  51.631  0.00  0.00    +0.000 A 
ATOM     23  C   UNL     1     -15.094  58.622  52.858  0.00  0.00    +0.000 A 
ATOM     24  H   UNL     1     -11.465  54.994  49.319  0.00  0.00    +0.000 HD
ATOM     25  H   UNL     1     -13.140  55.168  52.954  0.00  0.00    +0.000 HD
ENDBRANCH   1  17
BRANCH   3  26
ATOM     26  O   UNL     1     -12.358  52.459  49.926  0.00  0.00    +0.000 OA
ATOM     27  H   UNL     1     -12.910  51.701  49.939  0.00  0.00    +0.000 HD
ENDBRANCH   3  26
BRANCH   5  28
ATOM     28  N   UNL     1      -8.746  53.062  54.238  0.00  0.00    +0.000 N 
ATOM     29  H   UNL     1      -8.976  52.904  55.182  0.00  0.00    +0.000 HD
BRANCH  28  30
ATOM     30  C   UNL     1      -7.401  53.446  53.794  0.00  0.00    +0.000 C 
BRANCH  30  31
ATOM     31  C   UNL     1      -6.990  54.736  54.433  0.00  0.00    +0.000 C 
ATOM     32  C   UNL     1      -6.770  55.998  53.643  0.00  0.00    +0.000 C 
ATOM     33  C   UNL     1      -5.590  55.251  54.199  0.00  0.00    +0.000 C 
ENDBRANCH  30  31
ENDBRANCH  28  30
ENDBRANCH   5  28
TORSDOF 5
ENDMDL
MODEL 2
REMARK VINA RESULT:      -8.2      2.207      2.808
REMARK  Name = 
REMARK  5 active torsions:
REMARK  status: ('A' for Active; 'I' for Inactive)
REMARK    1  A    between atoms: C_6  and  C_10
REMARK    2  A    between atoms: C_14  and  O_18
REMARK    3  A    between atoms: N_17  and  N_20
REMARK    4  A    between atoms: N_20  and  C_23
REMARK    5  A    between atoms: C_23  and  C_26
REMARK                            x       y       z     vdW  Elec       q    Type
REMARK                         _______ _______ _______ _____ _____    ______ ____
ROOT
ATOM      1  C   UNL     1     -10.119  54.544  52.201  0.00  0.00    +0.000 A 
ATOM      2  C   UNL     1      -8.753  55.102  51.977  0.00  0.00    +0.000 A 
ATOM      3  C   UNL     1     -10.290  53.453  52.967  0.00  0.00    +0.000 A 
ATOM      4  O   UNL     1      -8.657  56.086  51.237  0.00  0.00    +0.000 OA
ATOM      5  N   UNL     1      -7.676  54.502  52.636  0.00  0.00    +0.000 N 
ATOM      6  C   UNL     1      -9.142  52.815  53.628  0.00  0.00    +0.000 A 
ATOM      7  C   UNL     1      -7.849  53.345  53.453  0.00  0.00    +0.000 A 
ATOM      8  C   UNL     1      -9.323  51.688  54.448  0.00  0.00    +0.000 A 
ATOM      9  C   UNL     1      -6.765  52.722  54.094  0.00  0.00    +0.000 A 
ATOM     10  C   UNL     1      -8.242  51.090  55.091  0.00  0.00    +0.000 A 
ATOM     11  C   UNL     1      -6.963  51.604  54.910  0.00  0.00    +0.000 A 
ENDROOT
BRANCH   1  17
ATOM     12  S   UNL     1     -12.576  56.047  49.533  0.00  0.00    +0.000 S 
ATOM     13  O   UNL     1     -13.475  55.054  48.980  0.00  0.00    +0.000 OA
ATOM     14  O   UNL     1     -11.972  57.048  48.675  0.00  0.00    +0.000 OA
ATOM     15  N   UNL     1     -11.388  55.260  50.299  0.00  0.00    +0.000 N 
ATOM     16  C   UNL     1     -13.514  56.934  50.723  0.00  0.00    +0.000 A 
ATOM     17  C   UNL     1     -11.304  55.270  51.596  0.00  0.00    +0.000 C 
ATOM     18  C   UNL     1     -13.196  56.757  52.060  0.00  0.00    +0.000 A 
ATOM     19  C   UNL     1     -14.530  57.799  50.314  0.00  0.00    +0.000 A 
ATOM     20  N   UNL     1     -12.190  55.881  52.457  0.00  0.00    +0.000 N 
ATOM     21  C   UNL     1     -13.974  57.418  53.017  0.00  0.00    +0.000 A 
ATOM     22  C   UNL     1     -15.272  58.479  51.276  0.00  0.00    +0.000 A 
ATOM     23  C   UNL     1     -15.002  58.280  52.628  0.00  0.00    +0.000 A 
ATOM     24  H   UNL     1     -10.718  54.765  49.774  0.00  0.00    +0.000 HD
ATOM     25  H   UNL     1     -12.106  55.684  53.418  0.00  0.00    +0.000 HD
ENDBRANCH   1  17
BRANCH   3  26
ATOM     26  O   UNL     1     -11.517  52.866  53.224  0.00  0.00    +0.000 OA
ATOM     27  H   UNL     1     -12.050  53.185  53.926  0.00  0.00    +0.000 HD
ENDBRANCH   3  26
BRANCH   5  28
ATOM     28  N   UNL     1      -6.337  54.997  52.429  0.00  0.00    +0.000 N 
ATOM     29  H   UNL     1      -5.963  55.758  52.928  0.00  0.00    +0.000 HD
BRANCH  28  30
ATOM     30  C   UNL     1      -5.585  54.260  51.407  0.00  0.00    +0.000 C 
BRANCH  30  31
ATOM     31  C   UNL     1      -5.556  55.033  50.125  0.00  0.00    +0.000 C 
ATOM     32  C   UNL     1      -6.319  54.602  48.901  0.00  0.00    +0.000 C 
ATOM     33  C   UNL     1      -4.823  54.450  48.940  0.00  0.00    +0.000 C 
ENDBRANCH  30  31
ENDBRANCH  28  30
ENDBRANCH   5  28
TORSDOF 5
ENDMDL
MODEL 3
REMARK VINA RESULT:      -8.1      3.999      4.892
REMARK  Name = 
REMARK  5 active torsions:
REMARK  status: ('A' for Active; 'I' for Inactive)
REMARK    1  A    between atoms: C_6  and  C_10
REMARK    2  A    between atoms: C_14  and  O_18
REMARK    3  A    between atoms: N_17  and  N_20
REMARK    4  A    between atoms: N_20  and  C_23
REMARK    5  A    between atoms: C_23  and  C_26
REMARK                            x       y       z     vdW  Elec       q    Type
REMARK                         _______ _______ _______ _____ _____    ______ ____
ROOT
ATOM      1  C   UNL     1     -10.662  55.629  48.152  0.00  0.00    +0.000 A 
ATOM      2  C   UNL     1      -9.198  55.727  48.427  0.00  0.00    +0.000 A 
ATOM      3  C   UNL     1     -11.106  54.985  47.059  0.00  0.00    +0.000 A 
ATOM      4  O   UNL     1      -8.851  56.361  49.429  0.00  0.00    +0.000 OA
ATOM      5  N   UNL     1      -8.316  55.076  47.560  0.00  0.00    +0.000 N 
ATOM      6  C   UNL     1     -10.162  54.332  46.140  0.00  0.00    +0.000 A 
ATOM      7  C   UNL     1      -8.779  54.387  46.399  0.00  0.00    +0.000 A 
ATOM      8  C   UNL     1     -10.627  53.637  45.009  0.00  0.00    +0.000 A 
ATOM      9  C   UNL     1      -7.893  53.756  45.510  0.00  0.00    +0.000 A 
ATOM     10  C   UNL     1      -9.739  53.002  44.145  0.00  0.00    +0.000 A 
ATOM     11  C   UNL     1      -8.373  53.066  44.393  0.00  0.00    +0.000 A 
ENDROOT
BRANCH   1  17
ATOM     12  S   UNL     1     -13.024  55.955  51.271  0.00  0.00    +0.000 S 
ATOM     13  O   UNL     1     -12.296  56.198  52.499  0.00  0.00    +0.000 OA
ATOM     14  O   UNL     1     -14.150  55.041  51.253  0.00  0.00    +0.000 OA
ATOM     15  N   UNL     1     -11.958  55.458  50.159  0.00  0.00    +0.000 N 
ATOM     16  C   UNL     1     -13.661  57.514  50.773  0.00  0.00    +0.000 A 
ATOM     17  C   UNL     1     -11.627  56.220  49.159  0.00  0.00    +0.000 C 
ATOM     18  C   UNL     1     -13.118  58.104  49.643  0.00  0.00    +0.000 A 
ATOM     19  C   UNL     1     -14.695  58.113  51.495  0.00  0.00    +0.000 A 
ATOM     20  N   UNL     1     -12.078  57.504  48.939  0.00  0.00    +0.000 N 
ATOM     21  C   UNL     1     -13.582  59.371  49.272  0.00  0.00    +0.000 A 
ATOM     22  C   UNL     1     -15.172  59.357  51.093  0.00  0.00    +0.000 A 
ATOM     23  C   UNL     1     -14.608  59.992  49.988  0.00  0.00    +0.000 A 
ATOM     24  H   UNL     1     -11.554  54.564  50.242  0.00  0.00    +0.000 HD
ATOM     25  H   UNL     1     -11.634  58.032  48.237  0.00  0.00    +0.000 HD
ENDBRANCH   1  17
BRANCH   3  26
ATOM     26  O   UNL     1     -12.441  54.850  46.724  0.00  0.00    +0.000 OA
ATOM     27  H   UNL     1     -12.713  54.950  45.832  0.00  0.00    +0.000 HD
ENDBRANCH   3  26
BRANCH   5  28
ATOM     28  N   UNL     1      -6.892  55.164  47.778  0.00  0.00    +0.000 N 
ATOM     29  H   UNL     1      -6.319  55.823  47.324  0.00  0.00    +0.000 HD
BRANCH  28  30
ATOM     30  C   UNL     1      -6.379  54.181  48.739  0.00  0.00    +0.000 C 
BRANCH  30  31
ATOM     31  C   UNL     1      -5.647  54.871  49.848  0.00  0.00    +0.000 C 
ATOM     32  C   UNL     1      -4.739  54.139  50.799  0.00  0.00    +0.000 C 
ATOM     33  C   UNL     1      -6.082  54.621  51.273  0.00  0.00    +0.000 C 
ENDBRANCH  30  31
ENDBRANCH  28  30
ENDBRANCH   5  28
TORSDOF 5
ENDMDL
MODEL 4
REMARK VINA RESULT:      -8.1      2.920      7.348
REMARK  Name = 
REMARK  5 active torsions:
REMARK  status: ('A' for Active; 'I' for Inactive)
REMARK    1  A    between atoms: C_6  and  C_10
REMARK    2  A    between atoms: C_14  and  O_18
REMARK    3  A    between atoms: N_17  and  N_20
REMARK    4  A    between atoms: N_20  and  C_23
REMARK    5  A    between atoms: C_23  and  C_26
REMARK                            x       y       z     vdW  Elec       q    Type
REMARK                         _______ _______ _______ _____ _____    ______ ____
ROOT
ATOM      1  C   UNL     1     -10.468  54.914  50.504  0.00  0.00    +0.000 A 
ATOM      2  C   UNL     1     -11.609  55.089  51.450  0.00  0.00    +0.000 A 
ATOM      3  C   UNL     1     -10.599  55.259  49.211  0.00  0.00    +0.000 A 
ATOM      4  O   UNL     1     -11.437  54.722  52.618  0.00  0.00    +0.000 OA
ATOM      5  N   UNL     1     -12.782  55.679  50.973  0.00  0.00    +0.000 N 
ATOM      6  C   UNL     1     -11.852  55.850  48.718  0.00  0.00    +0.000 A 
ATOM      7  C   UNL     1     -12.929  56.051  49.603  0.00  0.00    +0.000 A 
ATOM      8  C   UNL     1     -11.982  56.234  47.372  0.00  0.00    +0.000 A 
ATOM      9  C   UNL     1     -14.117  56.618  49.113  0.00  0.00    +0.000 A 
ATOM     10  C   UNL     1     -13.160  56.811  46.903  0.00  0.00    +0.000 A 
ATOM     11  C   UNL     1     -14.228  56.998  47.772  0.00  0.00    +0.000 A 
ENDROOT
BRANCH   1  17
ATOM     12  S   UNL     1      -7.259  52.697  50.954  0.00  0.00    +0.000 S 
ATOM     13  O   UNL     1      -6.223  53.012  49.992  0.00  0.00    +0.000 OA
ATOM     14  O   UNL     1      -7.542  51.318  51.303  0.00  0.00    +0.000 OA
ATOM     15  N   UNL     1      -8.634  53.374  50.434  0.00  0.00    +0.000 N 
ATOM     16  C   UNL     1      -6.782  53.484  52.449  0.00  0.00    +0.000 A 
ATOM     17  C   UNL     1      -9.151  54.397  51.047  0.00  0.00    +0.000 C 
ATOM     18  C   UNL     1      -7.532  54.567  52.879  0.00  0.00    +0.000 A 
ATOM     19  C   UNL     1      -5.690  53.007  53.177  0.00  0.00    +0.000 A 
ATOM     20  N   UNL     1      -8.610  55.043  52.138  0.00  0.00    +0.000 N 
ATOM     21  C   UNL     1      -7.125  55.233  54.040  0.00  0.00    +0.000 A 
ATOM     22  C   UNL     1      -5.319  53.658  54.350  0.00  0.00    +0.000 A 
ATOM     23  C   UNL     1      -6.029  54.777  54.777  0.00  0.00    +0.000 A 
ATOM     24  H   UNL     1      -9.086  53.005  49.641  0.00  0.00    +0.000 HD
ATOM     25  H   UNL     1      -9.013  55.898  52.412  0.00  0.00    +0.000 HD
ENDBRANCH   1  17
BRANCH   3  26
ATOM     26  O   UNL     1      -9.599  55.128  48.265  0.00  0.00    +0.000 OA
ATOM     27  H   UNL     1      -9.763  54.655  47.472  0.00  0.00    +0.000 HD
ENDBRANCH   3  26
BRANCH   5  28
ATOM     28  N   UNL     1     -13.916  55.845  51.850  0.00  0.00    +0.000 N 
ATOM     29  H   UNL     1     -14.640  55.183  51.923  0.00  0.00    +0.000 HD
BRANCH  28  30
ATOM     30  C   UNL     1     -13.888  57.093  52.622  0.00  0.00    +0.000 C 
BRANCH  30  31
ATOM     31  C   UNL     1     -15.098  57.921  52.317  0.00  0.00    +0.000 C 
ATOM     32  C   UNL     1     -15.019  59.229  51.577  0.00  0.00    +0.000 C 
ATOM     33  C   UNL     1     -15.294  59.223  53.056  0.00  0.00    +0.000 C 
ENDBRANCH  30  31
ENDBRANCH  28  30
ENDBRANCH   5  28
TORSDOF 5
ENDMDL
MODEL 5
REMARK VINA RESULT:      -8.0      3.393      7.622
REMARK  Name = 
REMARK  5 active torsions:
REMARK  status: ('A' for Active; 'I' for Inactive)
REMARK    1  A    between atoms: C_6  and  C_10
REMARK    2  A    between atoms: C_14  and  O_18
REMARK    3  A    between atoms: N_17  and  N_20
REMARK    4  A    between atoms: N_20  and  C_23
REMARK    5  A    between atoms: C_23  and  C_26
REMARK                            x       y       z     vdW  Elec       q    Type
REMARK                         _______ _______ _______ _____ _____    ______ ____
ROOT
ATOM      1  C   UNL     1     -10.254  55.206  50.803  0.00  0.00    +0.000 A 
ATOM      2  C   UNL     1      -9.819  55.152  49.376  0.00  0.00    +0.000 A 
ATOM      3  C   UNL     1     -11.473  55.674  51.124  0.00  0.00    +0.000 A 
ATOM      4  O   UNL     1      -8.675  54.743  49.148  0.00  0.00    +0.000 OA
ATOM      5  N   UNL     1     -10.732  55.534  48.390  0.00  0.00    +0.000 N 
ATOM      6  C   UNL     1     -12.410  56.102  50.075  0.00  0.00    +0.000 A 
ATOM      7  C   UNL     1     -12.029  56.029  48.721  0.00  0.00    +0.000 A 
ATOM      8  C   UNL     1     -13.694  56.569  50.408  0.00  0.00    +0.000 A 
ATOM      9  C   UNL     1     -12.939  56.441  47.734  0.00  0.00    +0.000 A 
ATOM     10  C   UNL     1     -14.593  56.959  49.418  0.00  0.00    +0.000 A 
ATOM     11  C   UNL     1     -14.213  56.899  48.082  0.00  0.00    +0.000 A 
ENDROOT
BRANCH   1  17
ATOM     12  S   UNL     1      -7.080  54.785  53.075  0.00  0.00    +0.000 S 
ATOM     13  O   UNL     1      -7.041  55.740  54.163  0.00  0.00    +0.000 OA
ATOM     14  O   UNL     1      -5.872  54.458  52.341  0.00  0.00    +0.000 OA
ATOM     15  N   UNL     1      -8.188  55.296  52.012  0.00  0.00    +0.000 N 
ATOM     16  C   UNL     1      -7.639  53.277  53.779  0.00  0.00    +0.000 A 
ATOM     17  C   UNL     1      -9.317  54.669  51.865  0.00  0.00    +0.000 C 
ATOM     18  C   UNL     1      -8.905  52.831  53.434  0.00  0.00    +0.000 A 
ATOM     19  C   UNL     1      -6.812  52.555  54.641  0.00  0.00    +0.000 A 
ATOM     20  N   UNL     1      -9.727  53.567  52.585  0.00  0.00    +0.000 N 
ATOM     21  C   UNL     1      -9.379  51.660  54.034  0.00  0.00    +0.000 A 
ATOM     22  C   UNL     1      -7.283  51.371  55.202  0.00  0.00    +0.000 A 
ATOM     23  C   UNL     1      -8.570  50.928  54.907  0.00  0.00    +0.000 A 
ATOM     24  H   UNL     1      -8.004  56.096  51.467  0.00  0.00    +0.000 HD
ATOM     25  H   UNL     1     -10.664  53.280  52.491  0.00  0.00    +0.000 HD
ENDBRANCH   1  17
BRANCH   3  26
ATOM     26  O   UNL     1     -11.956  55.765  52.417  0.00  0.00    +0.000 OA
ATOM     27  H   UNL     1     -12.099  54.986  52.920  0.00  0.00    +0.000 HD
ENDBRANCH   3  26
BRANCH   5  28
ATOM     28  N   UNL     1     -10.344  55.517  47.000  0.00  0.00    +0.000 N 
ATOM     29  H   UNL     1     -10.165  56.335  46.483  0.00  0.00    +0.000 HD
BRANCH  28  30
ATOM     30  C   UNL     1     -10.241  54.169  46.431  0.00  0.00    +0.000 C 
BRANCH  30  31
ATOM     31  C   UNL     1     -11.266  53.978  45.356  0.00  0.00    +0.000 C 
ATOM     32  C   UNL     1     -12.030  52.693  45.184  0.00  0.00    +0.000 C 
ATOM     33  C   UNL     1     -10.950  53.055  44.204  0.00  0.00    +0.000 C 
ENDBRANCH  30  31
ENDBRANCH  28  30
ENDBRANCH   5  28
TORSDOF 5
ENDMDL
MODEL 6
REMARK VINA RESULT:      -8.0      2.876      7.308
REMARK  Name = 
REMARK  5 active torsions:
REMARK  status: ('A' for Active; 'I' for Inactive)
REMARK    1  A    between atoms: C_6  and  C_10
REMARK    2  A    between atoms: C_14  and  O_18
REMARK    3  A    between atoms: N_17  and  N_20
REMARK    4  A    between atoms: N_20  and  C_23
REMARK    5  A    between atoms: C_23  and  C_26
REMARK                            x       y       z     vdW  Elec       q    Type
REMARK                         _______ _______ _______ _____ _____    ______ ____
ROOT
ATOM      1  C   UNL     1     -10.195  54.925  50.890  0.00  0.00    +0.000 A 
ATOM      2  C   UNL     1     -11.505  55.460  51.366  0.00  0.00    +0.000 A 
ATOM      3  C   UNL     1      -9.930  54.849  49.575  0.00  0.00    +0.000 A 
ATOM      4  O   UNL     1     -11.701  55.473  52.586  0.00  0.00    +0.000 OA
ATOM      5  N   UNL     1     -12.411  55.936  50.415  0.00  0.00    +0.000 N 
ATOM      6  C   UNL     1     -10.908  55.327  48.586  0.00  0.00    +0.000 A 
ATOM      7  C   UNL     1     -12.137  55.862  49.016  0.00  0.00    +0.000 A 
ATOM      8  C   UNL     1     -10.622  55.269  47.210  0.00  0.00    +0.000 A 
ATOM      9  C   UNL     1     -13.057  56.314  48.057  0.00  0.00    +0.000 A 
ATOM     10  C   UNL     1     -11.537  55.737  46.269  0.00  0.00    +0.000 A 
ATOM     11  C   UNL     1     -12.756  56.254  46.693  0.00  0.00    +0.000 A 
ENDROOT
BRANCH   1  17
ATOM     12  S   UNL     1      -6.867  54.887  52.974  0.00  0.00    +0.000 S 
ATOM     13  O   UNL     1      -6.835  55.915  53.994  0.00  0.00    +0.000 OA
ATOM     14  O   UNL     1      -5.684  54.596  52.187  0.00  0.00    +0.000 OA
ATOM     15  N   UNL     1      -8.072  55.244  51.955  0.00  0.00    +0.000 N 
ATOM     16  C   UNL     1      -7.269  53.395  53.809  0.00  0.00    +0.000 A 
ATOM     17  C   UNL     1      -9.157  54.530  51.922  0.00  0.00    +0.000 C 
ATOM     18  C   UNL     1      -8.517  52.839  53.576  0.00  0.00    +0.000 A 
ATOM     19  C   UNL     1      -6.340  52.795  54.661  0.00  0.00    +0.000 A 
ATOM     20  N   UNL     1      -9.440  53.454  52.736  0.00  0.00    +0.000 N 
ATOM     21  C   UNL     1      -8.865  51.681  54.279  0.00  0.00    +0.000 A 
ATOM     22  C   UNL     1      -6.687  51.622  55.326  0.00  0.00    +0.000 A 
ATOM     23  C   UNL     1      -7.953  51.070  55.144  0.00  0.00    +0.000 A 
ATOM     24  H   UNL     1      -7.981  56.015  51.349  0.00  0.00    +0.000 HD
ATOM     25  H   UNL     1     -10.357  53.097  52.722  0.00  0.00    +0.000 HD
ENDBRANCH   1  17
BRANCH   3  26
ATOM     26  O   UNL     1      -8.747  54.364  49.045  0.00  0.00    +0.000 OA
ATOM     27  H   UNL     1      -8.753  53.589  48.519  0.00  0.00    +0.000 HD
ENDBRANCH   3  26
BRANCH   5  28
ATOM     28  N   UNL     1     -13.697  56.441  50.832  0.00  0.00    +0.000 N 
ATOM     29  H   UNL     1     -14.485  55.864  50.956  0.00  0.00    +0.000 HD
BRANCH  28  30
ATOM     30  C   UNL     1     -13.720  57.891  51.054  0.00  0.00    +0.000 C 
BRANCH  30  31
ATOM     31  C   UNL     1     -14.038  58.193  52.486  0.00  0.00    +0.000 C 
ATOM     32  C   UNL     1     -15.283  57.687  53.164  0.00  0.00    +0.000 C 
ATOM     33  C   UNL     1     -15.173  59.140  52.795  0.00  0.00    +0.000 C 
ENDBRANCH  30  31
ENDBRANCH  28  30
ENDBRANCH   5  28
TORSDOF 5
ENDMDL
MODEL 7
REMARK VINA RESULT:      -7.9      3.367      7.739
REMARK  Name = 
REMARK  5 active torsions:
REMARK  status: ('A' for Active; 'I' for Inactive)
REMARK    1  A    between atoms: C_6  and  C_10
REMARK    2  A    between atoms: C_14  and  O_18
REMARK    3  A    between atoms: N_17  and  N_20
REMARK    4  A    between atoms: N_20  and  C_23
REMARK    5  A    between atoms: C_23  and  C_26
REMARK                            x       y       z     vdW  Elec       q    Type
REMARK                         _______ _______ _______ _____ _____    ______ ____
ROOT
ATOM      1  C   UNL     1      -9.423  55.027  50.860  0.00  0.00    +0.000 A 
ATOM      2  C   UNL     1     -10.712  55.103  51.610  0.00  0.00    +0.000 A 
ATOM      3  C   UNL     1      -9.405  55.172  49.524  0.00  0.00    +0.000 A 
ATOM      4  O   UNL     1     -10.667  54.927  52.832  0.00  0.00    +0.000 OA
ATOM      5  N   UNL     1     -11.877  55.394  50.896  0.00  0.00    +0.000 N 
ATOM      6  C   UNL     1     -10.646  55.448  48.785  0.00  0.00    +0.000 A 
ATOM      7  C   UNL     1     -11.867  55.554  49.478  0.00  0.00    +0.000 A 
ATOM      8  C   UNL     1     -10.624  55.624  47.390  0.00  0.00    +0.000 A 
ATOM      9  C   UNL     1     -13.041  55.818  48.754  0.00  0.00    +0.000 A 
ATOM     10  C   UNL     1     -11.793  55.903  46.686  0.00  0.00    +0.000 A 
ATOM     11  C   UNL     1     -13.001  55.995  47.368  0.00  0.00    +0.000 A 
ENDROOT
BRANCH   1  17
ATOM     12  S   UNL     1      -6.670  55.483  53.622  0.00  0.00    +0.000 S 
ATOM     13  O   UNL     1      -6.993  54.790  54.853  0.00  0.00    +0.000 OA
ATOM     14  O   UNL     1      -6.088  56.811  53.658  0.00  0.00    +0.000 OA
ATOM     15  N   UNL     1      -8.017  55.550  52.729  0.00  0.00    +0.000 N 
ATOM     16  C   UNL     1      -5.502  54.467  52.792  0.00  0.00    +0.000 A 
ATOM     17  C   UNL     1      -8.140  54.842  51.646  0.00  0.00    +0.000 C 
ATOM     18  C   UNL     1      -5.910  53.825  51.634  0.00  0.00    +0.000 A 
ATOM     19  C   UNL     1      -4.204  54.339  53.290  0.00  0.00    +0.000 A 
ATOM     20  N   UNL     1      -7.211  53.949  51.155  0.00  0.00    +0.000 N 
ATOM     21  C   UNL     1      -5.003  52.972  50.998  0.00  0.00    +0.000 A 
ATOM     22  C   UNL     1      -3.300  53.515  52.626  0.00  0.00    +0.000 A 
ATOM     23  C   UNL     1      -3.702  52.822  51.486  0.00  0.00    +0.000 A 
ATOM     24  H   UNL     1      -8.756  56.138  53.010  0.00  0.00    +0.000 HD
ATOM     25  H   UNL     1      -7.486  53.360  50.417  0.00  0.00    +0.000 HD
ENDBRANCH   1  17
BRANCH   3  26
ATOM     26  O   UNL     1      -8.260  55.112  48.750  0.00  0.00    +0.000 OA
ATOM     27  H   UNL     1      -8.186  54.469  48.072  0.00  0.00    +0.000 HD
ENDBRANCH   3  26
BRANCH   5  28
ATOM     28  N   UNL     1     -13.146  55.455  51.580  0.00  0.00    +0.000 N 
ATOM     29  H   UNL     1     -13.780  54.702  51.603  0.00  0.00    +0.000 HD
BRANCH  28  30
ATOM     30  C   UNL     1     -13.404  56.742  52.236  0.00  0.00    +0.000 C 
BRANCH  30  31
ATOM     31  C   UNL     1     -14.859  57.088  52.149  0.00  0.00    +0.000 C 
ATOM     32  C   UNL     1     -15.736  56.624  51.017  0.00  0.00    +0.000 C 
ATOM     33  C   UNL     1     -15.312  58.065  51.091  0.00  0.00    +0.000 C 
ENDBRANCH  30  31
ENDBRANCH  28  30
ENDBRANCH   5  28
TORSDOF 5
ENDMDL
MODEL 8
REMARK VINA RESULT:      -7.8      3.529      4.272
REMARK  Name = 
REMARK  5 active torsions:
REMARK  status: ('A' for Active; 'I' for Inactive)
REMARK    1  A    between atoms: C_6  and  C_10
REMARK    2  A    between atoms: C_14  and  O_18
REMARK    3  A    between atoms: N_17  and  N_20
REMARK    4  A    between atoms: N_20  and  C_23
REMARK    5  A    between atoms: C_23  and  C_26
REMARK                            x       y       z     vdW  Elec       q    Type
REMARK                         _______ _______ _______ _____ _____    ______ ____
ROOT
ATOM      1  C   UNL     1     -11.521  56.032  48.741  0.00  0.00    +0.000 A 
ATOM      2  C   UNL     1     -10.422  55.454  49.570  0.00  0.00    +0.000 A 
ATOM      3  C   UNL     1     -11.676  55.655  47.461  0.00  0.00    +0.000 A 
ATOM      4  O   UNL     1     -10.311  55.866  50.730  0.00  0.00    +0.000 OA
ATOM      5  N   UNL     1      -9.611  54.470  49.001  0.00  0.00    +0.000 N 
ATOM      6  C   UNL     1     -10.794  54.640  46.867  0.00  0.00    +0.000 A 
ATOM      7  C   UNL     1      -9.770  54.061  47.642  0.00  0.00    +0.000 A 
ATOM      8  C   UNL     1     -10.970  54.227  45.535  0.00  0.00    +0.000 A 
ATOM      9  C   UNL     1      -8.938  53.092  47.058  0.00  0.00    +0.000 A 
ATOM     10  C   UNL     1     -10.148  53.253  44.973  0.00  0.00    +0.000 A 
ATOM     11  C   UNL     1      -9.130  52.690  45.733  0.00  0.00    +0.000 A 
ENDROOT
BRANCH   1  17
ATOM     12  S   UNL     1     -13.565  59.307  49.462  0.00  0.00    +0.000 S 
ATOM     13  O   UNL     1     -14.715  59.450  48.592  0.00  0.00    +0.000 OA
ATOM     14  O   UNL     1     -12.740  60.456  49.783  0.00  0.00    +0.000 OA
ATOM     15  N   UNL     1     -12.609  58.165  48.827  0.00  0.00    +0.000 N 
ATOM     16  C   UNL     1     -14.191  58.719  50.993  0.00  0.00    +0.000 A 
ATOM     17  C   UNL     1     -12.485  57.003  49.394  0.00  0.00    +0.000 C 
ATOM     18  C   UNL     1     -13.891  57.417  51.359  0.00  0.00    +0.000 A 
ATOM     19  C   UNL     1     -14.949  59.560  51.810  0.00  0.00    +0.000 A 
ATOM     20  N   UNL     1     -13.147  56.583  50.529  0.00  0.00    +0.000 N 
ATOM     21  C   UNL     1     -14.432  56.924  52.551  0.00  0.00    +0.000 A 
ATOM     22  C   UNL     1     -15.450  59.068  53.013  0.00  0.00    +0.000 A 
ATOM     23  C   UNL     1     -15.201  57.747  53.378  0.00  0.00    +0.000 A 
ATOM     24  H   UNL     1     -12.114  58.355  47.998  0.00  0.00    +0.000 HD
ATOM     25  H   UNL     1     -13.088  55.631  50.768  0.00  0.00    +0.000 HD
ENDBRANCH   1  17
BRANCH   3  26
ATOM     26  O   UNL     1     -12.662  56.141  46.619  0.00  0.00    +0.000 OA
ATOM     27  H   UNL     1     -13.556  55.895  46.755  0.00  0.00    +0.000 HD
ENDBRANCH   3  26
BRANCH   5  28
ATOM     28  N   UNL     1      -8.524  53.901  49.761  0.00  0.00    +0.000 N 
ATOM     29  H   UNL     1      -8.476  52.948  49.998  0.00  0.00    +0.000 HD
BRANCH  28  30
ATOM     30  C   UNL     1      -7.498  54.877  50.146  0.00  0.00    +0.000 C 
BRANCH  30  31
ATOM     31  C   UNL     1      -6.497  55.042  49.044  0.00  0.00    +0.000 C 
ATOM     32  C   UNL     1      -5.648  53.905  48.543  0.00  0.00    +0.000 C 
ATOM     33  C   UNL     1      -5.027  54.987  49.382  0.00  0.00    +0.000 C 
ENDBRANCH  30  31
ENDBRANCH  28  30
ENDBRANCH   5  28
TORSDOF 5
ENDMDL
MODEL 9
REMARK VINA RESULT:      -7.8      3.124      4.413
REMARK  Name = 
REMARK  5 active torsions:
REMARK  status: ('A' for Active; 'I' for Inactive)
REMARK    1  A    between atoms: C_6  and  C_10
REMARK    2  A    between atoms: C_14  and  O_18
REMARK    3  A    between atoms: N_17  and  N_20
REMARK    4  A    between atoms: N_20  and  C_23
REMARK    5  A    between atoms: C_23  and  C_26
REMARK                            x       y       z     vdW  Elec       q    Type
REMARK                         _______ _______ _______ _____ _____    ______ ____
ROOT
ATOM      1  C   UNL     1     -12.361  54.272  49.922  0.00  0.00    +0.000 A 
ATOM      2  C   UNL     1     -12.064  54.000  48.485  0.00  0.00    +0.000 A 
ATOM      3  C   UNL     1     -11.851  53.481  50.882  0.00  0.00    +0.000 A 
ATOM      4  O   UNL     1     -12.589  54.742  47.648  0.00  0.00    +0.000 OA
ATOM      5  N   UNL     1     -11.194  52.951  48.175  0.00  0.00    +0.000 N 
ATOM      6  C   UNL     1     -10.962  52.362  50.536  0.00  0.00    +0.000 A 
ATOM      7  C   UNL     1     -10.645  52.109  49.187  0.00  0.00    +0.000 A 
ATOM      8  C   UNL     1     -10.409  51.549  51.541  0.00  0.00    +0.000 A 
ATOM      9  C   UNL     1      -9.794  51.036  48.877  0.00  0.00    +0.000 A 
ATOM     10  C   UNL     1      -9.552  50.499  51.221  0.00  0.00    +0.000 A 
ATOM     11  C   UNL     1      -9.249  50.240  49.889  0.00  0.00    +0.000 A 
ENDROOT
BRANCH   1  17
ATOM     12  S   UNL     1     -15.326  56.473  51.255  0.00  0.00    +0.000 S 
ATOM     13  O   UNL     1     -15.293  56.643  52.693  0.00  0.00    +0.000 OA
ATOM     14  O   UNL     1     -16.585  56.239  50.572  0.00  0.00    +0.000 OA
ATOM     15  N   UNL     1     -14.321  55.261  50.881  0.00  0.00    +0.000 N 
ATOM     16  C   UNL     1     -14.681  57.960  50.580  0.00  0.00    +0.000 A 
ATOM     17  C   UNL     1     -13.196  55.487  50.270  0.00  0.00    +0.000 C 
ATOM     18  C   UNL     1     -13.440  57.908  49.967  0.00  0.00    +0.000 A 
ATOM     19  C   UNL     1     -15.420  59.142  50.653  0.00  0.00    +0.000 A 
ATOM     20  N   UNL     1     -12.706  56.725  49.913  0.00  0.00    +0.000 N 
ATOM     21  C   UNL     1     -12.895  59.099  49.476  0.00  0.00    +0.000 A 
ATOM     22  C   UNL     1     -14.881  60.313  50.127  0.00  0.00    +0.000 A 
ATOM     23  C   UNL     1     -13.614  60.294  49.548  0.00  0.00    +0.000 A 
ATOM     24  H   UNL     1     -14.565  54.338  51.120  0.00  0.00    +0.000 HD
ATOM     25  H   UNL     1     -11.775  56.778  49.599  0.00  0.00    +0.000 HD
ENDBRANCH   1  17
BRANCH   3  26
ATOM     26  O   UNL     1     -12.077  53.656  52.236  0.00  0.00    +0.000 OA
ATOM     27  H   UNL     1     -12.952  53.758  52.556  0.00  0.00    +0.000 HD
ENDBRANCH   3  26
BRANCH   5  28
ATOM     28  N   UNL     1     -10.898  52.642  46.797  0.00  0.00    +0.000 N 
ATOM     29  H   UNL     1     -11.136  51.784  46.376  0.00  0.00    +0.000 HD
BRANCH  28  30
ATOM     30  C   UNL     1     -10.211  53.723  46.081  0.00  0.00    +0.000 C 
BRANCH  30  31
ATOM     31  C   UNL     1      -8.807  53.868  46.582  0.00  0.00    +0.000 C 
ATOM     32  C   UNL     1      -8.326  55.101  47.299  0.00  0.00    +0.000 C 
ATOM     33  C   UNL     1      -7.883  54.839  45.886  0.00  0.00    +0.000 C 
ENDBRANCH  30  31
ENDBRANCH  28  30
ENDBRANCH   5  28
TORSDOF 5
ENDMDL
