MODEL 1
REMARK VINA RESULT:      -8.4      0.000      0.000
REMARK  Name = 
REMARK  5 active torsions:
REMARK  status: ('A' for Active; 'I' for Inactive)
REMARK    1  A    between atoms: C_6  and  C_10
REMARK    2  A    between atoms: C_14  and  O_18
REMARK    3  A    between atoms: N_17  and  N_20
REMARK    4  A    between atoms: N_20  and  C_23
REMARK    5  A    between atoms: C_23  and  C_26
REMARK                            x       y       z     vdW  Elec       q    Type
REMARK                         _______ _______ _______ _____ _____    ______ ____
ROOT
ATOM      1  C   UNL     1     -10.101  54.564  52.193  0.00  0.00    +0.000 A 
ATOM      2  C   UNL     1      -8.741  55.143  51.988  0.00  0.00    +0.000 A 
ATOM      3  C   UNL     1     -10.266  53.462  52.944  0.00  0.00    +0.000 A 
ATOM      4  O   UNL     1      -8.651  56.147  51.276  0.00  0.00    +0.000 OA
ATOM      5  N   UNL     1      -7.660  54.533  52.630  0.00  0.00    +0.000 N 
ATOM      6  C   UNL     1      -9.115  52.829  53.607  0.00  0.00    +0.000 A 
ATOM      7  C   UNL     1      -7.828  53.369  53.438  0.00  0.00    +0.000 A 
ATOM      8  C   UNL     1      -9.291  51.695  54.418  0.00  0.00    +0.000 A 
ATOM      9  C   UNL     1      -6.740  52.751  54.078  0.00  0.00    +0.000 A 
ATOM     10  C   UNL     1      -8.206  51.103  55.062  0.00  0.00    +0.000 A 
ATOM     11  C   UNL     1      -6.930  51.628  54.888  0.00  0.00    +0.000 A 
ENDROOT
BRANCH   1  17
ATOM     12  S   UNL     1     -12.580  56.031  49.521  0.00  0.00    +0.000 S 
ATOM     13  O   UNL     1     -13.476  55.027  48.988  0.00  0.00    +0.000 OA
ATOM     14  O   UNL     1     -11.984  57.024  48.645  0.00  0.00    +0.000 OA
ATOM     15  N   UNL     1     -11.378  55.264  50.289  0.00  0.00    +0.000 N 
ATOM     16  C   UNL     1     -13.509  56.934  50.710  0.00  0.00    +0.000 A 
ATOM     17  C   UNL     1     -11.293  55.280  51.587  0.00  0.00    +0.000 C 
ATOM     18  C   UNL     1     -13.190  56.761  52.045  0.00  0.00    +0.000 A 
ATOM     19  C   UNL     1     -14.523  57.799  50.293  0.00  0.00    +0.000 A 
ATOM     20  N   UNL     1     -12.183  55.888  52.445  0.00  0.00    +0.000 N 
ATOM     21  C   UNL     1     -13.967  57.426  52.999  0.00  0.00    +0.000 A 
ATOM     22  C   UNL     1     -15.266  58.481  51.252  0.00  0.00    +0.000 A 
ATOM     23  C   UNL     1     -14.995  58.287  52.607  0.00  0.00    +0.000 A 
ATOM     24  H   UNL     1     -10.702  54.778  49.766  0.00  0.00    +0.000 HD
ATOM     25  H   UNL     1     -12.100  55.692  53.407  0.00  0.00    +0.000 HD
ENDBRANCH   1  17
BRANCH   3  26
ATOM     26  O   UNL     1     -11.486  52.857  53.187  0.00  0.00    +0.000 OA
ATOM     27  H   UNL     1     -11.599  51.944  53.009  0.00  0.00    +0.000 HD
ENDBRANCH   3  26
BRANCH   5  28
ATOM     28  N   UNL     1      -6.318  55.000  52.404  0.00  0.00    +0.000 N 
ATOM     29  H   UNL     1      -5.799  55.472  53.094  0.00  0.00    +0.000 HD
BRANCH  28  30
ATOM     30  C   UNL     1      -5.779  54.717  51.065  0.00  0.00    +0.000 C 
BRANCH  30  31
ATOM     31  C   UNL     1      -4.990  53.440  51.073  0.00  0.00    +0.000 A 
ATOM     32  S   UNL     1      -5.597  52.052  50.264  0.00  0.00    +0.000 S 
ATOM     33  C   UNL     1      -3.752  53.196  51.635  0.00  0.00    +0.000 A 
ATOM     34  C   UNL     1      -4.207  51.138  50.656  0.00  0.00    +0.000 A 
ATOM     35  C   UNL     1      -3.301  51.865  51.394  0.00  0.00    +0.000 A 
ENDBRANCH  30  31
ENDBRANCH  28  30
ENDBRANCH   5  28
TORSDOF 5
ENDMDL
MODEL 2
REMARK VINA RESULT:      -8.3      3.289      4.896
REMARK  Name = 
REMARK  5 active torsions:
REMARK  status: ('A' for Active; 'I' for Inactive)
REMARK    1  A    between atoms: C_6  and  C_10
REMARK    2  A    between atoms: C_14  and  O_18
REMARK    3  A    between atoms: N_17  and  N_20
REMARK    4  A    between atoms: N_20  and  C_23
REMARK    5  A    between atoms: C_23  and  C_26
REMARK                            x       y       z     vdW  Elec       q    Type
REMARK                         _______ _______ _______ _____ _____    ______ ____
ROOT
ATOM      1  C   UNL     1     -11.429  56.045  48.812  0.00  0.00    +0.000 A 
ATOM      2  C   UNL     1     -10.330  55.502  49.664  0.00  0.00    +0.000 A 
ATOM      3  C   UNL     1     -11.557  55.651  47.534  0.00  0.00    +0.000 A 
ATOM      4  O   UNL     1     -10.255  55.912  50.827  0.00  0.00    +0.000 OA
ATOM      5  N   UNL     1      -9.472  54.550  49.108  0.00  0.00    +0.000 N 
ATOM      6  C   UNL     1     -10.639  54.653  46.963  0.00  0.00    +0.000 A 
ATOM      7  C   UNL     1      -9.607  54.119  47.754  0.00  0.00    +0.000 A 
ATOM      8  C   UNL     1     -10.791  54.218  45.635  0.00  0.00    +0.000 A 
ATOM      9  C   UNL     1      -8.740  53.167  47.193  0.00  0.00    +0.000 A 
ATOM     10  C   UNL     1      -9.936  53.259  45.096  0.00  0.00    +0.000 A 
ATOM     11  C   UNL     1      -8.907  52.738  45.873  0.00  0.00    +0.000 A 
ENDROOT
BRANCH   1  17
ATOM     12  S   UNL     1     -13.581  59.270  49.447  0.00  0.00    +0.000 S 
ATOM     13  O   UNL     1     -14.726  59.352  48.566  0.00  0.00    +0.000 OA
ATOM     14  O   UNL     1     -12.796  60.455  49.746  0.00  0.00    +0.000 OA
ATOM     15  N   UNL     1     -12.577  58.149  48.850  0.00  0.00    +0.000 N 
ATOM     16  C   UNL     1     -14.193  58.697  50.992  0.00  0.00    +0.000 A 
ATOM     17  C   UNL     1     -12.429  56.999  49.438  0.00  0.00    +0.000 C 
ATOM     18  C   UNL     1     -13.865  57.410  51.380  0.00  0.00    +0.000 A 
ATOM     19  C   UNL     1     -14.975  59.537  51.789  0.00  0.00    +0.000 A 
ATOM     20  N   UNL     1     -13.093  56.582  50.571  0.00  0.00    +0.000 N 
ATOM     21  C   UNL     1     -14.402  56.925  52.577  0.00  0.00    +0.000 A 
ATOM     22  C   UNL     1     -15.473  59.053  52.995  0.00  0.00    +0.000 A 
ATOM     23  C   UNL     1     -15.196  57.743  53.385  0.00  0.00    +0.000 A 
ATOM     24  H   UNL     1     -12.072  58.340  48.028  0.00  0.00    +0.000 HD
ATOM     25  H   UNL     1     -13.016  55.633  50.825  0.00  0.00    +0.000 HD
ENDBRANCH   1  17
BRANCH   3  26
ATOM     26  O   UNL     1     -12.542  56.101  46.673  0.00  0.00    +0.000 OA
ATOM     27  H   UNL     1     -13.340  56.450  47.017  0.00  0.00    +0.000 HD
ENDBRANCH   3  26
BRANCH   5  28
ATOM     28  N   UNL     1      -8.349  54.053  49.857  0.00  0.00    +0.000 N 
ATOM     29  H   UNL     1      -8.326  53.146  50.237  0.00  0.00    +0.000 HD
BRANCH  28  30
ATOM     30  C   UNL     1      -7.236  55.003  50.012  0.00  0.00    +0.000 C 
BRANCH  30  31
ATOM     31  C   UNL     1      -6.852  55.133  51.457  0.00  0.00    +0.000 A 
ATOM     32  S   UNL     1      -5.646  54.105  52.120  0.00  0.00    +0.000 S 
ATOM     33  C   UNL     1      -7.318  56.033  52.395  0.00  0.00    +0.000 A 
ATOM     34  C   UNL     1      -5.743  54.868  53.645  0.00  0.00    +0.000 A 
ATOM     35  C   UNL     1      -6.678  55.879  53.659  0.00  0.00    +0.000 A 
ENDBRANCH  30  31
ENDBRANCH  28  30
ENDBRANCH   5  28
TORSDOF 5
ENDMDL
MODEL 3
REMARK VINA RESULT:      -8.3      3.135      8.367
REMARK  Name = 
REMARK  5 active torsions:
REMARK  status: ('A' for Active; 'I' for Inactive)
REMARK    1  A    between atoms: C_6  and  C_10
REMARK    2  A    between atoms: C_14  and  O_18
REMARK    3  A    between atoms: N_17  and  N_20
REMARK    4  A    between atoms: N_20  and  C_23
REMARK    5  A    between atoms: C_23  and  C_26
REMARK                            x       y       z     vdW  Elec       q    Type
REMARK                         _______ _______ _______ _____ _____    ______ ____
ROOT
ATOM      1  C   UNL     1      -9.127  54.362  49.896  0.00  0.00    +0.000 A 
ATOM      2  C   UNL     1     -10.176  55.420  49.990  0.00  0.00    +0.000 A 
ATOM      3  C   UNL     1      -9.014  53.613  48.787  0.00  0.00    +0.000 A 
ATOM      4  O   UNL     1     -10.240  56.067  51.040  0.00  0.00    +0.000 OA
ATOM      5  N   UNL     1     -11.002  55.632  48.883  0.00  0.00    +0.000 N 
ATOM      6  C   UNL     1      -9.898  53.845  47.634  0.00  0.00    +0.000 A 
ATOM      7  C   UNL     1     -10.882  54.847  47.697  0.00  0.00    +0.000 A 
ATOM      8  C   UNL     1      -9.760  53.082  46.461  0.00  0.00    +0.000 A 
ATOM      9  C   UNL     1     -11.717  55.054  46.587  0.00  0.00    +0.000 A 
ATOM     10  C   UNL     1     -10.582  53.310  45.360  0.00  0.00    +0.000 A 
ATOM     11  C   UNL     1     -11.564  54.293  45.425  0.00  0.00    +0.000 A 
ENDROOT
BRANCH   1  17
ATOM     12  S   UNL     1      -7.739  54.092  53.561  0.00  0.00    +0.000 S 
ATOM     13  O   UNL     1      -7.960  52.783  54.140  0.00  0.00    +0.000 OA
ATOM     14  O   UNL     1      -7.934  55.291  54.357  0.00  0.00    +0.000 OA
ATOM     15  N   UNL     1      -8.674  54.214  52.245  0.00  0.00    +0.000 N 
ATOM     16  C   UNL     1      -6.057  54.122  53.049  0.00  0.00    +0.000 A 
ATOM     17  C   UNL     1      -8.158  54.197  51.051  0.00  0.00    +0.000 C 
ATOM     18  C   UNL     1      -5.795  54.106  51.691  0.00  0.00    +0.000 A 
ATOM     19  C   UNL     1      -5.038  54.172  54.003  0.00  0.00    +0.000 A 
ATOM     20  N   UNL     1      -6.822  54.047  50.753  0.00  0.00    +0.000 N 
ATOM     21  C   UNL     1      -4.460  54.064  51.278  0.00  0.00    +0.000 A 
ATOM     22  C   UNL     1      -3.713  54.165  53.577  0.00  0.00    +0.000 A 
ATOM     23  C   UNL     1      -3.422  54.101  52.214  0.00  0.00    +0.000 A 
ATOM     24  H   UNL     1      -9.648  54.301  52.349  0.00  0.00    +0.000 HD
ATOM     25  H   UNL     1      -6.576  53.887  49.812  0.00  0.00    +0.000 HD
ENDBRANCH   1  17
BRANCH   3  26
ATOM     26  O   UNL     1      -8.075  52.612  48.612  0.00  0.00    +0.000 OA
ATOM     27  H   UNL     1      -7.175  52.774  48.819  0.00  0.00    +0.000 HD
ENDBRANCH   3  26
BRANCH   5  28
ATOM     28  N   UNL     1     -12.080  56.582  48.947  0.00  0.00    +0.000 N 
ATOM     29  H   UNL     1     -12.007  57.491  48.578  0.00  0.00    +0.000 HD
BRANCH  28  30
ATOM     30  C   UNL     1     -13.302  56.092  49.605  0.00  0.00    +0.000 C 
BRANCH  30  31
ATOM     31  C   UNL     1     -13.661  56.971  50.768  0.00  0.00    +0.000 A 
ATOM     32  S   UNL     1     -14.252  58.560  50.492  0.00  0.00    +0.000 S 
ATOM     33  C   UNL     1     -13.626  56.674  52.116  0.00  0.00    +0.000 A 
ATOM     34  C   UNL     1     -14.467  58.840  52.163  0.00  0.00    +0.000 A 
ATOM     35  C   UNL     1     -14.090  57.754  52.922  0.00  0.00    +0.000 A 
ENDBRANCH  30  31
ENDBRANCH  28  30
ENDBRANCH   5  28
TORSDOF 5
ENDMDL
MODEL 4
REMARK VINA RESULT:      -8.2      2.178      2.507
REMARK  Name = 
REMARK  5 active torsions:
REMARK  status: ('A' for Active; 'I' for Inactive)
REMARK    1  A    between atoms: C_6  and  C_10
REMARK    2  A    between atoms: C_14  and  O_18
REMARK    3  A    between atoms: N_17  and  N_20
REMARK    4  A    between atoms: N_20  and  C_23
REMARK    5  A    between atoms: C_23  and  C_26
REMARK                            x       y       z     vdW  Elec       q    Type
REMARK                         _______ _______ _______ _____ _____    ______ ____
ROOT
ATOM      1  C   UNL     1     -11.174  54.626  50.855  0.00  0.00    +0.000 A 
ATOM      2  C   UNL     1      -9.778  55.015  50.497  0.00  0.00    +0.000 A 
ATOM      3  C   UNL     1     -11.440  53.389  51.305  0.00  0.00    +0.000 A 
ATOM      4  O   UNL     1      -9.597  56.162  50.076  0.00  0.00    +0.000 OA
ATOM      5  N   UNL     1      -8.761  54.074  50.681  0.00  0.00    +0.000 N 
ATOM      6  C   UNL     1     -10.359  52.408  51.485  0.00  0.00    +0.000 A 
ATOM      7  C   UNL     1      -9.035  52.761  51.168  0.00  0.00    +0.000 A 
ATOM      8  C   UNL     1     -10.633  51.123  51.985  0.00  0.00    +0.000 A 
ATOM      9  C   UNL     1      -8.015  51.813  51.346  0.00  0.00    +0.000 A 
ATOM     10  C   UNL     1      -9.609  50.197  52.175  0.00  0.00    +0.000 A 
ATOM     11  C   UNL     1      -8.300  50.541  51.851  0.00  0.00    +0.000 A 
ENDROOT
BRANCH   1  17
ATOM     12  S   UNL     1     -13.630  57.293  49.344  0.00  0.00    +0.000 S 
ATOM     13  O   UNL     1     -14.769  56.686  48.688  0.00  0.00    +0.000 OA
ATOM     14  O   UNL     1     -12.965  58.440  48.751  0.00  0.00    +0.000 OA
ATOM     15  N   UNL     1     -12.518  56.139  49.571  0.00  0.00    +0.000 N 
ATOM     16  C   UNL     1     -14.201  57.829  50.918  0.00  0.00    +0.000 A 
ATOM     17  C   UNL     1     -12.266  55.674  50.759  0.00  0.00    +0.000 C 
ATOM     18  C   UNL     1     -13.755  57.143  52.034  0.00  0.00    +0.000 A 
ATOM     19  C   UNL     1     -15.068  58.920  51.013  0.00  0.00    +0.000 A 
ATOM     20  N   UNL     1     -12.899  56.051  51.923  0.00  0.00    +0.000 N 
ATOM     21  C   UNL     1     -14.256  57.522  53.284  0.00  0.00    +0.000 A 
ATOM     22  C   UNL     1     -15.530  59.309  52.266  0.00  0.00    +0.000 A 
ATOM     23  C   UNL     1     -15.133  58.604  53.402  0.00  0.00    +0.000 A 
ATOM     24  H   UNL     1     -12.024  55.783  48.798  0.00  0.00    +0.000 HD
ATOM     25  H   UNL     1     -12.735  55.512  52.731  0.00  0.00    +0.000 HD
ENDBRANCH   1  17
BRANCH   3  26
ATOM     26  O   UNL     1     -12.701  52.941  51.659  0.00  0.00    +0.000 OA
ATOM     27  H   UNL     1     -13.191  52.407  51.066  0.00  0.00    +0.000 HD
ENDBRANCH   3  26
BRANCH   5  28
ATOM     28  N   UNL     1      -7.412  54.368  50.278  0.00  0.00    +0.000 N 
ATOM     29  H   UNL     1      -6.961  53.884  49.549  0.00  0.00    +0.000 HD
BRANCH  28  30
ATOM     30  C   UNL     1      -6.757  55.446  51.035  0.00  0.00    +0.000 C 
BRANCH  30  31
ATOM     31  C   UNL     1      -6.444  54.993  52.432  0.00  0.00    +0.000 A 
ATOM     32  S   UNL     1      -5.093  53.974  52.720  0.00  0.00    +0.000 S 
ATOM     33  C   UNL     1      -7.093  55.316  53.608  0.00  0.00    +0.000 A 
ATOM     34  C   UNL     1      -5.370  53.976  54.406  0.00  0.00    +0.000 A 
ATOM     35  C   UNL     1      -6.472  54.728  54.748  0.00  0.00    +0.000 A 
ENDBRANCH  30  31
ENDBRANCH  28  30
ENDBRANCH   5  28
TORSDOF 5
ENDMDL
MODEL 5
REMARK VINA RESULT:      -8.2      3.748      5.218
REMARK  Name = 
REMARK  5 active torsions:
REMARK  status: ('A' for Active; 'I' for Inactive)
REMARK    1  A    between atoms: C_6  and  C_10
REMARK    2  A    between atoms: C_14  and  O_18
REMARK    3  A    between atoms: N_17  and  N_20
REMARK    4  A    between atoms: N_20  and  C_23
REMARK    5  A    between atoms: C_23  and  C_26
REMARK                            x       y       z     vdW  Elec       q    Type
REMARK                         _______ _______ _______ _____ _____    ______ ____
ROOT
ATOM      1  C   UNL     1     -10.671  55.570  48.111  0.00  0.00    +0.000 A 
ATOM      2  C   UNL     1      -9.203  55.613  48.380  0.00  0.00    +0.000 A 
ATOM      3  C   UNL     1     -11.143  54.965  47.009  0.00  0.00    +0.000 A 
ATOM      4  O   UNL     1      -8.828  56.195  49.402  0.00  0.00    +0.000 OA
ATOM      5  N   UNL     1      -8.347  54.974  47.478  0.00  0.00    +0.000 N 
ATOM      6  C   UNL     1     -10.227  54.305  46.066  0.00  0.00    +0.000 A 
ATOM      7  C   UNL     1      -8.842  54.321  46.310  0.00  0.00    +0.000 A 
ATOM      8  C   UNL     1     -10.722  53.645  44.928  0.00  0.00    +0.000 A 
ATOM      9  C   UNL     1      -7.981  53.686  45.400  0.00  0.00    +0.000 A 
ATOM     10  C   UNL     1      -9.860  53.002  44.043  0.00  0.00    +0.000 A 
ATOM     11  C   UNL     1      -8.489  53.027  44.276  0.00  0.00    +0.000 A 
ENDROOT
BRANCH   1  17
ATOM     12  S   UNL     1     -12.974  55.910  51.276  0.00  0.00    +0.000 S 
ATOM     13  O   UNL     1     -12.217  56.147  52.487  0.00  0.00    +0.000 OA
ATOM     14  O   UNL     1     -14.107  55.002  51.282  0.00  0.00    +0.000 OA
ATOM     15  N   UNL     1     -11.939  55.403  50.138  0.00  0.00    +0.000 N 
ATOM     16  C   UNL     1     -13.613  57.473  50.784  0.00  0.00    +0.000 A 
ATOM     17  C   UNL     1     -11.614  56.168  49.138  0.00  0.00    +0.000 C 
ATOM     18  C   UNL     1     -13.077  58.064  49.654  0.00  0.00    +0.000 A 
ATOM     19  C   UNL     1     -14.636  58.072  51.523  0.00  0.00    +0.000 A 
ATOM     20  N   UNL     1     -12.051  57.458  48.934  0.00  0.00    +0.000 N 
ATOM     21  C   UNL     1     -13.535  59.335  49.295  0.00  0.00    +0.000 A 
ATOM     22  C   UNL     1     -15.107  59.323  51.134  0.00  0.00    +0.000 A 
ATOM     23  C   UNL     1     -14.550  59.960  50.025  0.00  0.00    +0.000 A 
ATOM     24  H   UNL     1     -11.550  54.502  50.204  0.00  0.00    +0.000 HD
ATOM     25  H   UNL     1     -11.608  57.988  48.232  0.00  0.00    +0.000 HD
ENDBRANCH   1  17
BRANCH   3  26
ATOM     26  O   UNL     1     -12.484  54.878  46.679  0.00  0.00    +0.000 OA
ATOM     27  H   UNL     1     -12.831  54.077  46.339  0.00  0.00    +0.000 HD
ENDBRANCH   3  26
BRANCH   5  28
ATOM     28  N   UNL     1      -6.921  55.053  47.645  0.00  0.00    +0.000 N 
ATOM     29  H   UNL     1      -6.405  55.860  47.417  0.00  0.00    +0.000 HD
BRANCH  28  30
ATOM     30  C   UNL     1      -6.289  53.838  48.182  0.00  0.00    +0.000 C 
BRANCH  30  31
ATOM     31  C   UNL     1      -6.269  53.874  49.683  0.00  0.00    +0.000 A 
ATOM     32  S   UNL     1      -7.275  52.809  50.579  0.00  0.00    +0.000 S 
ATOM     33  C   UNL     1      -5.492  54.655  50.515  0.00  0.00    +0.000 A 
ATOM     34  C   UNL     1      -6.665  53.383  52.068  0.00  0.00    +0.000 A 
ATOM     35  C   UNL     1      -5.721  54.371  51.893  0.00  0.00    +0.000 A 
ENDBRANCH  30  31
ENDBRANCH  28  30
ENDBRANCH   5  28
TORSDOF 5
ENDMDL
MODEL 6
REMARK VINA RESULT:      -8.1      4.121      5.540
REMARK  Name = 
REMARK  5 active torsions:
REMARK  status: ('A' for Active; 'I' for Inactive)
REMARK    1  A    between atoms: C_6  and  C_10
REMARK    2  A    between atoms: C_14  and  O_18
REMARK    3  A    between atoms: N_17  and  N_20
REMARK    4  A    between atoms: N_20  and  C_23
REMARK    5  A    between atoms: C_23  and  C_26
REMARK                            x       y       z     vdW  Elec       q    Type
REMARK                         _______ _______ _______ _____ _____    ______ ____
ROOT
ATOM      1  C   UNL     1     -10.342  54.887  47.773  0.00  0.00    +0.000 A 
ATOM      2  C   UNL     1      -8.852  54.971  47.775  0.00  0.00    +0.000 A 
ATOM      3  C   UNL     1     -10.992  54.361  46.721  0.00  0.00    +0.000 A 
ATOM      4  O   UNL     1      -8.312  55.477  48.764  0.00  0.00    +0.000 OA
ATOM      5  N   UNL     1      -8.159  54.453  46.678  0.00  0.00    +0.000 N 
ATOM      6  C   UNL     1     -10.246  53.828  45.571  0.00  0.00    +0.000 A 
ATOM      7  C   UNL     1      -8.841  53.884  45.561  0.00  0.00    +0.000 A 
ATOM      8  C   UNL     1     -10.924  53.250  44.483  0.00  0.00    +0.000 A 
ATOM      9  C   UNL     1      -8.145  53.370  44.455  0.00  0.00    +0.000 A 
ATOM     10  C   UNL     1     -10.221  52.727  43.400  0.00  0.00    +0.000 A 
ATOM     11  C   UNL     1      -8.831  52.791  43.384  0.00  0.00    +0.000 A 
ENDROOT
BRANCH   1  17
ATOM     12  S   UNL     1     -11.774  54.970  51.430  0.00  0.00    +0.000 S 
ATOM     13  O   UNL     1     -10.802  55.443  52.393  0.00  0.00    +0.000 OA
ATOM     14  O   UNL     1     -12.642  53.851  51.750  0.00  0.00    +0.000 OA
ATOM     15  N   UNL     1     -10.981  54.607  50.066  0.00  0.00    +0.000 N 
ATOM     16  C   UNL     1     -12.841  56.328  51.104  0.00  0.00    +0.000 A 
ATOM     17  C   UNL     1     -11.097  55.349  49.004  0.00  0.00    +0.000 C 
ATOM     18  C   UNL     1     -12.755  56.935  49.864  0.00  0.00    +0.000 A 
ATOM     19  C   UNL     1     -13.746  56.756  52.080  0.00  0.00    +0.000 A 
ATOM     20  N   UNL     1     -11.842  56.504  48.906  0.00  0.00    +0.000 N 
ATOM     21  C   UNL     1     -13.555  58.056  49.621  0.00  0.00    +0.000 A 
ATOM     22  C   UNL     1     -14.561  57.851  51.811  0.00  0.00    +0.000 A 
ATOM     23  C   UNL     1     -14.459  58.509  50.586  0.00  0.00    +0.000 A 
ATOM     24  H   UNL     1     -10.402  53.812  50.039  0.00  0.00    +0.000 HD
ATOM     25  H   UNL     1     -11.720  57.062  48.103  0.00  0.00    +0.000 HD
ENDBRANCH   1  17
BRANCH   3  26
ATOM     26  O   UNL     1     -12.367  54.244  46.631  0.00  0.00    +0.000 OA
ATOM     27  H   UNL     1     -12.800  54.422  45.819  0.00  0.00    +0.000 HD
ENDBRANCH   3  26
BRANCH   5  28
ATOM     28  N   UNL     1      -6.728  54.580  46.592  0.00  0.00    +0.000 N 
ATOM     29  H   UNL     1      -6.289  55.386  46.236  0.00  0.00    +0.000 HD
BRANCH  28  30
ATOM     30  C   UNL     1      -5.970  53.415  47.075  0.00  0.00    +0.000 C 
BRANCH  30  31
ATOM     31  C   UNL     1      -5.661  53.558  48.537  0.00  0.00    +0.000 A 
ATOM     32  S   UNL     1      -6.339  52.459  49.669  0.00  0.00    +0.000 S 
ATOM     33  C   UNL     1      -4.832  54.473  49.157  0.00  0.00    +0.000 A 
ATOM     34  C   UNL     1      -5.520  53.197  50.973  0.00  0.00    +0.000 A 
ATOM     35  C   UNL     1      -4.751  54.264  50.564  0.00  0.00    +0.000 A 
ENDBRANCH  30  31
ENDBRANCH  28  30
ENDBRANCH   5  28
TORSDOF 5
ENDMDL
MODEL 7
REMARK VINA RESULT:      -8.1      3.609      7.371
REMARK  Name = 
REMARK  5 active torsions:
REMARK  status: ('A' for Active; 'I' for Inactive)
REMARK    1  A    between atoms: C_6  and  C_10
REMARK    2  A    between atoms: C_14  and  O_18
REMARK    3  A    between atoms: N_17  and  N_20
REMARK    4  A    between atoms: N_20  and  C_23
REMARK    5  A    between atoms: C_23  and  C_26
REMARK                            x       y       z     vdW  Elec       q    Type
REMARK                         _______ _______ _______ _____ _____    ______ ____
ROOT
ATOM      1  C   UNL     1     -10.370  55.188  50.867  0.00  0.00    +0.000 A 
ATOM      2  C   UNL     1     -10.022  55.090  49.419  0.00  0.00    +0.000 A 
ATOM      3  C   UNL     1     -11.551  55.701  51.249  0.00  0.00    +0.000 A 
ATOM      4  O   UNL     1      -8.916  54.622  49.130  0.00  0.00    +0.000 OA
ATOM      5  N   UNL     1     -10.971  55.507  48.482  0.00  0.00    +0.000 N 
ATOM      6  C   UNL     1     -12.535  56.142  50.249  0.00  0.00    +0.000 A 
ATOM      7  C   UNL     1     -12.232  56.044  48.879  0.00  0.00    +0.000 A 
ATOM      8  C   UNL     1     -13.784  56.650  50.647  0.00  0.00    +0.000 A 
ATOM      9  C   UNL     1     -13.183  56.469  47.938  0.00  0.00    +0.000 A 
ATOM     10  C   UNL     1     -14.726  57.052  49.703  0.00  0.00    +0.000 A 
ATOM     11  C   UNL     1     -14.423  56.966  48.348  0.00  0.00    +0.000 A 
ENDROOT
BRANCH   1  17
ATOM     12  S   UNL     1      -7.081  54.702  52.960  0.00  0.00    +0.000 S 
ATOM     13  O   UNL     1      -6.949  55.683  54.017  0.00  0.00    +0.000 OA
ATOM     14  O   UNL     1      -5.927  54.316  52.167  0.00  0.00    +0.000 OA
ATOM     15  N   UNL     1      -8.229  55.223  51.944  0.00  0.00    +0.000 N 
ATOM     16  C   UNL     1      -7.651  53.228  53.729  0.00  0.00    +0.000 A 
ATOM     17  C   UNL     1      -9.390  54.641  51.887  0.00  0.00    +0.000 C 
ATOM     18  C   UNL     1      -8.953  52.831  53.480  0.00  0.00    +0.000 A 
ATOM     19  C   UNL     1      -6.794  52.493  54.551  0.00  0.00    +0.000 A 
ATOM     20  N   UNL     1      -9.797  53.579  52.665  0.00  0.00    +0.000 N 
ATOM     21  C   UNL     1      -9.433  51.695  54.139  0.00  0.00    +0.000 A 
ATOM     22  C   UNL     1      -7.274  51.344  55.173  0.00  0.00    +0.000 A 
ATOM     23  C   UNL     1      -8.598  50.950  54.976  0.00  0.00    +0.000 A 
ATOM     24  H   UNL     1      -8.045  55.993  51.359  0.00  0.00    +0.000 HD
ATOM     25  H   UNL     1     -10.751  53.333  52.644  0.00  0.00    +0.000 HD
ENDBRANCH   1  17
BRANCH   3  26
ATOM     26  O   UNL     1     -11.957  55.831  52.566  0.00  0.00    +0.000 OA
ATOM     27  H   UNL     1     -11.781  56.624  53.033  0.00  0.00    +0.000 HD
ENDBRANCH   3  26
BRANCH   5  28
ATOM     28  N   UNL     1     -10.658  55.509  47.078  0.00  0.00    +0.000 N 
ATOM     29  H   UNL     1      -9.990  56.117  46.686  0.00  0.00    +0.000 HD
BRANCH  28  30
ATOM     30  C   UNL     1     -11.411  54.536  46.271  0.00  0.00    +0.000 C 
BRANCH  30  31
ATOM     31  C   UNL     1     -10.495  53.821  45.320  0.00  0.00    +0.000 A 
ATOM     32  S   UNL     1      -8.793  53.962  45.499  0.00  0.00    +0.000 S 
ATOM     33  C   UNL     1     -10.824  52.980  44.275  0.00  0.00    +0.000 A 
ATOM     34  C   UNL     1      -8.503  52.897  44.194  0.00  0.00    +0.000 A 
ATOM     35  C   UNL     1      -9.674  52.447  43.625  0.00  0.00    +0.000 A 
ENDBRANCH  30  31
ENDBRANCH  28  30
ENDBRANCH   5  28
TORSDOF 5
ENDMDL
MODEL 8
REMARK VINA RESULT:      -8.0      4.513      7.369
REMARK  Name = 
REMARK  5 active torsions:
REMARK  status: ('A' for Active; 'I' for Inactive)
REMARK    1  A    between atoms: C_6  and  C_10
REMARK    2  A    between atoms: C_14  and  O_18
REMARK    3  A    between atoms: N_17  and  N_20
REMARK    4  A    between atoms: N_20  and  C_23
REMARK    5  A    between atoms: C_23  and  C_26
REMARK                            x       y       z     vdW  Elec       q    Type
REMARK                         _______ _______ _______ _____ _____    ______ ____
ROOT
ATOM      1  C   UNL     1     -11.295  54.721  48.332  0.00  0.00    +0.000 A 
ATOM      2  C   UNL     1     -11.107  54.229  49.729  0.00  0.00    +0.000 A 
ATOM      3  C   UNL     1     -12.161  55.715  48.072  0.00  0.00    +0.000 A 
ATOM      4  O   UNL     1     -10.308  53.305  49.904  0.00  0.00    +0.000 OA
ATOM      5  N   UNL     1     -11.823  54.857  50.752  0.00  0.00    +0.000 N 
ATOM      6  C   UNL     1     -12.912  56.358  49.161  0.00  0.00    +0.000 A 
ATOM      7  C   UNL     1     -12.737  55.920  50.485  0.00  0.00    +0.000 A 
ATOM      8  C   UNL     1     -13.795  57.419  48.893  0.00  0.00    +0.000 A 
ATOM      9  C   UNL     1     -13.461  56.546  51.512  0.00  0.00    +0.000 A 
ATOM     10  C   UNL     1     -14.494  58.043  49.923  0.00  0.00    +0.000 A 
ATOM     11  C   UNL     1     -14.331  57.604  51.233  0.00  0.00    +0.000 A 
ENDROOT
BRANCH   1  17
ATOM     12  S   UNL     1      -8.203  53.955  46.033  0.00  0.00    +0.000 S 
ATOM     13  O   UNL     1      -7.275  53.030  46.647  0.00  0.00    +0.000 OA
ATOM     14  O   UNL     1      -7.715  55.107  45.296  0.00  0.00    +0.000 OA
ATOM     15  N   UNL     1      -9.201  54.493  47.189  0.00  0.00    +0.000 N 
ATOM     16  C   UNL     1      -9.145  53.013  44.885  0.00  0.00    +0.000 A 
ATOM     17  C   UNL     1     -10.445  54.118  47.230  0.00  0.00    +0.000 C 
ATOM     18  C   UNL     1     -10.473  52.769  45.185  0.00  0.00    +0.000 A 
ATOM     19  C   UNL     1      -8.550  52.547  43.710  0.00  0.00    +0.000 A 
ATOM     20  N   UNL     1     -11.049  53.232  46.365  0.00  0.00    +0.000 N 
ATOM     21  C   UNL     1     -11.210  51.966  44.309  0.00  0.00    +0.000 A 
ATOM     22  C   UNL     1      -9.306  51.779  42.829  0.00  0.00    +0.000 A 
ATOM     23  C   UNL     1     -10.633  51.479  43.133  0.00  0.00    +0.000 A 
ATOM     24  H   UNL     1      -8.861  55.114  47.872  0.00  0.00    +0.000 HD
ATOM     25  H   UNL     1     -11.948  52.904  46.597  0.00  0.00    +0.000 HD
ENDBRANCH   1  17
BRANCH   3  26
ATOM     26  O   UNL     1     -12.400  56.232  46.811  0.00  0.00    +0.000 OA
ATOM     27  H   UNL     1     -12.958  56.978  46.709  0.00  0.00    +0.000 HD
ENDBRANCH   3  26
BRANCH   5  28
ATOM     28  N   UNL     1     -11.741  54.372  52.104  0.00  0.00    +0.000 N 
ATOM     29  H   UNL     1     -12.430  53.792  52.500  0.00  0.00    +0.000 HD
BRANCH  28  30
ATOM     30  C   UNL     1     -10.550  54.807  52.850  0.00  0.00    +0.000 C 
BRANCH  30  31
ATOM     31  C   UNL     1      -9.782  53.621  53.355  0.00  0.00    +0.000 A 
ATOM     32  S   UNL     1      -8.068  53.599  53.246  0.00  0.00    +0.000 S 
ATOM     33  C   UNL     1     -10.263  52.481  53.969  0.00  0.00    +0.000 A 
ATOM     34  C   UNL     1      -7.974  52.081  54.024  0.00  0.00    +0.000 A 
ATOM     35  C   UNL     1      -9.218  51.591  54.355  0.00  0.00    +0.000 A 
ENDBRANCH  30  31
ENDBRANCH  28  30
ENDBRANCH   5  28
TORSDOF 5
ENDMDL
MODEL 9
REMARK VINA RESULT:      -8.0      2.914      8.257
REMARK  Name = 
REMARK  5 active torsions:
REMARK  status: ('A' for Active; 'I' for Inactive)
REMARK    1  A    between atoms: C_6  and  C_10
REMARK    2  A    between atoms: C_14  and  O_18
REMARK    3  A    between atoms: N_17  and  N_20
REMARK    4  A    between atoms: N_20  and  C_23
REMARK    5  A    between atoms: C_23  and  C_26
REMARK                            x       y       z     vdW  Elec       q    Type
REMARK                         _______ _______ _______ _____ _____    ______ ____
ROOT
ATOM      1  C   UNL     1      -9.567  54.064  50.366  0.00  0.00    +0.000 A 
ATOM      2  C   UNL     1     -10.556  55.170  50.536  0.00  0.00    +0.000 A 
ATOM      3  C   UNL     1      -9.390  53.489  49.165  0.00  0.00    +0.000 A 
ATOM      4  O   UNL     1     -10.684  55.650  51.667  0.00  0.00    +0.000 OA
ATOM      5  N   UNL     1     -11.254  55.611  49.409  0.00  0.00    +0.000 N 
ATOM      6  C   UNL     1     -10.140  53.960  47.991  0.00  0.00    +0.000 A 
ATOM      7  C   UNL     1     -11.065  55.011  48.128  0.00  0.00    +0.000 A 
ATOM      8  C   UNL     1      -9.933  53.379  46.728  0.00  0.00    +0.000 A 
ATOM      9  C   UNL     1     -11.772  55.449  46.997  0.00  0.00    +0.000 A 
ATOM     10  C   UNL     1     -10.628  53.835  45.610  0.00  0.00    +0.000 A 
ATOM     11  C   UNL     1     -11.551  54.867  45.745  0.00  0.00    +0.000 A 
ENDROOT
BRANCH   1  17
ATOM     12  S   UNL     1      -6.489  53.663  52.775  0.00  0.00    +0.000 S 
ATOM     13  O   UNL     1      -6.266  54.840  53.587  0.00  0.00    +0.000 OA
ATOM     14  O   UNL     1      -5.368  52.951  52.187  0.00  0.00    +0.000 OA
ATOM     15  N   UNL     1      -7.498  54.073  51.577  0.00  0.00    +0.000 N 
ATOM     16  C   UNL     1      -7.306  52.501  53.811  0.00  0.00    +0.000 A 
ATOM     17  C   UNL     1      -8.728  53.652  51.561  0.00  0.00    +0.000 C 
ATOM     18  C   UNL     1      -8.638  52.231  53.554  0.00  0.00    +0.000 A 
ATOM     19  C   UNL     1      -6.606  51.876  54.847  0.00  0.00    +0.000 A 
ATOM     20  N   UNL     1      -9.324  52.868  52.525  0.00  0.00    +0.000 N 
ATOM     21  C   UNL     1      -9.311  51.357  54.414  0.00  0.00    +0.000 A 
ATOM     22  C   UNL     1      -7.280  50.982  55.673  0.00  0.00    +0.000 A 
ATOM     23  C   UNL     1      -8.636  50.729  55.465  0.00  0.00    +0.000 A 
ATOM     24  H   UNL     1      -7.176  54.651  50.849  0.00  0.00    +0.000 HD
ATOM     25  H   UNL     1     -10.301  52.752  52.482  0.00  0.00    +0.000 HD
ENDBRANCH   1  17
BRANCH   3  26
ATOM     26  O   UNL     1      -8.499  52.460  48.916  0.00  0.00    +0.000 OA
ATOM     27  H   UNL     1      -7.590  52.570  49.115  0.00  0.00    +0.000 HD
ENDBRANCH   3  26
BRANCH   5  28
ATOM     28  N   UNL     1     -12.275  56.617  49.530  0.00  0.00    +0.000 N 
ATOM     29  H   UNL     1     -12.140  57.545  49.234  0.00  0.00    +0.000 HD
BRANCH  28  30
ATOM     30  C   UNL     1     -13.537  56.154  50.128  0.00  0.00    +0.000 C 
BRANCH  30  31
ATOM     31  C   UNL     1     -14.055  57.163  51.112  0.00  0.00    +0.000 A 
ATOM     32  S   UNL     1     -14.365  58.774  50.604  0.00  0.00    +0.000 S 
ATOM     33  C   UNL     1     -14.378  56.982  52.442  0.00  0.00    +0.000 A 
ATOM     34  C   UNL     1     -14.938  59.219  52.151  0.00  0.00    +0.000 A 
ATOM     35  C   UNL     1     -14.888  58.170  53.042  0.00  0.00    +0.000 A 
ENDBRANCH  30  31
ENDBRANCH  28  30
ENDBRANCH   5  28
TORSDOF 5
ENDMDL
