MODEL 1
REMARK VINA RESULT:      -8.9      0.000      0.000
REMARK  Name = 
REMARK  5 active torsions:
REMARK  status: ('A' for Active; 'I' for Inactive)
REMARK    1  A    between atoms: C_6  and  C_10
REMARK    2  A    between atoms: C_14  and  O_18
REMARK    3  A    between atoms: N_17  and  N_20
REMARK    4  A    between atoms: N_20  and  C_23
REMARK    5  A    between atoms: C_23  and  C_26
REMARK                            x       y       z     vdW  Elec       q    Type
REMARK                         _______ _______ _______ _____ _____    ______ ____
ROOT
ATOM      1  C   UNL     1      -9.110  54.379  49.902  0.00  0.00    +0.000 A 
ATOM      2  C   UNL     1     -10.163  55.432  50.007  0.00  0.00    +0.000 A 
ATOM      3  C   UNL     1      -9.006  53.631  48.790  0.00  0.00    +0.000 A 
ATOM      4  O   UNL     1     -10.226  56.070  51.062  0.00  0.00    +0.000 OA
ATOM      5  N   UNL     1     -10.995  55.647  48.905  0.00  0.00    +0.000 N 
ATOM      6  C   UNL     1      -9.896  53.865  47.644  0.00  0.00    +0.000 A 
ATOM      7  C   UNL     1     -10.881  54.865  47.716  0.00  0.00    +0.000 A 
ATOM      8  C   UNL     1      -9.766  53.105  46.468  0.00  0.00    +0.000 A 
ATOM      9  C   UNL     1     -11.721  55.077  46.610  0.00  0.00    +0.000 A 
ATOM     10  C   UNL     1     -10.591  53.338  45.372  0.00  0.00    +0.000 A 
ATOM     11  C   UNL     1     -11.572  54.321  45.443  0.00  0.00    +0.000 A 
ENDROOT
BRANCH   1  17
ATOM     12  S   UNL     1      -7.684  54.126  53.554  0.00  0.00    +0.000 S 
ATOM     13  O   UNL     1      -7.923  52.829  54.143  0.00  0.00    +0.000 OA
ATOM     14  O   UNL     1      -7.848  55.335  54.340  0.00  0.00    +0.000 OA
ATOM     15  N   UNL     1      -8.629  54.252  52.244  0.00  0.00    +0.000 N 
ATOM     16  C   UNL     1      -6.010  54.119  53.023  0.00  0.00    +0.000 A 
ATOM     17  C   UNL     1      -8.129  54.214  51.047  0.00  0.00    +0.000 C 
ATOM     18  C   UNL     1      -5.761  54.089  51.661  0.00  0.00    +0.000 A 
ATOM     19  C   UNL     1      -4.979  54.155  53.966  0.00  0.00    +0.000 A 
ATOM     20  N   UNL     1      -6.797  54.043  50.735  0.00  0.00    +0.000 N 
ATOM     21  C   UNL     1      -4.431  54.018  51.236  0.00  0.00    +0.000 A 
ATOM     22  C   UNL     1      -3.660  54.120  53.527  0.00  0.00    +0.000 A 
ATOM     23  C   UNL     1      -3.384  54.041  52.163  0.00  0.00    +0.000 A 
ATOM     24  H   UNL     1      -9.601  54.360  52.358  0.00  0.00    +0.000 HD
ATOM     25  H   UNL     1      -6.564  53.878  49.793  0.00  0.00    +0.000 HD
ENDBRANCH   1  17
BRANCH   3  26
ATOM     26  O   UNL     1      -8.068  52.631  48.607  0.00  0.00    +0.000 OA
ATOM     27  H   UNL     1      -7.708  52.185  49.349  0.00  0.00    +0.000 HD
ENDBRANCH   3  26
BRANCH   5  28
ATOM     28  N   UNL     1     -12.077  56.588  48.984  0.00  0.00    +0.000 N 
ATOM     29  H   UNL     1     -12.018  57.494  48.602  0.00  0.00    +0.000 HD
BRANCH  28  30
ATOM     30  C   UNL     1     -13.278  56.101  49.677  0.00  0.00    +0.000 C 
BRANCH  30  31
ATOM     31  C   UNL     1     -13.760  57.086  50.706  0.00  0.00    +0.000 A 
ATOM     32  C   UNL     1     -14.306  58.310  50.325  0.00  0.00    +0.000 A 
ATOM     33  C   UNL     1     -13.693  56.811  52.072  0.00  0.00    +0.000 A 
ATOM     34  N   UNL     1     -14.756  59.246  51.190  0.00  0.00    +0.000 NA
ATOM     35  C   UNL     1     -14.147  57.756  52.987  0.00  0.00    +0.000 A 
ATOM     36  C   UNL     1     -14.660  58.949  52.503  0.00  0.00    +0.000 A 
ENDBRANCH  30  31
ENDBRANCH  28  30
ENDBRANCH   5  28
TORSDOF 5
ENDMDL
MODEL 2
REMARK VINA RESULT:      -8.9      2.580      7.344
REMARK  Name = 
REMARK  5 active torsions:
REMARK  status: ('A' for Active; 'I' for Inactive)
REMARK    1  A    between atoms: C_6  and  C_10
REMARK    2  A    between atoms: C_14  and  O_18
REMARK    3  A    between atoms: N_17  and  N_20
REMARK    4  A    between atoms: N_20  and  C_23
REMARK    5  A    between atoms: C_23  and  C_26
REMARK                            x       y       z     vdW  Elec       q    Type
REMARK                         _______ _______ _______ _____ _____    ______ ____
ROOT
ATOM      1  C   UNL     1     -11.360  56.019  48.872  0.00  0.00    +0.000 A 
ATOM      2  C   UNL     1     -10.277  55.473  49.742  0.00  0.00    +0.000 A 
ATOM      3  C   UNL     1     -11.457  55.636  47.587  0.00  0.00    +0.000 A 
ATOM      4  O   UNL     1     -10.224  55.881  50.907  0.00  0.00    +0.000 OA
ATOM      5  N   UNL     1      -9.408  54.524  49.199  0.00  0.00    +0.000 N 
ATOM      6  C   UNL     1     -10.528  54.643  47.030  0.00  0.00    +0.000 A 
ATOM      7  C   UNL     1      -9.514  54.103  47.839  0.00  0.00    +0.000 A 
ATOM      8  C   UNL     1     -10.650  54.217  45.695  0.00  0.00    +0.000 A 
ATOM      9  C   UNL     1      -8.637  53.153  47.290  0.00  0.00    +0.000 A 
ATOM     10  C   UNL     1      -9.787  53.260  45.170  0.00  0.00    +0.000 A 
ATOM     11  C   UNL     1      -8.777  52.730  45.965  0.00  0.00    +0.000 A 
ENDROOT
BRANCH   1  17
ATOM     12  S   UNL     1     -13.557  59.222  49.464  0.00  0.00    +0.000 S 
ATOM     13  O   UNL     1     -14.684  59.284  48.563  0.00  0.00    +0.000 OA
ATOM     14  O   UNL     1     -12.792  60.417  49.773  0.00  0.00    +0.000 OA
ATOM     15  N   UNL     1     -12.529  58.109  48.891  0.00  0.00    +0.000 N 
ATOM     16  C   UNL     1     -14.191  58.645  50.997  0.00  0.00    +0.000 A 
ATOM     17  C   UNL     1     -12.378  56.964  49.483  0.00  0.00    +0.000 C 
ATOM     18  C   UNL     1     -13.851  57.363  51.399  0.00  0.00    +0.000 A 
ATOM     19  C   UNL     1     -15.000  59.477  51.775  0.00  0.00    +0.000 A 
ATOM     20  N   UNL     1     -13.053  56.544  50.609  0.00  0.00    +0.000 N 
ATOM     21  C   UNL     1     -14.405  56.877  52.587  0.00  0.00    +0.000 A 
ATOM     22  C   UNL     1     -15.515  58.993  52.973  0.00  0.00    +0.000 A 
ATOM     23  C   UNL     1     -15.227  57.689  53.375  0.00  0.00    +0.000 A 
ATOM     24  H   UNL     1     -12.010  58.304  48.077  0.00  0.00    +0.000 HD
ATOM     25  H   UNL     1     -12.963  55.599  50.872  0.00  0.00    +0.000 HD
ENDBRANCH   1  17
BRANCH   3  26
ATOM     26  O   UNL     1     -12.421  56.093  46.707  0.00  0.00    +0.000 OA
ATOM     27  H   UNL     1     -12.585  57.013  46.627  0.00  0.00    +0.000 HD
ENDBRANCH   3  26
BRANCH   5  28
ATOM     28  N   UNL     1      -8.299  54.030  49.967  0.00  0.00    +0.000 N 
ATOM     29  H   UNL     1      -8.305  53.143  50.394  0.00  0.00    +0.000 HD
BRANCH  28  30
ATOM     30  C   UNL     1      -7.153  54.946  50.067  0.00  0.00    +0.000 C 
BRANCH  30  31
ATOM     31  C   UNL     1      -6.615  55.006  51.470  0.00  0.00    +0.000 A 
ATOM     32  C   UNL     1      -7.267  55.745  52.456  0.00  0.00    +0.000 A 
ATOM     33  C   UNL     1      -5.460  54.319  51.842  0.00  0.00    +0.000 A 
ATOM     34  N   UNL     1      -6.842  55.850  53.735  0.00  0.00    +0.000 NA
ATOM     35  C   UNL     1      -4.997  54.408  53.152  0.00  0.00    +0.000 A 
ATOM     36  C   UNL     1      -5.713  55.183  54.051  0.00  0.00    +0.000 A 
ENDBRANCH  30  31
ENDBRANCH  28  30
ENDBRANCH   5  28
TORSDOF 5
ENDMDL
MODEL 3
REMARK VINA RESULT:      -8.8      3.247      8.568
REMARK  Name = 
REMARK  5 active torsions:
REMARK  status: ('A' for Active; 'I' for Inactive)
REMARK    1  A    between atoms: C_6  and  C_10
REMARK    2  A    between atoms: C_14  and  O_18
REMARK    3  A    between atoms: N_17  and  N_20
REMARK    4  A    between atoms: N_20  and  C_23
REMARK    5  A    between atoms: C_23  and  C_26
REMARK                            x       y       z     vdW  Elec       q    Type
REMARK                         _______ _______ _______ _____ _____    ______ ____
ROOT
ATOM      1  C   UNL     1     -10.108  54.564  52.210  0.00  0.00    +0.000 A 
ATOM      2  C   UNL     1      -8.743  55.136  52.013  0.00  0.00    +0.000 A 
ATOM      3  C   UNL     1     -10.280  53.456  52.952  0.00  0.00    +0.000 A 
ATOM      4  O   UNL     1      -8.644  56.140  51.302  0.00  0.00    +0.000 OA
ATOM      5  N   UNL     1      -7.669  54.518  52.659  0.00  0.00    +0.000 N 
ATOM      6  C   UNL     1      -9.137  52.815  53.616  0.00  0.00    +0.000 A 
ATOM      7  C   UNL     1      -7.846  53.349  53.459  0.00  0.00    +0.000 A 
ATOM      8  C   UNL     1      -9.321  51.675  54.419  0.00  0.00    +0.000 A 
ATOM      9  C   UNL     1      -6.766  52.725  54.104  0.00  0.00    +0.000 A 
ATOM     10  C   UNL     1      -8.245  51.078  55.069  0.00  0.00    +0.000 A 
ATOM     11  C   UNL     1      -6.966  51.599  54.908  0.00  0.00    +0.000 A 
ENDROOT
BRANCH   1  17
ATOM     12  S   UNL     1     -12.574  56.060  49.543  0.00  0.00    +0.000 S 
ATOM     13  O   UNL     1     -13.465  55.059  49.002  0.00  0.00    +0.000 OA
ATOM     14  O   UNL     1     -11.976  57.061  48.678  0.00  0.00    +0.000 OA
ATOM     15  N   UNL     1     -11.375  55.288  50.312  0.00  0.00    +0.000 N 
ATOM     16  C   UNL     1     -13.508  56.949  50.735  0.00  0.00    +0.000 A 
ATOM     17  C   UNL     1     -11.295  55.291  51.607  0.00  0.00    +0.000 C 
ATOM     18  C   UNL     1     -13.192  56.770  52.073  0.00  0.00    +0.000 A 
ATOM     19  C   UNL     1     -14.524  57.814  50.322  0.00  0.00    +0.000 A 
ATOM     20  N   UNL     1     -12.185  55.897  52.469  0.00  0.00    +0.000 N 
ATOM     21  C   UNL     1     -13.975  57.425  53.028  0.00  0.00    +0.000 A 
ATOM     22  C   UNL     1     -15.271  58.488  51.283  0.00  0.00    +0.000 A 
ATOM     23  C   UNL     1     -15.005  58.287  52.636  0.00  0.00    +0.000 A 
ATOM     24  H   UNL     1     -10.695  54.807  49.787  0.00  0.00    +0.000 HD
ATOM     25  H   UNL     1     -12.100  55.700  53.430  0.00  0.00    +0.000 HD
ENDBRANCH   1  17
BRANCH   3  26
ATOM     26  O   UNL     1     -11.504  52.854  53.183  0.00  0.00    +0.000 OA
ATOM     27  H   UNL     1     -11.710  52.038  52.770  0.00  0.00    +0.000 HD
ENDBRANCH   3  26
BRANCH   5  28
ATOM     28  N   UNL     1      -6.326  54.976  52.436  0.00  0.00    +0.000 N 
ATOM     29  H   UNL     1      -5.798  55.427  53.135  0.00  0.00    +0.000 HD
BRANCH  28  30
ATOM     30  C   UNL     1      -5.796  54.724  51.088  0.00  0.00    +0.000 C 
BRANCH  30  31
ATOM     31  C   UNL     1      -5.097  53.394  51.009  0.00  0.00    +0.000 A 
ATOM     32  C   UNL     1      -5.611  52.360  50.230  0.00  0.00    +0.000 A 
ATOM     33  C   UNL     1      -3.909  53.149  51.697  0.00  0.00    +0.000 A 
ATOM     34  N   UNL     1      -5.043  51.139  50.113  0.00  0.00    +0.000 NA
ATOM     35  C   UNL     1      -3.301  51.901  51.598  0.00  0.00    +0.000 A 
ATOM     36  C   UNL     1      -3.902  50.937  50.806  0.00  0.00    +0.000 A 
ENDBRANCH  30  31
ENDBRANCH  28  30
ENDBRANCH   5  28
TORSDOF 5
ENDMDL
MODEL 4
REMARK VINA RESULT:      -8.7      2.324      5.669
REMARK  Name = 
REMARK  5 active torsions:
REMARK  status: ('A' for Active; 'I' for Inactive)
REMARK    1  A    between atoms: C_6  and  C_10
REMARK    2  A    between atoms: C_14  and  O_18
REMARK    3  A    between atoms: N_17  and  N_20
REMARK    4  A    between atoms: N_20  and  C_23
REMARK    5  A    between atoms: C_23  and  C_26
REMARK                            x       y       z     vdW  Elec       q    Type
REMARK                         _______ _______ _______ _____ _____    ______ ____
ROOT
ATOM      1  C   UNL     1     -10.407  55.180  50.920  0.00  0.00    +0.000 A 
ATOM      2  C   UNL     1     -10.094  55.078  49.464  0.00  0.00    +0.000 A 
ATOM      3  C   UNL     1     -11.575  55.705  51.329  0.00  0.00    +0.000 A 
ATOM      4  O   UNL     1      -8.996  54.610  49.149  0.00  0.00    +0.000 OA
ATOM      5  N   UNL     1     -11.065  55.494  48.549  0.00  0.00    +0.000 N 
ATOM      6  C   UNL     1     -12.580  56.147  50.352  0.00  0.00    +0.000 A 
ATOM      7  C   UNL     1     -12.312  56.041  48.976  0.00  0.00    +0.000 A 
ATOM      8  C   UNL     1     -13.816  56.665  50.779  0.00  0.00    +0.000 A 
ATOM      9  C   UNL     1     -13.286  56.465  48.057  0.00  0.00    +0.000 A 
ATOM     10  C   UNL     1     -14.780  57.063  49.857  0.00  0.00    +0.000 A 
ATOM     11  C   UNL     1     -14.514  56.968  48.496  0.00  0.00    +0.000 A 
ENDROOT
BRANCH   1  17
ATOM     12  S   UNL     1      -7.081  54.688  52.952  0.00  0.00    +0.000 S 
ATOM     13  O   UNL     1      -6.935  55.667  54.003  0.00  0.00    +0.000 OA
ATOM     14  O   UNL     1      -5.941  54.302  52.139  0.00  0.00    +0.000 OA
ATOM     15  N   UNL     1      -8.248  55.206  51.955  0.00  0.00    +0.000 N 
ATOM     16  C   UNL     1      -7.638  53.216  53.731  0.00  0.00    +0.000 A 
ATOM     17  C   UNL     1      -9.409  54.627  51.920  0.00  0.00    +0.000 C 
ATOM     18  C   UNL     1      -8.945  52.815  53.502  0.00  0.00    +0.000 A 
ATOM     19  C   UNL     1      -6.768  52.483  54.542  0.00  0.00    +0.000 A 
ATOM     20  N   UNL     1      -9.802  53.561  52.700  0.00  0.00    +0.000 N 
ATOM     21  C   UNL     1      -9.412  51.680  54.171  0.00  0.00    +0.000 A 
ATOM     22  C   UNL     1      -7.237  51.336  55.173  0.00  0.00    +0.000 A 
ATOM     23  C   UNL     1      -8.562  50.938  54.997  0.00  0.00    +0.000 A 
ATOM     24  H   UNL     1      -8.074  55.976  51.366  0.00  0.00    +0.000 HD
ATOM     25  H   UNL     1     -10.754  53.310  52.688  0.00  0.00    +0.000 HD
ENDBRANCH   1  17
BRANCH   3  26
ATOM     26  O   UNL     1     -11.947  55.845  52.654  0.00  0.00    +0.000 OA
ATOM     27  H   UNL     1     -12.606  56.467  52.893  0.00  0.00    +0.000 HD
ENDBRANCH   3  26
BRANCH   5  28
ATOM     28  N   UNL     1     -10.782  55.496  47.140  0.00  0.00    +0.000 N 
ATOM     29  H   UNL     1     -10.198  56.168  46.720  0.00  0.00    +0.000 HD
BRANCH  28  30
ATOM     30  C   UNL     1     -11.429  54.422  46.373  0.00  0.00    +0.000 C 
BRANCH  30  31
ATOM     31  C   UNL     1     -10.489  53.822  45.364  0.00  0.00    +0.000 A 
ATOM     32  C   UNL     1      -9.109  53.977  45.490  0.00  0.00    +0.000 A 
ATOM     33  C   UNL     1     -10.954  53.081  44.277  0.00  0.00    +0.000 A 
ATOM     34  N   UNL     1      -8.204  53.471  44.622  0.00  0.00    +0.000 NA
ATOM     35  C   UNL     1     -10.046  52.549  43.367  0.00  0.00    +0.000 A 
ATOM     36  C   UNL     1      -8.695  52.773  43.577  0.00  0.00    +0.000 A 
ENDBRANCH  30  31
ENDBRANCH  28  30
ENDBRANCH   5  28
TORSDOF 5
ENDMDL
MODEL 5
REMARK VINA RESULT:      -8.6      1.583      2.127
REMARK  Name = 
REMARK  5 active torsions:
REMARK  status: ('A' for Active; 'I' for Inactive)
REMARK    1  A    between atoms: C_6  and  C_10
REMARK    2  A    between atoms: C_14  and  O_18
REMARK    3  A    between atoms: N_17  and  N_20
REMARK    4  A    between atoms: N_20  and  C_23
REMARK    5  A    between atoms: C_23  and  C_26
REMARK                            x       y       z     vdW  Elec       q    Type
REMARK                         _______ _______ _______ _____ _____    ______ ____
ROOT
ATOM      1  C   UNL     1      -9.643  54.262  50.137  0.00  0.00    +0.000 A 
ATOM      2  C   UNL     1     -10.648  55.366  50.143  0.00  0.00    +0.000 A 
ATOM      3  C   UNL     1      -9.459  53.518  49.032  0.00  0.00    +0.000 A 
ATOM      4  O   UNL     1     -10.791  55.999  51.194  0.00  0.00    +0.000 OA
ATOM      5  N   UNL     1     -11.345  55.632  48.962  0.00  0.00    +0.000 N 
ATOM      6  C   UNL     1     -10.208  53.806  47.801  0.00  0.00    +0.000 A 
ATOM      7  C   UNL     1     -11.144  54.855  47.782  0.00  0.00    +0.000 A 
ATOM      8  C   UNL     1      -9.991  53.050  46.636  0.00  0.00    +0.000 A 
ATOM      9  C   UNL     1     -11.849  55.117  46.596  0.00  0.00    +0.000 A 
ATOM     10  C   UNL     1     -10.682  53.333  45.462  0.00  0.00    +0.000 A 
ATOM     11  C   UNL     1     -11.614  54.364  45.441  0.00  0.00    +0.000 A 
ENDROOT
BRANCH   1  17
ATOM     12  S   UNL     1      -6.822  54.716  52.833  0.00  0.00    +0.000 S 
ATOM     13  O   UNL     1      -7.117  55.788  53.755  0.00  0.00    +0.000 OA
ATOM     14  O   UNL     1      -5.477  54.533  52.320  0.00  0.00    +0.000 OA
ATOM     15  N   UNL     1      -7.820  54.868  51.566  0.00  0.00    +0.000 N 
ATOM     16  C   UNL     1      -7.225  53.227  53.673  0.00  0.00    +0.000 A 
ATOM     17  C   UNL     1      -8.800  54.038  51.378  0.00  0.00    +0.000 C 
ATOM     18  C   UNL     1      -8.337  52.521  53.245  0.00  0.00    +0.000 A 
ATOM     19  C   UNL     1      -6.425  52.784  54.729  0.00  0.00    +0.000 A 
ATOM     20  N   UNL     1      -9.129  52.980  52.198  0.00  0.00    +0.000 N 
ATOM     21  C   UNL     1      -8.699  51.370  53.951  0.00  0.00    +0.000 A 
ATOM     22  C   UNL     1      -6.777  51.617  55.400  0.00  0.00    +0.000 A 
ATOM     23  C   UNL     1      -7.919  50.915  55.019  0.00  0.00    +0.000 A 
ATOM     24  H   UNL     1      -7.681  55.605  50.927  0.00  0.00    +0.000 HD
ATOM     25  H   UNL     1      -9.983  52.519  52.031  0.00  0.00    +0.000 HD
ENDBRANCH   1  17
BRANCH   3  26
ATOM     26  O   UNL     1      -8.557  52.473  48.937  0.00  0.00    +0.000 OA
ATOM     27  H   UNL     1      -8.168  52.264  48.111  0.00  0.00    +0.000 HD
ENDBRANCH   3  26
BRANCH   5  28
ATOM     28  N   UNL     1     -12.382  56.626  48.938  0.00  0.00    +0.000 N 
ATOM     29  H   UNL     1     -12.254  57.512  48.526  0.00  0.00    +0.000 HD
BRANCH  28  30
ATOM     30  C   UNL     1     -13.645  56.226  49.573  0.00  0.00    +0.000 C 
BRANCH  30  31
ATOM     31  C   UNL     1     -14.053  57.194  50.650  0.00  0.00    +0.000 A 
ATOM     32  C   UNL     1     -14.325  58.527  50.349  0.00  0.00    +0.000 A 
ATOM     33  C   UNL     1     -14.186  56.796  51.981  0.00  0.00    +0.000 A 
ATOM     34  N   UNL     1     -14.692  59.454  51.262  0.00  0.00    +0.000 NA
ATOM     35  C   UNL     1     -14.561  57.729  52.943  0.00  0.00    +0.000 A 
ATOM     36  C   UNL     1     -14.795  59.034  52.540  0.00  0.00    +0.000 A 
ENDBRANCH  30  31
ENDBRANCH  28  30
ENDBRANCH   5  28
TORSDOF 5
ENDMDL
MODEL 6
REMARK VINA RESULT:      -8.5      2.554      6.991
REMARK  Name = 
REMARK  5 active torsions:
REMARK  status: ('A' for Active; 'I' for Inactive)
REMARK    1  A    between atoms: C_6  and  C_10
REMARK    2  A    between atoms: C_14  and  O_18
REMARK    3  A    between atoms: N_17  and  N_20
REMARK    4  A    between atoms: N_20  and  C_23
REMARK    5  A    between atoms: C_23  and  C_26
REMARK                            x       y       z     vdW  Elec       q    Type
REMARK                         _______ _______ _______ _____ _____    ______ ____
ROOT
ATOM      1  C   UNL     1     -10.663  55.706  48.267  0.00  0.00    +0.000 A 
ATOM      2  C   UNL     1      -9.211  55.768  48.609  0.00  0.00    +0.000 A 
ATOM      3  C   UNL     1     -11.071  55.084  47.147  0.00  0.00    +0.000 A 
ATOM      4  O   UNL     1      -8.895  56.375  49.637  0.00  0.00    +0.000 OA
ATOM      5  N   UNL     1      -8.306  55.121  47.765  0.00  0.00    +0.000 N 
ATOM      6  C   UNL     1     -10.103  54.417  46.266  0.00  0.00    +0.000 A 
ATOM      7  C   UNL     1      -8.733  54.447  46.582  0.00  0.00    +0.000 A 
ATOM      8  C   UNL     1     -10.533  53.737  45.113  0.00  0.00    +0.000 A 
ATOM      9  C   UNL     1      -7.822  53.802  45.729  0.00  0.00    +0.000 A 
ATOM     10  C   UNL     1      -9.622  53.085  44.287  0.00  0.00    +0.000 A 
ATOM     11  C   UNL     1      -8.266  53.120  44.592  0.00  0.00    +0.000 A 
ENDROOT
BRANCH   1  17
ATOM     12  S   UNL     1     -13.136  56.057  51.299  0.00  0.00    +0.000 S 
ATOM     13  O   UNL     1     -12.443  56.302  52.543  0.00  0.00    +0.000 OA
ATOM     14  O   UNL     1     -14.266  55.146  51.252  0.00  0.00    +0.000 OA
ATOM     15  N   UNL     1     -12.042  55.548  50.218  0.00  0.00    +0.000 N 
ATOM     16  C   UNL     1     -13.749  57.614  50.769  0.00  0.00    +0.000 A 
ATOM     17  C   UNL     1     -11.665  56.307  49.235  0.00  0.00    +0.000 C 
ATOM     18  C   UNL     1     -13.159  58.201  49.660  0.00  0.00    +0.000 A 
ATOM     19  C   UNL     1     -14.809  58.217  51.452  0.00  0.00    +0.000 A 
ATOM     20  N   UNL     1     -12.099  57.593  48.997  0.00  0.00    +0.000 N 
ATOM     21  C   UNL     1     -13.601  59.469  49.274  0.00  0.00    +0.000 A 
ATOM     22  C   UNL     1     -15.262  59.463  51.033  0.00  0.00    +0.000 A 
ATOM     23  C   UNL     1     -14.652  60.096  49.951  0.00  0.00    +0.000 A 
ATOM     24  H   UNL     1     -11.656  54.647  50.309  0.00  0.00    +0.000 HD
ATOM     25  H   UNL     1     -11.626  58.117  48.310  0.00  0.00    +0.000 HD
ENDBRANCH   1  17
BRANCH   3  26
ATOM     26  O   UNL     1     -12.392  54.983  46.748  0.00  0.00    +0.000 OA
ATOM     27  H   UNL     1     -12.683  54.226  46.278  0.00  0.00    +0.000 HD
ENDBRANCH   3  26
BRANCH   5  28
ATOM     28  N   UNL     1      -6.892  55.222  48.002  0.00  0.00    +0.000 N 
ATOM     29  H   UNL     1      -6.377  56.034  47.790  0.00  0.00    +0.000 HD
BRANCH  28  30
ATOM     30  C   UNL     1      -6.271  54.024  48.584  0.00  0.00    +0.000 C 
BRANCH  30  31
ATOM     31  C   UNL     1      -6.618  53.874  50.040  0.00  0.00    +0.000 A 
ATOM     32  C   UNL     1      -6.043  54.701  51.002  0.00  0.00    +0.000 A 
ATOM     33  C   UNL     1      -7.533  52.917  50.481  0.00  0.00    +0.000 A 
ATOM     34  N   UNL     1      -6.302  54.624  52.327  0.00  0.00    +0.000 NA
ATOM     35  C   UNL     1      -7.819  52.812  51.839  0.00  0.00    +0.000 A 
ATOM     36  C   UNL     1      -7.181  53.676  52.714  0.00  0.00    +0.000 A 
ENDBRANCH  30  31
ENDBRANCH  28  30
ENDBRANCH   5  28
TORSDOF 5
ENDMDL
MODEL 7
REMARK VINA RESULT:      -8.5      3.095      7.180
REMARK  Name = 
REMARK  5 active torsions:
REMARK  status: ('A' for Active; 'I' for Inactive)
REMARK    1  A    between atoms: C_6  and  C_10
REMARK    2  A    between atoms: C_14  and  O_18
REMARK    3  A    between atoms: N_17  and  N_20
REMARK    4  A    between atoms: N_20  and  C_23
REMARK    5  A    between atoms: C_23  and  C_26
REMARK                            x       y       z     vdW  Elec       q    Type
REMARK                         _______ _______ _______ _____ _____    ______ ____
ROOT
ATOM      1  C   UNL     1     -11.244  54.717  48.399  0.00  0.00    +0.000 A 
ATOM      2  C   UNL     1     -11.013  54.247  49.797  0.00  0.00    +0.000 A 
ATOM      3  C   UNL     1     -12.134  55.692  48.148  0.00  0.00    +0.000 A 
ATOM      4  O   UNL     1     -10.202  53.331  49.963  0.00  0.00    +0.000 OA
ATOM      5  N   UNL     1     -11.707  54.883  50.830  0.00  0.00    +0.000 N 
ATOM      6  C   UNL     1     -12.862  56.343  49.247  0.00  0.00    +0.000 A 
ATOM      7  C   UNL     1     -12.643  55.928  50.572  0.00  0.00    +0.000 A 
ATOM      8  C   UNL     1     -13.768  57.386  48.988  0.00  0.00    +0.000 A 
ATOM      9  C   UNL     1     -13.345  56.563  51.610  0.00  0.00    +0.000 A 
ATOM     10  C   UNL     1     -14.442  58.021  50.027  0.00  0.00    +0.000 A 
ATOM     11  C   UNL     1     -14.235  57.607  51.339  0.00  0.00    +0.000 A 
ENDROOT
BRANCH   1  17
ATOM     12  S   UNL     1      -8.199  53.966  46.032  0.00  0.00    +0.000 S 
ATOM     13  O   UNL     1      -7.245  53.069  46.640  0.00  0.00    +0.000 OA
ATOM     14  O   UNL     1      -7.749  55.113  45.264  0.00  0.00    +0.000 OA
ATOM     15  N   UNL     1      -9.181  54.507  47.202  0.00  0.00    +0.000 N 
ATOM     16  C   UNL     1      -9.151  52.989  44.926  0.00  0.00    +0.000 A 
ATOM     17  C   UNL     1     -10.414  54.112  47.282  0.00  0.00    +0.000 C 
ATOM     18  C   UNL     1     -10.471  52.730  45.260  0.00  0.00    +0.000 A 
ATOM     19  C   UNL     1      -8.576  52.509  43.747  0.00  0.00    +0.000 A 
ATOM     20  N   UNL     1     -11.026  53.206  46.442  0.00  0.00    +0.000 N 
ATOM     21  C   UNL     1     -11.213  51.899  44.415  0.00  0.00    +0.000 A 
ATOM     22  C   UNL     1      -9.338  51.713  42.898  0.00  0.00    +0.000 A 
ATOM     23  C   UNL     1     -10.653  51.398  43.236  0.00  0.00    +0.000 A 
ATOM     24  H   UNL     1      -8.834  55.147  47.866  0.00  0.00    +0.000 HD
ATOM     25  H   UNL     1     -11.917  52.874  46.698  0.00  0.00    +0.000 HD
ENDBRANCH   1  17
BRANCH   3  26
ATOM     26  O   UNL     1     -12.418  56.185  46.887  0.00  0.00    +0.000 OA
ATOM     27  H   UNL     1     -11.826  56.025  46.177  0.00  0.00    +0.000 HD
ENDBRANCH   3  26
BRANCH   5  28
ATOM     28  N   UNL     1     -11.585  54.414  52.183  0.00  0.00    +0.000 N 
ATOM     29  H   UNL     1     -12.245  53.810  52.594  0.00  0.00    +0.000 HD
BRANCH  28  30
ATOM     30  C   UNL     1     -10.403  54.901  52.908  0.00  0.00    +0.000 C 
BRANCH  30  31
ATOM     31  C   UNL     1      -9.570  53.765  53.434  0.00  0.00    +0.000 A 
ATOM     32  C   UNL     1      -8.191  53.897  53.584  0.00  0.00    +0.000 A 
ATOM     33  C   UNL     1     -10.142  52.547  53.804  0.00  0.00    +0.000 A 
ATOM     34  N   UNL     1      -7.378  52.920  54.045  0.00  0.00    +0.000 NA
ATOM     35  C   UNL     1      -9.330  51.523  54.282  0.00  0.00    +0.000 A 
ATOM     36  C   UNL     1      -7.967  51.753  54.378  0.00  0.00    +0.000 A 
ENDBRANCH  30  31
ENDBRANCH  28  30
ENDBRANCH   5  28
TORSDOF 5
ENDMDL
MODEL 8
REMARK VINA RESULT:      -8.5      2.172      5.463
REMARK  Name = 
REMARK  5 active torsions:
REMARK  status: ('A' for Active; 'I' for Inactive)
REMARK    1  A    between atoms: C_6  and  C_10
REMARK    2  A    between atoms: C_14  and  O_18
REMARK    3  A    between atoms: N_17  and  N_20
REMARK    4  A    between atoms: N_20  and  C_23
REMARK    5  A    between atoms: C_23  and  C_26
REMARK                            x       y       z     vdW  Elec       q    Type
REMARK                         _______ _______ _______ _____ _____    ______ ____
ROOT
ATOM      1  C   UNL     1     -10.532  54.979  50.672  0.00  0.00    +0.000 A 
ATOM      2  C   UNL     1     -10.268  54.908  49.204  0.00  0.00    +0.000 A 
ATOM      3  C   UNL     1     -11.613  55.630  51.136  0.00  0.00    +0.000 A 
ATOM      4  O   UNL     1      -9.246  54.318  48.838  0.00  0.00    +0.000 OA
ATOM      5  N   UNL     1     -11.196  55.488  48.336  0.00  0.00    +0.000 N 
ATOM      6  C   UNL     1     -12.574  56.243  50.208  0.00  0.00    +0.000 A 
ATOM      7  C   UNL     1     -12.353  56.169  48.822  0.00  0.00    +0.000 A 
ATOM      8  C   UNL     1     -13.722  56.894  50.693  0.00  0.00    +0.000 A 
ATOM      9  C   UNL     1     -13.283  56.758  47.950  0.00  0.00    +0.000 A 
ATOM     10  C   UNL     1     -14.647  57.457  49.817  0.00  0.00    +0.000 A 
ATOM     11  C   UNL     1     -14.426  57.393  48.446  0.00  0.00    +0.000 A 
ENDROOT
BRANCH   1  17
ATOM     12  S   UNL     1      -9.054  52.200  53.023  0.00  0.00    +0.000 S 
ATOM     13  O   UNL     1      -8.431  51.131  52.278  0.00  0.00    +0.000 OA
ATOM     14  O   UNL     1      -9.873  51.910  54.185  0.00  0.00    +0.000 OA
ATOM     15  N   UNL     1      -9.951  53.064  51.986  0.00  0.00    +0.000 N 
ATOM     16  C   UNL     1      -7.745  53.220  53.597  0.00  0.00    +0.000 A 
ATOM     17  C   UNL     1      -9.592  54.255  51.617  0.00  0.00    +0.000 C 
ATOM     18  C   UNL     1      -7.600  54.474  53.025  0.00  0.00    +0.000 A 
ATOM     19  C   UNL     1      -6.897  52.763  54.609  0.00  0.00    +0.000 A 
ATOM     20  N   UNL     1      -8.445  54.910  52.012  0.00  0.00    +0.000 N 
ATOM     21  C   UNL     1      -6.520  55.263  53.434  0.00  0.00    +0.000 A 
ATOM     22  C   UNL     1      -5.849  53.574  55.031  0.00  0.00    +0.000 A 
ATOM     23  C   UNL     1      -5.652  54.820  54.437  0.00  0.00    +0.000 A 
ATOM     24  H   UNL     1     -10.784  52.678  51.630  0.00  0.00    +0.000 HD
ATOM     25  H   UNL     1      -8.210  55.745  51.544  0.00  0.00    +0.000 HD
ENDBRANCH   1  17
BRANCH   3  26
ATOM     26  O   UNL     1     -11.934  55.752  52.476  0.00  0.00    +0.000 OA
ATOM     27  H   UNL     1     -12.502  56.442  52.761  0.00  0.00    +0.000 HD
ENDBRANCH   3  26
BRANCH   5  28
ATOM     28  N   UNL     1     -10.947  55.521  46.922  0.00  0.00    +0.000 N 
ATOM     29  H   UNL     1     -10.402  56.224  46.498  0.00  0.00    +0.000 HD
BRANCH  28  30
ATOM     30  C   UNL     1     -11.563  54.430  46.154  0.00  0.00    +0.000 C 
BRANCH  30  31
ATOM     31  C   UNL     1     -10.573  53.779  45.228  0.00  0.00    +0.000 A 
ATOM     32  C   UNL     1      -9.202  53.955  45.407  0.00  0.00    +0.000 A 
ATOM     33  C   UNL     1     -10.983  52.969  44.168  0.00  0.00    +0.000 A 
ATOM     34  N   UNL     1      -8.254  53.407  44.615  0.00  0.00    +0.000 NA
ATOM     35  C   UNL     1     -10.030  52.392  43.335  0.00  0.00    +0.000 A 
ATOM     36  C   UNL     1      -8.691  52.642  43.592  0.00  0.00    +0.000 A 
ENDBRANCH  30  31
ENDBRANCH  28  30
ENDBRANCH   5  28
TORSDOF 5
ENDMDL
MODEL 9
REMARK VINA RESULT:      -8.5      1.492      1.630
REMARK  Name = 
REMARK  5 active torsions:
REMARK  status: ('A' for Active; 'I' for Inactive)
REMARK    1  A    between atoms: C_6  and  C_10
REMARK    2  A    between atoms: C_14  and  O_18
REMARK    3  A    between atoms: N_17  and  N_20
REMARK    4  A    between atoms: N_20  and  C_23
REMARK    5  A    between atoms: C_23  and  C_26
REMARK                            x       y       z     vdW  Elec       q    Type
REMARK                         _______ _______ _______ _____ _____    ______ ____
ROOT
ATOM      1  C   UNL     1      -9.745  53.757  49.830  0.00  0.00    +0.000 A 
ATOM      2  C   UNL     1     -10.614  54.969  49.901  0.00  0.00    +0.000 A 
ATOM      3  C   UNL     1      -9.667  53.042  48.695  0.00  0.00    +0.000 A 
ATOM      4  O   UNL     1     -10.665  55.570  50.978  0.00  0.00    +0.000 OA
ATOM      5  N   UNL     1     -11.295  55.361  48.746  0.00  0.00    +0.000 N 
ATOM      6  C   UNL     1     -10.399  53.465  47.492  0.00  0.00    +0.000 A 
ATOM      7  C   UNL     1     -11.206  54.615  47.533  0.00  0.00    +0.000 A 
ATOM      8  C   UNL     1     -10.291  52.737  46.294  0.00  0.00    +0.000 A 
ATOM      9  C   UNL     1     -11.896  55.006  46.373  0.00  0.00    +0.000 A 
ATOM     10  C   UNL     1     -10.963  53.146  45.146  0.00  0.00    +0.000 A 
ATOM     11  C   UNL     1     -11.770  54.278  45.186  0.00  0.00    +0.000 A 
ENDROOT
BRANCH   1  17
ATOM     12  S   UNL     1      -8.358  51.726  52.895  0.00  0.00    +0.000 S 
ATOM     13  O   UNL     1      -7.443  50.685  52.489  0.00  0.00    +0.000 OA
ATOM     14  O   UNL     1      -9.339  51.482  53.937  0.00  0.00    +0.000 OA
ATOM     15  N   UNL     1      -9.152  52.226  51.573  0.00  0.00    +0.000 N 
ATOM     16  C   UNL     1      -7.362  53.053  53.470  0.00  0.00    +0.000 A 
ATOM     17  C   UNL     1      -8.913  53.386  51.044  0.00  0.00    +0.000 C 
ATOM     18  C   UNL     1      -7.299  54.201  52.697  0.00  0.00    +0.000 A 
ATOM     19  C   UNL     1      -6.674  52.934  54.680  0.00  0.00    +0.000 A 
ATOM     20  N   UNL     1      -7.982  54.300  51.490  0.00  0.00    +0.000 N 
ATOM     21  C   UNL     1      -6.457  55.234  53.119  0.00  0.00    +0.000 A 
ATOM     22  C   UNL     1      -5.868  53.985  55.105  0.00  0.00    +0.000 A 
ATOM     23  C   UNL     1      -5.749  55.131  54.321  0.00  0.00    +0.000 A 
ATOM     24  H   UNL     1      -9.828  51.638  51.165  0.00  0.00    +0.000 HD
ATOM     25  H   UNL     1      -7.789  55.075  50.915  0.00  0.00    +0.000 HD
ENDBRANCH   1  17
BRANCH   3  26
ATOM     26  O   UNL     1      -8.896  51.905  48.540  0.00  0.00    +0.000 OA
ATOM     27  H   UNL     1      -8.384  51.584  49.257  0.00  0.00    +0.000 HD
ENDBRANCH   3  26
BRANCH   5  28
ATOM     28  N   UNL     1     -12.209  56.470  48.783  0.00  0.00    +0.000 N 
ATOM     29  H   UNL     1     -11.976  57.358  48.427  0.00  0.00    +0.000 HD
BRANCH  28  30
ATOM     30  C   UNL     1     -13.517  56.180  49.389  0.00  0.00    +0.000 C 
BRANCH  30  31
ATOM     31  C   UNL     1     -13.833  57.139  50.504  0.00  0.00    +0.000 A 
ATOM     32  C   UNL     1     -14.163  58.466  50.234  0.00  0.00    +0.000 A 
ATOM     33  C   UNL     1     -13.822  56.740  51.840  0.00  0.00    +0.000 A 
ATOM     34  N   UNL     1     -14.454  59.386  51.181  0.00  0.00    +0.000 NA
ATOM     35  C   UNL     1     -14.116  57.664  52.837  0.00  0.00    +0.000 A 
ATOM     36  C   UNL     1     -14.418  58.964  52.463  0.00  0.00    +0.000 A 
ENDBRANCH  30  31
ENDBRANCH  28  30
ENDBRANCH   5  28
TORSDOF 5
ENDMDL
