MODEL 1
REMARK VINA RESULT:      -8.3      0.000      0.000
REMARK  Name = 
REMARK  5 active torsions:
REMARK  status: ('A' for Active; 'I' for Inactive)
REMARK    1  A    between atoms: C_6  and  C_10
REMARK    2  A    between atoms: C_14  and  O_18
REMARK    3  A    between atoms: N_17  and  N_20
REMARK    4  A    between atoms: N_20  and  C_23
REMARK    5  A    between atoms: C_23  and  C_26
REMARK                            x       y       z     vdW  Elec       q    Type
REMARK                         _______ _______ _______ _____ _____    ______ ____
ROOT
ATOM      1  C   UNL     1     -11.360  53.929  51.556  0.00  0.00    +0.000 A 
ATOM      2  C   UNL     1     -10.395  54.097  52.682  0.00  0.00    +0.000 A 
ATOM      3  C   UNL     1     -11.506  52.735  50.958  0.00  0.00    +0.000 A 
ATOM      4  O   UNL     1     -10.275  55.228  53.163  0.00  0.00    +0.000 OA
ATOM      5  N   UNL     1      -9.711  52.968  53.140  0.00  0.00    +0.000 N 
ATOM      6  C   UNL     1     -10.750  51.565  51.428  0.00  0.00    +0.000 A 
ATOM      7  C   UNL     1      -9.864  51.694  52.513  0.00  0.00    +0.000 A 
ATOM      8  C   UNL     1     -10.917  50.310  50.816  0.00  0.00    +0.000 A 
ATOM      9  C   UNL     1      -9.152  50.564  52.951  0.00  0.00    +0.000 A 
ATOM     10  C   UNL     1     -10.217  49.194  51.269  0.00  0.00    +0.000 A 
ATOM     11  C   UNL     1      -9.333  49.323  52.333  0.00  0.00    +0.000 A 
ENDROOT
BRANCH   1  17
ATOM     12  S   UNL     1     -12.911  56.809  49.383  0.00  0.00    +0.000 S 
ATOM     13  O   UNL     1     -13.944  56.332  48.486  0.00  0.00    +0.000 OA
ATOM     14  O   UNL     1     -11.945  57.789  48.927  0.00  0.00    +0.000 OA
ATOM     15  N   UNL     1     -12.095  55.517  49.922  0.00  0.00    +0.000 N 
ATOM     16  C   UNL     1     -13.748  57.542  50.739  0.00  0.00    +0.000 A 
ATOM     17  C   UNL     1     -12.210  55.117  51.150  0.00  0.00    +0.000 C 
ATOM     18  C   UNL     1     -13.698  56.890  51.958  0.00  0.00    +0.000 A 
ATOM     19  C   UNL     1     -14.426  58.753  50.570  0.00  0.00    +0.000 A 
ATOM     20  N   UNL     1     -13.029  55.679  52.108  0.00  0.00    +0.000 N 
ATOM     21  C   UNL     1     -14.416  57.437  53.027  0.00  0.00    +0.000 A 
ATOM     22  C   UNL     1     -15.103  59.307  51.653  0.00  0.00    +0.000 A 
ATOM     23  C   UNL     1     -15.108  58.643  52.879  0.00  0.00    +0.000 A 
ATOM     24  H   UNL     1     -11.502  55.027  49.306  0.00  0.00    +0.000 HD
ATOM     25  H   UNL     1     -13.148  55.190  52.954  0.00  0.00    +0.000 HD
ENDBRANCH   1  17
BRANCH   3  26
ATOM     26  O   UNL     1     -12.369  52.491  49.904  0.00  0.00    +0.000 OA
ATOM     27  H   UNL     1     -12.028  52.245  49.067  0.00  0.00    +0.000 HD
ENDBRANCH   3  26
BRANCH   5  28
ATOM     28  N   UNL     1      -8.757  53.088  54.214  0.00  0.00    +0.000 N 
ATOM     29  H   UNL     1      -8.991  52.943  55.160  0.00  0.00    +0.000 HD
BRANCH  28  30
ATOM     30  C   UNL     1      -7.406  53.447  53.769  0.00  0.00    +0.000 C 
BRANCH  30  31
ATOM     31  C   UNL     1      -6.974  54.732  54.403  0.00  0.00    +0.000 C 
ATOM     32  C   UNL     1      -6.806  56.006  53.619  0.00  0.00    +0.000 C 
ATOM     33  C   UNL     1      -5.591  55.263  54.100  0.00  0.00    +0.000 C 
ENDBRANCH  30  31
ENDBRANCH  28  30
ENDBRANCH   5  28
TORSDOF 5
ENDMDL
MODEL 2
REMARK VINA RESULT:      -8.2      2.204      2.813
REMARK  Name = 
REMARK  5 active torsions:
REMARK  status: ('A' for Active; 'I' for Inactive)
REMARK    1  A    between atoms: C_6  and  C_10
REMARK    2  A    between atoms: C_14  and  O_18
REMARK    3  A    between atoms: N_17  and  N_20
REMARK    4  A    between atoms: N_20  and  C_23
REMARK    5  A    between atoms: C_23  and  C_26
REMARK                            x       y       z     vdW  Elec       q    Type
REMARK                         _______ _______ _______ _____ _____    ______ ____
ROOT
ATOM      1  C   UNL     1     -10.091  54.555  52.176  0.00  0.00    +0.000 A 
ATOM      2  C   UNL     1      -8.730  55.127  51.957  0.00  0.00    +0.000 A 
ATOM      3  C   UNL     1     -10.254  53.459  52.935  0.00  0.00    +0.000 A 
ATOM      4  O   UNL     1      -8.639  56.109  51.214  0.00  0.00    +0.000 OA
ATOM      5  N   UNL     1      -7.651  54.538  52.623  0.00  0.00    +0.000 N 
ATOM      6  C   UNL     1      -9.103  52.830  53.599  0.00  0.00    +0.000 A 
ATOM      7  C   UNL     1      -7.817  53.377  53.436  0.00  0.00    +0.000 A 
ATOM      8  C   UNL     1      -9.275  51.695  54.412  0.00  0.00    +0.000 A 
ATOM      9  C   UNL     1      -6.728  52.764  54.081  0.00  0.00    +0.000 A 
ATOM     10  C   UNL     1      -8.190  51.106  55.057  0.00  0.00    +0.000 A 
ATOM     11  C   UNL     1      -6.918  51.638  54.888  0.00  0.00    +0.000 A 
ENDROOT
BRANCH   1  17
ATOM     12  S   UNL     1     -12.570  56.037  49.516  0.00  0.00    +0.000 S 
ATOM     13  O   UNL     1     -13.469  55.036  48.976  0.00  0.00    +0.000 OA
ATOM     14  O   UNL     1     -11.974  57.028  48.641  0.00  0.00    +0.000 OA
ATOM     15  N   UNL     1     -11.372  55.259  50.279  0.00  0.00    +0.000 N 
ATOM     16  C   UNL     1     -13.499  56.932  50.705  0.00  0.00    +0.000 A 
ATOM     17  C   UNL     1     -11.282  55.273  51.573  0.00  0.00    +0.000 C 
ATOM     18  C   UNL     1     -13.176  56.758  52.039  0.00  0.00    +0.000 A 
ATOM     19  C   UNL     1     -14.517  57.796  50.292  0.00  0.00    +0.000 A 
ATOM     20  N   UNL     1     -12.167  55.886  52.436  0.00  0.00    +0.000 N 
ATOM     21  C   UNL     1     -13.955  57.419  52.996  0.00  0.00    +0.000 A 
ATOM     22  C   UNL     1     -15.258  58.478  51.253  0.00  0.00    +0.000 A 
ATOM     23  C   UNL     1     -14.984  58.281  52.606  0.00  0.00    +0.000 A 
ATOM     24  H   UNL     1     -10.701  54.767  49.752  0.00  0.00    +0.000 HD
ATOM     25  H   UNL     1     -12.080  55.692  53.397  0.00  0.00    +0.000 HD
ENDBRANCH   1  17
BRANCH   3  26
ATOM     26  O   UNL     1     -11.475  52.858  53.185  0.00  0.00    +0.000 OA
ATOM     27  H   UNL     1     -12.225  53.385  53.382  0.00  0.00    +0.000 HD
ENDBRANCH   3  26
BRANCH   5  28
ATOM     28  N   UNL     1      -6.317  55.048  52.427  0.00  0.00    +0.000 N 
ATOM     29  H   UNL     1      -5.962  55.827  52.914  0.00  0.00    +0.000 HD
BRANCH  28  30
ATOM     30  C   UNL     1      -5.537  54.301  51.434  0.00  0.00    +0.000 C 
BRANCH  30  31
ATOM     31  C   UNL     1      -5.534  55.025  50.123  0.00  0.00    +0.000 C 
ATOM     32  C   UNL     1      -6.327  54.552  48.934  0.00  0.00    +0.000 C 
ATOM     33  C   UNL     1      -4.833  54.390  48.944  0.00  0.00    +0.000 C 
ENDBRANCH  30  31
ENDBRANCH  28  30
ENDBRANCH   5  28
TORSDOF 5
ENDMDL
MODEL 3
REMARK VINA RESULT:      -8.1      3.998      4.875
REMARK  Name = 
REMARK  5 active torsions:
REMARK  status: ('A' for Active; 'I' for Inactive)
REMARK    1  A    between atoms: C_6  and  C_10
REMARK    2  A    between atoms: C_14  and  O_18
REMARK    3  A    between atoms: N_17  and  N_20
REMARK    4  A    between atoms: N_20  and  C_23
REMARK    5  A    between atoms: C_23  and  C_26
REMARK                            x       y       z     vdW  Elec       q    Type
REMARK                         _______ _______ _______ _____ _____    ______ ____
ROOT
ATOM      1  C   UNL     1     -10.664  55.633  48.137  0.00  0.00    +0.000 A 
ATOM      2  C   UNL     1      -9.200  55.730  48.409  0.00  0.00    +0.000 A 
ATOM      3  C   UNL     1     -11.111  54.990  47.046  0.00  0.00    +0.000 A 
ATOM      4  O   UNL     1      -8.849  56.372  49.405  0.00  0.00    +0.000 OA
ATOM      5  N   UNL     1      -8.322  55.071  47.544  0.00  0.00    +0.000 N 
ATOM      6  C   UNL     1     -10.171  54.333  46.125  0.00  0.00    +0.000 A 
ATOM      7  C   UNL     1      -8.789  54.380  46.386  0.00  0.00    +0.000 A 
ATOM      8  C   UNL     1     -10.639  53.641  44.995  0.00  0.00    +0.000 A 
ATOM      9  C   UNL     1      -7.905  53.745  45.498  0.00  0.00    +0.000 A 
ATOM     10  C   UNL     1      -9.754  53.002  44.129  0.00  0.00    +0.000 A 
ATOM     11  C   UNL     1      -8.388  53.057  44.379  0.00  0.00    +0.000 A 
ENDROOT
BRANCH   1  17
ATOM     12  S   UNL     1     -13.025  55.957  51.257  0.00  0.00    +0.000 S 
ATOM     13  O   UNL     1     -12.293  56.196  52.485  0.00  0.00    +0.000 OA
ATOM     14  O   UNL     1     -14.149  55.040  51.245  0.00  0.00    +0.000 OA
ATOM     15  N   UNL     1     -11.962  55.459  50.141  0.00  0.00    +0.000 N 
ATOM     16  C   UNL     1     -13.662  57.515  50.762  0.00  0.00    +0.000 A 
ATOM     17  C   UNL     1     -11.627  56.223  49.148  0.00  0.00    +0.000 C 
ATOM     18  C   UNL     1     -13.114  58.109  49.640  0.00  0.00    +0.000 A 
ATOM     19  C   UNL     1     -14.699  58.109  51.488  0.00  0.00    +0.000 A 
ATOM     20  N   UNL     1     -12.075  57.511  48.934  0.00  0.00    +0.000 N 
ATOM     21  C   UNL     1     -13.574  59.380  49.277  0.00  0.00    +0.000 A 
ATOM     22  C   UNL     1     -15.174  59.357  51.092  0.00  0.00    +0.000 A 
ATOM     23  C   UNL     1     -14.604  59.997  49.994  0.00  0.00    +0.000 A 
ATOM     24  H   UNL     1     -11.563  54.562  50.219  0.00  0.00    +0.000 HD
ATOM     25  H   UNL     1     -11.628  58.042  48.236  0.00  0.00    +0.000 HD
ENDBRANCH   1  17
BRANCH   3  26
ATOM     26  O   UNL     1     -12.447  54.858  46.711  0.00  0.00    +0.000 OA
ATOM     27  H   UNL     1     -13.105  55.267  47.239  0.00  0.00    +0.000 HD
ENDBRANCH   3  26
BRANCH   5  28
ATOM     28  N   UNL     1      -6.898  55.153  47.761  0.00  0.00    +0.000 N 
ATOM     29  H   UNL     1      -6.321  55.804  47.299  0.00  0.00    +0.000 HD
BRANCH  28  30
ATOM     30  C   UNL     1      -6.390  54.178  48.732  0.00  0.00    +0.000 C 
BRANCH  30  31
ATOM     31  C   UNL     1      -5.654  54.876  49.833  0.00  0.00    +0.000 C 
ATOM     32  C   UNL     1      -4.719  54.154  50.767  0.00  0.00    +0.000 C 
ATOM     33  C   UNL     1      -6.063  54.609  51.263  0.00  0.00    +0.000 C 
ENDBRANCH  30  31
ENDBRANCH  28  30
ENDBRANCH   5  28
TORSDOF 5
ENDMDL
MODEL 4
REMARK VINA RESULT:      -8.1      2.924      7.349
REMARK  Name = 
REMARK  5 active torsions:
REMARK  status: ('A' for Active; 'I' for Inactive)
REMARK    1  A    between atoms: C_6  and  C_10
REMARK    2  A    between atoms: C_14  and  O_18
REMARK    3  A    between atoms: N_17  and  N_20
REMARK    4  A    between atoms: N_20  and  C_23
REMARK    5  A    between atoms: C_23  and  C_26
REMARK                            x       y       z     vdW  Elec       q    Type
REMARK                         _______ _______ _______ _____ _____    ______ ____
ROOT
ATOM      1  C   UNL     1     -10.454  54.918  50.499  0.00  0.00    +0.000 A 
ATOM      2  C   UNL     1     -11.586  55.092  51.456  0.00  0.00    +0.000 A 
ATOM      3  C   UNL     1     -10.599  55.256  49.207  0.00  0.00    +0.000 A 
ATOM      4  O   UNL     1     -11.405  54.723  52.621  0.00  0.00    +0.000 OA
ATOM      5  N   UNL     1     -12.762  55.682  50.988  0.00  0.00    +0.000 N 
ATOM      6  C   UNL     1     -11.857  55.842  48.722  0.00  0.00    +0.000 A 
ATOM      7  C   UNL     1     -12.923  56.049  49.618  0.00  0.00    +0.000 A 
ATOM      8  C   UNL     1     -12.003  56.215  47.375  0.00  0.00    +0.000 A 
ATOM      9  C   UNL     1     -14.117  56.613  49.138  0.00  0.00    +0.000 A 
ATOM     10  C   UNL     1     -13.187  56.787  46.914  0.00  0.00    +0.000 A 
ATOM     11  C   UNL     1     -14.244  56.982  47.795  0.00  0.00    +0.000 A 
ENDROOT
BRANCH   1  17
ATOM     12  S   UNL     1      -7.208  52.746  50.909  0.00  0.00    +0.000 S 
ATOM     13  O   UNL     1      -6.179  53.100  49.952  0.00  0.00    +0.000 OA
ATOM     14  O   UNL     1      -7.466  51.353  51.221  0.00  0.00    +0.000 OA
ATOM     15  N   UNL     1      -8.597  53.410  50.403  0.00  0.00    +0.000 N 
ATOM     16  C   UNL     1      -6.747  53.507  52.421  0.00  0.00    +0.000 A 
ATOM     17  C   UNL     1      -9.128  54.412  51.031  0.00  0.00    +0.000 C 
ATOM     18  C   UNL     1      -7.510  54.571  52.867  0.00  0.00    +0.000 A 
ATOM     19  C   UNL     1      -5.648  53.027  53.139  0.00  0.00    +0.000 A 
ATOM     20  N   UNL     1      -8.595  55.046  52.135  0.00  0.00    +0.000 N 
ATOM     21  C   UNL     1      -7.110  55.223  54.038  0.00  0.00    +0.000 A 
ATOM     22  C   UNL     1      -5.284  53.660  54.324  0.00  0.00    +0.000 A 
ATOM     23  C   UNL     1      -6.008  54.765  54.768  0.00  0.00    +0.000 A 
ATOM     24  H   UNL     1      -9.045  53.045  49.605  0.00  0.00    +0.000 HD
ATOM     25  H   UNL     1      -9.008  55.891  52.423  0.00  0.00    +0.000 HD
ENDBRANCH   1  17
BRANCH   3  26
ATOM     26  O   UNL     1      -9.608  55.122  48.250  0.00  0.00    +0.000 OA
ATOM     27  H   UNL     1      -8.782  55.549  48.368  0.00  0.00    +0.000 HD
ENDBRANCH   3  26
BRANCH   5  28
ATOM     28  N   UNL     1     -13.886  55.853  51.875  0.00  0.00    +0.000 N 
ATOM     29  H   UNL     1     -14.605  55.186  51.967  0.00  0.00    +0.000 HD
BRANCH  28  30
ATOM     30  C   UNL     1     -13.861  57.112  52.627  0.00  0.00    +0.000 C 
BRANCH  30  31
ATOM     31  C   UNL     1     -15.091  57.916  52.338  0.00  0.00    +0.000 C 
ATOM     32  C   UNL     1     -15.053  59.203  51.558  0.00  0.00    +0.000 C 
ATOM     33  C   UNL     1     -15.277  59.239  53.044  0.00  0.00    +0.000 C 
ENDBRANCH  30  31
ENDBRANCH  28  30
ENDBRANCH   5  28
TORSDOF 5
ENDMDL
MODEL 5
REMARK VINA RESULT:      -8.0      3.429      7.622
REMARK  Name = 
REMARK  5 active torsions:
REMARK  status: ('A' for Active; 'I' for Inactive)
REMARK    1  A    between atoms: C_6  and  C_10
REMARK    2  A    between atoms: C_14  and  O_18
REMARK    3  A    between atoms: N_17  and  N_20
REMARK    4  A    between atoms: N_20  and  C_23
REMARK    5  A    between atoms: C_23  and  C_26
REMARK                            x       y       z     vdW  Elec       q    Type
REMARK                         _______ _______ _______ _____ _____    ______ ____
ROOT
ATOM      1  C   UNL     1     -10.200  55.260  50.705  0.00  0.00    +0.000 A 
ATOM      2  C   UNL     1      -9.750  55.195  49.283  0.00  0.00    +0.000 A 
ATOM      3  C   UNL     1     -11.421  55.729  51.011  0.00  0.00    +0.000 A 
ATOM      4  O   UNL     1      -8.601  54.795  49.069  0.00  0.00    +0.000 OA
ATOM      5  N   UNL     1     -10.658  55.561  48.286  0.00  0.00    +0.000 N 
ATOM      6  C   UNL     1     -12.351  56.145  49.951  0.00  0.00    +0.000 A 
ATOM      7  C   UNL     1     -11.960  56.055  48.602  0.00  0.00    +0.000 A 
ATOM      8  C   UNL     1     -13.637  56.616  50.269  0.00  0.00    +0.000 A 
ATOM      9  C   UNL     1     -12.863  56.454  47.602  0.00  0.00    +0.000 A 
ATOM     10  C   UNL     1     -14.528  56.995  49.268  0.00  0.00    +0.000 A 
ATOM     11  C   UNL     1     -14.140  56.917  47.936  0.00  0.00    +0.000 A 
ENDROOT
BRANCH   1  17
ATOM     12  S   UNL     1      -7.050  54.850  53.013  0.00  0.00    +0.000 S 
ATOM     13  O   UNL     1      -7.026  55.813  54.096  0.00  0.00    +0.000 OA
ATOM     14  O   UNL     1      -5.831  54.529  52.296  0.00  0.00    +0.000 OA
ATOM     15  N   UNL     1      -8.146  55.354  51.933  0.00  0.00    +0.000 N 
ATOM     16  C   UNL     1      -7.613  53.345  53.716  0.00  0.00    +0.000 A 
ATOM     17  C   UNL     1      -9.273  54.730  51.781  0.00  0.00    +0.000 C 
ATOM     18  C   UNL     1      -8.876  52.902  53.366  0.00  0.00    +0.000 A 
ATOM     19  C   UNL     1      -6.789  52.628  54.588  0.00  0.00    +0.000 A 
ATOM     20  N   UNL     1      -9.690  53.632  52.505  0.00  0.00    +0.000 N 
ATOM     21  C   UNL     1      -9.356  51.736  53.972  0.00  0.00    +0.000 A 
ATOM     22  C   UNL     1      -7.264  51.448  55.154  0.00  0.00    +0.000 A 
ATOM     23  C   UNL     1      -8.552  51.008  54.855  0.00  0.00    +0.000 A 
ATOM     24  H   UNL     1      -7.954  56.148  51.382  0.00  0.00    +0.000 HD
ATOM     25  H   UNL     1     -10.627  53.347  52.407  0.00  0.00    +0.000 HD
ENDBRANCH   1  17
BRANCH   3  26
ATOM     26  O   UNL     1     -11.916  55.832  52.299  0.00  0.00    +0.000 OA
ATOM     27  H   UNL     1     -11.423  55.489  53.019  0.00  0.00    +0.000 HD
ENDBRANCH   3  26
BRANCH   5  28
ATOM     28  N   UNL     1     -10.260  55.529  46.900  0.00  0.00    +0.000 N 
ATOM     29  H   UNL     1     -10.076  56.343  46.375  0.00  0.00    +0.000 HD
BRANCH  28  30
ATOM     30  C   UNL     1     -10.154  54.176  46.345  0.00  0.00    +0.000 C 
BRANCH  30  31
ATOM     31  C   UNL     1     -11.224  53.948  45.323  0.00  0.00    +0.000 C 
ATOM     32  C   UNL     1     -11.996  52.659  45.231  0.00  0.00    +0.000 C 
ATOM     33  C   UNL     1     -10.957  52.980  44.194  0.00  0.00    +0.000 C 
ENDBRANCH  30  31
ENDBRANCH  28  30
ENDBRANCH   5  28
TORSDOF 5
ENDMDL
MODEL 6
REMARK VINA RESULT:      -8.0      3.333      7.683
REMARK  Name = 
REMARK  5 active torsions:
REMARK  status: ('A' for Active; 'I' for Inactive)
REMARK    1  A    between atoms: C_6  and  C_10
REMARK    2  A    between atoms: C_14  and  O_18
REMARK    3  A    between atoms: N_17  and  N_20
REMARK    4  A    between atoms: N_20  and  C_23
REMARK    5  A    between atoms: C_23  and  C_26
REMARK                            x       y       z     vdW  Elec       q    Type
REMARK                         _______ _______ _______ _____ _____    ______ ____
ROOT
ATOM      1  C   UNL     1      -9.707  55.170  50.915  0.00  0.00    +0.000 A 
ATOM      2  C   UNL     1     -10.931  55.308  51.758  0.00  0.00    +0.000 A 
ATOM      3  C   UNL     1      -9.779  55.323  49.582  0.00  0.00    +0.000 A 
ATOM      4  O   UNL     1     -10.809  55.114  52.972  0.00  0.00    +0.000 OA
ATOM      5  N   UNL     1     -12.126  55.673  51.132  0.00  0.00    +0.000 N 
ATOM      6  C   UNL     1     -11.053  55.671  48.936  0.00  0.00    +0.000 A 
ATOM      7  C   UNL     1     -12.210  55.843  49.718  0.00  0.00    +0.000 A 
ATOM      8  C   UNL     1     -11.125  55.852  47.543  0.00  0.00    +0.000 A 
ATOM      9  C   UNL     1     -13.418  56.178  49.083  0.00  0.00    +0.000 A 
ATOM     10  C   UNL     1     -12.326  56.198  46.928  0.00  0.00    +0.000 A 
ATOM     11  C   UNL     1     -13.471  56.358  47.697  0.00  0.00    +0.000 A 
ENDROOT
BRANCH   1  17
ATOM     12  S   UNL     1      -6.780  55.394  53.523  0.00  0.00    +0.000 S 
ATOM     13  O   UNL     1      -7.038  54.614  54.716  0.00  0.00    +0.000 OA
ATOM     14  O   UNL     1      -6.183  56.712  53.628  0.00  0.00    +0.000 OA
ATOM     15  N   UNL     1      -8.180  55.543  52.721  0.00  0.00    +0.000 N 
ATOM     16  C   UNL     1      -5.679  54.438  52.547  0.00  0.00    +0.000 A 
ATOM     17  C   UNL     1      -8.381  54.916  51.603  0.00  0.00    +0.000 C 
ATOM     18  C   UNL     1      -6.169  53.883  51.378  0.00  0.00    +0.000 A 
ATOM     19  C   UNL     1      -4.352  54.267  52.953  0.00  0.00    +0.000 A 
ATOM     20  N   UNL     1      -7.496  54.051  50.993  0.00  0.00    +0.000 N 
ATOM     21  C   UNL     1      -5.315  53.066  50.629  0.00  0.00    +0.000 A 
ATOM     22  C   UNL     1      -3.502  53.485  52.177  0.00  0.00    +0.000 A 
ATOM     23  C   UNL     1      -3.986  52.875  51.021  0.00  0.00    +0.000 A 
ATOM     24  H   UNL     1      -8.889  56.118  53.088  0.00  0.00    +0.000 HD
ATOM     25  H   UNL     1      -7.825  53.517  50.235  0.00  0.00    +0.000 HD
ENDBRANCH   1  17
BRANCH   3  26
ATOM     26  O   UNL     1      -8.699  55.205  48.725  0.00  0.00    +0.000 OA
ATOM     27  H   UNL     1      -7.952  55.760  48.834  0.00  0.00    +0.000 HD
ENDBRANCH   3  26
BRANCH   5  28
ATOM     28  N   UNL     1     -13.336  55.801  51.907  0.00  0.00    +0.000 N 
ATOM     29  H   UNL     1     -13.997  55.076  51.995  0.00  0.00    +0.000 HD
BRANCH  28  30
ATOM     30  C   UNL     1     -13.493  57.111  52.549  0.00  0.00    +0.000 C 
BRANCH  30  31
ATOM     31  C   UNL     1     -14.821  57.706  52.199  0.00  0.00    +0.000 C 
ATOM     32  C   UNL     1     -14.963  58.876  51.262  0.00  0.00    +0.000 C 
ATOM     33  C   UNL     1     -15.169  59.075  52.737  0.00  0.00    +0.000 C 
ENDBRANCH  30  31
ENDBRANCH  28  30
ENDBRANCH   5  28
TORSDOF 5
ENDMDL
MODEL 7
REMARK VINA RESULT:      -7.8      3.470      4.222
REMARK  Name = 
REMARK  5 active torsions:
REMARK  status: ('A' for Active; 'I' for Inactive)
REMARK    1  A    between atoms: C_6  and  C_10
REMARK    2  A    between atoms: C_14  and  O_18
REMARK    3  A    between atoms: N_17  and  N_20
REMARK    4  A    between atoms: N_20  and  C_23
REMARK    5  A    between atoms: C_23  and  C_26
REMARK                            x       y       z     vdW  Elec       q    Type
REMARK                         _______ _______ _______ _____ _____    ______ ____
ROOT
ATOM      1  C   UNL     1     -11.549  56.008  48.750  0.00  0.00    +0.000 A 
ATOM      2  C   UNL     1     -10.475  55.400  49.590  0.00  0.00    +0.000 A 
ATOM      3  C   UNL     1     -11.689  55.651  47.463  0.00  0.00    +0.000 A 
ATOM      4  O   UNL     1     -10.370  55.801  50.753  0.00  0.00    +0.000 OA
ATOM      5  N   UNL     1      -9.679  54.402  49.022  0.00  0.00    +0.000 N 
ATOM      6  C   UNL     1     -10.818  54.625  46.870  0.00  0.00    +0.000 A 
ATOM      7  C   UNL     1      -9.825  54.012  47.657  0.00  0.00    +0.000 A 
ATOM      8  C   UNL     1     -10.978  54.235  45.529  0.00  0.00    +0.000 A 
ATOM      9  C   UNL     1      -9.003  53.031  47.076  0.00  0.00    +0.000 A 
ATOM     10  C   UNL     1     -10.166  53.251  44.969  0.00  0.00    +0.000 A 
ATOM     11  C   UNL     1      -9.178  52.652  45.741  0.00  0.00    +0.000 A 
ENDROOT
BRANCH   1  17
ATOM     12  S   UNL     1     -13.568  59.298  49.469  0.00  0.00    +0.000 S 
ATOM     13  O   UNL     1     -14.712  59.450  48.593  0.00  0.00    +0.000 OA
ATOM     14  O   UNL     1     -12.736  60.443  49.788  0.00  0.00    +0.000 OA
ATOM     15  N   UNL     1     -12.616  58.149  48.838  0.00  0.00    +0.000 N 
ATOM     16  C   UNL     1     -14.202  58.716  50.997  0.00  0.00    +0.000 A 
ATOM     17  C   UNL     1     -12.508  56.986  49.399  0.00  0.00    +0.000 C 
ATOM     18  C   UNL     1     -13.922  57.410  51.357  0.00  0.00    +0.000 A 
ATOM     19  C   UNL     1     -14.954  59.567  51.813  0.00  0.00    +0.000 A 
ATOM     20  N   UNL     1     -13.182  56.570  50.529  0.00  0.00    +0.000 N 
ATOM     21  C   UNL     1     -14.478  56.920  52.544  0.00  0.00    +0.000 A 
ATOM     22  C   UNL     1     -15.468  59.078  53.011  0.00  0.00    +0.000 A 
ATOM     23  C   UNL     1     -15.240  57.751  53.371  0.00  0.00    +0.000 A 
ATOM     24  H   UNL     1     -12.111  58.339  48.013  0.00  0.00    +0.000 HD
ATOM     25  H   UNL     1     -13.138  55.616  50.765  0.00  0.00    +0.000 HD
ENDBRANCH   1  17
BRANCH   3  26
ATOM     26  O   UNL     1     -12.649  56.167  46.610  0.00  0.00    +0.000 OA
ATOM     27  H   UNL     1     -13.020  57.011  46.780  0.00  0.00    +0.000 HD
ENDBRANCH   3  26
BRANCH   5  28
ATOM     28  N   UNL     1      -8.619  53.799  49.793  0.00  0.00    +0.000 N 
ATOM     29  H   UNL     1      -8.596  52.841  50.018  0.00  0.00    +0.000 HD
BRANCH  28  30
ATOM     30  C   UNL     1      -7.579  54.746  50.211  0.00  0.00    +0.000 C 
BRANCH  30  31
ATOM     31  C   UNL     1      -6.646  55.029  49.075  0.00  0.00    +0.000 C 
ATOM     32  C   UNL     1      -5.714  53.988  48.514  0.00  0.00    +0.000 C 
ATOM     33  C   UNL     1      -5.163  55.105  49.355  0.00  0.00    +0.000 C 
ENDBRANCH  30  31
ENDBRANCH  28  30
ENDBRANCH   5  28
TORSDOF 5
ENDMDL
MODEL 8
REMARK VINA RESULT:      -7.5      3.075      4.517
REMARK  Name = 
REMARK  5 active torsions:
REMARK  status: ('A' for Active; 'I' for Inactive)
REMARK    1  A    between atoms: C_6  and  C_10
REMARK    2  A    between atoms: C_14  and  O_18
REMARK    3  A    between atoms: N_17  and  N_20
REMARK    4  A    between atoms: N_20  and  C_23
REMARK    5  A    between atoms: C_23  and  C_26
REMARK                            x       y       z     vdW  Elec       q    Type
REMARK                         _______ _______ _______ _____ _____    ______ ____
ROOT
ATOM      1  C   UNL     1     -11.708  56.008  48.682  0.00  0.00    +0.000 A 
ATOM      2  C   UNL     1     -10.622  55.373  49.484  0.00  0.00    +0.000 A 
ATOM      3  C   UNL     1     -11.896  55.662  47.398  0.00  0.00    +0.000 A 
ATOM      4  O   UNL     1     -10.472  55.764  50.647  0.00  0.00    +0.000 OA
ATOM      5  N   UNL     1      -9.864  54.362  48.887  0.00  0.00    +0.000 N 
ATOM      6  C   UNL     1     -11.065  54.623  46.773  0.00  0.00    +0.000 A 
ATOM      7  C   UNL     1     -10.061  53.985  47.524  0.00  0.00    +0.000 A 
ATOM      8  C   UNL     1     -11.274  54.245  45.435  0.00  0.00    +0.000 A 
ATOM      9  C   UNL     1      -9.278  52.992  46.912  0.00  0.00    +0.000 A 
ATOM     10  C   UNL     1     -10.501  53.249  44.843  0.00  0.00    +0.000 A 
ATOM     11  C   UNL     1      -9.501  52.625  45.581  0.00  0.00    +0.000 A 
ENDROOT
BRANCH   1  17
ATOM     12  S   UNL     1     -13.614  59.342  49.501  0.00  0.00    +0.000 S 
ATOM     13  O   UNL     1     -14.767  59.547  48.647  0.00  0.00    +0.000 OA
ATOM     14  O   UNL     1     -12.743  60.455  49.828  0.00  0.00    +0.000 OA
ATOM     15  N   UNL     1     -12.708  58.179  48.831  0.00  0.00    +0.000 N 
ATOM     16  C   UNL     1     -14.241  58.749  51.027  0.00  0.00    +0.000 A 
ATOM     17  C   UNL     1     -12.626  57.001  49.367  0.00  0.00    +0.000 C 
ATOM     18  C   UNL     1     -13.995  57.427  51.356  0.00  0.00    +0.000 A 
ATOM     19  C   UNL     1     -14.953  59.605  51.873  0.00  0.00    +0.000 A 
ATOM     20  N   UNL     1     -13.295  56.583  50.500  0.00  0.00    +0.000 N 
ATOM     21  C   UNL     1     -14.546  56.930  52.542  0.00  0.00    +0.000 A 
ATOM     22  C   UNL     1     -15.462  59.108  53.069  0.00  0.00    +0.000 A 
ATOM     23  C   UNL     1     -15.269  57.767  53.398  0.00  0.00    +0.000 A 
ATOM     24  H   UNL     1     -12.210  58.369  48.002  0.00  0.00    +0.000 HD
ATOM     25  H   UNL     1     -13.275  55.623  50.716  0.00  0.00    +0.000 HD
ENDBRANCH   1  17
BRANCH   3  26
ATOM     26  O   UNL     1     -12.871  56.204  46.579  0.00  0.00    +0.000 OA
ATOM     27  H   UNL     1     -12.625  56.729  45.842  0.00  0.00    +0.000 HD
ENDBRANCH   3  26
BRANCH   5  28
ATOM     28  N   UNL     1      -8.793  53.734  49.620  0.00  0.00    +0.000 N 
ATOM     29  H   UNL     1      -7.842  53.860  49.397  0.00  0.00    +0.000 HD
BRANCH  28  30
ATOM     30  C   UNL     1      -9.251  52.888  50.728  0.00  0.00    +0.000 C 
BRANCH  30  31
ATOM     31  C   UNL     1     -10.065  51.745  50.208  0.00  0.00    +0.000 C 
ATOM     32  C   UNL     1     -11.556  51.657  50.400  0.00  0.00    +0.000 C 
ATOM     33  C   UNL     1     -10.649  50.760  51.194  0.00  0.00    +0.000 C 
ENDBRANCH  30  31
ENDBRANCH  28  30
ENDBRANCH   5  28
TORSDOF 5
ENDMDL
MODEL 9
REMARK VINA RESULT:      -7.5      3.417      7.576
REMARK  Name = 
REMARK  5 active torsions:
REMARK  status: ('A' for Active; 'I' for Inactive)
REMARK    1  A    between atoms: C_6  and  C_10
REMARK    2  A    between atoms: C_14  and  O_18
REMARK    3  A    between atoms: N_17  and  N_20
REMARK    4  A    between atoms: N_20  and  C_23
REMARK    5  A    between atoms: C_23  and  C_26
REMARK                            x       y       z     vdW  Elec       q    Type
REMARK                         _______ _______ _______ _____ _____    ______ ____
ROOT
ATOM      1  C   UNL     1     -10.434  54.870  50.487  0.00  0.00    +0.000 A 
ATOM      2  C   UNL     1     -10.021  54.904  49.053  0.00  0.00    +0.000 A 
ATOM      3  C   UNL     1     -11.604  55.407  50.870  0.00  0.00    +0.000 A 
ATOM      4  O   UNL     1      -8.914  54.433  48.770  0.00  0.00    +0.000 OA
ATOM      5  N   UNL     1     -10.915  55.436  48.120  0.00  0.00    +0.000 N 
ATOM      6  C   UNL     1     -12.518  55.996  49.880  0.00  0.00    +0.000 A 
ATOM      7  C   UNL     1     -12.163  56.002  48.518  0.00  0.00    +0.000 A 
ATOM      8  C   UNL     1     -13.753  56.538  50.276  0.00  0.00    +0.000 A 
ATOM      9  C   UNL     1     -13.049  56.567  47.585  0.00  0.00    +0.000 A 
ATOM     10  C   UNL     1     -14.629  57.083  49.340  0.00  0.00    +0.000 A 
ATOM     11  C   UNL     1     -14.276  57.099  47.996  0.00  0.00    +0.000 A 
ENDROOT
BRANCH   1  17
ATOM     12  S   UNL     1      -9.083  52.182  53.011  0.00  0.00    +0.000 S 
ATOM     13  O   UNL     1      -8.482  51.046  52.343  0.00  0.00    +0.000 OA
ATOM     14  O   UNL     1      -9.933  51.981  54.169  0.00  0.00    +0.000 OA
ATOM     15  N   UNL     1      -9.933  53.008  51.906  0.00  0.00    +0.000 N 
ATOM     16  C   UNL     1      -7.751  53.187  53.552  0.00  0.00    +0.000 A 
ATOM     17  C   UNL     1      -9.533  54.167  51.482  0.00  0.00    +0.000 C 
ATOM     18  C   UNL     1      -7.557  54.400  52.915  0.00  0.00    +0.000 A 
ATOM     19  C   UNL     1      -6.935  52.760  54.604  0.00  0.00    +0.000 A 
ATOM     20  N   UNL     1      -8.371  54.807  51.862  0.00  0.00    +0.000 N 
ATOM     21  C   UNL     1      -6.458  55.176  53.299  0.00  0.00    +0.000 A 
ATOM     22  C   UNL     1      -5.868  53.561  55.002  0.00  0.00    +0.000 A 
ATOM     23  C   UNL     1      -5.623  54.764  54.342  0.00  0.00    +0.000 A 
ATOM     24  H   UNL     1     -10.767  52.623  51.550  0.00  0.00    +0.000 HD
ATOM     25  H   UNL     1      -8.099  55.604  51.353  0.00  0.00    +0.000 HD
ENDBRANCH   1  17
BRANCH   3  26
ATOM     26  O   UNL     1     -12.063  55.427  52.176  0.00  0.00    +0.000 OA
ATOM     27  H   UNL     1     -12.850  55.889  52.388  0.00  0.00    +0.000 HD
ENDBRANCH   3  26
BRANCH   5  28
ATOM     28  N   UNL     1     -10.549  55.503  46.727  0.00  0.00    +0.000 N 
ATOM     29  H   UNL     1     -10.001  56.230  46.350  0.00  0.00    +0.000 HD
BRANCH  28  30
ATOM     30  C   UNL     1     -11.069  54.391  45.924  0.00  0.00    +0.000 C 
BRANCH  30  31
ATOM     31  C   UNL     1      -9.981  53.403  45.639  0.00  0.00    +0.000 C 
ATOM     32  C   UNL     1      -8.788  53.735  44.782  0.00  0.00    +0.000 C 
ATOM     33  C   UNL     1      -9.863  52.833  44.244  0.00  0.00    +0.000 C 
ENDBRANCH  30  31
ENDBRANCH  28  30
ENDBRANCH   5  28
TORSDOF 5
ENDMDL
