MODEL 1
REMARK VINA RESULT:      -8.2      0.000      0.000
REMARK  Name = 
REMARK  5 active torsions:
REMARK  status: ('A' for Active; 'I' for Inactive)
REMARK    1  A    between atoms: C_6  and  C_10
REMARK    2  A    between atoms: C_14  and  O_18
REMARK    3  A    between atoms: N_17  and  N_20
REMARK    4  A    between atoms: N_20  and  C_23
REMARK    5  A    between atoms: C_23  and  C_26
REMARK                            x       y       z     vdW  Elec       q    Type
REMARK                         _______ _______ _______ _____ _____    ______ ____
ROOT
ATOM      1  C   UNL     1     -11.287  53.882  51.573  0.00  0.00    +0.000 A 
ATOM      2  C   UNL     1     -10.337  54.058  52.710  0.00  0.00    +0.000 A 
ATOM      3  C   UNL     1     -11.446  52.686  50.987  0.00  0.00    +0.000 A 
ATOM      4  O   UNL     1     -10.277  55.182  53.218  0.00  0.00    +0.000 OA
ATOM      5  N   UNL     1      -9.615  52.942  53.145  0.00  0.00    +0.000 N 
ATOM      6  C   UNL     1     -10.686  51.524  51.459  0.00  0.00    +0.000 A 
ATOM      7  C   UNL     1      -9.777  51.664  52.524  0.00  0.00    +0.000 A 
ATOM      8  C   UNL     1     -10.892  50.262  50.879  0.00  0.00    +0.000 A 
ATOM      9  C   UNL     1      -9.081  50.533  52.972  0.00  0.00    +0.000 A 
ATOM     10  C   UNL     1     -10.227  49.139  51.361  0.00  0.00    +0.000 A 
ATOM     11  C   UNL     1      -9.317  49.276  52.407  0.00  0.00    +0.000 A 
ENDROOT
BRANCH   1  17
ATOM     12  S   UNL     1     -12.795  56.748  49.376  0.00  0.00    +0.000 S 
ATOM     13  O   UNL     1     -13.805  56.249  48.463  0.00  0.00    +0.000 OA
ATOM     14  O   UNL     1     -11.834  57.743  48.934  0.00  0.00    +0.000 OA
ATOM     15  N   UNL     1     -11.973  55.477  49.934  0.00  0.00    +0.000 N 
ATOM     16  C   UNL     1     -13.659  57.476  50.722  0.00  0.00    +0.000 A 
ATOM     17  C   UNL     1     -12.137  55.056  51.155  0.00  0.00    +0.000 C 
ATOM     18  C   UNL     1     -13.649  56.810  51.938  0.00  0.00    +0.000 A 
ATOM     19  C   UNL     1     -14.329  58.682  50.541  0.00  0.00    +0.000 A 
ATOM     20  N   UNL     1     -13.003  55.587  52.085  0.00  0.00    +0.000 N 
ATOM     21  C   UNL     1     -14.374  57.359  52.996  0.00  0.00    +0.000 A 
ATOM     22  C   UNL     1     -15.028  59.233  51.612  0.00  0.00    +0.000 A 
ATOM     23  C   UNL     1     -15.056  58.568  52.839  0.00  0.00    +0.000 A 
ATOM     24  H   UNL     1     -11.336  55.014  49.343  0.00  0.00    +0.000 HD
ATOM     25  H   UNL     1     -13.176  55.069  52.903  0.00  0.00    +0.000 HD
ENDBRANCH   1  17
BRANCH   3  26
ATOM     26  O   UNL     1     -12.344  52.428  49.965  0.00  0.00    +0.000 OA
ATOM     27  H   UNL     1     -13.026  51.797  50.088  0.00  0.00    +0.000 HD
ENDBRANCH   3  26
BRANCH   5  28
ATOM     28  N   UNL     1      -8.684  53.045  54.246  0.00  0.00    +0.000 N 
ATOM     29  H   UNL     1      -8.945  52.871  55.179  0.00  0.00    +0.000 HD
BRANCH  28  30
ATOM     30  C   UNL     1      -7.322  53.428  53.863  0.00  0.00    +0.000 C 
BRANCH  30  31
ATOM     31  C   UNL     1      -6.968  54.758  54.455  0.00  0.00    +0.000 C 
ATOM     32  C   UNL     1      -6.832  56.007  53.626  0.00  0.00    +0.000 C 
ATOM     33  C   UNL     1      -5.603  55.340  54.179  0.00  0.00    +0.000 C 
ENDBRANCH  30  31
ENDBRANCH  28  30
ENDBRANCH   5  28
TORSDOF 5
ENDMDL
MODEL 2
REMARK VINA RESULT:      -8.1      3.966      4.885
REMARK  Name = 
REMARK  5 active torsions:
REMARK  status: ('A' for Active; 'I' for Inactive)
REMARK    1  A    between atoms: C_6  and  C_10
REMARK    2  A    between atoms: C_14  and  O_18
REMARK    3  A    between atoms: N_17  and  N_20
REMARK    4  A    between atoms: N_20  and  C_23
REMARK    5  A    between atoms: C_23  and  C_26
REMARK                            x       y       z     vdW  Elec       q    Type
REMARK                         _______ _______ _______ _____ _____    ______ ____
ROOT
ATOM      1  C   UNL     1     -10.665  55.684  48.161  0.00  0.00    +0.000 A 
ATOM      2  C   UNL     1      -9.204  55.778  48.447  0.00  0.00    +0.000 A 
ATOM      3  C   UNL     1     -11.115  55.022  47.084  0.00  0.00    +0.000 A 
ATOM      4  O   UNL     1      -8.875  56.373  49.478  0.00  0.00    +0.000 OA
ATOM      5  N   UNL     1      -8.317  55.158  47.561  0.00  0.00    +0.000 N 
ATOM      6  C   UNL     1     -10.173  54.372  46.167  0.00  0.00    +0.000 A 
ATOM      7  C   UNL     1      -8.788  54.452  46.410  0.00  0.00    +0.000 A 
ATOM      8  C   UNL     1     -10.647  53.636  45.070  0.00  0.00    +0.000 A 
ATOM      9  C   UNL     1      -7.910  53.803  45.531  0.00  0.00    +0.000 A 
ATOM     10  C   UNL     1      -9.767  52.961  44.231  0.00  0.00    +0.000 A 
ATOM     11  C   UNL     1      -8.396  53.048  44.461  0.00  0.00    +0.000 A 
ENDROOT
BRANCH   1  17
ATOM     12  S   UNL     1     -13.099  55.964  51.213  0.00  0.00    +0.000 S 
ATOM     13  O   UNL     1     -12.380  56.157  52.456  0.00  0.00    +0.000 OA
ATOM     14  O   UNL     1     -14.244  55.073  51.159  0.00  0.00    +0.000 OA
ATOM     15  N   UNL     1     -12.034  55.471  50.105  0.00  0.00    +0.000 N 
ATOM     16  C   UNL     1     -13.695  57.547  50.734  0.00  0.00    +0.000 A 
ATOM     17  C   UNL     1     -11.635  56.269  49.157  0.00  0.00    +0.000 C 
ATOM     18  C   UNL     1     -13.088  58.170  49.654  0.00  0.00    +0.000 A 
ATOM     19  C   UNL     1     -14.740  58.134  51.441  0.00  0.00    +0.000 A 
ATOM     20  N   UNL     1     -12.021  57.580  48.986  0.00  0.00    +0.000 N 
ATOM     21  C   UNL     1     -13.526  59.447  49.301  0.00  0.00    +0.000 A 
ATOM     22  C   UNL     1     -15.183  59.399  51.062  0.00  0.00    +0.000 A 
ATOM     23  C   UNL     1     -14.571  60.058  49.995  0.00  0.00    +0.000 A 
ATOM     24  H   UNL     1     -11.682  54.553  50.146  0.00  0.00    +0.000 HD
ATOM     25  H   UNL     1     -11.510  58.132  48.352  0.00  0.00    +0.000 HD
ENDBRANCH   1  17
BRANCH   3  26
ATOM     26  O   UNL     1     -12.454  54.844  46.777  0.00  0.00    +0.000 OA
ATOM     27  H   UNL     1     -12.699  54.421  45.977  0.00  0.00    +0.000 HD
ENDBRANCH   3  26
BRANCH   5  28
ATOM     28  N   UNL     1      -6.890  55.207  47.786  0.00  0.00    +0.000 N 
ATOM     29  H   UNL     1      -6.303  55.853  47.332  0.00  0.00    +0.000 HD
BRANCH  28  30
ATOM     30  C   UNL     1      -6.387  54.218  48.746  0.00  0.00    +0.000 C 
BRANCH  30  31
ATOM     31  C   UNL     1      -5.657  54.900  49.862  0.00  0.00    +0.000 C 
ATOM     32  C   UNL     1      -4.746  54.163  50.807  0.00  0.00    +0.000 C 
ATOM     33  C   UNL     1      -6.090  54.638  51.284  0.00  0.00    +0.000 C 
ENDBRANCH  30  31
ENDBRANCH  28  30
ENDBRANCH   5  28
TORSDOF 5
ENDMDL
MODEL 3
REMARK VINA RESULT:      -8.1      2.214      2.808
REMARK  Name = 
REMARK  5 active torsions:
REMARK  status: ('A' for Active; 'I' for Inactive)
REMARK    1  A    between atoms: C_6  and  C_10
REMARK    2  A    between atoms: C_14  and  O_18
REMARK    3  A    between atoms: N_17  and  N_20
REMARK    4  A    between atoms: N_20  and  C_23
REMARK    5  A    between atoms: C_23  and  C_26
REMARK                            x       y       z     vdW  Elec       q    Type
REMARK                         _______ _______ _______ _____ _____    ______ ____
ROOT
ATOM      1  C   UNL     1     -10.061  54.524  52.142  0.00  0.00    +0.000 A 
ATOM      2  C   UNL     1      -8.705  55.112  51.939  0.00  0.00    +0.000 A 
ATOM      3  C   UNL     1     -10.232  53.434  52.905  0.00  0.00    +0.000 A 
ATOM      4  O   UNL     1      -8.637  56.136  51.253  0.00  0.00    +0.000 OA
ATOM      5  N   UNL     1      -7.617  54.494  52.565  0.00  0.00    +0.000 N 
ATOM      6  C   UNL     1      -9.083  52.801  53.560  0.00  0.00    +0.000 A 
ATOM      7  C   UNL     1      -7.791  53.331  53.379  0.00  0.00    +0.000 A 
ATOM      8  C   UNL     1      -9.270  51.692  54.400  0.00  0.00    +0.000 A 
ATOM      9  C   UNL     1      -6.712  52.721  54.034  0.00  0.00    +0.000 A 
ATOM     10  C   UNL     1      -8.198  51.123  55.079  0.00  0.00    +0.000 A 
ATOM     11  C   UNL     1      -6.916  51.636  54.892  0.00  0.00    +0.000 A 
ENDROOT
BRANCH   1  17
ATOM     12  S   UNL     1     -12.530  55.997  49.486  0.00  0.00    +0.000 S 
ATOM     13  O   UNL     1     -13.424  54.983  48.965  0.00  0.00    +0.000 OA
ATOM     14  O   UNL     1     -11.945  56.987  48.599  0.00  0.00    +0.000 OA
ATOM     15  N   UNL     1     -11.325  55.240  50.247  0.00  0.00    +0.000 N 
ATOM     16  C   UNL     1     -13.449  56.903  50.680  0.00  0.00    +0.000 A 
ATOM     17  C   UNL     1     -11.251  55.234  51.547  0.00  0.00    +0.000 C 
ATOM     18  C   UNL     1     -13.137  56.715  52.019  0.00  0.00    +0.000 A 
ATOM     19  C   UNL     1     -14.456  57.768  50.265  0.00  0.00    +0.000 A 
ATOM     20  N   UNL     1     -12.151  55.818  52.412  0.00  0.00    +0.000 N 
ATOM     21  C   UNL     1     -13.897  57.395  52.972  0.00  0.00    +0.000 A 
ATOM     22  C   UNL     1     -15.190  58.459  51.226  0.00  0.00    +0.000 A 
ATOM     23  C   UNL     1     -14.914  58.267  52.581  0.00  0.00    +0.000 A 
ATOM     24  H   UNL     1     -10.634  54.777  49.720  0.00  0.00    +0.000 HD
ATOM     25  H   UNL     1     -12.092  55.584  53.366  0.00  0.00    +0.000 HD
ENDBRANCH   1  17
BRANCH   3  26
ATOM     26  O   UNL     1     -11.461  52.860  53.186  0.00  0.00    +0.000 OA
ATOM     27  H   UNL     1     -11.744  52.770  54.075  0.00  0.00    +0.000 HD
ENDBRANCH   3  26
BRANCH   5  28
ATOM     28  N   UNL     1      -6.279  55.018  52.414  0.00  0.00    +0.000 N 
ATOM     29  H   UNL     1      -5.948  55.786  52.934  0.00  0.00    +0.000 HD
BRANCH  28  30
ATOM     30  C   UNL     1      -5.453  54.317  51.426  0.00  0.00    +0.000 C 
BRANCH  30  31
ATOM     31  C   UNL     1      -5.539  54.998  50.096  0.00  0.00    +0.000 C 
ATOM     32  C   UNL     1      -6.350  54.450  48.952  0.00  0.00    +0.000 C 
ATOM     33  C   UNL     1      -4.850  54.371  48.909  0.00  0.00    +0.000 C 
ENDBRANCH  30  31
ENDBRANCH  28  30
ENDBRANCH   5  28
TORSDOF 5
ENDMDL
MODEL 4
REMARK VINA RESULT:      -8.1      2.909      7.319
REMARK  Name = 
REMARK  5 active torsions:
REMARK  status: ('A' for Active; 'I' for Inactive)
REMARK    1  A    between atoms: C_6  and  C_10
REMARK    2  A    between atoms: C_14  and  O_18
REMARK    3  A    between atoms: N_17  and  N_20
REMARK    4  A    between atoms: N_20  and  C_23
REMARK    5  A    between atoms: C_23  and  C_26
REMARK                            x       y       z     vdW  Elec       q    Type
REMARK                         _______ _______ _______ _____ _____    ______ ____
ROOT
ATOM      1  C   UNL     1     -10.488  54.896  50.520  0.00  0.00    +0.000 A 
ATOM      2  C   UNL     1     -11.614  55.087  51.480  0.00  0.00    +0.000 A 
ATOM      3  C   UNL     1     -10.618  55.238  49.229  0.00  0.00    +0.000 A 
ATOM      4  O   UNL     1     -11.401  54.782  52.658  0.00  0.00    +0.000 OA
ATOM      5  N   UNL     1     -12.809  55.629  50.997  0.00  0.00    +0.000 N 
ATOM      6  C   UNL     1     -11.876  55.811  48.739  0.00  0.00    +0.000 A 
ATOM      7  C   UNL     1     -12.956  55.995  49.622  0.00  0.00    +0.000 A 
ATOM      8  C   UNL     1     -11.993  56.217  47.400  0.00  0.00    +0.000 A 
ATOM      9  C   UNL     1     -14.139  56.567  49.133  0.00  0.00    +0.000 A 
ATOM     10  C   UNL     1     -13.157  56.822  46.938  0.00  0.00    +0.000 A 
ATOM     11  C   UNL     1     -14.233  56.994  47.806  0.00  0.00    +0.000 A 
ENDROOT
BRANCH   1  17
ATOM     12  S   UNL     1      -7.274  52.703  50.941  0.00  0.00    +0.000 S 
ATOM     13  O   UNL     1      -6.260  53.044  49.964  0.00  0.00    +0.000 OA
ATOM     14  O   UNL     1      -7.529  51.314  51.280  0.00  0.00    +0.000 OA
ATOM     15  N   UNL     1      -8.665  53.356  50.449  0.00  0.00    +0.000 N 
ATOM     16  C   UNL     1      -6.801  53.487  52.441  0.00  0.00    +0.000 A 
ATOM     17  C   UNL     1      -9.166  54.397  51.048  0.00  0.00    +0.000 C 
ATOM     18  C   UNL     1      -7.539  54.582  52.863  0.00  0.00    +0.000 A 
ATOM     19  C   UNL     1      -5.711  53.004  53.159  0.00  0.00    +0.000 A 
ATOM     20  N   UNL     1      -8.603  55.069  52.111  0.00  0.00    +0.000 N 
ATOM     21  C   UNL     1      -7.138  55.238  54.028  0.00  0.00    +0.000 A 
ATOM     22  C   UNL     1      -5.336  53.653  54.333  0.00  0.00    +0.000 A 
ATOM     23  C   UNL     1      -6.046  54.774  54.764  0.00  0.00    +0.000 A 
ATOM     24  H   UNL     1      -9.143  52.960  49.685  0.00  0.00    +0.000 HD
ATOM     25  H   UNL     1      -8.976  55.947  52.351  0.00  0.00    +0.000 HD
ENDBRANCH   1  17
BRANCH   3  26
ATOM     26  O   UNL     1      -9.607  55.143  48.288  0.00  0.00    +0.000 OA
ATOM     27  H   UNL     1      -9.779  54.753  47.453  0.00  0.00    +0.000 HD
ENDBRANCH   3  26
BRANCH   5  28
ATOM     28  N   UNL     1     -13.934  55.846  51.877  0.00  0.00    +0.000 N 
ATOM     29  H   UNL     1     -14.671  55.198  51.967  0.00  0.00    +0.000 HD
BRANCH  28  30
ATOM     30  C   UNL     1     -13.892  57.104  52.629  0.00  0.00    +0.000 C 
BRANCH  30  31
ATOM     31  C   UNL     1     -15.100  57.934  52.325  0.00  0.00    +0.000 C 
ATOM     32  C   UNL     1     -15.026  59.229  51.561  0.00  0.00    +0.000 C 
ATOM     33  C   UNL     1     -15.282  59.249  53.042  0.00  0.00    +0.000 C 
ENDBRANCH  30  31
ENDBRANCH  28  30
ENDBRANCH   5  28
TORSDOF 5
ENDMDL
MODEL 5
REMARK VINA RESULT:      -7.9      3.406      7.610
REMARK  Name = 
REMARK  5 active torsions:
REMARK  status: ('A' for Active; 'I' for Inactive)
REMARK    1  A    between atoms: C_6  and  C_10
REMARK    2  A    between atoms: C_14  and  O_18
REMARK    3  A    between atoms: N_17  and  N_20
REMARK    4  A    between atoms: N_20  and  C_23
REMARK    5  A    between atoms: C_23  and  C_26
REMARK                            x       y       z     vdW  Elec       q    Type
REMARK                         _______ _______ _______ _____ _____    ______ ____
ROOT
ATOM      1  C   UNL     1     -10.228  55.257  50.748  0.00  0.00    +0.000 A 
ATOM      2  C   UNL     1      -9.799  55.141  49.324  0.00  0.00    +0.000 A 
ATOM      3  C   UNL     1     -11.435  55.748  51.067  0.00  0.00    +0.000 A 
ATOM      4  O   UNL     1      -8.688  54.645  49.114  0.00  0.00    +0.000 OA
ATOM      5  N   UNL     1     -10.690  55.559  48.331  0.00  0.00    +0.000 N 
ATOM      6  C   UNL     1     -12.361  56.177  50.013  0.00  0.00    +0.000 A 
ATOM      7  C   UNL     1     -11.979  56.085  48.661  0.00  0.00    +0.000 A 
ATOM      8  C   UNL     1     -13.643  56.640  50.345  0.00  0.00    +0.000 A 
ATOM      9  C   UNL     1     -12.891  56.479  47.673  0.00  0.00    +0.000 A 
ATOM     10  C   UNL     1     -14.554  56.988  49.353  0.00  0.00    +0.000 A 
ATOM     11  C   UNL     1     -14.176  56.910  48.015  0.00  0.00    +0.000 A 
ENDROOT
BRANCH   1  17
ATOM     12  S   UNL     1      -7.085  54.838  53.042  0.00  0.00    +0.000 S 
ATOM     13  O   UNL     1      -7.077  55.803  54.123  0.00  0.00    +0.000 OA
ATOM     14  O   UNL     1      -5.857  54.517  52.336  0.00  0.00    +0.000 OA
ATOM     15  N   UNL     1      -8.169  55.333  51.954  0.00  0.00    +0.000 N 
ATOM     16  C   UNL     1      -7.653  53.325  53.733  0.00  0.00    +0.000 A 
ATOM     17  C   UNL     1      -9.312  54.725  51.822  0.00  0.00    +0.000 C 
ATOM     18  C   UNL     1      -8.928  52.896  53.398  0.00  0.00    +0.000 A 
ATOM     19  C   UNL     1      -6.829  52.605  54.592  0.00  0.00    +0.000 A 
ATOM     20  N   UNL     1      -9.748  53.650  52.565  0.00  0.00    +0.000 N 
ATOM     21  C   UNL     1      -9.402  51.721  53.982  0.00  0.00    +0.000 A 
ATOM     22  C   UNL     1      -7.305  51.421  55.149  0.00  0.00    +0.000 A 
ATOM     23  C   UNL     1      -8.595  50.982  54.848  0.00  0.00    +0.000 A 
ATOM     24  H   UNL     1      -7.961  56.105  51.380  0.00  0.00    +0.000 HD
ATOM     25  H   UNL     1     -10.698  53.402  52.504  0.00  0.00    +0.000 HD
ENDBRANCH   1  17
BRANCH   3  26
ATOM     26  O   UNL     1     -11.927  55.839  52.357  0.00  0.00    +0.000 OA
ATOM     27  H   UNL     1     -11.604  56.500  52.937  0.00  0.00    +0.000 HD
ENDBRANCH   3  26
BRANCH   5  28
ATOM     28  N   UNL     1     -10.338  55.466  46.932  0.00  0.00    +0.000 N 
ATOM     29  H   UNL     1     -10.163  56.259  46.375  0.00  0.00    +0.000 HD
BRANCH  28  30
ATOM     30  C   UNL     1     -10.261  54.098  46.409  0.00  0.00    +0.000 C 
BRANCH  30  31
ATOM     31  C   UNL     1     -11.224  53.918  45.277  0.00  0.00    +0.000 C 
ATOM     32  C   UNL     1     -12.009  52.649  45.071  0.00  0.00    +0.000 C 
ATOM     33  C   UNL     1     -10.863  52.976  44.154  0.00  0.00    +0.000 C 
ENDBRANCH  30  31
ENDBRANCH  28  30
ENDBRANCH   5  28
TORSDOF 5
ENDMDL
MODEL 6
REMARK VINA RESULT:      -7.9      2.898      7.282
REMARK  Name = 
REMARK  5 active torsions:
REMARK  status: ('A' for Active; 'I' for Inactive)
REMARK    1  A    between atoms: C_6  and  C_10
REMARK    2  A    between atoms: C_14  and  O_18
REMARK    3  A    between atoms: N_17  and  N_20
REMARK    4  A    between atoms: N_20  and  C_23
REMARK    5  A    between atoms: C_23  and  C_26
REMARK                            x       y       z     vdW  Elec       q    Type
REMARK                         _______ _______ _______ _____ _____    ______ ____
ROOT
ATOM      1  C   UNL     1     -10.112  54.768  50.903  0.00  0.00    +0.000 A 
ATOM      2  C   UNL     1     -11.429  55.316  51.340  0.00  0.00    +0.000 A 
ATOM      3  C   UNL     1      -9.796  54.691  49.601  0.00  0.00    +0.000 A 
ATOM      4  O   UNL     1     -11.628  55.386  52.557  0.00  0.00    +0.000 OA
ATOM      5  N   UNL     1     -12.325  55.745  50.356  0.00  0.00    +0.000 N 
ATOM      6  C   UNL     1     -10.743  55.152  48.581  0.00  0.00    +0.000 A 
ATOM      7  C   UNL     1     -11.996  55.666  48.966  0.00  0.00    +0.000 A 
ATOM      8  C   UNL     1     -10.390  55.120  47.223  0.00  0.00    +0.000 A 
ATOM      9  C   UNL     1     -12.874  56.121  47.972  0.00  0.00    +0.000 A 
ATOM     10  C   UNL     1     -11.253  55.614  46.250  0.00  0.00    +0.000 A 
ATOM     11  C   UNL     1     -12.499  56.112  46.626  0.00  0.00    +0.000 A 
ENDROOT
BRANCH   1  17
ATOM     12  S   UNL     1      -6.821  54.738  53.020  0.00  0.00    +0.000 S 
ATOM     13  O   UNL     1      -6.814  55.792  54.015  0.00  0.00    +0.000 OA
ATOM     14  O   UNL     1      -5.618  54.432  52.267  0.00  0.00    +0.000 OA
ATOM     15  N   UNL     1      -7.996  55.071  51.966  0.00  0.00    +0.000 N 
ATOM     16  C   UNL     1      -7.249  53.259  53.868  0.00  0.00    +0.000 A 
ATOM     17  C   UNL     1      -9.103  54.387  51.958  0.00  0.00    +0.000 C 
ATOM     18  C   UNL     1      -8.511  52.727  53.651  0.00  0.00    +0.000 A 
ATOM     19  C   UNL     1      -6.331  52.667  54.730  0.00  0.00    +0.000 A 
ATOM     20  N   UNL     1      -9.425  53.356  52.813  0.00  0.00    +0.000 N 
ATOM     21  C   UNL     1      -8.872  51.580  54.359  0.00  0.00    +0.000 A 
ATOM     22  C   UNL     1      -6.696  51.509  55.413  0.00  0.00    +0.000 A 
ATOM     23  C   UNL     1      -7.970  50.969  55.231  0.00  0.00    +0.000 A 
ATOM     24  H   UNL     1      -7.873  55.802  51.318  0.00  0.00    +0.000 HD
ATOM     25  H   UNL     1     -10.359  53.047  52.833  0.00  0.00    +0.000 HD
ENDBRANCH   1  17
BRANCH   3  26
ATOM     26  O   UNL     1      -8.577  54.246  49.117  0.00  0.00    +0.000 OA
ATOM     27  H   UNL     1      -8.118  54.748  48.472  0.00  0.00    +0.000 HD
ENDBRANCH   3  26
BRANCH   5  28
ATOM     28  N   UNL     1     -13.613  56.293  50.714  0.00  0.00    +0.000 N 
ATOM     29  H   UNL     1     -14.440  55.758  50.698  0.00  0.00    +0.000 HD
BRANCH  28  30
ATOM     30  C   UNL     1     -13.592  57.705  51.106  0.00  0.00    +0.000 C 
BRANCH  30  31
ATOM     31  C   UNL     1     -14.075  57.864  52.515  0.00  0.00    +0.000 C 
ATOM     32  C   UNL     1     -15.412  57.351  52.979  0.00  0.00    +0.000 C 
ATOM     33  C   UNL     1     -15.200  58.829  52.797  0.00  0.00    +0.000 C 
ENDBRANCH  30  31
ENDBRANCH  28  30
ENDBRANCH   5  28
TORSDOF 5
ENDMDL
MODEL 7
REMARK VINA RESULT:      -7.8      3.318      7.645
REMARK  Name = 
REMARK  5 active torsions:
REMARK  status: ('A' for Active; 'I' for Inactive)
REMARK    1  A    between atoms: C_6  and  C_10
REMARK    2  A    between atoms: C_14  and  O_18
REMARK    3  A    between atoms: N_17  and  N_20
REMARK    4  A    between atoms: N_20  and  C_23
REMARK    5  A    between atoms: C_23  and  C_26
REMARK                            x       y       z     vdW  Elec       q    Type
REMARK                         _______ _______ _______ _____ _____    ______ ____
ROOT
ATOM      1  C   UNL     1      -9.673  55.090  50.915  0.00  0.00    +0.000 A 
ATOM      2  C   UNL     1     -10.897  55.257  51.751  0.00  0.00    +0.000 A 
ATOM      3  C   UNL     1      -9.724  55.235  49.582  0.00  0.00    +0.000 A 
ATOM      4  O   UNL     1     -10.758  55.144  52.973  0.00  0.00    +0.000 OA
ATOM      5  N   UNL     1     -12.099  55.567  51.107  0.00  0.00    +0.000 N 
ATOM      6  C   UNL     1     -10.991  55.566  48.922  0.00  0.00    +0.000 A 
ATOM      7  C   UNL     1     -12.162  55.722  49.686  0.00  0.00    +0.000 A 
ATOM      8  C   UNL     1     -11.032  55.769  47.533  0.00  0.00    +0.000 A 
ATOM      9  C   UNL     1     -13.355  56.061  49.033  0.00  0.00    +0.000 A 
ATOM     10  C   UNL     1     -12.213  56.147  46.903  0.00  0.00    +0.000 A 
ATOM     11  C   UNL     1     -13.377  56.290  47.655  0.00  0.00    +0.000 A 
ENDROOT
BRANCH   1  17
ATOM     12  S   UNL     1      -6.784  55.341  53.543  0.00  0.00    +0.000 S 
ATOM     13  O   UNL     1      -7.052  54.528  54.713  0.00  0.00    +0.000 OA
ATOM     14  O   UNL     1      -6.208  56.666  53.686  0.00  0.00    +0.000 OA
ATOM     15  N   UNL     1      -8.167  55.486  52.724  0.00  0.00    +0.000 N 
ATOM     16  C   UNL     1      -5.654  54.428  52.553  0.00  0.00    +0.000 A 
ATOM     17  C   UNL     1      -8.354  54.846  51.607  0.00  0.00    +0.000 C 
ATOM     18  C   UNL     1      -6.129  53.862  51.380  0.00  0.00    +0.000 A 
ATOM     19  C   UNL     1      -4.333  54.288  52.964  0.00  0.00    +0.000 A 
ATOM     20  N   UNL     1      -7.464  53.984  51.008  0.00  0.00    +0.000 N 
ATOM     21  C   UNL     1      -5.248  53.095  50.615  0.00  0.00    +0.000 A 
ATOM     22  C   UNL     1      -3.457  53.541  52.179  0.00  0.00    +0.000 A 
ATOM     23  C   UNL     1      -3.918  52.939  51.007  0.00  0.00    +0.000 A 
ATOM     24  H   UNL     1      -8.878  56.069  53.075  0.00  0.00    +0.000 HD
ATOM     25  H   UNL     1      -7.792  53.418  50.272  0.00  0.00    +0.000 HD
ENDBRANCH   1  17
BRANCH   3  26
ATOM     26  O   UNL     1      -8.626  55.149  48.743  0.00  0.00    +0.000 OA
ATOM     27  H   UNL     1      -8.216  55.930  48.426  0.00  0.00    +0.000 HD
ENDBRANCH   3  26
BRANCH   5  28
ATOM     28  N   UNL     1     -13.318  55.749  51.861  0.00  0.00    +0.000 N 
ATOM     29  H   UNL     1     -14.005  55.047  51.938  0.00  0.00    +0.000 HD
BRANCH  28  30
ATOM     30  C   UNL     1     -13.453  57.060  52.503  0.00  0.00    +0.000 C 
BRANCH  30  31
ATOM     31  C   UNL     1     -14.727  57.722  52.076  0.00  0.00    +0.000 C 
ATOM     32  C   UNL     1     -14.759  59.074  51.415  0.00  0.00    +0.000 C 
ATOM     33  C   UNL     1     -15.214  58.928  52.841  0.00  0.00    +0.000 C 
ENDBRANCH  30  31
ENDBRANCH  28  30
ENDBRANCH   5  28
TORSDOF 5
ENDMDL
MODEL 8
REMARK VINA RESULT:      -7.8      3.521      5.309
REMARK  Name = 
REMARK  5 active torsions:
REMARK  status: ('A' for Active; 'I' for Inactive)
REMARK    1  A    between atoms: C_6  and  C_10
REMARK    2  A    between atoms: C_14  and  O_18
REMARK    3  A    between atoms: N_17  and  N_20
REMARK    4  A    between atoms: N_20  and  C_23
REMARK    5  A    between atoms: C_23  and  C_26
REMARK                            x       y       z     vdW  Elec       q    Type
REMARK                         _______ _______ _______ _____ _____    ______ ____
ROOT
ATOM      1  C   UNL     1     -12.502  54.330  49.527  0.00  0.00    +0.000 A 
ATOM      2  C   UNL     1     -11.935  54.357  48.147  0.00  0.00    +0.000 A 
ATOM      3  C   UNL     1     -12.247  53.308  50.358  0.00  0.00    +0.000 A 
ATOM      4  O   UNL     1     -12.187  55.351  47.459  0.00  0.00    +0.000 OA
ATOM      5  N   UNL     1     -11.130  53.287  47.744  0.00  0.00    +0.000 N 
ATOM      6  C   UNL     1     -11.395  52.196  49.922  0.00  0.00    +0.000 A 
ATOM      7  C   UNL     1     -10.853  52.193  48.623  0.00  0.00    +0.000 A 
ATOM      8  C   UNL     1     -11.086  51.153  50.810  0.00  0.00    +0.000 A 
ATOM      9  C   UNL     1     -10.024  51.129  48.239  0.00  0.00    +0.000 A 
ATOM     10  C   UNL     1     -10.227  50.127  50.431  0.00  0.00    +0.000 A 
ATOM     11  C   UNL     1      -9.698  50.113  49.142  0.00  0.00    +0.000 A 
ENDROOT
BRANCH   1  17
ATOM     12  S   UNL     1     -15.368  56.442  51.153  0.00  0.00    +0.000 S 
ATOM     13  O   UNL     1     -15.240  56.500  52.595  0.00  0.00    +0.000 OA
ATOM     14  O   UNL     1     -16.672  56.269  50.538  0.00  0.00    +0.000 OA
ATOM     15  N   UNL     1     -14.409  55.257  50.625  0.00  0.00    +0.000 N 
ATOM     16  C   UNL     1     -14.744  57.966  50.538  0.00  0.00    +0.000 A 
ATOM     17  C   UNL     1     -13.296  55.521  50.004  0.00  0.00    +0.000 C 
ATOM     18  C   UNL     1     -13.521  57.952  49.885  0.00  0.00    +0.000 A 
ATOM     19  C   UNL     1     -15.474  59.136  50.723  0.00  0.00    +0.000 A 
ATOM     20  N   UNL     1     -12.792  56.776  49.744  0.00  0.00    +0.000 N 
ATOM     21  C   UNL     1     -12.999  59.166  49.438  0.00  0.00    +0.000 A 
ATOM     22  C   UNL     1     -14.953  60.338  50.251  0.00  0.00    +0.000 A 
ATOM     23  C   UNL     1     -13.712  60.354  49.613  0.00  0.00    +0.000 A 
ATOM     24  H   UNL     1     -14.671  54.319  50.773  0.00  0.00    +0.000 HD
ATOM     25  H   UNL     1     -11.858  56.845  49.441  0.00  0.00    +0.000 HD
ENDBRANCH   1  17
BRANCH   3  26
ATOM     26  O   UNL     1     -12.690  53.233  51.667  0.00  0.00    +0.000 OA
ATOM     27  H   UNL     1     -12.405  53.868  52.295  0.00  0.00    +0.000 HD
ENDBRANCH   3  26
BRANCH   5  28
ATOM     28  N   UNL     1     -10.544  53.257  46.424  0.00  0.00    +0.000 N 
ATOM     29  H   UNL     1      -9.609  53.518  46.252  0.00  0.00    +0.000 HD
BRANCH  28  30
ATOM     30  C   UNL     1     -11.448  52.807  45.361  0.00  0.00    +0.000 C 
BRANCH  30  31
ATOM     31  C   UNL     1     -10.722  51.916  44.401  0.00  0.00    +0.000 C 
ATOM     32  C   UNL     1      -9.228  51.965  44.216  0.00  0.00    +0.000 C 
ATOM     33  C   UNL     1     -10.132  52.518  43.149  0.00  0.00    +0.000 C 
ENDBRANCH  30  31
ENDBRANCH  28  30
ENDBRANCH   5  28
TORSDOF 5
ENDMDL
MODEL 9
REMARK VINA RESULT:      -7.8      3.280      4.038
REMARK  Name = 
REMARK  5 active torsions:
REMARK  status: ('A' for Active; 'I' for Inactive)
REMARK    1  A    between atoms: C_6  and  C_10
REMARK    2  A    between atoms: C_14  and  O_18
REMARK    3  A    between atoms: N_17  and  N_20
REMARK    4  A    between atoms: N_20  and  C_23
REMARK    5  A    between atoms: C_23  and  C_26
REMARK                            x       y       z     vdW  Elec       q    Type
REMARK                         _______ _______ _______ _____ _____    ______ ____
ROOT
ATOM      1  C   UNL     1     -11.452  55.966  48.923  0.00  0.00    +0.000 A 
ATOM      2  C   UNL     1     -10.459  55.325  49.833  0.00  0.00    +0.000 A 
ATOM      3  C   UNL     1     -11.515  55.631  47.625  0.00  0.00    +0.000 A 
ATOM      4  O   UNL     1     -10.491  55.663  51.021  0.00  0.00    +0.000 OA
ATOM      5  N   UNL     1      -9.594  54.367  49.296  0.00  0.00    +0.000 N 
ATOM      6  C   UNL     1     -10.605  54.619  47.078  0.00  0.00    +0.000 A 
ATOM      7  C   UNL     1      -9.653  54.004  47.913  0.00  0.00    +0.000 A 
ATOM      8  C   UNL     1     -10.706  54.231  45.733  0.00  0.00    +0.000 A 
ATOM      9  C   UNL     1      -8.810  53.024  47.371  0.00  0.00    +0.000 A 
ATOM     10  C   UNL     1      -9.893  53.226  45.218  0.00  0.00    +0.000 A 
ATOM     11  C   UNL     1      -8.942  52.625  46.038  0.00  0.00    +0.000 A 
ENDROOT
BRANCH   1  17
ATOM     12  S   UNL     1     -13.550  59.225  49.469  0.00  0.00    +0.000 S 
ATOM     13  O   UNL     1     -14.671  59.301  48.554  0.00  0.00    +0.000 OA
ATOM     14  O   UNL     1     -12.763  60.409  49.766  0.00  0.00    +0.000 OA
ATOM     15  N   UNL     1     -12.546  58.088  48.917  0.00  0.00    +0.000 N 
ATOM     16  C   UNL     1     -14.201  58.680  51.008  0.00  0.00    +0.000 A 
ATOM     17  C   UNL     1     -12.450  56.933  49.510  0.00  0.00    +0.000 C 
ATOM     18  C   UNL     1     -13.917  57.384  51.412  0.00  0.00    +0.000 A 
ATOM     19  C   UNL     1     -14.981  59.543  51.772  0.00  0.00    +0.000 A 
ATOM     20  N   UNL     1     -13.166  56.528  50.614  0.00  0.00    +0.000 N 
ATOM     21  C   UNL     1     -14.473  56.931  52.609  0.00  0.00    +0.000 A 
ATOM     22  C   UNL     1     -15.509  59.086  52.977  0.00  0.00    +0.000 A 
ATOM     23  C   UNL     1     -15.260  57.778  53.393  0.00  0.00    +0.000 A 
ATOM     24  H   UNL     1     -11.997  58.272  48.121  0.00  0.00    +0.000 HD
ATOM     25  H   UNL     1     -13.146  55.573  50.853  0.00  0.00    +0.000 HD
ENDBRANCH   1  17
BRANCH   3  26
ATOM     26  O   UNL     1     -12.440  56.138  46.729  0.00  0.00    +0.000 OA
ATOM     27  H   UNL     1     -13.281  56.420  47.033  0.00  0.00    +0.000 HD
ENDBRANCH   3  26
BRANCH   5  28
ATOM     28  N   UNL     1      -8.614  53.704  50.126  0.00  0.00    +0.000 N 
ATOM     29  H   UNL     1      -8.696  52.759  50.392  0.00  0.00    +0.000 HD
BRANCH  28  30
ATOM     30  C   UNL     1      -7.489  54.548  50.540  0.00  0.00    +0.000 C 
BRANCH  30  31
ATOM     31  C   UNL     1      -6.224  54.092  49.881  0.00  0.00    +0.000 C 
ATOM     32  C   UNL     1      -4.868  54.274  50.509  0.00  0.00    +0.000 C 
ATOM     33  C   UNL     1      -5.270  55.127  49.338  0.00  0.00    +0.000 C 
ENDBRANCH  30  31
ENDBRANCH  28  30
ENDBRANCH   5  28
TORSDOF 5
ENDMDL
