MODEL 1
REMARK VINA RESULT:      -8.4      0.000      0.000
REMARK  Name = 
REMARK  7 active torsions:
REMARK  status: ('A' for Active; 'I' for Inactive)
REMARK    1  A    between atoms: C_6  and  C_10
REMARK    2  A    between atoms: C_14  and  O_18
REMARK    3  A    between atoms: N_17  and  N_20
REMARK    4  A    between atoms: N_20  and  C_23
REMARK    5  A    between atoms: C_23  and  C_26
REMARK    6  A    between atoms: C_26  and  C_28
REMARK    7  A    between atoms: C_26  and  C_29
REMARK                            x       y       z     vdW  Elec       q    Type
REMARK                         _______ _______ _______ _____ _____    ______ ____
ROOT
ATOM      1  C   UNL     1     -10.081  54.423  52.275  0.00  0.00    +0.000 A 
ATOM      2  C   UNL     1      -8.710  54.998  52.152  0.00  0.00    +0.000 A 
ATOM      3  C   UNL     1     -10.298  53.317  53.003  0.00  0.00    +0.000 A 
ATOM      4  O   UNL     1      -8.587  56.015  51.461  0.00  0.00    +0.000 OA
ATOM      5  N   UNL     1      -7.671  54.378  52.849  0.00  0.00    +0.000 N 
ATOM      6  C   UNL     1      -9.190  52.666  53.713  0.00  0.00    +0.000 A 
ATOM      7  C   UNL     1      -7.890  53.197  53.622  0.00  0.00    +0.000 A 
ATOM      8  C   UNL     1      -9.424  51.533  54.512  0.00  0.00    +0.000 A 
ATOM      9  C   UNL     1      -6.846  52.560  54.313  0.00  0.00    +0.000 A 
ATOM     10  C   UNL     1      -8.386  50.933  55.220  0.00  0.00    +0.000 A 
ATOM     11  C   UNL     1      -7.097  51.441  55.115  0.00  0.00    +0.000 A 
ENDROOT
BRANCH   1  17
ATOM     12  S   UNL     1     -12.407  55.947  49.516  0.00  0.00    +0.000 S 
ATOM     13  O   UNL     1     -13.305  54.952  48.948  0.00  0.00    +0.000 OA
ATOM     14  O   UNL     1     -11.763  56.926  48.655  0.00  0.00    +0.000 OA
ATOM     15  N   UNL     1     -11.254  55.154  50.324  0.00  0.00    +0.000 N 
ATOM     16  C   UNL     1     -13.364  56.865  50.663  0.00  0.00    +0.000 A 
ATOM     17  C   UNL     1     -11.227  55.162  51.619  0.00  0.00    +0.000 C 
ATOM     18  C   UNL     1     -13.103  56.682  52.011  0.00  0.00    +0.000 A 
ATOM     19  C   UNL     1     -14.339  57.754  50.209  0.00  0.00    +0.000 A 
ATOM     20  N   UNL     1     -12.145  55.774  52.447  0.00  0.00    +0.000 N 
ATOM     21  C   UNL     1     -13.895  57.374  52.937  0.00  0.00    +0.000 A 
ATOM     22  C   UNL     1     -15.096  58.460  51.141  0.00  0.00    +0.000 A 
ATOM     23  C   UNL     1     -14.879  58.263  52.503  0.00  0.00    +0.000 A 
ATOM     24  H   UNL     1     -10.564  54.659  49.826  0.00  0.00    +0.000 HD
ATOM     25  H   UNL     1     -12.121  55.554  53.406  0.00  0.00    +0.000 HD
ENDBRANCH   1  17
BRANCH   3  26
ATOM     26  O   UNL     1     -11.540  52.734  53.181  0.00  0.00    +0.000 OA
ATOM     27  H   UNL     1     -11.629  51.980  53.732  0.00  0.00    +0.000 HD
ENDBRANCH   3  26
BRANCH   5  28
ATOM     28  N   UNL     1      -6.329  54.893  52.763  0.00  0.00    +0.000 N 
ATOM     29  H   UNL     1      -5.957  55.523  53.421  0.00  0.00    +0.000 HD
BRANCH  28  30
ATOM     30  C   UNL     1      -5.556  54.397  51.610  0.00  0.00    +0.000 C 
BRANCH  30  31
ATOM     31  C   UNL     1      -4.112  54.026  51.987  0.00  0.00    +0.000 C 
ATOM     32  C   UNL     1      -3.795  54.539  53.398  0.00  0.00    +0.000 C 
ATOM     33  C   UNL     1      -3.878  52.521  51.912  0.00  0.00    +0.000 C 
ENDBRANCH  30  31
ENDBRANCH  28  30
ENDBRANCH   5  28
TORSDOF 5
ENDMDL
MODEL 2
REMARK VINA RESULT:      -8.1      2.003      2.691
REMARK  Name = 
REMARK  7 active torsions:
REMARK  status: ('A' for Active; 'I' for Inactive)
REMARK    1  A    between atoms: C_6  and  C_10
REMARK    2  A    between atoms: C_14  and  O_18
REMARK    3  A    between atoms: N_17  and  N_20
REMARK    4  A    between atoms: N_20  and  C_23
REMARK    5  A    between atoms: C_23  and  C_26
REMARK    6  A    between atoms: C_26  and  C_28
REMARK    7  A    between atoms: C_26  and  C_29
REMARK                            x       y       z     vdW  Elec       q    Type
REMARK                         _______ _______ _______ _____ _____    ______ ____
ROOT
ATOM      1  C   UNL     1     -11.473  54.011  51.457  0.00  0.00    +0.000 A 
ATOM      2  C   UNL     1     -10.526  54.151  52.600  0.00  0.00    +0.000 A 
ATOM      3  C   UNL     1     -11.604  52.840  50.815  0.00  0.00    +0.000 A 
ATOM      4  O   UNL     1     -10.455  55.262  53.138  0.00  0.00    +0.000 OA
ATOM      5  N   UNL     1      -9.814  53.022  53.010  0.00  0.00    +0.000 N 
ATOM      6  C   UNL     1     -10.834  51.666  51.246  0.00  0.00    +0.000 A 
ATOM      7  C   UNL     1      -9.943  51.771  52.330  0.00  0.00    +0.000 A 
ATOM      8  C   UNL     1     -11.004  50.427  50.603  0.00  0.00    +0.000 A 
ATOM      9  C   UNL     1      -9.220  50.635  52.727  0.00  0.00    +0.000 A 
ATOM     10  C   UNL     1     -10.307  49.301  51.031  0.00  0.00    +0.000 A 
ATOM     11  C   UNL     1      -9.409  49.406  52.087  0.00  0.00    +0.000 A 
ENDROOT
BRANCH   1  17
ATOM     12  S   UNL     1     -13.073  56.921  49.378  0.00  0.00    +0.000 S 
ATOM     13  O   UNL     1     -14.132  56.446  48.500  0.00  0.00    +0.000 OA
ATOM     14  O   UNL     1     -12.126  57.920  48.908  0.00  0.00    +0.000 OA
ATOM     15  N   UNL     1     -12.236  55.629  49.870  0.00  0.00    +0.000 N 
ATOM     16  C   UNL     1     -13.876  57.629  50.767  0.00  0.00    +0.000 A 
ATOM     17  C   UNL     1     -12.331  55.202  51.089  0.00  0.00    +0.000 C 
ATOM     18  C   UNL     1     -13.798  56.948  51.971  0.00  0.00    +0.000 A 
ATOM     19  C   UNL     1     -14.551  58.844  50.642  0.00  0.00    +0.000 A 
ATOM     20  N   UNL     1     -13.143  55.727  52.073  0.00  0.00    +0.000 N 
ATOM     21  C   UNL     1     -14.477  57.481  53.075  0.00  0.00    +0.000 A 
ATOM     22  C   UNL     1     -15.194  59.377  51.756  0.00  0.00    +0.000 A 
ATOM     23  C   UNL     1     -15.164  58.691  52.969  0.00  0.00    +0.000 A 
ATOM     24  H   UNL     1     -11.646  55.160  49.235  0.00  0.00    +0.000 HD
ATOM     25  H   UNL     1     -13.265  55.206  52.898  0.00  0.00    +0.000 HD
ENDBRANCH   1  17
BRANCH   3  26
ATOM     26  O   UNL     1     -12.472  52.623  49.760  0.00  0.00    +0.000 OA
ATOM     27  H   UNL     1     -12.947  51.817  49.701  0.00  0.00    +0.000 HD
ENDBRANCH   3  26
BRANCH   5  28
ATOM     28  N   UNL     1      -8.887  53.104  54.108  0.00  0.00    +0.000 N 
ATOM     29  H   UNL     1      -9.151  52.937  55.041  0.00  0.00    +0.000 HD
BRANCH  28  30
ATOM     30  C   UNL     1      -7.510  53.458  53.720  0.00  0.00    +0.000 C 
BRANCH  30  31
ATOM     31  C   UNL     1      -7.089  54.840  54.248  0.00  0.00    +0.000 C 
ATOM     32  C   UNL     1      -5.685  54.757  54.861  0.00  0.00    +0.000 C 
ATOM     33  C   UNL     1      -7.119  55.898  53.150  0.00  0.00    +0.000 C 
ENDBRANCH  30  31
ENDBRANCH  28  30
ENDBRANCH   5  28
TORSDOF 5
ENDMDL
MODEL 3
REMARK VINA RESULT:      -8.1      2.581      8.043
REMARK  Name = 
REMARK  7 active torsions:
REMARK  status: ('A' for Active; 'I' for Inactive)
REMARK    1  A    between atoms: C_6  and  C_10
REMARK    2  A    between atoms: C_14  and  O_18
REMARK    3  A    between atoms: N_17  and  N_20
REMARK    4  A    between atoms: N_20  and  C_23
REMARK    5  A    between atoms: C_23  and  C_26
REMARK    6  A    between atoms: C_26  and  C_28
REMARK    7  A    between atoms: C_26  and  C_29
REMARK                            x       y       z     vdW  Elec       q    Type
REMARK                         _______ _______ _______ _____ _____    ______ ____
ROOT
ATOM      1  C   UNL     1     -10.120  55.107  50.485  0.00  0.00    +0.000 A 
ATOM      2  C   UNL     1     -11.160  55.274  51.540  0.00  0.00    +0.000 A 
ATOM      3  C   UNL     1     -10.389  55.400  49.203  0.00  0.00    +0.000 A 
ATOM      4  O   UNL     1     -10.841  54.979  52.697  0.00  0.00    +0.000 OA
ATOM      5  N   UNL     1     -12.405  55.783  51.164  0.00  0.00    +0.000 N 
ATOM      6  C   UNL     1     -11.710  55.916  48.821  0.00  0.00    +0.000 A 
ATOM      7  C   UNL     1     -12.704  56.094  49.801  0.00  0.00    +0.000 A 
ATOM      8  C   UNL     1     -11.979  56.266  47.486  0.00  0.00    +0.000 A 
ATOM      9  C   UNL     1     -13.958  56.592  49.414  0.00  0.00    +0.000 A 
ATOM     10  C   UNL     1     -13.215  56.792  47.123  0.00  0.00    +0.000 A 
ATOM     11  C   UNL     1     -14.207  56.948  48.084  0.00  0.00    +0.000 A 
ENDROOT
BRANCH   1  17
ATOM     12  S   UNL     1      -6.749  53.116  50.635  0.00  0.00    +0.000 S 
ATOM     13  O   UNL     1      -5.817  53.543  49.603  0.00  0.00    +0.000 OA
ATOM     14  O   UNL     1      -6.895  51.703  50.949  0.00  0.00    +0.000 OA
ATOM     15  N   UNL     1      -8.206  53.695  50.241  0.00  0.00    +0.000 N 
ATOM     16  C   UNL     1      -6.222  53.890  52.117  0.00  0.00    +0.000 A 
ATOM     17  C   UNL     1      -8.735  54.670  50.910  0.00  0.00    +0.000 C 
ATOM     18  C   UNL     1      -7.007  54.913  52.623  0.00  0.00    +0.000 A 
ATOM     19  C   UNL     1      -5.056  53.463  52.754  0.00  0.00    +0.000 A 
ATOM     20  N   UNL     1      -8.151  55.343  51.963  0.00  0.00    +0.000 N 
ATOM     21  C   UNL     1      -6.568  55.571  53.780  0.00  0.00    +0.000 A 
ATOM     22  C   UNL     1      -4.649  54.105  53.921  0.00  0.00    +0.000 A 
ATOM     23  C   UNL     1      -5.401  55.163  54.428  0.00  0.00    +0.000 A 
ATOM     24  H   UNL     1      -8.697  53.302  49.483  0.00  0.00    +0.000 HD
ATOM     25  H   UNL     1      -8.572  56.179  52.267  0.00  0.00    +0.000 HD
ENDBRANCH   1  17
BRANCH   3  26
ATOM     26  O   UNL     1      -9.475  55.291  48.171  0.00  0.00    +0.000 OA
ATOM     27  H   UNL     1      -9.698  55.595  47.313  0.00  0.00    +0.000 HD
ENDBRANCH   3  26
BRANCH   5  28
ATOM     28  N   UNL     1     -13.445  55.962  52.143  0.00  0.00    +0.000 N 
ATOM     29  H   UNL     1     -14.113  55.267  52.344  0.00  0.00    +0.000 HD
BRANCH  28  30
ATOM     30  C   UNL     1     -13.427  57.270  52.822  0.00  0.00    +0.000 C 
BRANCH  30  31
ATOM     31  C   UNL     1     -14.830  57.889  52.939  0.00  0.00    +0.000 C 
ATOM     32  C   UNL     1     -14.900  59.179  52.111  0.00  0.00    +0.000 C 
ATOM     33  C   UNL     1     -15.916  56.918  52.489  0.00  0.00    +0.000 C 
ENDBRANCH  30  31
ENDBRANCH  28  30
ENDBRANCH   5  28
TORSDOF 5
ENDMDL
MODEL 4
REMARK VINA RESULT:      -7.9      3.770      5.268
REMARK  Name = 
REMARK  7 active torsions:
REMARK  status: ('A' for Active; 'I' for Inactive)
REMARK    1  A    between atoms: C_6  and  C_10
REMARK    2  A    between atoms: C_14  and  O_18
REMARK    3  A    between atoms: N_17  and  N_20
REMARK    4  A    between atoms: N_20  and  C_23
REMARK    5  A    between atoms: C_23  and  C_26
REMARK    6  A    between atoms: C_26  and  C_28
REMARK    7  A    between atoms: C_26  and  C_29
REMARK                            x       y       z     vdW  Elec       q    Type
REMARK                         _______ _______ _______ _____ _____    ______ ____
ROOT
ATOM      1  C   UNL     1     -10.651  55.735  48.309  0.00  0.00    +0.000 A 
ATOM      2  C   UNL     1      -9.206  55.831  48.667  0.00  0.00    +0.000 A 
ATOM      3  C   UNL     1     -11.041  55.086  47.201  0.00  0.00    +0.000 A 
ATOM      4  O   UNL     1      -8.923  56.450  49.699  0.00  0.00    +0.000 OA
ATOM      5  N   UNL     1      -8.279  55.191  47.843  0.00  0.00    +0.000 N 
ATOM      6  C   UNL     1     -10.051  54.435  46.334  0.00  0.00    +0.000 A 
ATOM      7  C   UNL     1      -8.683  54.501  46.659  0.00  0.00    +0.000 A 
ATOM      8  C   UNL     1     -10.462  53.716  45.198  0.00  0.00    +0.000 A 
ATOM      9  C   UNL     1      -7.754  53.868  45.818  0.00  0.00    +0.000 A 
ATOM     10  C   UNL     1      -9.533  53.063  44.393  0.00  0.00    +0.000 A 
ATOM     11  C   UNL     1      -8.179  53.144  44.698  0.00  0.00    +0.000 A 
ENDROOT
BRANCH   1  17
ATOM     12  S   UNL     1     -13.197  56.062  51.269  0.00  0.00    +0.000 S 
ATOM     13  O   UNL     1     -12.527  56.280  52.542  0.00  0.00    +0.000 OA
ATOM     14  O   UNL     1     -14.338  55.166  51.186  0.00  0.00    +0.000 OA
ATOM     15  N   UNL     1     -12.081  55.552  50.216  0.00  0.00    +0.000 N 
ATOM     16  C   UNL     1     -13.776  57.634  50.751  0.00  0.00    +0.000 A 
ATOM     17  C   UNL     1     -11.665  56.326  49.264  0.00  0.00    +0.000 C 
ATOM     18  C   UNL     1     -13.142  58.231  49.674  0.00  0.00    +0.000 A 
ATOM     19  C   UNL     1     -14.851  58.236  51.407  0.00  0.00    +0.000 A 
ATOM     20  N   UNL     1     -12.057  57.630  49.047  0.00  0.00    +0.000 N 
ATOM     21  C   UNL     1     -13.565  59.509  49.284  0.00  0.00    +0.000 A 
ATOM     22  C   UNL     1     -15.283  59.492  50.987  0.00  0.00    +0.000 A 
ATOM     23  C   UNL     1     -14.634  60.130  49.932  0.00  0.00    +0.000 A 
ATOM     24  H   UNL     1     -11.713  54.643  50.300  0.00  0.00    +0.000 HD
ATOM     25  H   UNL     1     -11.537  58.169  48.409  0.00  0.00    +0.000 HD
ENDBRANCH   1  17
BRANCH   3  26
ATOM     26  O   UNL     1     -12.359  54.937  46.810  0.00  0.00    +0.000 OA
ATOM     27  H   UNL     1     -12.657  55.320  46.008  0.00  0.00    +0.000 HD
ENDBRANCH   3  26
BRANCH   5  28
ATOM     28  N   UNL     1      -6.872  55.254  48.144  0.00  0.00    +0.000 N 
ATOM     29  H   UNL     1      -6.283  55.959  47.790  0.00  0.00    +0.000 HD
BRANCH  28  30
ATOM     30  C   UNL     1      -6.386  54.178  49.025  0.00  0.00    +0.000 C 
BRANCH  30  31
ATOM     31  C   UNL     1      -5.686  54.720  50.283  0.00  0.00    +0.000 C 
ATOM     32  C   UNL     1      -6.653  54.682  51.473  0.00  0.00    +0.000 C 
ATOM     33  C   UNL     1      -4.422  53.933  50.610  0.00  0.00    +0.000 C 
ENDBRANCH  30  31
ENDBRANCH  28  30
ENDBRANCH   5  28
TORSDOF 5
ENDMDL
MODEL 5
REMARK VINA RESULT:      -7.9      3.333      7.339
REMARK  Name = 
REMARK  7 active torsions:
REMARK  status: ('A' for Active; 'I' for Inactive)
REMARK    1  A    between atoms: C_6  and  C_10
REMARK    2  A    between atoms: C_14  and  O_18
REMARK    3  A    between atoms: N_17  and  N_20
REMARK    4  A    between atoms: N_20  and  C_23
REMARK    5  A    between atoms: C_23  and  C_26
REMARK    6  A    between atoms: C_26  and  C_28
REMARK    7  A    between atoms: C_26  and  C_29
REMARK                            x       y       z     vdW  Elec       q    Type
REMARK                         _______ _______ _______ _____ _____    ______ ____
ROOT
ATOM      1  C   UNL     1     -10.196  55.258  50.671  0.00  0.00    +0.000 A 
ATOM      2  C   UNL     1      -9.742  55.177  49.253  0.00  0.00    +0.000 A 
ATOM      3  C   UNL     1     -11.414  55.731  50.976  0.00  0.00    +0.000 A 
ATOM      4  O   UNL     1      -8.606  54.736  49.051  0.00  0.00    +0.000 OA
ATOM      5  N   UNL     1     -10.634  55.566  48.252  0.00  0.00    +0.000 N 
ATOM      6  C   UNL     1     -12.333  56.156  49.912  0.00  0.00    +0.000 A 
ATOM      7  C   UNL     1     -11.932  56.077  48.565  0.00  0.00    +0.000 A 
ATOM      8  C   UNL     1     -13.626  56.610  50.226  0.00  0.00    +0.000 A 
ATOM      9  C   UNL     1     -12.828  56.484  47.564  0.00  0.00    +0.000 A 
ATOM     10  C   UNL     1     -14.517  56.976  49.221  0.00  0.00    +0.000 A 
ATOM     11  C   UNL     1     -14.117  56.921  47.891  0.00  0.00    +0.000 A 
ENDROOT
BRANCH   1  17
ATOM     12  S   UNL     1      -7.062  54.823  52.981  0.00  0.00    +0.000 S 
ATOM     13  O   UNL     1      -7.045  55.793  54.065  0.00  0.00    +0.000 OA
ATOM     14  O   UNL     1      -5.834  54.491  52.277  0.00  0.00    +0.000 OA
ATOM     15  N   UNL     1      -8.142  55.333  51.892  0.00  0.00    +0.000 N 
ATOM     16  C   UNL     1      -7.641  53.323  53.681  0.00  0.00    +0.000 A 
ATOM     17  C   UNL     1      -9.276  54.725  51.748  0.00  0.00    +0.000 C 
ATOM     18  C   UNL     1      -8.911  52.897  53.330  0.00  0.00    +0.000 A 
ATOM     19  C   UNL     1      -6.825  52.594  54.549  0.00  0.00    +0.000 A 
ATOM     20  N   UNL     1      -9.719  53.646  52.485  0.00  0.00    +0.000 N 
ATOM     21  C   UNL     1      -9.401  51.725  53.923  0.00  0.00    +0.000 A 
ATOM     22  C   UNL     1      -7.313  51.414  55.104  0.00  0.00    +0.000 A 
ATOM     23  C   UNL     1      -8.604  50.986  54.798  0.00  0.00    +0.000 A 
ATOM     24  H   UNL     1      -7.935  56.116  51.332  0.00  0.00    +0.000 HD
ATOM     25  H   UNL     1     -10.667  53.392  52.407  0.00  0.00    +0.000 HD
ENDBRANCH   1  17
BRANCH   3  26
ATOM     26  O   UNL     1     -11.916  55.821  52.261  0.00  0.00    +0.000 OA
ATOM     27  H   UNL     1     -12.403  56.578  52.523  0.00  0.00    +0.000 HD
ENDBRANCH   3  26
BRANCH   5  28
ATOM     28  N   UNL     1     -10.245  55.509  46.867  0.00  0.00    +0.000 N 
ATOM     29  H   UNL     1      -9.911  56.293  46.375  0.00  0.00    +0.000 HD
BRANCH  28  30
ATOM     30  C   UNL     1     -10.386  54.180  46.246  0.00  0.00    +0.000 C 
BRANCH  30  31
ATOM     31  C   UNL     1      -9.066  53.671  45.643  0.00  0.00    +0.000 C 
ATOM     32  C   UNL     1      -9.324  53.084  44.249  0.00  0.00    +0.000 C 
ATOM     33  C   UNL     1      -8.019  54.776  45.561  0.00  0.00    +0.000 C 
ENDBRANCH  30  31
ENDBRANCH  28  30
ENDBRANCH   5  28
TORSDOF 5
ENDMDL
MODEL 6
REMARK VINA RESULT:      -7.8      2.719      8.276
REMARK  Name = 
REMARK  7 active torsions:
REMARK  status: ('A' for Active; 'I' for Inactive)
REMARK    1  A    between atoms: C_6  and  C_10
REMARK    2  A    between atoms: C_14  and  O_18
REMARK    3  A    between atoms: N_17  and  N_20
REMARK    4  A    between atoms: N_20  and  C_23
REMARK    5  A    between atoms: C_23  and  C_26
REMARK    6  A    between atoms: C_26  and  C_28
REMARK    7  A    between atoms: C_26  and  C_29
REMARK                            x       y       z     vdW  Elec       q    Type
REMARK                         _______ _______ _______ _____ _____    ______ ____
ROOT
ATOM      1  C   UNL     1      -9.809  55.195  50.903  0.00  0.00    +0.000 A 
ATOM      2  C   UNL     1     -10.996  55.364  51.789  0.00  0.00    +0.000 A 
ATOM      3  C   UNL     1      -9.915  55.359  49.575  0.00  0.00    +0.000 A 
ATOM      4  O   UNL     1     -10.823  55.191  53.001  0.00  0.00    +0.000 OA
ATOM      5  N   UNL     1     -12.207  55.740  51.205  0.00  0.00    +0.000 N 
ATOM      6  C   UNL     1     -11.201  55.735  48.974  0.00  0.00    +0.000 A 
ATOM      7  C   UNL     1     -12.333  55.913  49.791  0.00  0.00    +0.000 A 
ATOM      8  C   UNL     1     -11.303  55.951  47.589  0.00  0.00    +0.000 A 
ATOM      9  C   UNL     1     -13.551  56.276  49.195  0.00  0.00    +0.000 A 
ATOM     10  C   UNL     1     -12.509  56.346  47.016  0.00  0.00    +0.000 A 
ATOM     11  C   UNL     1     -13.634  56.501  47.817  0.00  0.00    +0.000 A 
ENDROOT
BRANCH   1  17
ATOM     12  S   UNL     1      -6.830  55.276  53.446  0.00  0.00    +0.000 S 
ATOM     13  O   UNL     1      -7.072  54.420  54.598  0.00  0.00    +0.000 OA
ATOM     14  O   UNL     1      -6.221  56.585  53.623  0.00  0.00    +0.000 OA
ATOM     15  N   UNL     1      -8.242  55.478  52.687  0.00  0.00    +0.000 N 
ATOM     16  C   UNL     1      -5.753  54.379  52.393  0.00  0.00    +0.000 A 
ATOM     17  C   UNL     1      -8.471  54.906  51.548  0.00  0.00    +0.000 C 
ATOM     18  C   UNL     1      -6.274  53.886  51.208  0.00  0.00    +0.000 A 
ATOM     19  C   UNL     1      -4.417  54.193  52.751  0.00  0.00    +0.000 A 
ATOM     20  N   UNL     1      -7.613  54.059  50.878  0.00  0.00    +0.000 N 
ATOM     21  C   UNL     1      -5.435  53.126  50.383  0.00  0.00    +0.000 A 
ATOM     22  C   UNL     1      -3.585  53.463  51.905  0.00  0.00    +0.000 A 
ATOM     23  C   UNL     1      -4.097  52.923  50.726  0.00  0.00    +0.000 A 
ATOM     24  H   UNL     1      -8.938  56.043  53.096  0.00  0.00    +0.000 HD
ATOM     25  H   UNL     1      -7.971  53.545  50.119  0.00  0.00    +0.000 HD
ENDBRANCH   1  17
BRANCH   3  26
ATOM     26  O   UNL     1      -8.860  55.238  48.689  0.00  0.00    +0.000 OA
ATOM     27  H   UNL     1      -8.080  55.742  48.818  0.00  0.00    +0.000 HD
ENDBRANCH   3  26
BRANCH   5  28
ATOM     28  N   UNL     1     -13.384  55.915  52.016  0.00  0.00    +0.000 N 
ATOM     29  H   UNL     1     -14.079  55.224  52.102  0.00  0.00    +0.000 HD
BRANCH  28  30
ATOM     30  C   UNL     1     -13.463  57.214  52.706  0.00  0.00    +0.000 C 
BRANCH  30  31
ATOM     31  C   UNL     1     -14.883  57.803  52.690  0.00  0.00    +0.000 C 
ATOM     32  C   UNL     1     -14.879  59.150  51.955  0.00  0.00    +0.000 C 
ATOM     33  C   UNL     1     -15.881  56.852  52.036  0.00  0.00    +0.000 C 
ENDBRANCH  30  31
ENDBRANCH  28  30
ENDBRANCH   5  28
TORSDOF 5
ENDMDL
MODEL 7
REMARK VINA RESULT:      -7.7      2.844      8.057
REMARK  Name = 
REMARK  7 active torsions:
REMARK  status: ('A' for Active; 'I' for Inactive)
REMARK    1  A    between atoms: C_6  and  C_10
REMARK    2  A    between atoms: C_14  and  O_18
REMARK    3  A    between atoms: N_17  and  N_20
REMARK    4  A    between atoms: N_20  and  C_23
REMARK    5  A    between atoms: C_23  and  C_26
REMARK    6  A    between atoms: C_26  and  C_28
REMARK    7  A    between atoms: C_26  and  C_29
REMARK                            x       y       z     vdW  Elec       q    Type
REMARK                         _______ _______ _______ _____ _____    ______ ____
ROOT
ATOM      1  C   UNL     1      -9.856  54.380  50.992  0.00  0.00    +0.000 A 
ATOM      2  C   UNL     1     -11.032  55.218  51.367  0.00  0.00    +0.000 A 
ATOM      3  C   UNL     1      -9.577  54.128  49.703  0.00  0.00    +0.000 A 
ATOM      4  O   UNL     1     -11.229  55.401  52.573  0.00  0.00    +0.000 OA
ATOM      5  N   UNL     1     -11.805  55.766  50.342  0.00  0.00    +0.000 N 
ATOM      6  C   UNL     1     -10.412  54.697  48.638  0.00  0.00    +0.000 A 
ATOM      7  C   UNL     1     -11.520  55.501  48.967  0.00  0.00    +0.000 A 
ATOM      8  C   UNL     1     -10.095  54.471  47.287  0.00  0.00    +0.000 A 
ATOM      9  C   UNL     1     -12.302  56.036  47.932  0.00  0.00    +0.000 A 
ATOM     10  C   UNL     1     -10.858  55.038  46.271  0.00  0.00    +0.000 A 
ATOM     11  C   UNL     1     -11.966  55.814  46.592  0.00  0.00    +0.000 A 
ENDROOT
BRANCH   1  17
ATOM     12  S   UNL     1      -6.671  53.856  53.211  0.00  0.00    +0.000 S 
ATOM     13  O   UNL     1      -6.465  54.959  54.139  0.00  0.00    +0.000 OA
ATOM     14  O   UNL     1      -5.539  53.266  52.515  0.00  0.00    +0.000 OA
ATOM     15  N   UNL     1      -7.740  54.349  52.104  0.00  0.00    +0.000 N 
ATOM     16  C   UNL     1      -7.393  52.562  54.148  0.00  0.00    +0.000 A 
ATOM     17  C   UNL     1      -8.949  53.885  52.097  0.00  0.00    +0.000 C 
ATOM     18  C   UNL     1      -8.726  52.266  53.916  0.00  0.00    +0.000 A 
ATOM     19  C   UNL     1      -6.627  51.860  55.080  0.00  0.00    +0.000 A 
ATOM     20  N   UNL     1      -9.481  52.991  53.003  0.00  0.00    +0.000 N 
ATOM     21  C   UNL     1      -9.326  51.266  54.694  0.00  0.00    +0.000 A 
ATOM     22  C   UNL     1      -7.228  50.846  55.823  0.00  0.00    +0.000 A 
ATOM     23  C   UNL     1      -8.578  50.557  55.635  0.00  0.00    +0.000 A 
ATOM     24  H   UNL     1      -7.469  55.010  51.426  0.00  0.00    +0.000 HD
ATOM     25  H   UNL     1     -10.456  52.858  53.002  0.00  0.00    +0.000 HD
ENDBRANCH   1  17
BRANCH   3  26
ATOM     26  O   UNL     1      -8.498  53.379  49.273  0.00  0.00    +0.000 OA
ATOM     27  H   UNL     1      -7.638  53.564  49.598  0.00  0.00    +0.000 HD
ENDBRANCH   3  26
BRANCH   5  28
ATOM     28  N   UNL     1     -12.951  56.581  50.651  0.00  0.00    +0.000 N 
ATOM     29  H   UNL     1     -12.897  57.559  50.751  0.00  0.00    +0.000 HD
BRANCH  28  30
ATOM     30  C   UNL     1     -14.211  55.833  50.804  0.00  0.00    +0.000 C 
BRANCH  30  31
ATOM     31  C   UNL     1     -15.420  56.757  51.027  0.00  0.00    +0.000 C 
ATOM     32  C   UNL     1     -16.685  56.107  50.452  0.00  0.00    +0.000 C 
ATOM     33  C   UNL     1     -15.621  57.079  52.504  0.00  0.00    +0.000 C 
ENDBRANCH  30  31
ENDBRANCH  28  30
ENDBRANCH   5  28
TORSDOF 5
ENDMDL
MODEL 8
REMARK VINA RESULT:      -7.6      1.611      1.887
REMARK  Name = 
REMARK  7 active torsions:
REMARK  status: ('A' for Active; 'I' for Inactive)
REMARK    1  A    between atoms: C_6  and  C_10
REMARK    2  A    between atoms: C_14  and  O_18
REMARK    3  A    between atoms: N_17  and  N_20
REMARK    4  A    between atoms: N_20  and  C_23
REMARK    5  A    between atoms: C_23  and  C_26
REMARK    6  A    between atoms: C_26  and  C_28
REMARK    7  A    between atoms: C_26  and  C_29
REMARK                            x       y       z     vdW  Elec       q    Type
REMARK                         _______ _______ _______ _____ _____    ______ ____
ROOT
ATOM      1  C   UNL     1     -11.039  54.640  51.156  0.00  0.00    +0.000 A 
ATOM      2  C   UNL     1      -9.621  55.099  51.127  0.00  0.00    +0.000 A 
ATOM      3  C   UNL     1     -11.340  53.359  51.423  0.00  0.00    +0.000 A 
ATOM      4  O   UNL     1      -9.421  56.291  50.869  0.00  0.00    +0.000 OA
ATOM      5  N   UNL     1      -8.621  54.172  51.427  0.00  0.00    +0.000 N 
ATOM      6  C   UNL     1     -10.275  52.392  51.716  0.00  0.00    +0.000 A 
ATOM      7  C   UNL     1      -8.930  52.805  51.707  0.00  0.00    +0.000 A 
ATOM      8  C   UNL     1     -10.592  51.060  52.039  0.00  0.00    +0.000 A 
ATOM      9  C   UNL     1      -7.928  51.864  51.994  0.00  0.00    +0.000 A 
ATOM     10  C   UNL     1      -9.591  50.147  52.357  0.00  0.00    +0.000 A 
ATOM     11  C   UNL     1      -8.259  50.546  52.328  0.00  0.00    +0.000 A 
ENDROOT
BRANCH   1  17
ATOM     12  S   UNL     1     -13.385  57.250  49.415  0.00  0.00    +0.000 S 
ATOM     13  O   UNL     1     -14.463  56.608  48.678  0.00  0.00    +0.000 OA
ATOM     14  O   UNL     1     -12.696  58.399  48.849  0.00  0.00    +0.000 OA
ATOM     15  N   UNL     1     -12.281  56.116  49.743  0.00  0.00    +0.000 N 
ATOM     16  C   UNL     1     -14.088  57.800  50.923  0.00  0.00    +0.000 A 
ATOM     17  C   UNL     1     -12.129  55.669  50.950  0.00  0.00    +0.000 C 
ATOM     18  C   UNL     1     -13.726  57.134  52.083  0.00  0.00    +0.000 A 
ATOM     19  C   UNL     1     -14.969  58.883  50.932  0.00  0.00    +0.000 A 
ATOM     20  N   UNL     1     -12.868  56.042  52.053  0.00  0.00    +0.000 N 
ATOM     21  C   UNL     1     -14.321  57.534  53.287  0.00  0.00    +0.000 A 
ATOM     22  C   UNL     1     -15.526  59.291  52.142  0.00  0.00    +0.000 A 
ATOM     23  C   UNL     1     -15.209  58.611  53.316  0.00  0.00    +0.000 A 
ATOM     24  H   UNL     1     -11.718  55.760  49.019  0.00  0.00    +0.000 HD
ATOM     25  H   UNL     1     -12.782  55.501  52.871  0.00  0.00    +0.000 HD
ENDBRANCH   1  17
BRANCH   3  26
ATOM     26  O   UNL     1     -12.628  52.859  51.486  0.00  0.00    +0.000 OA
ATOM     27  H   UNL     1     -13.359  53.422  51.318  0.00  0.00    +0.000 HD
ENDBRANCH   3  26
BRANCH   5  28
ATOM     28  N   UNL     1      -7.236  54.564  51.412  0.00  0.00    +0.000 N 
ATOM     29  H   UNL     1      -6.624  54.328  50.678  0.00  0.00    +0.000 HD
BRANCH  28  30
ATOM     30  C   UNL     1      -6.809  55.349  52.583  0.00  0.00    +0.000 C 
BRANCH  30  31
ATOM     31  C   UNL     1      -5.621  54.706  53.318  0.00  0.00    +0.000 C 
ATOM     32  C   UNL     1      -6.126  53.918  54.534  0.00  0.00    +0.000 C 
ATOM     33  C   UNL     1      -4.814  53.794  52.400  0.00  0.00    +0.000 C 
ENDBRANCH  30  31
ENDBRANCH  28  30
ENDBRANCH   5  28
TORSDOF 5
ENDMDL
MODEL 9
REMARK VINA RESULT:      -7.6      4.256      5.604
REMARK  Name = 
REMARK  7 active torsions:
REMARK  status: ('A' for Active; 'I' for Inactive)
REMARK    1  A    between atoms: C_6  and  C_10
REMARK    2  A    between atoms: C_14  and  O_18
REMARK    3  A    between atoms: N_17  and  N_20
REMARK    4  A    between atoms: N_20  and  C_23
REMARK    5  A    between atoms: C_23  and  C_26
REMARK    6  A    between atoms: C_26  and  C_28
REMARK    7  A    between atoms: C_26  and  C_29
REMARK                            x       y       z     vdW  Elec       q    Type
REMARK                         _______ _______ _______ _____ _____    ______ ____
ROOT
ATOM      1  C   UNL     1     -12.490  54.245  49.749  0.00  0.00    +0.000 A 
ATOM      2  C   UNL     1     -12.050  54.138  48.328  0.00  0.00    +0.000 A 
ATOM      3  C   UNL     1     -12.142  53.310  50.647  0.00  0.00    +0.000 A 
ATOM      4  O   UNL     1     -12.416  55.033  47.558  0.00  0.00    +0.000 OA
ATOM      5  N   UNL     1     -11.232  53.065  47.970  0.00  0.00    +0.000 N 
ATOM      6  C   UNL     1     -11.297  52.177  50.249  0.00  0.00    +0.000 A 
ATOM      7  C   UNL     1     -10.858  52.061  48.917  0.00  0.00    +0.000 A 
ATOM      8  C   UNL     1     -10.893  51.222  51.199  0.00  0.00    +0.000 A 
ATOM      9  C   UNL     1     -10.048  50.972  48.560  0.00  0.00    +0.000 A 
ATOM     10  C   UNL     1     -10.060  50.167  50.839  0.00  0.00    +0.000 A 
ATOM     11  C   UNL     1      -9.644  50.037  49.519  0.00  0.00    +0.000 A 
ENDROOT
BRANCH   1  17
ATOM     12  S   UNL     1     -15.333  56.488  51.243  0.00  0.00    +0.000 S 
ATOM     13  O   UNL     1     -15.229  56.609  52.690  0.00  0.00    +0.000 OA
ATOM     14  O   UNL     1     -16.633  56.314  50.616  0.00  0.00    +0.000 OA
ATOM     15  N   UNL     1     -14.390  55.256  50.791  0.00  0.00    +0.000 N 
ATOM     16  C   UNL     1     -14.670  57.971  50.584  0.00  0.00    +0.000 A 
ATOM     17  C   UNL     1     -13.277  55.469  50.164  0.00  0.00    +0.000 C 
ATOM     18  C   UNL     1     -13.447  57.898  49.938  0.00  0.00    +0.000 A 
ATOM     19  C   UNL     1     -15.376  59.169  50.706  0.00  0.00    +0.000 A 
ATOM     20  N   UNL     1     -12.746  56.702  49.847  0.00  0.00    +0.000 N 
ATOM     21  C   UNL     1     -12.886  59.086  49.450  0.00  0.00    +0.000 A 
ATOM     22  C   UNL     1     -14.821  60.337  50.188  0.00  0.00    +0.000 A 
ATOM     23  C   UNL     1     -13.573  60.295  49.568  0.00  0.00    +0.000 A 
ATOM     24  H   UNL     1     -14.664  54.333  50.996  0.00  0.00    +0.000 HD
ATOM     25  H   UNL     1     -11.813  56.737  49.536  0.00  0.00    +0.000 HD
ENDBRANCH   1  17
BRANCH   3  26
ATOM     26  O   UNL     1     -12.492  53.347  51.984  0.00  0.00    +0.000 OA
ATOM     27  H   UNL     1     -13.259  52.896  52.280  0.00  0.00    +0.000 HD
ENDBRANCH   3  26
BRANCH   5  28
ATOM     28  N   UNL     1     -10.781  52.915  46.611  0.00  0.00    +0.000 N 
ATOM     29  H   UNL     1      -9.845  53.059  46.342  0.00  0.00    +0.000 HD
BRANCH  28  30
ATOM     30  C   UNL     1     -11.834  52.527  45.656  0.00  0.00    +0.000 C 
BRANCH  30  31
ATOM     31  C   UNL     1     -11.545  51.176  44.980  0.00  0.00    +0.000 C 
ATOM     32  C   UNL     1     -10.038  51.034  44.726  0.00  0.00    +0.000 C 
ATOM     33  C   UNL     1     -12.047  50.006  45.819  0.00  0.00    +0.000 C 
ENDBRANCH  30  31
ENDBRANCH  28  30
ENDBRANCH   5  28
TORSDOF 5
ENDMDL
