MODEL 1
REMARK VINA RESULT:      -8.0      0.000      0.000
REMARK  Name = 
REMARK  8 active torsions:
REMARK  status: ('A' for Active; 'I' for Inactive)
REMARK    1  A    between atoms: C_6  and  C_10
REMARK    2  A    between atoms: C_14  and  O_18
REMARK    3  A    between atoms: N_17  and  N_20
REMARK    4  A    between atoms: N_20  and  C_23
REMARK    5  A    between atoms: C_23  and  C_26
REMARK    6  A    between atoms: C_26  and  C_28
REMARK    7  A    between atoms: C_28  and  C_29
REMARK    8  A    between atoms: C_28  and  C_30
REMARK                            x       y       z     vdW  Elec       q    Type
REMARK                         _______ _______ _______ _____ _____    ______ ____
ROOT
ATOM      1  C   UNL     1     -10.072  54.508  52.236  0.00  0.00    +0.000 A 
ATOM      2  C   UNL     1      -8.707  55.084  52.078  0.00  0.00    +0.000 A 
ATOM      3  C   UNL     1     -10.260  53.395  52.967  0.00  0.00    +0.000 A 
ATOM      4  O   UNL     1      -8.593  56.081  51.355  0.00  0.00    +0.000 OA
ATOM      5  N   UNL     1      -7.651  54.489  52.777  0.00  0.00    +0.000 N 
ATOM      6  C   UNL     1      -9.132  52.760  53.663  0.00  0.00    +0.000 A 
ATOM      7  C   UNL     1      -7.843  53.312  53.561  0.00  0.00    +0.000 A 
ATOM      8  C   UNL     1      -9.334  51.616  54.456  0.00  0.00    +0.000 A 
ATOM      9  C   UNL     1      -6.781  52.696  54.242  0.00  0.00    +0.000 A 
ATOM     10  C   UNL     1      -8.274  51.025  55.141  0.00  0.00    +0.000 A 
ATOM     11  C   UNL     1      -7.000  51.562  55.031  0.00  0.00    +0.000 A 
ENDROOT
BRANCH   1  17
ATOM     12  S   UNL     1     -12.475  56.013  49.518  0.00  0.00    +0.000 S 
ATOM     13  O   UNL     1     -13.365  55.018  48.954  0.00  0.00    +0.000 OA
ATOM     14  O   UNL     1     -11.849  57.007  48.665  0.00  0.00    +0.000 OA
ATOM     15  N   UNL     1     -11.299  55.227  50.309  0.00  0.00    +0.000 N 
ATOM     16  C   UNL     1     -13.427  56.910  50.688  0.00  0.00    +0.000 A 
ATOM     17  C   UNL     1     -11.243  55.238  51.608  0.00  0.00    +0.000 C 
ATOM     18  C   UNL     1     -13.143  56.729  52.031  0.00  0.00    +0.000 A 
ATOM     19  C   UNL     1     -14.429  57.782  50.252  0.00  0.00    +0.000 A 
ATOM     20  N   UNL     1     -12.146  55.850  52.450  0.00  0.00    +0.000 N 
ATOM     21  C   UNL     1     -13.942  57.392  52.971  0.00  0.00    +0.000 A 
ATOM     22  C   UNL     1     -15.193  58.465  51.196  0.00  0.00    +0.000 A 
ATOM     23  C   UNL     1     -14.956  58.258  52.555  0.00  0.00    +0.000 A 
ATOM     24  H   UNL     1     -10.618  54.733  49.799  0.00  0.00    +0.000 HD
ATOM     25  H   UNL     1     -12.082  55.652  53.413  0.00  0.00    +0.000 HD
ENDBRANCH   1  17
BRANCH   3  26
ATOM     26  O   UNL     1     -11.488  52.787  53.156  0.00  0.00    +0.000 OA
ATOM     27  H   UNL     1     -11.631  52.242  53.904  0.00  0.00    +0.000 HD
ENDBRANCH   3  26
BRANCH   5  28
ATOM     28  N   UNL     1      -6.318  55.035  52.677  0.00  0.00    +0.000 N 
ATOM     29  H   UNL     1      -5.965  55.722  53.287  0.00  0.00    +0.000 HD
BRANCH  28  30
ATOM     30  C   UNL     1      -5.545  54.454  51.569  0.00  0.00    +0.000 C 
BRANCH  30  31
ATOM     31  C   UNL     1      -4.113  54.091  51.972  0.00  0.00    +0.000 C 
BRANCH  31  32
ATOM     32  C   UNL     1      -3.812  52.597  51.709  0.00  0.00    +0.000 C 
ATOM     33  C   UNL     1      -3.373  51.853  52.971  0.00  0.00    +0.000 C 
ATOM     34  C   UNL     1      -5.032  51.908  51.096  0.00  0.00    +0.000 C 
ENDBRANCH  31  32
ENDBRANCH  30  31
ENDBRANCH  28  30
ENDBRANCH   5  28
TORSDOF 6
ENDMDL
MODEL 2
REMARK VINA RESULT:      -7.8      1.950      2.435
REMARK  Name = 
REMARK  8 active torsions:
REMARK  status: ('A' for Active; 'I' for Inactive)
REMARK    1  A    between atoms: C_6  and  C_10
REMARK    2  A    between atoms: C_14  and  O_18
REMARK    3  A    between atoms: N_17  and  N_20
REMARK    4  A    between atoms: N_20  and  C_23
REMARK    5  A    between atoms: C_23  and  C_26
REMARK    6  A    between atoms: C_26  and  C_28
REMARK    7  A    between atoms: C_28  and  C_29
REMARK    8  A    between atoms: C_28  and  C_30
REMARK                            x       y       z     vdW  Elec       q    Type
REMARK                         _______ _______ _______ _____ _____    ______ ____
ROOT
ATOM      1  C   UNL     1     -11.158  54.673  50.906  0.00  0.00    +0.000 A 
ATOM      2  C   UNL     1      -9.764  55.077  50.570  0.00  0.00    +0.000 A 
ATOM      3  C   UNL     1     -11.418  53.432  51.350  0.00  0.00    +0.000 A 
ATOM      4  O   UNL     1      -9.597  56.218  50.122  0.00  0.00    +0.000 OA
ATOM      5  N   UNL     1      -8.733  54.164  50.813  0.00  0.00    +0.000 N 
ATOM      6  C   UNL     1     -10.327  52.471  51.562  0.00  0.00    +0.000 A 
ATOM      7  C   UNL     1      -8.998  52.846  51.292  0.00  0.00    +0.000 A 
ATOM      8  C   UNL     1     -10.595  51.183  52.060  0.00  0.00    +0.000 A 
ATOM      9  C   UNL     1      -7.970  51.917  51.510  0.00  0.00    +0.000 A 
ATOM     10  C   UNL     1      -9.560  50.277  52.290  0.00  0.00    +0.000 A 
ATOM     11  C   UNL     1      -8.252  50.642  52.011  0.00  0.00    +0.000 A 
ENDROOT
BRANCH   1  17
ATOM     12  S   UNL     1     -13.609  57.323  49.358  0.00  0.00    +0.000 S 
ATOM     13  O   UNL     1     -14.727  56.709  48.669  0.00  0.00    +0.000 OA
ATOM     14  O   UNL     1     -12.941  58.480  48.788  0.00  0.00    +0.000 OA
ATOM     15  N   UNL     1     -12.492  56.176  49.601  0.00  0.00    +0.000 N 
ATOM     16  C   UNL     1     -14.224  57.840  50.918  0.00  0.00    +0.000 A 
ATOM     17  C   UNL     1     -12.258  55.710  50.793  0.00  0.00    +0.000 C 
ATOM     18  C   UNL     1     -13.796  57.154  52.043  0.00  0.00    +0.000 A 
ATOM     19  C   UNL     1     -15.109  58.920  50.998  0.00  0.00    +0.000 A 
ATOM     20  N   UNL     1     -12.919  56.075  51.945  0.00  0.00    +0.000 N 
ATOM     21  C   UNL     1     -14.334  57.520  53.283  0.00  0.00    +0.000 A 
ATOM     22  C   UNL     1     -15.608  59.297  52.242  0.00  0.00    +0.000 A 
ATOM     23  C   UNL     1     -15.229  58.587  53.382  0.00  0.00    +0.000 A 
ATOM     24  H   UNL     1     -11.982  55.826  48.836  0.00  0.00    +0.000 HD
ATOM     25  H   UNL     1     -12.761  55.537  52.755  0.00  0.00    +0.000 HD
ENDBRANCH   1  17
BRANCH   3  26
ATOM     26  O   UNL     1     -12.682  52.970  51.673  0.00  0.00    +0.000 OA
ATOM     27  H   UNL     1     -13.436  53.487  51.470  0.00  0.00    +0.000 HD
ENDBRANCH   3  26
BRANCH   5  28
ATOM     28  N   UNL     1      -7.363  54.525  50.532  0.00  0.00    +0.000 N 
ATOM     29  H   UNL     1      -6.877  54.233  49.728  0.00  0.00    +0.000 HD
BRANCH  28  30
ATOM     30  C   UNL     1      -6.772  55.376  51.576  0.00  0.00    +0.000 C 
BRANCH  30  31
ATOM     31  C   UNL     1      -5.922  54.584  52.574  0.00  0.00    +0.000 C 
BRANCH  31  32
ATOM     32  C   UNL     1      -6.430  54.770  54.023  0.00  0.00    +0.000 C 
ATOM     33  C   UNL     1      -7.854  55.326  54.081  0.00  0.00    +0.000 C 
ATOM     34  C   UNL     1      -6.356  53.448  54.787  0.00  0.00    +0.000 C 
ENDBRANCH  31  32
ENDBRANCH  30  31
ENDBRANCH  28  30
ENDBRANCH   5  28
TORSDOF 6
ENDMDL
MODEL 3
REMARK VINA RESULT:      -7.8      3.812      5.334
REMARK  Name = 
REMARK  8 active torsions:
REMARK  status: ('A' for Active; 'I' for Inactive)
REMARK    1  A    between atoms: C_6  and  C_10
REMARK    2  A    between atoms: C_14  and  O_18
REMARK    3  A    between atoms: N_17  and  N_20
REMARK    4  A    between atoms: N_20  and  C_23
REMARK    5  A    between atoms: C_23  and  C_26
REMARK    6  A    between atoms: C_26  and  C_28
REMARK    7  A    between atoms: C_28  and  C_29
REMARK    8  A    between atoms: C_28  and  C_30
REMARK                            x       y       z     vdW  Elec       q    Type
REMARK                         _______ _______ _______ _____ _____    ______ ____
ROOT
ATOM      1  C   UNL     1     -10.643  55.664  48.143  0.00  0.00    +0.000 A 
ATOM      2  C   UNL     1      -9.183  55.787  48.416  0.00  0.00    +0.000 A 
ATOM      3  C   UNL     1     -11.079  55.002  47.058  0.00  0.00    +0.000 A 
ATOM      4  O   UNL     1      -8.845  56.448  49.405  0.00  0.00    +0.000 OA
ATOM      5  N   UNL     1      -8.292  55.125  47.565  0.00  0.00    +0.000 N 
ATOM      6  C   UNL     1     -10.126  54.346  46.151  0.00  0.00    +0.000 A 
ATOM      7  C   UNL     1      -8.746  54.413  46.414  0.00  0.00    +0.000 A 
ATOM      8  C   UNL     1     -10.584  53.624  45.034  0.00  0.00    +0.000 A 
ATOM      9  C   UNL     1      -7.854  53.771  45.542  0.00  0.00    +0.000 A 
ATOM     10  C   UNL     1      -9.687  52.975  44.187  0.00  0.00    +0.000 A 
ATOM     11  C   UNL     1      -8.325  53.053  44.438  0.00  0.00    +0.000 A 
ENDROOT
BRANCH   1  17
ATOM     12  S   UNL     1     -13.057  55.950  51.229  0.00  0.00    +0.000 S 
ATOM     13  O   UNL     1     -12.342  56.148  52.475  0.00  0.00    +0.000 OA
ATOM     14  O   UNL     1     -14.196  55.053  51.170  0.00  0.00    +0.000 OA
ATOM     15  N   UNL     1     -11.982  55.462  50.119  0.00  0.00    +0.000 N 
ATOM     16  C   UNL     1     -13.661  57.530  50.759  0.00  0.00    +0.000 A 
ATOM     17  C   UNL     1     -11.618  56.246  49.148  0.00  0.00    +0.000 C 
ATOM     18  C   UNL     1     -13.080  58.146  49.662  0.00  0.00    +0.000 A 
ATOM     19  C   UNL     1     -14.702  58.123  51.480  0.00  0.00    +0.000 A 
ATOM     20  N   UNL     1     -12.038  57.545  48.959  0.00  0.00    +0.000 N 
ATOM     21  C   UNL     1     -13.513  59.434  49.323  0.00  0.00    +0.000 A 
ATOM     22  C   UNL     1     -15.148  59.389  51.109  0.00  0.00    +0.000 A 
ATOM     23  C   UNL     1     -14.544  60.048  50.038  0.00  0.00    +0.000 A 
ATOM     24  H   UNL     1     -11.599  54.558  50.181  0.00  0.00    +0.000 HD
ATOM     25  H   UNL     1     -11.570  58.085  48.281  0.00  0.00    +0.000 HD
ENDBRANCH   1  17
BRANCH   3  26
ATOM     26  O   UNL     1     -12.413  54.850  46.723  0.00  0.00    +0.000 OA
ATOM     27  H   UNL     1     -12.731  54.020  46.428  0.00  0.00    +0.000 HD
ENDBRANCH   3  26
BRANCH   5  28
ATOM     28  N   UNL     1      -6.871  55.191  47.810  0.00  0.00    +0.000 N 
ATOM     29  H   UNL     1      -6.278  55.862  47.400  0.00  0.00    +0.000 HD
BRANCH  28  30
ATOM     30  C   UNL     1      -6.402  54.149  48.736  0.00  0.00    +0.000 C 
BRANCH  30  31
ATOM     31  C   UNL     1      -5.585  54.714  49.900  0.00  0.00    +0.000 C 
BRANCH  31  32
ATOM     32  C   UNL     1      -6.383  54.675  51.224  0.00  0.00    +0.000 C 
ATOM     33  C   UNL     1      -7.516  53.647  51.199  0.00  0.00    +0.000 C 
ATOM     34  C   UNL     1      -5.449  54.393  52.401  0.00  0.00    +0.000 C 
ENDBRANCH  31  32
ENDBRANCH  30  31
ENDBRANCH  28  30
ENDBRANCH   5  28
TORSDOF 6
ENDMDL
MODEL 4
REMARK VINA RESULT:      -7.7      2.792      8.256
REMARK  Name = 
REMARK  8 active torsions:
REMARK  status: ('A' for Active; 'I' for Inactive)
REMARK    1  A    between atoms: C_6  and  C_10
REMARK    2  A    between atoms: C_14  and  O_18
REMARK    3  A    between atoms: N_17  and  N_20
REMARK    4  A    between atoms: N_20  and  C_23
REMARK    5  A    between atoms: C_23  and  C_26
REMARK    6  A    between atoms: C_26  and  C_28
REMARK    7  A    between atoms: C_28  and  C_29
REMARK    8  A    between atoms: C_28  and  C_30
REMARK                            x       y       z     vdW  Elec       q    Type
REMARK                         _______ _______ _______ _____ _____    ______ ____
ROOT
ATOM      1  C   UNL     1      -9.870  54.337  50.934  0.00  0.00    +0.000 A 
ATOM      2  C   UNL     1     -11.030  55.204  51.288  0.00  0.00    +0.000 A 
ATOM      3  C   UNL     1      -9.613  54.038  49.649  0.00  0.00    +0.000 A 
ATOM      4  O   UNL     1     -11.240  55.404  52.490  0.00  0.00    +0.000 OA
ATOM      5  N   UNL     1     -11.782  55.761  50.250  0.00  0.00    +0.000 N 
ATOM      6  C   UNL     1     -10.439  54.600  48.571  0.00  0.00    +0.000 A 
ATOM      7  C   UNL     1     -11.512  55.454  48.882  0.00  0.00    +0.000 A 
ATOM      8  C   UNL     1     -10.149  54.314  47.225  0.00  0.00    +0.000 A 
ATOM      9  C   UNL     1     -12.282  55.989  47.838  0.00  0.00    +0.000 A 
ATOM     10  C   UNL     1     -10.912  54.868  46.197  0.00  0.00    +0.000 A 
ATOM     11  C   UNL     1     -11.978  55.700  46.504  0.00  0.00    +0.000 A 
ENDROOT
BRANCH   1  17
ATOM     12  S   UNL     1      -6.677  53.897  53.177  0.00  0.00    +0.000 S 
ATOM     13  O   UNL     1      -6.495  54.997  54.104  0.00  0.00    +0.000 OA
ATOM     14  O   UNL     1      -5.538  53.332  52.476  0.00  0.00    +0.000 OA
ATOM     15  N   UNL     1      -7.761  54.365  52.068  0.00  0.00    +0.000 N 
ATOM     16  C   UNL     1      -7.370  52.583  54.112  0.00  0.00    +0.000 A 
ATOM     17  C   UNL     1      -8.959  53.858  52.046  0.00  0.00    +0.000 C 
ATOM     18  C   UNL     1      -8.692  52.246  53.874  0.00  0.00    +0.000 A 
ATOM     19  C   UNL     1      -6.589  51.907  55.053  0.00  0.00    +0.000 A 
ATOM     20  N   UNL     1      -9.460  52.935  52.937  0.00  0.00    +0.000 N 
ATOM     21  C   UNL     1      -9.270  51.243  54.662  0.00  0.00    +0.000 A 
ATOM     22  C   UNL     1      -7.164  50.885  55.805  0.00  0.00    +0.000 A 
ATOM     23  C   UNL     1      -8.509  50.563  55.616  0.00  0.00    +0.000 A 
ATOM     24  H   UNL     1      -7.509  55.043  51.401  0.00  0.00    +0.000 HD
ATOM     25  H   UNL     1     -10.427  52.751  52.911  0.00  0.00    +0.000 HD
ENDBRANCH   1  17
BRANCH   3  26
ATOM     26  O   UNL     1      -8.567  53.233  49.232  0.00  0.00    +0.000 OA
ATOM     27  H   UNL     1      -7.913  52.960  49.845  0.00  0.00    +0.000 HD
ENDBRANCH   3  26
BRANCH   5  28
ATOM     28  N   UNL     1     -12.895  56.632  50.547  0.00  0.00    +0.000 N 
ATOM     29  H   UNL     1     -12.825  57.613  50.577  0.00  0.00    +0.000 HD
BRANCH  28  30
ATOM     30  C   UNL     1     -14.143  55.897  50.802  0.00  0.00    +0.000 C 
BRANCH  30  31
ATOM     31  C   UNL     1     -15.290  56.812  51.240  0.00  0.00    +0.000 C 
BRANCH  31  32
ATOM     32  C   UNL     1     -14.762  58.143  51.825  0.00  0.00    +0.000 C 
ATOM     33  C   UNL     1     -15.211  59.360  51.014  0.00  0.00    +0.000 C 
ATOM     34  C   UNL     1     -15.199  58.296  53.281  0.00  0.00    +0.000 C 
ENDBRANCH  31  32
ENDBRANCH  30  31
ENDBRANCH  28  30
ENDBRANCH   5  28
TORSDOF 6
ENDMDL
MODEL 5
REMARK VINA RESULT:      -7.7      3.640      7.588
REMARK  Name = 
REMARK  8 active torsions:
REMARK  status: ('A' for Active; 'I' for Inactive)
REMARK    1  A    between atoms: C_6  and  C_10
REMARK    2  A    between atoms: C_14  and  O_18
REMARK    3  A    between atoms: N_17  and  N_20
REMARK    4  A    between atoms: N_20  and  C_23
REMARK    5  A    between atoms: C_23  and  C_26
REMARK    6  A    between atoms: C_26  and  C_28
REMARK    7  A    between atoms: C_28  and  C_29
REMARK    8  A    between atoms: C_28  and  C_30
REMARK                            x       y       z     vdW  Elec       q    Type
REMARK                         _______ _______ _______ _____ _____    ______ ____
ROOT
ATOM      1  C   UNL     1     -10.191  55.249  50.779  0.00  0.00    +0.000 A 
ATOM      2  C   UNL     1      -9.761  55.186  49.354  0.00  0.00    +0.000 A 
ATOM      3  C   UNL     1     -11.402  55.733  51.103  0.00  0.00    +0.000 A 
ATOM      4  O   UNL     1      -8.617  54.774  49.125  0.00  0.00    +0.000 OA
ATOM      5  N   UNL     1     -10.679  55.561  48.367  0.00  0.00    +0.000 N 
ATOM      6  C   UNL     1     -12.340  56.161  50.055  0.00  0.00    +0.000 A 
ATOM      7  C   UNL     1     -11.970  56.070  48.702  0.00  0.00    +0.000 A 
ATOM      8  C   UNL     1     -13.621  56.635  50.392  0.00  0.00    +0.000 A 
ATOM      9  C   UNL     1     -12.884  56.473  47.716  0.00  0.00    +0.000 A 
ATOM     10  C   UNL     1     -14.525  57.015  49.401  0.00  0.00    +0.000 A 
ATOM     11  C   UNL     1     -14.155  56.938  48.067  0.00  0.00    +0.000 A 
ENDROOT
BRANCH   1  17
ATOM     12  S   UNL     1      -7.016  54.780  53.042  0.00  0.00    +0.000 S 
ATOM     13  O   UNL     1      -6.959  55.743  54.124  0.00  0.00    +0.000 OA
ATOM     14  O   UNL     1      -5.814  54.433  52.306  0.00  0.00    +0.000 OA
ATOM     15  N   UNL     1      -8.118  55.304  51.976  0.00  0.00    +0.000 N 
ATOM     16  C   UNL     1      -7.597  53.285  53.752  0.00  0.00    +0.000 A 
ATOM     17  C   UNL     1      -9.260  54.698  51.840  0.00  0.00    +0.000 C 
ATOM     18  C   UNL     1      -8.876  52.866  53.424  0.00  0.00    +0.000 A 
ATOM     19  C   UNL     1      -6.773  52.552  54.612  0.00  0.00    +0.000 A 
ATOM     20  N   UNL     1      -9.688  53.611  52.571  0.00  0.00    +0.000 N 
ATOM     21  C   UNL     1      -9.369  51.708  54.038  0.00  0.00    +0.000 A 
ATOM     22  C   UNL     1      -7.262  51.382  55.188  0.00  0.00    +0.000 A 
ATOM     23  C   UNL     1      -8.566  50.969  54.909  0.00  0.00    +0.000 A 
ATOM     24  H   UNL     1      -7.919  56.093  51.423  0.00  0.00    +0.000 HD
ATOM     25  H   UNL     1     -10.632  53.343  52.486  0.00  0.00    +0.000 HD
ENDBRANCH   1  17
BRANCH   3  26
ATOM     26  O   UNL     1     -11.877  55.838  52.398  0.00  0.00    +0.000 OA
ATOM     27  H   UNL     1     -11.639  56.574  52.927  0.00  0.00    +0.000 HD
ENDBRANCH   3  26
BRANCH   5  28
ATOM     28  N   UNL     1     -10.315  55.486  46.972  0.00  0.00    +0.000 N 
ATOM     29  H   UNL     1     -10.017  56.262  46.445  0.00  0.00    +0.000 HD
BRANCH  28  30
ATOM     30  C   UNL     1     -10.436  54.127  46.423  0.00  0.00    +0.000 C 
BRANCH  30  31
ATOM     31  C   UNL     1     -11.465  54.035  45.293  0.00  0.00    +0.000 C 
BRANCH  31  32
ATOM     32  C   UNL     1     -11.087  52.938  44.270  0.00  0.00    +0.000 C 
ATOM     33  C   UNL     1      -9.583  52.881  43.997  0.00  0.00    +0.000 C 
ATOM     34  C   UNL     1     -11.582  51.573  44.746  0.00  0.00    +0.000 C 
ENDBRANCH  31  32
ENDBRANCH  30  31
ENDBRANCH  28  30
ENDBRANCH   5  28
TORSDOF 6
ENDMDL
MODEL 6
REMARK VINA RESULT:      -7.6      3.460      5.145
REMARK  Name = 
REMARK  8 active torsions:
REMARK  status: ('A' for Active; 'I' for Inactive)
REMARK    1  A    between atoms: C_6  and  C_10
REMARK    2  A    between atoms: C_14  and  O_18
REMARK    3  A    between atoms: N_17  and  N_20
REMARK    4  A    between atoms: N_20  and  C_23
REMARK    5  A    between atoms: C_23  and  C_26
REMARK    6  A    between atoms: C_26  and  C_28
REMARK    7  A    between atoms: C_28  and  C_29
REMARK    8  A    between atoms: C_28  and  C_30
REMARK                            x       y       z     vdW  Elec       q    Type
REMARK                         _______ _______ _______ _____ _____    ______ ____
ROOT
ATOM      1  C   UNL     1     -11.556  56.078  48.584  0.00  0.00    +0.000 A 
ATOM      2  C   UNL     1     -10.364  55.578  49.325  0.00  0.00    +0.000 A 
ATOM      3  C   UNL     1     -11.808  55.652  47.335  0.00  0.00    +0.000 A 
ATOM      4  O   UNL     1     -10.162  56.043  50.453  0.00  0.00    +0.000 OA
ATOM      5  N   UNL     1      -9.572  54.596  48.721  0.00  0.00    +0.000 N 
ATOM      6  C   UNL     1     -10.942  54.648  46.699  0.00  0.00    +0.000 A 
ATOM      7  C   UNL     1      -9.837  54.132  47.397  0.00  0.00    +0.000 A 
ATOM      8  C   UNL     1     -11.226  54.177  45.404  0.00  0.00    +0.000 A 
ATOM      9  C   UNL     1      -9.028  53.167  46.777  0.00  0.00    +0.000 A 
ATOM     10  C   UNL     1     -10.425  53.204  44.808  0.00  0.00    +0.000 A 
ATOM     11  C   UNL     1      -9.326  52.704  45.491  0.00  0.00    +0.000 A 
ENDROOT
BRANCH   1  17
ATOM     12  S   UNL     1     -13.561  59.334  49.480  0.00  0.00    +0.000 S 
ATOM     13  O   UNL     1     -14.716  59.527  48.625  0.00  0.00    +0.000 OA
ATOM     14  O   UNL     1     -12.722  60.461  49.844  0.00  0.00    +0.000 OA
ATOM     15  N   UNL     1     -12.617  58.215  48.785  0.00  0.00    +0.000 N 
ATOM     16  C   UNL     1     -14.177  58.682  50.988  0.00  0.00    +0.000 A 
ATOM     17  C   UNL     1     -12.504  57.024  49.293  0.00  0.00    +0.000 C 
ATOM     18  C   UNL     1     -13.897  57.358  51.284  0.00  0.00    +0.000 A 
ATOM     19  C   UNL     1     -14.916  59.495  51.852  0.00  0.00    +0.000 A 
ATOM     20  N   UNL     1     -13.165  56.557  50.408  0.00  0.00    +0.000 N 
ATOM     21  C   UNL     1     -14.440  56.813  52.454  0.00  0.00    +0.000 A 
ATOM     22  C   UNL     1     -15.419  58.952  53.032  0.00  0.00    +0.000 A 
ATOM     23  C   UNL     1     -15.191  57.607  53.324  0.00  0.00    +0.000 A 
ATOM     24  H   UNL     1     -12.122  58.442  47.965  0.00  0.00    +0.000 HD
ATOM     25  H   UNL     1     -13.118  55.592  50.599  0.00  0.00    +0.000 HD
ENDBRANCH   1  17
BRANCH   3  26
ATOM     26  O   UNL     1     -12.883  56.072  46.571  0.00  0.00    +0.000 OA
ATOM     27  H   UNL     1     -12.756  56.312  45.675  0.00  0.00    +0.000 HD
ENDBRANCH   3  26
BRANCH   5  28
ATOM     28  N   UNL     1      -8.426  54.060  49.416  0.00  0.00    +0.000 N 
ATOM     29  H   UNL     1      -8.469  53.283  50.019  0.00  0.00    +0.000 HD
BRANCH  28  30
ATOM     30  C   UNL     1      -7.187  54.799  49.130  0.00  0.00    +0.000 C 
BRANCH  30  31
ATOM     31  C   UNL     1      -6.776  55.731  50.272  0.00  0.00    +0.000 C 
BRANCH  31  32
ATOM     32  C   UNL     1      -6.819  55.007  51.638  0.00  0.00    +0.000 C 
ATOM     33  C   UNL     1      -5.504  54.300  51.971  0.00  0.00    +0.000 C 
ATOM     34  C   UNL     1      -7.178  55.991  52.751  0.00  0.00    +0.000 C 
ENDBRANCH  31  32
ENDBRANCH  30  31
ENDBRANCH  28  30
ENDBRANCH   5  28
TORSDOF 6
ENDMDL
MODEL 7
REMARK VINA RESULT:      -7.5      3.413      5.358
REMARK  Name = 
REMARK  8 active torsions:
REMARK  status: ('A' for Active; 'I' for Inactive)
REMARK    1  A    between atoms: C_6  and  C_10
REMARK    2  A    between atoms: C_14  and  O_18
REMARK    3  A    between atoms: N_17  and  N_20
REMARK    4  A    between atoms: N_20  and  C_23
REMARK    5  A    between atoms: C_23  and  C_26
REMARK    6  A    between atoms: C_26  and  C_28
REMARK    7  A    between atoms: C_28  and  C_29
REMARK    8  A    between atoms: C_28  and  C_30
REMARK                            x       y       z     vdW  Elec       q    Type
REMARK                         _______ _______ _______ _____ _____    ______ ____
ROOT
ATOM      1  C   UNL     1     -11.629  56.115  48.631  0.00  0.00    +0.000 A 
ATOM      2  C   UNL     1     -10.455  55.585  49.381  0.00  0.00    +0.000 A 
ATOM      3  C   UNL     1     -11.873  55.706  47.374  0.00  0.00    +0.000 A 
ATOM      4  O   UNL     1     -10.259  56.035  50.516  0.00  0.00    +0.000 OA
ATOM      5  N   UNL     1      -9.674  54.595  48.776  0.00  0.00    +0.000 N 
ATOM      6  C   UNL     1     -11.017  54.694  46.738  0.00  0.00    +0.000 A 
ATOM      7  C   UNL     1      -9.930  54.150  47.445  0.00  0.00    +0.000 A 
ATOM      8  C   UNL     1     -11.293  54.241  45.435  0.00  0.00    +0.000 A 
ATOM      9  C   UNL     1      -9.132  53.177  46.824  0.00  0.00    +0.000 A 
ATOM     10  C   UNL     1     -10.502  53.260  44.838  0.00  0.00    +0.000 A 
ATOM     11  C   UNL     1      -9.422  52.733  45.530  0.00  0.00    +0.000 A 
ENDROOT
BRANCH   1  17
ATOM     12  S   UNL     1     -13.616  59.386  49.512  0.00  0.00    +0.000 S 
ATOM     13  O   UNL     1     -14.776  59.575  48.664  0.00  0.00    +0.000 OA
ATOM     14  O   UNL     1     -12.769  60.513  49.861  0.00  0.00    +0.000 OA
ATOM     15  N   UNL     1     -12.681  58.258  48.820  0.00  0.00    +0.000 N 
ATOM     16  C   UNL     1     -14.223  58.749  51.031  0.00  0.00    +0.000 A 
ATOM     17  C   UNL     1     -12.568  57.071  49.339  0.00  0.00    +0.000 C 
ATOM     18  C   UNL     1     -13.945  57.427  51.336  0.00  0.00    +0.000 A 
ATOM     19  C   UNL     1     -14.953  59.573  51.893  0.00  0.00    +0.000 A 
ATOM     20  N   UNL     1     -13.223  56.616  50.462  0.00  0.00    +0.000 N 
ATOM     21  C   UNL     1     -14.483  56.895  52.515  0.00  0.00    +0.000 A 
ATOM     22  C   UNL     1     -15.450  59.042  53.080  0.00  0.00    +0.000 A 
ATOM     23  C   UNL     1     -15.224  57.698  53.383  0.00  0.00    +0.000 A 
ATOM     24  H   UNL     1     -12.191  58.475  47.995  0.00  0.00    +0.000 HD
ATOM     25  H   UNL     1     -13.178  55.652  50.661  0.00  0.00    +0.000 HD
ENDBRANCH   1  17
BRANCH   3  26
ATOM     26  O   UNL     1     -12.930  56.154  46.602  0.00  0.00    +0.000 OA
ATOM     27  H   UNL     1     -13.288  57.008  46.747  0.00  0.00    +0.000 HD
ENDBRANCH   3  26
BRANCH   5  28
ATOM     28  N   UNL     1      -8.546  54.031  49.480  0.00  0.00    +0.000 N 
ATOM     29  H   UNL     1      -7.621  54.350  49.370  0.00  0.00    +0.000 HD
BRANCH  28  30
ATOM     30  C   UNL     1      -8.926  52.929  50.377  0.00  0.00    +0.000 C 
BRANCH  30  31
ATOM     31  C   UNL     1      -8.351  53.089  51.787  0.00  0.00    +0.000 C 
BRANCH  31  32
ATOM     32  C   UNL     1      -9.464  53.047  52.861  0.00  0.00    +0.000 C 
ATOM     33  C   UNL     1      -9.210  51.983  53.930  0.00  0.00    +0.000 C 
ATOM     34  C   UNL     1      -9.623  54.418  53.517  0.00  0.00    +0.000 C 
ENDBRANCH  31  32
ENDBRANCH  30  31
ENDBRANCH  28  30
ENDBRANCH   5  28
TORSDOF 6
ENDMDL
MODEL 8
REMARK VINA RESULT:      -7.4      2.703      8.469
REMARK  Name = 
REMARK  8 active torsions:
REMARK  status: ('A' for Active; 'I' for Inactive)
REMARK    1  A    between atoms: C_6  and  C_10
REMARK    2  A    between atoms: C_14  and  O_18
REMARK    3  A    between atoms: N_17  and  N_20
REMARK    4  A    between atoms: N_20  and  C_23
REMARK    5  A    between atoms: C_23  and  C_26
REMARK    6  A    between atoms: C_26  and  C_28
REMARK    7  A    between atoms: C_28  and  C_29
REMARK    8  A    between atoms: C_28  and  C_30
REMARK                            x       y       z     vdW  Elec       q    Type
REMARK                         _______ _______ _______ _____ _____    ______ ____
ROOT
ATOM      1  C   UNL     1      -9.766  53.942  50.684  0.00  0.00    +0.000 A 
ATOM      2  C   UNL     1     -10.979  54.268  51.486  0.00  0.00    +0.000 A 
ATOM      3  C   UNL     1      -9.721  54.230  49.372  0.00  0.00    +0.000 A 
ATOM      4  O   UNL     1     -10.977  53.936  52.677  0.00  0.00    +0.000 OA
ATOM      5  N   UNL     1     -12.023  54.956  50.858  0.00  0.00    +0.000 N 
ATOM      6  C   UNL     1     -10.844  54.917  48.719  0.00  0.00    +0.000 A 
ATOM      7  C   UNL     1     -11.981  55.272  49.467  0.00  0.00    +0.000 A 
ATOM      8  C   UNL     1     -10.783  55.249  47.353  0.00  0.00    +0.000 A 
ATOM      9  C   UNL     1     -13.038  55.937  48.827  0.00  0.00    +0.000 A 
ATOM     10  C   UNL     1     -11.833  55.926  46.735  0.00  0.00    +0.000 A 
ATOM     11  C   UNL     1     -12.960  56.265  47.470  0.00  0.00    +0.000 A 
ENDROOT
BRANCH   1  17
ATOM     12  S   UNL     1      -7.613  51.563  52.948  0.00  0.00    +0.000 S 
ATOM     13  O   UNL     1      -7.294  50.311  52.290  0.00  0.00    +0.000 OA
ATOM     14  O   UNL     1      -7.994  51.579  54.349  0.00  0.00    +0.000 OA
ATOM     15  N   UNL     1      -8.799  52.273  52.102  0.00  0.00    +0.000 N 
ATOM     16  C   UNL     1      -6.173  52.557  52.827  0.00  0.00    +0.000 A 
ATOM     17  C   UNL     1      -8.571  53.339  51.394  0.00  0.00    +0.000 C 
ATOM     18  C   UNL     1      -6.212  53.655  51.983  0.00  0.00    +0.000 A 
ATOM     19  C   UNL     1      -5.036  52.237  53.576  0.00  0.00    +0.000 A 
ATOM     20  N   UNL     1      -7.349  53.956  51.236  0.00  0.00    +0.000 N 
ATOM     21  C   UNL     1      -5.045  54.414  51.832  0.00  0.00    +0.000 A 
ATOM     22  C   UNL     1      -3.894  53.022  53.446  0.00  0.00    +0.000 A 
ATOM     23  C   UNL     1      -3.896  54.103  52.563  0.00  0.00    +0.000 A 
ATOM     24  H   UNL     1      -9.706  51.891  52.126  0.00  0.00    +0.000 HD
ATOM     25  H   UNL     1      -7.276  54.659  50.550  0.00  0.00    +0.000 HD
ENDBRANCH   1  17
BRANCH   3  26
ATOM     26  O   UNL     1      -8.643  53.951  48.551  0.00  0.00    +0.000 OA
ATOM     27  H   UNL     1      -7.916  54.541  48.516  0.00  0.00    +0.000 HD
ENDBRANCH   3  26
BRANCH   5  28
ATOM     28  N   UNL     1     -13.204  55.320  51.606  0.00  0.00    +0.000 N 
ATOM     29  H   UNL     1     -13.969  54.717  51.742  0.00  0.00    +0.000 HD
BRANCH  28  30
ATOM     30  C   UNL     1     -13.141  56.689  52.140  0.00  0.00    +0.000 C 
BRANCH  30  31
ATOM     31  C   UNL     1     -14.483  57.169  52.698  0.00  0.00    +0.000 C 
BRANCH  31  32
ATOM     32  C   UNL     1     -15.364  57.799  51.594  0.00  0.00    +0.000 C 
ATOM     33  C   UNL     1     -14.567  58.699  50.648  0.00  0.00    +0.000 C 
ATOM     34  C   UNL     1     -16.079  56.708  50.796  0.00  0.00    +0.000 C 
ENDBRANCH  31  32
ENDBRANCH  30  31
ENDBRANCH  28  30
ENDBRANCH   5  28
TORSDOF 6
ENDMDL
MODEL 9
REMARK VINA RESULT:      -7.4      1.560      2.326
REMARK  Name = 
REMARK  8 active torsions:
REMARK  status: ('A' for Active; 'I' for Inactive)
REMARK    1  A    between atoms: C_6  and  C_10
REMARK    2  A    between atoms: C_14  and  O_18
REMARK    3  A    between atoms: N_17  and  N_20
REMARK    4  A    between atoms: N_20  and  C_23
REMARK    5  A    between atoms: C_23  and  C_26
REMARK    6  A    between atoms: C_26  and  C_28
REMARK    7  A    between atoms: C_28  and  C_29
REMARK    8  A    between atoms: C_28  and  C_30
REMARK                            x       y       z     vdW  Elec       q    Type
REMARK                         _______ _______ _______ _____ _____    ______ ____
ROOT
ATOM      1  C   UNL     1     -10.120  54.554  52.160  0.00  0.00    +0.000 A 
ATOM      2  C   UNL     1      -8.729  55.087  52.100  0.00  0.00    +0.000 A 
ATOM      3  C   UNL     1     -10.390  53.437  52.857  0.00  0.00    +0.000 A 
ATOM      4  O   UNL     1      -8.538  56.091  51.404  0.00  0.00    +0.000 OA
ATOM      5  N   UNL     1      -7.741  54.446  52.854  0.00  0.00    +0.000 N 
ATOM      6  C   UNL     1      -9.330  52.753  53.612  0.00  0.00    +0.000 A 
ATOM      7  C   UNL     1      -8.020  53.264  53.603  0.00  0.00    +0.000 A 
ATOM      8  C   UNL     1      -9.620  51.604  54.370  0.00  0.00    +0.000 A 
ATOM      9  C   UNL     1      -7.025  52.602  54.339  0.00  0.00    +0.000 A 
ATOM     10  C   UNL     1      -8.625  50.968  55.111  0.00  0.00    +0.000 A 
ATOM     11  C   UNL     1      -7.330  51.464  55.091  0.00  0.00    +0.000 A 
ENDROOT
BRANCH   1  17
ATOM     12  S   UNL     1     -13.462  56.540  51.605  0.00  0.00    +0.000 S 
ATOM     13  O   UNL     1     -13.364  57.921  52.038  0.00  0.00    +0.000 OA
ATOM     14  O   UNL     1     -14.659  55.767  51.882  0.00  0.00    +0.000 OA
ATOM     15  N   UNL     1     -12.198  55.740  52.230  0.00  0.00    +0.000 N 
ATOM     16  C   UNL     1     -13.295  56.565  49.859  0.00  0.00    +0.000 A 
ATOM     17  C   UNL     1     -11.223  55.332  51.472  0.00  0.00    +0.000 C 
ATOM     18  C   UNL     1     -12.131  56.052  49.311  0.00  0.00    +0.000 A 
ATOM     19  C   UNL     1     -14.324  57.083  49.065  0.00  0.00    +0.000 A 
ATOM     20  N   UNL     1     -11.111  55.547  50.116  0.00  0.00    +0.000 N 
ATOM     21  C   UNL     1     -11.964  56.129  47.923  0.00  0.00    +0.000 A 
ATOM     22  C   UNL     1     -14.162  57.119  47.683  0.00  0.00    +0.000 A 
ATOM     23  C   UNL     1     -12.975  56.653  47.114  0.00  0.00    +0.000 A 
ATOM     24  H   UNL     1     -12.169  55.561  53.197  0.00  0.00    +0.000 HD
ATOM     25  H   UNL     1     -10.253  55.328  49.686  0.00  0.00    +0.000 HD
ENDBRANCH   1  17
BRANCH   3  26
ATOM     26  O   UNL     1     -11.647  52.867  52.957  0.00  0.00    +0.000 OA
ATOM     27  H   UNL     1     -12.411  53.409  52.928  0.00  0.00    +0.000 HD
ENDBRANCH   3  26
BRANCH   5  28
ATOM     28  N   UNL     1      -6.387  54.948  52.850  0.00  0.00    +0.000 N 
ATOM     29  H   UNL     1      -6.033  55.565  53.530  0.00  0.00    +0.000 HD
BRANCH  28  30
ATOM     30  C   UNL     1      -5.593  54.440  51.720  0.00  0.00    +0.000 C 
BRANCH  30  31
ATOM     31  C   UNL     1      -4.203  53.958  52.143  0.00  0.00    +0.000 C 
BRANCH  31  32
ATOM     32  C   UNL     1      -4.119  52.413  52.157  0.00  0.00    +0.000 C 
ATOM     33  C   UNL     1      -3.532  51.844  50.864  0.00  0.00    +0.000 C 
ATOM     34  C   UNL     1      -3.301  51.935  53.356  0.00  0.00    +0.000 C 
ENDBRANCH  31  32
ENDBRANCH  30  31
ENDBRANCH  28  30
ENDBRANCH   5  28
TORSDOF 6
ENDMDL
