MODEL 1
REMARK VINA RESULT:      -8.0      0.000      0.000
REMARK  Name = 
REMARK  9 active torsions:
REMARK  status: ('A' for Active; 'I' for Inactive)
REMARK    1  A    between atoms: C_6  and  C_10
REMARK    2  A    between atoms: C_14  and  O_18
REMARK    3  A    between atoms: N_17  and  N_20
REMARK    4  A    between atoms: N_20  and  C_23
REMARK    5  A    between atoms: C_23  and  C_26
REMARK    6  A    between atoms: C_23  and  C_27
REMARK    7  A    between atoms: C_26  and  C_29
REMARK    8  A    between atoms: C_27  and  C_30
REMARK    9  A    between atoms: C_29  and  C_31
REMARK                            x       y       z     vdW  Elec       q    Type
REMARK                         _______ _______ _______ _____ _____    ______ ____
ROOT
ATOM      1  C   UNL     1      -8.972  54.702  50.272  0.00  0.00    +0.000 A 
ATOM      2  C   UNL     1     -10.382  54.726  50.775  0.00  0.00    +0.000 A 
ATOM      3  C   UNL     1      -8.753  54.617  48.946  0.00  0.00    +0.000 A 
ATOM      4  O   UNL     1     -10.571  54.492  51.975  0.00  0.00    +0.000 OA
ATOM      5  N   UNL     1     -11.382  55.095  49.860  0.00  0.00    +0.000 N 
ATOM      6  C   UNL     1      -9.869  54.641  47.993  0.00  0.00    +0.000 A 
ATOM      7  C   UNL     1     -11.166  54.935  48.445  0.00  0.00    +0.000 A 
ATOM      8  C   UNL     1      -9.634  54.436  46.620  0.00  0.00    +0.000 A 
ATOM      9  C   UNL     1     -12.199  55.022  47.493  0.00  0.00    +0.000 A 
ATOM     10  C   UNL     1     -10.667  54.529  45.693  0.00  0.00    +0.000 A 
ATOM     11  C   UNL     1     -11.949  54.826  46.130  0.00  0.00    +0.000 A 
ENDROOT
BRANCH   1  17
ATOM     12  S   UNL     1      -6.973  55.768  53.488  0.00  0.00    +0.000 S 
ATOM     13  O   UNL     1      -7.535  55.114  54.654  0.00  0.00    +0.000 OA
ATOM     14  O   UNL     1      -6.573  57.160  53.552  0.00  0.00    +0.000 OA
ATOM     15  N   UNL     1      -8.041  55.620  52.282  0.00  0.00    +0.000 N 
ATOM     16  C   UNL     1      -5.538  54.862  53.068  0.00  0.00    +0.000 A 
ATOM     17  C   UNL     1      -7.822  54.836  51.265  0.00  0.00    +0.000 C 
ATOM     18  C   UNL     1      -5.555  54.123  51.895  0.00  0.00    +0.000 A 
ATOM     19  C   UNL     1      -4.430  54.894  53.922  0.00  0.00    +0.000 A 
ATOM     20  N   UNL     1      -6.670  54.110  51.063  0.00  0.00    +0.000 N 
ATOM     21  C   UNL     1      -4.419  53.367  51.588  0.00  0.00    +0.000 A 
ATOM     22  C   UNL     1      -3.303  54.149  53.596  0.00  0.00    +0.000 A 
ATOM     23  C   UNL     1      -3.300  53.382  52.431  0.00  0.00    +0.000 A 
ATOM     24  H   UNL     1      -8.878  56.137  52.317  0.00  0.00    +0.000 HD
ATOM     25  H   UNL     1      -6.632  53.533  50.266  0.00  0.00    +0.000 HD
ENDBRANCH   1  17
BRANCH   3  26
ATOM     26  O   UNL     1      -7.503  54.561  48.355  0.00  0.00    +0.000 OA
ATOM     27  H   UNL     1      -7.354  53.987  47.629  0.00  0.00    +0.000 HD
ENDBRANCH   3  26
BRANCH   5  28
ATOM     28  N   UNL     1     -12.708  55.340  50.346  0.00  0.00    +0.000 N 
ATOM     29  H   UNL     1     -13.380  54.623  50.400  0.00  0.00    +0.000 HD
BRANCH  28  30
ATOM     30  C   UNL     1     -13.015  56.730  50.763  0.00  0.00    +0.000 C 
BRANCH  30  31
ATOM     31  C   UNL     1     -13.400  56.660  52.262  0.00  0.00    +0.000 C 
ATOM     32  C   UNL     1     -14.237  57.842  52.738  0.00  0.00    +0.000 C 
ENDBRANCH  30  31
BRANCH  30  33
ATOM     33  C   UNL     1     -14.153  57.371  49.929  0.00  0.00    +0.000 C 
BRANCH  33  34
ATOM     34  C   UNL     1     -13.675  58.552  49.066  0.00  0.00    +0.000 C 
ATOM     35  C   UNL     1     -13.821  59.890  49.772  0.00  0.00    +0.000 C 
ENDBRANCH  33  34
ENDBRANCH  30  33
ENDBRANCH  28  30
ENDBRANCH   5  28
TORSDOF 7
ENDMDL
MODEL 2
REMARK VINA RESULT:      -7.9      3.940      7.655
REMARK  Name = 
REMARK  9 active torsions:
REMARK  status: ('A' for Active; 'I' for Inactive)
REMARK    1  A    between atoms: C_6  and  C_10
REMARK    2  A    between atoms: C_14  and  O_18
REMARK    3  A    between atoms: N_17  and  N_20
REMARK    4  A    between atoms: N_20  and  C_23
REMARK    5  A    between atoms: C_23  and  C_26
REMARK    6  A    between atoms: C_23  and  C_27
REMARK    7  A    between atoms: C_26  and  C_29
REMARK    8  A    between atoms: C_27  and  C_30
REMARK    9  A    between atoms: C_29  and  C_31
REMARK                            x       y       z     vdW  Elec       q    Type
REMARK                         _______ _______ _______ _____ _____    ______ ____
ROOT
ATOM      1  C   UNL     1     -12.354  54.311  49.716  0.00  0.00    +0.000 A 
ATOM      2  C   UNL     1     -11.615  54.251  48.415  0.00  0.00    +0.000 A 
ATOM      3  C   UNL     1     -12.160  53.336  50.623  0.00  0.00    +0.000 A 
ATOM      4  O   UNL     1     -12.023  54.957  47.486  0.00  0.00    +0.000 OA
ATOM      5  N   UNL     1     -10.459  53.453  48.372  0.00  0.00    +0.000 N 
ATOM      6  C   UNL     1     -11.172  52.275  50.393  0.00  0.00    +0.000 A 
ATOM      7  C   UNL     1     -10.291  52.368  49.303  0.00  0.00    +0.000 A 
ATOM      8  C   UNL     1     -11.061  51.200  51.296  0.00  0.00    +0.000 A 
ATOM      9  C   UNL     1      -9.309  51.370  49.154  0.00  0.00    +0.000 A 
ATOM     10  C   UNL     1     -10.082  50.225  51.134  0.00  0.00    +0.000 A 
ATOM     11  C   UNL     1      -9.204  50.313  50.065  0.00  0.00    +0.000 A 
ENDROOT
BRANCH   1  17
ATOM     12  S   UNL     1     -15.366  56.405  51.137  0.00  0.00    +0.000 S 
ATOM     13  O   UNL     1     -15.272  56.481  52.582  0.00  0.00    +0.000 OA
ATOM     14  O   UNL     1     -16.648  56.182  50.498  0.00  0.00    +0.000 OA
ATOM     15  N   UNL     1     -14.363  55.236  50.641  0.00  0.00    +0.000 N 
ATOM     16  C   UNL     1     -14.773  57.933  50.531  0.00  0.00    +0.000 A 
ATOM     17  C   UNL     1     -13.259  55.504  50.006  0.00  0.00    +0.000 C 
ATOM     18  C   UNL     1     -13.567  57.938  49.846  0.00  0.00    +0.000 A 
ATOM     19  C   UNL     1     -15.512  59.098  50.762  0.00  0.00    +0.000 A 
ATOM     20  N   UNL     1     -12.851  56.765  49.630  0.00  0.00    +0.000 N 
ATOM     21  C   UNL     1     -13.077  59.172  49.404  0.00  0.00    +0.000 A 
ATOM     22  C   UNL     1     -15.021  60.314  50.302  0.00  0.00    +0.000 A 
ATOM     23  C   UNL     1     -13.800  60.350  49.627  0.00  0.00    +0.000 A 
ATOM     24  H   UNL     1     -14.594  54.297  50.826  0.00  0.00    +0.000 HD
ATOM     25  H   UNL     1     -11.984  56.843  49.173  0.00  0.00    +0.000 HD
ENDBRANCH   1  17
BRANCH   3  26
ATOM     26  O   UNL     1     -12.797  53.260  51.849  0.00  0.00    +0.000 OA
ATOM     27  H   UNL     1     -12.712  52.489  52.375  0.00  0.00    +0.000 HD
ENDBRANCH   3  26
BRANCH   5  28
ATOM     28  N   UNL     1      -9.605  53.534  47.223  0.00  0.00    +0.000 N 
ATOM     29  H   UNL     1      -9.579  52.820  46.547  0.00  0.00    +0.000 HD
BRANCH  28  30
ATOM     30  C   UNL     1      -8.764  54.751  47.107  0.00  0.00    +0.000 C 
BRANCH  30  31
ATOM     31  C   UNL     1      -7.758  54.476  45.961  0.00  0.00    +0.000 C 
ATOM     32  C   UNL     1      -8.402  53.899  44.704  0.00  0.00    +0.000 C 
ENDBRANCH  30  31
BRANCH  30  33
ATOM     33  C   UNL     1      -8.022  55.097  48.422  0.00  0.00    +0.000 C 
BRANCH  33  34
ATOM     34  C   UNL     1      -8.647  56.287  49.171  0.00  0.00    +0.000 C 
ATOM     35  C   UNL     1      -9.084  55.928  50.581  0.00  0.00    +0.000 C 
ENDBRANCH  33  34
ENDBRANCH  30  33
ENDBRANCH  28  30
ENDBRANCH   5  28
TORSDOF 7
ENDMDL
MODEL 3
REMARK VINA RESULT:      -7.9      2.334      4.819
REMARK  Name = 
REMARK  9 active torsions:
REMARK  status: ('A' for Active; 'I' for Inactive)
REMARK    1  A    between atoms: C_6  and  C_10
REMARK    2  A    between atoms: C_14  and  O_18
REMARK    3  A    between atoms: N_17  and  N_20
REMARK    4  A    between atoms: N_20  and  C_23
REMARK    5  A    between atoms: C_23  and  C_26
REMARK    6  A    between atoms: C_23  and  C_27
REMARK    7  A    between atoms: C_26  and  C_29
REMARK    8  A    between atoms: C_27  and  C_30
REMARK    9  A    between atoms: C_29  and  C_31
REMARK                            x       y       z     vdW  Elec       q    Type
REMARK                         _______ _______ _______ _____ _____    ______ ____
ROOT
ATOM      1  C   UNL     1     -10.077  55.214  50.776  0.00  0.00    +0.000 A 
ATOM      2  C   UNL     1      -9.655  55.354  49.346  0.00  0.00    +0.000 A 
ATOM      3  C   UNL     1     -11.308  55.623  51.137  0.00  0.00    +0.000 A 
ATOM      4  O   UNL     1      -8.447  55.272  49.091  0.00  0.00    +0.000 OA
ATOM      5  N   UNL     1     -10.674  55.487  48.388  0.00  0.00    +0.000 N 
ATOM      6  C   UNL     1     -12.265  56.113  50.137  0.00  0.00    +0.000 A 
ATOM      7  C   UNL     1     -11.967  55.991  48.769  0.00  0.00    +0.000 A 
ATOM      8  C   UNL     1     -13.505  56.644  50.541  0.00  0.00    +0.000 A 
ATOM      9  C   UNL     1     -12.938  56.405  47.838  0.00  0.00    +0.000 A 
ATOM     10  C   UNL     1     -14.453  57.045  49.606  0.00  0.00    +0.000 A 
ATOM     11  C   UNL     1     -14.171  56.921  48.254  0.00  0.00    +0.000 A 
ENDROOT
BRANCH   1  17
ATOM     12  S   UNL     1      -6.937  54.671  53.083  0.00  0.00    +0.000 S 
ATOM     13  O   UNL     1      -6.941  55.648  54.154  0.00  0.00    +0.000 OA
ATOM     14  O   UNL     1      -5.702  54.339  52.401  0.00  0.00    +0.000 OA
ATOM     15  N   UNL     1      -7.995  55.168  51.964  0.00  0.00    +0.000 N 
ATOM     16  C   UNL     1      -7.530  53.182  53.780  0.00  0.00    +0.000 A 
ATOM     17  C   UNL     1      -9.129  54.557  51.774  0.00  0.00    +0.000 C 
ATOM     18  C   UNL     1      -8.775  52.725  53.375  0.00  0.00    +0.000 A 
ATOM     19  C   UNL     1      -6.751  52.508  54.726  0.00  0.00    +0.000 A 
ATOM     20  N   UNL     1      -9.530  53.415  52.432  0.00  0.00    +0.000 N 
ATOM     21  C   UNL     1      -9.262  51.557  53.971  0.00  0.00    +0.000 A 
ATOM     22  C   UNL     1      -7.241  51.339  55.297  0.00  0.00    +0.000 A 
ATOM     23  C   UNL     1      -8.500  50.867  54.923  0.00  0.00    +0.000 A 
ATOM     24  H   UNL     1      -7.775  55.953  51.411  0.00  0.00    +0.000 HD
ATOM     25  H   UNL     1     -10.421  53.059  52.218  0.00  0.00    +0.000 HD
ENDBRANCH   1  17
BRANCH   3  26
ATOM     26  O   UNL     1     -11.811  55.572  52.425  0.00  0.00    +0.000 OA
ATOM     27  H   UNL     1     -11.905  56.361  52.922  0.00  0.00    +0.000 HD
ENDBRANCH   3  26
BRANCH   5  28
ATOM     28  N   UNL     1     -10.330  55.407  46.999  0.00  0.00    +0.000 N 
ATOM     29  H   UNL     1     -10.035  56.198  46.493  0.00  0.00    +0.000 HD
BRANCH  28  30
ATOM     30  C   UNL     1     -10.445  54.072  46.363  0.00  0.00    +0.000 C 
BRANCH  30  31
ATOM     31  C   UNL     1      -9.054  53.758  45.756  0.00  0.00    +0.000 C 
ATOM     32  C   UNL     1      -8.145  54.977  45.641  0.00  0.00    +0.000 C 
ENDBRANCH  30  31
BRANCH  30  33
ATOM     33  C   UNL     1     -11.548  54.015  45.276  0.00  0.00    +0.000 C 
BRANCH  33  34
ATOM     34  C   UNL     1     -11.977  52.579  44.928  0.00  0.00    +0.000 C 
ATOM     35  C   UNL     1     -12.391  51.779  46.151  0.00  0.00    +0.000 C 
ENDBRANCH  33  34
ENDBRANCH  30  33
ENDBRANCH  28  30
ENDBRANCH   5  28
TORSDOF 7
ENDMDL
MODEL 4
REMARK VINA RESULT:      -7.9      2.848      8.229
REMARK  Name = 
REMARK  9 active torsions:
REMARK  status: ('A' for Active; 'I' for Inactive)
REMARK    1  A    between atoms: C_6  and  C_10
REMARK    2  A    between atoms: C_14  and  O_18
REMARK    3  A    between atoms: N_17  and  N_20
REMARK    4  A    between atoms: N_20  and  C_23
REMARK    5  A    between atoms: C_23  and  C_26
REMARK    6  A    between atoms: C_23  and  C_27
REMARK    7  A    between atoms: C_26  and  C_29
REMARK    8  A    between atoms: C_27  and  C_30
REMARK    9  A    between atoms: C_29  and  C_31
REMARK                            x       y       z     vdW  Elec       q    Type
REMARK                         _______ _______ _______ _____ _____    ______ ____
ROOT
ATOM      1  C   UNL     1      -9.914  54.390  52.186  0.00  0.00    +0.000 A 
ATOM      2  C   UNL     1      -8.506  54.826  51.923  0.00  0.00    +0.000 A 
ATOM      3  C   UNL     1     -10.133  53.345  53.005  0.00  0.00    +0.000 A 
ATOM      4  O   UNL     1      -8.301  55.563  50.952  0.00  0.00    +0.000 OA
ATOM      5  N   UNL     1      -7.529  54.428  52.852  0.00  0.00    +0.000 N 
ATOM      6  C   UNL     1      -9.023  52.691  53.710  0.00  0.00    +0.000 A 
ATOM      7  C   UNL     1      -7.742  53.266  53.676  0.00  0.00    +0.000 A 
ATOM      8  C   UNL     1      -9.252  51.529  54.471  0.00  0.00    +0.000 A 
ATOM      9  C   UNL     1      -6.718  52.653  54.422  0.00  0.00    +0.000 A 
ATOM     10  C   UNL     1      -8.228  50.939  55.205  0.00  0.00    +0.000 A 
ATOM     11  C   UNL     1      -6.961  51.504  55.184  0.00  0.00    +0.000 A 
ENDROOT
BRANCH   1  17
ATOM     12  S   UNL     1     -12.381  55.819  49.474  0.00  0.00    +0.000 S 
ATOM     13  O   UNL     1     -13.197  54.746  48.941  0.00  0.00    +0.000 OA
ATOM     14  O   UNL     1     -11.833  56.830  48.592  0.00  0.00    +0.000 OA
ATOM     15  N   UNL     1     -11.145  55.144  50.271  0.00  0.00    +0.000 N 
ATOM     16  C   UNL     1     -13.385  56.664  50.629  0.00  0.00    +0.000 A 
ATOM     17  C   UNL     1     -11.066  55.178  51.570  0.00  0.00    +0.000 C 
ATOM     18  C   UNL     1     -13.058  56.563  51.973  0.00  0.00    +0.000 A 
ATOM     19  C   UNL     1     -14.485  57.399  50.175  0.00  0.00    +0.000 A 
ATOM     20  N   UNL     1     -11.957  55.825  52.397  0.00  0.00    +0.000 N 
ATOM     21  C   UNL     1     -13.892  57.205  52.894  0.00  0.00    +0.000 A 
ATOM     22  C   UNL     1     -15.296  58.046  51.101  0.00  0.00    +0.000 A 
ATOM     23  C   UNL     1     -15.001  57.944  52.461  0.00  0.00    +0.000 A 
ATOM     24  H   UNL     1     -10.433  54.695  49.759  0.00  0.00    +0.000 HD
ATOM     25  H   UNL     1     -11.804  55.760  53.367  0.00  0.00    +0.000 HD
ENDBRANCH   1  17
BRANCH   3  26
ATOM     26  O   UNL     1     -11.380  52.828  53.309  0.00  0.00    +0.000 OA
ATOM     27  H   UNL     1     -12.131  53.389  53.316  0.00  0.00    +0.000 HD
ENDBRANCH   3  26
BRANCH   5  28
ATOM     28  N   UNL     1      -6.217  54.996  52.761  0.00  0.00    +0.000 N 
ATOM     29  H   UNL     1      -6.013  55.889  53.121  0.00  0.00    +0.000 HD
BRANCH  28  30
ATOM     30  C   UNL     1      -5.181  54.169  52.094  0.00  0.00    +0.000 C 
BRANCH  30  31
ATOM     31  C   UNL     1      -3.850  54.459  52.833  0.00  0.00    +0.000 C 
ATOM     32  C   UNL     1      -4.033  55.151  54.180  0.00  0.00    +0.000 C 
ENDBRANCH  30  31
BRANCH  30  33
ATOM     33  C   UNL     1      -5.051  54.473  50.580  0.00  0.00    +0.000 C 
BRANCH  33  34
ATOM     34  C   UNL     1      -5.628  53.359  49.690  0.00  0.00    +0.000 C 
ATOM     35  C   UNL     1      -6.074  52.144  50.487  0.00  0.00    +0.000 C 
ENDBRANCH  33  34
ENDBRANCH  30  33
ENDBRANCH  28  30
ENDBRANCH   5  28
TORSDOF 7
ENDMDL
MODEL 5
REMARK VINA RESULT:      -7.9      2.326      4.783
REMARK  Name = 
REMARK  9 active torsions:
REMARK  status: ('A' for Active; 'I' for Inactive)
REMARK    1  A    between atoms: C_6  and  C_10
REMARK    2  A    between atoms: C_14  and  O_18
REMARK    3  A    between atoms: N_17  and  N_20
REMARK    4  A    between atoms: N_20  and  C_23
REMARK    5  A    between atoms: C_23  and  C_26
REMARK    6  A    between atoms: C_23  and  C_27
REMARK    7  A    between atoms: C_26  and  C_29
REMARK    8  A    between atoms: C_27  and  C_30
REMARK    9  A    between atoms: C_29  and  C_31
REMARK                            x       y       z     vdW  Elec       q    Type
REMARK                         _______ _______ _______ _____ _____    ______ ____
ROOT
ATOM      1  C   UNL     1     -10.363  55.169  50.507  0.00  0.00    +0.000 A 
ATOM      2  C   UNL     1      -9.783  55.290  49.132  0.00  0.00    +0.000 A 
ATOM      3  C   UNL     1     -11.606  55.632  50.736  0.00  0.00    +0.000 A 
ATOM      4  O   UNL     1      -8.560  55.155  49.007  0.00  0.00    +0.000 OA
ATOM      5  N   UNL     1     -10.686  55.468  48.070  0.00  0.00    +0.000 N 
ATOM      6  C   UNL     1     -12.427  56.164  49.641  0.00  0.00    +0.000 A 
ATOM      7  C   UNL     1     -11.990  56.029  48.313  0.00  0.00    +0.000 A 
ATOM      8  C   UNL     1     -13.679  56.750  49.912  0.00  0.00    +0.000 A 
ATOM      9  C   UNL     1     -12.835  56.486  47.284  0.00  0.00    +0.000 A 
ATOM     10  C   UNL     1     -14.502  57.192  48.882  0.00  0.00    +0.000 A 
ATOM     11  C   UNL     1     -14.082  57.056  47.568  0.00  0.00    +0.000 A 
ENDROOT
BRANCH   1  17
ATOM     12  S   UNL     1      -9.170  52.370  53.002  0.00  0.00    +0.000 S 
ATOM     13  O   UNL     1      -8.598  51.264  52.260  0.00  0.00    +0.000 OA
ATOM     14  O   UNL     1     -10.040  52.120  54.134  0.00  0.00    +0.000 OA
ATOM     15  N   UNL     1      -9.986  53.293  51.953  0.00  0.00    +0.000 N 
ATOM     16  C   UNL     1      -7.819  53.295  53.614  0.00  0.00    +0.000 A 
ATOM     17  C   UNL     1      -9.557  54.471  51.598  0.00  0.00    +0.000 C 
ATOM     18  C   UNL     1      -7.598  54.556  53.082  0.00  0.00    +0.000 A 
ATOM     19  C   UNL     1      -6.997  52.739  54.600  0.00  0.00    +0.000 A 
ATOM     20  N   UNL     1      -8.431  55.084  52.101  0.00  0.00    +0.000 N 
ATOM     21  C   UNL     1      -6.489  55.271  53.545  0.00  0.00    +0.000 A 
ATOM     22  C   UNL     1      -5.907  53.468  55.063  0.00  0.00    +0.000 A 
ATOM     23  C   UNL     1      -5.651  54.732  54.531  0.00  0.00    +0.000 A 
ATOM     24  H   UNL     1     -10.829  52.956  51.573  0.00  0.00    +0.000 HD
ATOM     25  H   UNL     1      -8.196  55.968  51.737  0.00  0.00    +0.000 HD
ENDBRANCH   1  17
BRANCH   3  26
ATOM     26  O   UNL     1     -12.246  55.604  51.962  0.00  0.00    +0.000 OA
ATOM     27  H   UNL     1     -12.237  56.363  52.512  0.00  0.00    +0.000 HD
ENDBRANCH   3  26
BRANCH   5  28
ATOM     28  N   UNL     1     -10.199  55.374  46.726  0.00  0.00    +0.000 N 
ATOM     29  H   UNL     1      -9.883  56.165  46.233  0.00  0.00    +0.000 HD
BRANCH  28  30
ATOM     30  C   UNL     1     -10.197  54.022  46.115  0.00  0.00    +0.000 C 
BRANCH  30  31
ATOM     31  C   UNL     1      -8.977  53.977  45.161  0.00  0.00    +0.000 C 
ATOM     32  C   UNL     1      -7.753  54.716  45.693  0.00  0.00    +0.000 C 
ENDBRANCH  30  31
BRANCH  30  33
ATOM     33  C   UNL     1     -11.508  53.705  45.351  0.00  0.00    +0.000 C 
BRANCH  33  34
ATOM     34  C   UNL     1     -12.208  52.433  45.860  0.00  0.00    +0.000 C 
ATOM     35  C   UNL     1     -12.072  52.249  47.362  0.00  0.00    +0.000 C 
ENDBRANCH  33  34
ENDBRANCH  30  33
ENDBRANCH  28  30
ENDBRANCH   5  28
TORSDOF 7
ENDMDL
MODEL 6
REMARK VINA RESULT:      -7.5      3.127      7.618
REMARK  Name = 
REMARK  9 active torsions:
REMARK  status: ('A' for Active; 'I' for Inactive)
REMARK    1  A    between atoms: C_6  and  C_10
REMARK    2  A    between atoms: C_14  and  O_18
REMARK    3  A    between atoms: N_17  and  N_20
REMARK    4  A    between atoms: N_20  and  C_23
REMARK    5  A    between atoms: C_23  and  C_26
REMARK    6  A    between atoms: C_23  and  C_27
REMARK    7  A    between atoms: C_26  and  C_29
REMARK    8  A    between atoms: C_27  and  C_30
REMARK    9  A    between atoms: C_29  and  C_31
REMARK                            x       y       z     vdW  Elec       q    Type
REMARK                         _______ _______ _______ _____ _____    ______ ____
ROOT
ATOM      1  C   UNL     1     -11.589  54.800  50.477  0.00  0.00    +0.000 A 
ATOM      2  C   UNL     1     -11.624  54.086  49.161  0.00  0.00    +0.000 A 
ATOM      3  C   UNL     1     -10.641  54.472  51.374  0.00  0.00    +0.000 A 
ATOM      4  O   UNL     1     -12.658  54.167  48.488  0.00  0.00    +0.000 OA
ATOM      5  N   UNL     1     -10.445  53.441  48.752  0.00  0.00    +0.000 N 
ATOM      6  C   UNL     1      -9.594  53.496  51.044  0.00  0.00    +0.000 A 
ATOM      7  C   UNL     1      -9.467  53.029  49.725  0.00  0.00    +0.000 A 
ATOM      8  C   UNL     1      -8.679  53.077  52.029  0.00  0.00    +0.000 A 
ATOM      9  C   UNL     1      -8.408  52.151  49.430  0.00  0.00    +0.000 A 
ATOM     10  C   UNL     1      -7.636  52.210  51.717  0.00  0.00    +0.000 A 
ATOM     11  C   UNL     1      -7.499  51.751  50.416  0.00  0.00    +0.000 A 
ENDROOT
BRANCH   1  17
ATOM     12  S   UNL     1     -14.278  56.990  52.335  0.00  0.00    +0.000 S 
ATOM     13  O   UNL     1     -13.678  57.625  53.492  0.00  0.00    +0.000 OA
ATOM     14  O   UNL     1     -15.608  56.419  52.422  0.00  0.00    +0.000 OA
ATOM     15  N   UNL     1     -13.275  55.819  51.845  0.00  0.00    +0.000 N 
ATOM     16  C   UNL     1     -14.348  58.214  51.090  0.00  0.00    +0.000 A 
ATOM     17  C   UNL     1     -12.587  55.923  50.744  0.00  0.00    +0.000 C 
ATOM     18  C   UNL     1     -13.522  58.067  49.985  0.00  0.00    +0.000 A 
ATOM     19  C   UNL     1     -15.212  59.303  51.244  0.00  0.00    +0.000 A 
ATOM     20  N   UNL     1     -12.671  56.973  49.857  0.00  0.00    +0.000 N 
ATOM     21  C   UNL     1     -13.551  59.073  49.015  0.00  0.00    +0.000 A 
ATOM     22  C   UNL     1     -15.242  60.287  50.263  0.00  0.00    +0.000 A 
ATOM     23  C   UNL     1     -14.407  60.174  49.151  0.00  0.00    +0.000 A 
ATOM     24  H   UNL     1     -13.182  55.007  52.393  0.00  0.00    +0.000 HD
ATOM     25  H   UNL     1     -12.082  56.949  49.069  0.00  0.00    +0.000 HD
ENDBRANCH   1  17
BRANCH   3  26
ATOM     26  O   UNL     1     -10.514  55.035  52.631  0.00  0.00    +0.000 OA
ATOM     27  H   UNL     1     -11.133  55.676  52.922  0.00  0.00    +0.000 HD
ENDBRANCH   3  26
BRANCH   5  28
ATOM     28  N   UNL     1     -10.364  52.932  47.415  0.00  0.00    +0.000 N 
ATOM     29  H   UNL     1     -10.556  51.989  47.208  0.00  0.00    +0.000 HD
BRANCH  28  30
ATOM     30  C   UNL     1      -9.976  53.899  46.359  0.00  0.00    +0.000 C 
BRANCH  30  31
ATOM     31  C   UNL     1     -11.064  53.804  45.260  0.00  0.00    +0.000 C 
ATOM     32  C   UNL     1     -10.719  52.832  44.137  0.00  0.00    +0.000 C 
ENDBRANCH  30  31
BRANCH  30  33
ATOM     33  C   UNL     1      -8.571  53.617  45.772  0.00  0.00    +0.000 C 
BRANCH  33  34
ATOM     34  C   UNL     1      -7.477  54.521  46.366  0.00  0.00    +0.000 C 
ATOM     35  C   UNL     1      -6.283  53.736  46.883  0.00  0.00    +0.000 C 
ENDBRANCH  33  34
ENDBRANCH  30  33
ENDBRANCH  28  30
ENDBRANCH   5  28
TORSDOF 7
ENDMDL
MODEL 7
REMARK VINA RESULT:      -7.5      2.471      2.698
REMARK  Name = 
REMARK  9 active torsions:
REMARK  status: ('A' for Active; 'I' for Inactive)
REMARK    1  A    between atoms: C_6  and  C_10
REMARK    2  A    between atoms: C_14  and  O_18
REMARK    3  A    between atoms: N_17  and  N_20
REMARK    4  A    between atoms: N_20  and  C_23
REMARK    5  A    between atoms: C_23  and  C_26
REMARK    6  A    between atoms: C_23  and  C_27
REMARK    7  A    between atoms: C_26  and  C_29
REMARK    8  A    between atoms: C_27  and  C_30
REMARK    9  A    between atoms: C_29  and  C_31
REMARK                            x       y       z     vdW  Elec       q    Type
REMARK                         _______ _______ _______ _____ _____    ______ ____
ROOT
ATOM      1  C   UNL     1      -9.908  53.643  50.721  0.00  0.00    +0.000 A 
ATOM      2  C   UNL     1     -11.306  54.044  51.078  0.00  0.00    +0.000 A 
ATOM      3  C   UNL     1      -9.506  53.742  49.440  0.00  0.00    +0.000 A 
ATOM      4  O   UNL     1     -11.755  53.664  52.166  0.00  0.00    +0.000 OA
ATOM      5  N   UNL     1     -11.977  54.892  50.182  0.00  0.00    +0.000 N 
ATOM      6  C   UNL     1     -10.385  54.319  48.415  0.00  0.00    +0.000 A 
ATOM      7  C   UNL     1     -11.586  54.940  48.796  0.00  0.00    +0.000 A 
ATOM      8  C   UNL     1      -9.998  54.310  47.061  0.00  0.00    +0.000 A 
ATOM      9  C   UNL     1     -12.368  55.546  47.796  0.00  0.00    +0.000 A 
ATOM     10  C   UNL     1     -10.783  54.918  46.087  0.00  0.00    +0.000 A 
ATOM     11  C   UNL     1     -11.966  55.539  46.455  0.00  0.00    +0.000 A 
ENDROOT
BRANCH   1  17
ATOM     12  S   UNL     1      -6.700  53.478  52.994  0.00  0.00    +0.000 S 
ATOM     13  O   UNL     1      -6.594  54.691  53.781  0.00  0.00    +0.000 OA
ATOM     14  O   UNL     1      -5.522  52.897  52.382  0.00  0.00    +0.000 OA
ATOM     15  N   UNL     1      -7.778  53.750  51.818  0.00  0.00    +0.000 N 
ATOM     16  C   UNL     1      -7.351  52.259  54.065  0.00  0.00    +0.000 A 
ATOM     17  C   UNL     1      -8.955  53.194  51.825  0.00  0.00    +0.000 C 
ATOM     18  C   UNL     1      -8.639  51.804  53.829  0.00  0.00    +0.000 A 
ATOM     19  C   UNL     1      -6.571  51.792  55.129  0.00  0.00    +0.000 A 
ATOM     20  N   UNL     1      -9.393  52.286  52.764  0.00  0.00    +0.000 N 
ATOM     21  C   UNL     1      -9.168  50.862  54.717  0.00  0.00    +0.000 A 
ATOM     22  C   UNL     1      -7.104  50.843  55.993  0.00  0.00    +0.000 A 
ATOM     23  C   UNL     1      -8.405  50.383  55.790  0.00  0.00    +0.000 A 
ATOM     24  H   UNL     1      -7.536  54.352  51.078  0.00  0.00    +0.000 HD
ATOM     25  H   UNL     1     -10.314  51.952  52.675  0.00  0.00    +0.000 HD
ENDBRANCH   1  17
BRANCH   3  26
ATOM     26  O   UNL     1      -8.254  53.383  48.975  0.00  0.00    +0.000 OA
ATOM     27  H   UNL     1      -8.146  53.105  48.086  0.00  0.00    +0.000 HD
ENDBRANCH   3  26
BRANCH   5  28
ATOM     28  N   UNL     1     -13.226  55.471  50.581  0.00  0.00    +0.000 N 
ATOM     29  H   UNL     1     -14.062  54.952  50.574  0.00  0.00    +0.000 HD
BRANCH  28  30
ATOM     30  C   UNL     1     -13.192  56.892  51.005  0.00  0.00    +0.000 C 
BRANCH  30  31
ATOM     31  C   UNL     1     -13.510  56.902  52.521  0.00  0.00    +0.000 C 
ATOM     32  C   UNL     1     -14.678  57.807  52.898  0.00  0.00    +0.000 C 
ENDBRANCH  30  31
BRANCH  30  33
ATOM     33  C   UNL     1     -14.196  57.777  50.223  0.00  0.00    +0.000 C 
BRANCH  33  34
ATOM     34  C   UNL     1     -13.520  58.942  49.479  0.00  0.00    +0.000 C 
ATOM     35  C   UNL     1     -14.330  60.226  49.542  0.00  0.00    +0.000 C 
ENDBRANCH  33  34
ENDBRANCH  30  33
ENDBRANCH  28  30
ENDBRANCH   5  28
TORSDOF 7
ENDMDL
MODEL 8
REMARK VINA RESULT:      -7.3      2.172      2.511
REMARK  Name = 
REMARK  9 active torsions:
REMARK  status: ('A' for Active; 'I' for Inactive)
REMARK    1  A    between atoms: C_6  and  C_10
REMARK    2  A    between atoms: C_14  and  O_18
REMARK    3  A    between atoms: N_17  and  N_20
REMARK    4  A    between atoms: N_20  and  C_23
REMARK    5  A    between atoms: C_23  and  C_26
REMARK    6  A    between atoms: C_23  and  C_27
REMARK    7  A    between atoms: C_26  and  C_29
REMARK    8  A    between atoms: C_27  and  C_30
REMARK    9  A    between atoms: C_29  and  C_31
REMARK                            x       y       z     vdW  Elec       q    Type
REMARK                         _______ _______ _______ _____ _____    ______ ____
ROOT
ATOM      1  C   UNL     1     -10.565  54.399  50.737  0.00  0.00    +0.000 A 
ATOM      2  C   UNL     1     -11.963  54.747  51.146  0.00  0.00    +0.000 A 
ATOM      3  C   UNL     1     -10.199  54.564  49.452  0.00  0.00    +0.000 A 
ATOM      4  O   UNL     1     -12.374  54.309  52.227  0.00  0.00    +0.000 OA
ATOM      5  N   UNL     1     -12.677  55.616  50.305  0.00  0.00    +0.000 N 
ATOM      6  C   UNL     1     -11.118  55.163  48.476  0.00  0.00    +0.000 A 
ATOM      7  C   UNL     1     -12.324  55.735  48.914  0.00  0.00    +0.000 A 
ATOM      8  C   UNL     1     -10.765  55.223  47.114  0.00  0.00    +0.000 A 
ATOM      9  C   UNL     1     -13.146  56.364  47.960  0.00  0.00    +0.000 A 
ATOM     10  C   UNL     1     -11.590  55.852  46.187  0.00  0.00    +0.000 A 
ATOM     11  C   UNL     1     -12.779  56.426  46.612  0.00  0.00    +0.000 A 
ENDROOT
BRANCH   1  17
ATOM     12  S   UNL     1      -8.723  52.026  53.279  0.00  0.00    +0.000 S 
ATOM     13  O   UNL     1      -8.020  50.985  52.555  0.00  0.00    +0.000 OA
ATOM     14  O   UNL     1      -9.453  51.710  54.490  0.00  0.00    +0.000 OA
ATOM     15  N   UNL     1      -9.762  52.721  52.250  0.00  0.00    +0.000 N 
ATOM     16  C   UNL     1      -7.516  53.208  53.725  0.00  0.00    +0.000 A 
ATOM     17  C   UNL     1      -9.573  53.927  51.796  0.00  0.00    +0.000 C 
ATOM     18  C   UNL     1      -7.559  54.449  53.107  0.00  0.00    +0.000 A 
ATOM     19  C   UNL     1      -6.541  52.872  54.670  0.00  0.00    +0.000 A 
ATOM     20  N   UNL     1      -8.540  54.757  52.170  0.00  0.00    +0.000 N 
ATOM     21  C   UNL     1      -6.563  55.373  53.437  0.00  0.00    +0.000 A 
ATOM     22  C   UNL     1      -5.567  53.807  55.000  0.00  0.00    +0.000 A 
ATOM     23  C   UNL     1      -5.576  55.056  54.379  0.00  0.00    +0.000 A 
ATOM     24  H   UNL     1     -10.557  52.218  51.960  0.00  0.00    +0.000 HD
ATOM     25  H   UNL     1      -8.491  55.641  51.739  0.00  0.00    +0.000 HD
ENDBRANCH   1  17
BRANCH   3  26
ATOM     26  O   UNL     1      -8.950  54.258  48.942  0.00  0.00    +0.000 OA
ATOM     27  H   UNL     1      -8.464  53.537  49.291  0.00  0.00    +0.000 HD
ENDBRANCH   3  26
BRANCH   5  28
ATOM     28  N   UNL     1     -13.930  56.145  50.760  0.00  0.00    +0.000 N 
ATOM     29  H   UNL     1     -14.755  55.609  50.739  0.00  0.00    +0.000 HD
BRANCH  28  30
ATOM     30  C   UNL     1     -13.916  57.540  51.265  0.00  0.00    +0.000 C 
BRANCH  30  31
ATOM     31  C   UNL     1     -13.931  57.443  52.811  0.00  0.00    +0.000 C 
ATOM     32  C   UNL     1     -15.124  58.139  53.458  0.00  0.00    +0.000 C 
ENDBRANCH  30  31
BRANCH  30  33
ATOM     33  C   UNL     1     -15.116  58.376  50.751  0.00  0.00    +0.000 C 
BRANCH  33  34
ATOM     34  C   UNL     1     -14.685  59.665  50.029  0.00  0.00    +0.000 C 
ATOM     35  C   UNL     1     -13.184  59.737  49.804  0.00  0.00    +0.000 C 
ENDBRANCH  33  34
ENDBRANCH  30  33
ENDBRANCH  28  30
ENDBRANCH   5  28
TORSDOF 7
ENDMDL
MODEL 9
REMARK VINA RESULT:      -7.2      2.782      8.052
REMARK  Name = 
REMARK  9 active torsions:
REMARK  status: ('A' for Active; 'I' for Inactive)
REMARK    1  A    between atoms: C_6  and  C_10
REMARK    2  A    between atoms: C_14  and  O_18
REMARK    3  A    between atoms: N_17  and  N_20
REMARK    4  A    between atoms: N_20  and  C_23
REMARK    5  A    between atoms: C_23  and  C_26
REMARK    6  A    between atoms: C_23  and  C_27
REMARK    7  A    between atoms: C_26  and  C_29
REMARK    8  A    between atoms: C_27  and  C_30
REMARK    9  A    between atoms: C_29  and  C_31
REMARK                            x       y       z     vdW  Elec       q    Type
REMARK                         _______ _______ _______ _____ _____    ______ ____
ROOT
ATOM      1  C   UNL     1     -10.121  54.259  51.997  0.00  0.00    +0.000 A 
ATOM      2  C   UNL     1      -8.709  54.710  51.781  0.00  0.00    +0.000 A 
ATOM      3  C   UNL     1     -10.358  53.230  52.832  0.00  0.00    +0.000 A 
ATOM      4  O   UNL     1      -8.476  55.427  50.801  0.00  0.00    +0.000 OA
ATOM      5  N   UNL     1      -7.766  54.349  52.757  0.00  0.00    +0.000 N 
ATOM      6  C   UNL     1      -9.268  52.611  53.596  0.00  0.00    +0.000 A 
ATOM      7  C   UNL     1      -7.994  53.204  53.600  0.00  0.00    +0.000 A 
ATOM      8  C   UNL     1      -9.510  51.464  54.376  0.00  0.00    +0.000 A 
ATOM      9  C   UNL     1      -6.993  52.625  54.401  0.00  0.00    +0.000 A 
ATOM     10  C   UNL     1      -8.508  50.907  55.164  0.00  0.00    +0.000 A 
ATOM     11  C   UNL     1      -7.250  51.491  55.180  0.00  0.00    +0.000 A 
ENDROOT
BRANCH   1  17
ATOM     12  S   UNL     1     -13.403  56.385  51.557  0.00  0.00    +0.000 S 
ATOM     13  O   UNL     1     -13.190  57.725  52.068  0.00  0.00    +0.000 OA
ATOM     14  O   UNL     1     -14.646  55.689  51.822  0.00  0.00    +0.000 OA
ATOM     15  N   UNL     1     -12.196  55.455  52.105  0.00  0.00    +0.000 N 
ATOM     16  C   UNL     1     -13.263  56.500  49.819  0.00  0.00    +0.000 A 
ATOM     17  C   UNL     1     -11.258  55.015  51.317  0.00  0.00    +0.000 C 
ATOM     18  C   UNL     1     -12.167  55.904  49.213  0.00  0.00    +0.000 A 
ATOM     19  C   UNL     1     -14.239  57.193  49.095  0.00  0.00    +0.000 A 
ATOM     20  N   UNL     1     -11.210  55.221  49.956  0.00  0.00    +0.000 N 
ATOM     21  C   UNL     1     -12.040  56.039  47.826  0.00  0.00    +0.000 A 
ATOM     22  C   UNL     1     -14.108  57.304  47.716  0.00  0.00    +0.000 A 
ATOM     23  C   UNL     1     -13.005  56.731  47.083  0.00  0.00    +0.000 A 
ATOM     24  H   UNL     1     -12.171  55.217  53.060  0.00  0.00    +0.000 HD
ATOM     25  H   UNL     1     -10.436  54.856  49.470  0.00  0.00    +0.000 HD
ENDBRANCH   1  17
BRANCH   3  26
ATOM     26  O   UNL     1     -11.608  52.702  53.099  0.00  0.00    +0.000 OA
ATOM     27  H   UNL     1     -11.714  51.775  53.197  0.00  0.00    +0.000 HD
ENDBRANCH   3  26
BRANCH   5  28
ATOM     28  N   UNL     1      -6.458  54.935  52.705  0.00  0.00    +0.000 N 
ATOM     29  H   UNL     1      -6.286  55.845  53.038  0.00  0.00    +0.000 HD
BRANCH  28  30
ATOM     30  C   UNL     1      -5.380  54.099  52.122  0.00  0.00    +0.000 C 
BRANCH  30  31
ATOM     31  C   UNL     1      -4.066  54.540  52.814  0.00  0.00    +0.000 C 
ATOM     32  C   UNL     1      -4.261  55.042  54.241  0.00  0.00    +0.000 C 
ENDBRANCH  30  31
BRANCH  30  33
ATOM     33  C   UNL     1      -5.271  54.246  50.583  0.00  0.00    +0.000 C 
BRANCH  33  34
ATOM     34  C   UNL     1      -5.709  52.980  49.825  0.00  0.00    +0.000 C 
ATOM     35  C   UNL     1      -6.105  51.847  50.757  0.00  0.00    +0.000 C 
ENDBRANCH  33  34
ENDBRANCH  30  33
ENDBRANCH  28  30
ENDBRANCH   5  28
TORSDOF 7
ENDMDL
