MODEL 1
REMARK VINA RESULT:      -9.2      0.000      0.000
REMARK  Name = 
REMARK  6 active torsions:
REMARK  status: ('A' for Active; 'I' for Inactive)
REMARK    1  A    between atoms: C_6  and  C_10
REMARK    2  A    between atoms: C_14  and  O_18
REMARK    3  A    between atoms: N_17  and  N_20
REMARK    4  A    between atoms: N_20  and  C_23
REMARK    5  A    between atoms: C_23  and  C_26
REMARK    6  A    between atoms: C_30  and  C_33
REMARK                            x       y       z     vdW  Elec       q    Type
REMARK                         _______ _______ _______ _____ _____    ______ ____
ROOT
ATOM      1  C   UNL     1      -9.314  54.070  49.589  0.00  0.00    +0.000 A 
ATOM      2  C   UNL     1     -10.259  55.220  49.475  0.00  0.00    +0.000 A 
ATOM      3  C   UNL     1      -9.185  53.173  48.597  0.00  0.00    +0.000 A 
ATOM      4  O   UNL     1     -10.273  56.028  50.410  0.00  0.00    +0.000 OA
ATOM      5  N   UNL     1     -11.020  55.323  48.310  0.00  0.00    +0.000 N 
ATOM      6  C   UNL     1      -9.976  53.313  47.374  0.00  0.00    +0.000 A 
ATOM      7  C   UNL     1     -10.881  54.382  47.243  0.00  0.00    +0.000 A 
ATOM      8  C   UNL     1      -9.802  52.413  46.310  0.00  0.00    +0.000 A 
ATOM      9  C   UNL     1     -11.595  54.522  46.043  0.00  0.00    +0.000 A 
ATOM     10  C   UNL     1     -10.484  52.592  45.110  0.00  0.00    +0.000 A 
ATOM     11  C   UNL     1     -11.378  53.647  44.976  0.00  0.00    +0.000 A 
ENDROOT
BRANCH   1  17
ATOM     12  S   UNL     1      -8.215  53.997  53.334  0.00  0.00    +0.000 S 
ATOM     13  O   UNL     1      -8.416  52.686  53.919  0.00  0.00    +0.000 OA
ATOM     14  O   UNL     1      -8.536  55.195  54.085  0.00  0.00    +0.000 OA
ATOM     15  N   UNL     1      -9.044  54.044  51.951  0.00  0.00    +0.000 N 
ATOM     16  C   UNL     1      -6.509  54.103  52.948  0.00  0.00    +0.000 A 
ATOM     17  C   UNL     1      -8.431  53.984  50.805  0.00  0.00    +0.000 C 
ATOM     18  C   UNL     1      -6.134  54.044  51.612  0.00  0.00    +0.000 A 
ATOM     19  C   UNL     1      -5.579  54.246  53.973  0.00  0.00    +0.000 A 
ATOM     20  N   UNL     1      -7.075  53.861  50.610  0.00  0.00    +0.000 N 
ATOM     21  C   UNL     1      -4.767  54.083  51.301  0.00  0.00    +0.000 A 
ATOM     22  C   UNL     1      -4.224  54.304  53.655  0.00  0.00    +0.000 A 
ATOM     23  C   UNL     1      -3.822  54.223  52.321  0.00  0.00    +0.000 A 
ATOM     24  H   UNL     1     -10.025  54.118  51.975  0.00  0.00    +0.000 HD
ATOM     25  H   UNL     1      -6.755  53.630  49.709  0.00  0.00    +0.000 HD
ENDBRANCH   1  17
BRANCH   3  26
ATOM     26  O   UNL     1      -8.287  52.119  48.607  0.00  0.00    +0.000 OA
ATOM     27  H   UNL     1      -7.776  51.947  49.373  0.00  0.00    +0.000 HD
ENDBRANCH   3  26
BRANCH   5  28
ATOM     28  N   UNL     1     -11.971  56.390  48.130  0.00  0.00    +0.000 N 
ATOM     29  H   UNL     1     -11.754  57.206  47.624  0.00  0.00    +0.000 HD
BRANCH  28  30
ATOM     30  C   UNL     1     -13.284  56.180  48.748  0.00  0.00    +0.000 C 
BRANCH  30  31
ATOM     31  C   UNL     1     -13.692  57.336  49.626  0.00  0.00    +0.000 A 
ATOM     32  C   UNL     1     -14.093  57.115  50.948  0.00  0.00    +0.000 A 
ATOM     33  C   UNL     1     -13.758  58.635  49.099  0.00  0.00    +0.000 A 
ATOM     34  C   UNL     1     -14.577  58.165  51.734  0.00  0.00    +0.000 A 
ATOM     35  C   UNL     1     -14.227  59.689  49.880  0.00  0.00    +0.000 A 
ATOM     36  C   UNL     1     -14.642  59.454  51.189  0.00  0.00    +0.000 A 
ATOM     37  C   UNL     1     -15.083  57.891  53.119  0.00  0.00    +0.000 C 
ENDBRANCH  30  31
ENDBRANCH  28  30
ENDBRANCH   5  28
TORSDOF 5
ENDMDL
MODEL 2
REMARK VINA RESULT:      -9.1      2.474      7.233
REMARK  Name = 
REMARK  6 active torsions:
REMARK  status: ('A' for Active; 'I' for Inactive)
REMARK    1  A    between atoms: C_6  and  C_10
REMARK    2  A    between atoms: C_14  and  O_18
REMARK    3  A    between atoms: N_17  and  N_20
REMARK    4  A    between atoms: N_20  and  C_23
REMARK    5  A    between atoms: C_23  and  C_26
REMARK    6  A    between atoms: C_30  and  C_33
REMARK                            x       y       z     vdW  Elec       q    Type
REMARK                         _______ _______ _______ _____ _____    ______ ____
ROOT
ATOM      1  C   UNL     1     -11.503  55.923  48.878  0.00  0.00    +0.000 A 
ATOM      2  C   UNL     1     -10.508  55.263  49.775  0.00  0.00    +0.000 A 
ATOM      3  C   UNL     1     -11.588  55.599  47.577  0.00  0.00    +0.000 A 
ATOM      4  O   UNL     1     -10.536  55.580  50.970  0.00  0.00    +0.000 OA
ATOM      5  N   UNL     1      -9.655  54.313  49.214  0.00  0.00    +0.000 N 
ATOM      6  C   UNL     1     -10.698  54.583  47.013  0.00  0.00    +0.000 A 
ATOM      7  C   UNL     1      -9.746  53.953  47.833  0.00  0.00    +0.000 A 
ATOM      8  C   UNL     1     -10.823  54.198  45.668  0.00  0.00    +0.000 A 
ATOM      9  C   UNL     1      -8.935  52.948  47.282  0.00  0.00    +0.000 A 
ATOM     10  C   UNL     1     -10.042  53.170  45.148  0.00  0.00    +0.000 A 
ATOM     11  C   UNL     1      -9.101  52.544  45.956  0.00  0.00    +0.000 A 
ENDROOT
BRANCH   1  17
ATOM     12  S   UNL     1     -13.529  59.206  49.468  0.00  0.00    +0.000 S 
ATOM     13  O   UNL     1     -14.653  59.305  48.558  0.00  0.00    +0.000 OA
ATOM     14  O   UNL     1     -12.722  60.372  49.770  0.00  0.00    +0.000 OA
ATOM     15  N   UNL     1     -12.547  58.058  48.903  0.00  0.00    +0.000 N 
ATOM     16  C   UNL     1     -14.185  58.654  50.997  0.00  0.00    +0.000 A 
ATOM     17  C   UNL     1     -12.481  56.895  49.481  0.00  0.00    +0.000 C 
ATOM     18  C   UNL     1     -13.924  57.348  51.389  0.00  0.00    +0.000 A 
ATOM     19  C   UNL     1     -14.940  59.525  51.776  0.00  0.00    +0.000 A 
ATOM     20  N   UNL     1     -13.203  56.486  50.577  0.00  0.00    +0.000 N 
ATOM     21  C   UNL     1     -14.485  56.888  52.590  0.00  0.00    +0.000 A 
ATOM     22  C   UNL     1     -15.477  59.068  52.977  0.00  0.00    +0.000 A 
ATOM     23  C   UNL     1     -15.248  57.752  53.381  0.00  0.00    +0.000 A 
ATOM     24  H   UNL     1     -11.991  58.240  48.111  0.00  0.00    +0.000 HD
ATOM     25  H   UNL     1     -13.209  55.527  50.798  0.00  0.00    +0.000 HD
ENDBRANCH   1  17
BRANCH   3  26
ATOM     26  O   UNL     1     -12.523  56.123  46.700  0.00  0.00    +0.000 OA
ATOM     27  H   UNL     1     -12.881  55.585  46.021  0.00  0.00    +0.000 HD
ENDBRANCH   3  26
BRANCH   5  28
ATOM     28  N   UNL     1      -8.652  53.647  50.006  0.00  0.00    +0.000 N 
ATOM     29  H   UNL     1      -8.781  52.738  50.358  0.00  0.00    +0.000 HD
BRANCH  28  30
ATOM     30  C   UNL     1      -7.426  54.413  50.251  0.00  0.00    +0.000 C 
BRANCH  30  31
ATOM     31  C   UNL     1      -7.149  54.590  51.722  0.00  0.00    +0.000 A 
ATOM     32  C   UNL     1      -6.895  53.477  52.533  0.00  0.00    +0.000 A 
ATOM     33  C   UNL     1      -7.229  55.861  52.310  0.00  0.00    +0.000 A 
ATOM     34  C   UNL     1      -6.746  53.620  53.916  0.00  0.00    +0.000 A 
ATOM     35  C   UNL     1      -7.069  56.013  53.685  0.00  0.00    +0.000 A 
ATOM     36  C   UNL     1      -6.837  54.896  54.486  0.00  0.00    +0.000 A 
ATOM     37  C   UNL     1      -6.563  52.405  54.777  0.00  0.00    +0.000 C 
ENDBRANCH  30  31
ENDBRANCH  28  30
ENDBRANCH   5  28
TORSDOF 5
ENDMDL
MODEL 3
REMARK VINA RESULT:      -8.9      1.531      2.030
REMARK  Name = 
REMARK  6 active torsions:
REMARK  status: ('A' for Active; 'I' for Inactive)
REMARK    1  A    between atoms: C_6  and  C_10
REMARK    2  A    between atoms: C_14  and  O_18
REMARK    3  A    between atoms: N_17  and  N_20
REMARK    4  A    between atoms: N_20  and  C_23
REMARK    5  A    between atoms: C_23  and  C_26
REMARK    6  A    between atoms: C_30  and  C_33
REMARK                            x       y       z     vdW  Elec       q    Type
REMARK                         _______ _______ _______ _____ _____    ______ ____
ROOT
ATOM      1  C   UNL     1      -9.600  53.955  49.694  0.00  0.00    +0.000 A 
ATOM      2  C   UNL     1     -10.877  54.726  49.748  0.00  0.00    +0.000 A 
ATOM      3  C   UNL     1      -9.177  53.389  48.551  0.00  0.00    +0.000 A 
ATOM      4  O   UNL     1     -11.163  55.261  50.825  0.00  0.00    +0.000 OA
ATOM      5  N   UNL     1     -11.629  54.823  48.576  0.00  0.00    +0.000 N 
ATOM      6  C   UNL     1      -9.969  53.523  47.328  0.00  0.00    +0.000 A 
ATOM      7  C   UNL     1     -11.181  54.236  47.352  0.00  0.00    +0.000 A 
ATOM      8  C   UNL     1      -9.502  52.984  46.117  0.00  0.00    +0.000 A 
ATOM      9  C   UNL     1     -11.901  54.390  46.158  0.00  0.00    +0.000 A 
ATOM     10  C   UNL     1     -10.204  53.184  44.933  0.00  0.00    +0.000 A 
ATOM     11  C   UNL     1     -11.402  53.889  44.953  0.00  0.00    +0.000 A 
ENDROOT
BRANCH   1  17
ATOM     12  S   UNL     1      -6.707  54.744  52.192  0.00  0.00    +0.000 S 
ATOM     13  O   UNL     1      -6.984  55.943  52.960  0.00  0.00    +0.000 OA
ATOM     14  O   UNL     1      -5.375  54.489  51.680  0.00  0.00    +0.000 OA
ATOM     15  N   UNL     1      -7.729  54.720  50.945  0.00  0.00    +0.000 N 
ATOM     16  C   UNL     1      -7.097  53.393  53.239  0.00  0.00    +0.000 A 
ATOM     17  C   UNL     1      -8.740  53.902  50.927  0.00  0.00    +0.000 C 
ATOM     18  C   UNL     1      -8.241  52.657  52.960  0.00  0.00    +0.000 A 
ATOM     19  C   UNL     1      -6.262  53.088  54.309  0.00  0.00    +0.000 A 
ATOM     20  N   UNL     1      -9.080  53.004  51.912  0.00  0.00    +0.000 N 
ATOM     21  C   UNL     1      -8.582  51.603  53.821  0.00  0.00    +0.000 A 
ATOM     22  C   UNL     1      -6.596  52.028  55.148  0.00  0.00    +0.000 A 
ATOM     23  C   UNL     1      -7.754  51.288  54.902  0.00  0.00    +0.000 A 
ATOM     24  H   UNL     1      -7.587  55.334  50.188  0.00  0.00    +0.000 HD
ATOM     25  H   UNL     1      -9.970  52.585  51.871  0.00  0.00    +0.000 HD
ENDBRANCH   1  17
BRANCH   3  26
ATOM     26  O   UNL     1      -7.976  52.712  48.411  0.00  0.00    +0.000 OA
ATOM     27  H   UNL     1      -7.875  51.857  48.781  0.00  0.00    +0.000 HD
ENDBRANCH   3  26
BRANCH   5  28
ATOM     28  N   UNL     1     -12.884  55.530  48.549  0.00  0.00    +0.000 N 
ATOM     29  H   UNL     1     -13.747  55.070  48.661  0.00  0.00    +0.000 HD
BRANCH  28  30
ATOM     30  C   UNL     1     -12.791  56.979  48.343  0.00  0.00    +0.000 C 
BRANCH  30  31
ATOM     31  C   UNL     1     -13.504  57.754  49.423  0.00  0.00    +0.000 A 
ATOM     32  C   UNL     1     -14.086  57.087  50.507  0.00  0.00    +0.000 A 
ATOM     33  C   UNL     1     -13.668  59.143  49.306  0.00  0.00    +0.000 A 
ATOM     34  C   UNL     1     -14.841  57.785  51.454  0.00  0.00    +0.000 A 
ATOM     35  C   UNL     1     -14.409  59.847  50.252  0.00  0.00    +0.000 A 
ATOM     36  C   UNL     1     -15.000  59.170  51.317  0.00  0.00    +0.000 A 
ATOM     37  C   UNL     1     -15.528  57.039  52.559  0.00  0.00    +0.000 C 
ENDBRANCH  30  31
ENDBRANCH  28  30
ENDBRANCH   5  28
TORSDOF 5
ENDMDL
MODEL 4
REMARK VINA RESULT:      -8.9      3.339      8.667
REMARK  Name = 
REMARK  6 active torsions:
REMARK  status: ('A' for Active; 'I' for Inactive)
REMARK    1  A    between atoms: C_6  and  C_10
REMARK    2  A    between atoms: C_14  and  O_18
REMARK    3  A    between atoms: N_17  and  N_20
REMARK    4  A    between atoms: N_20  and  C_23
REMARK    5  A    between atoms: C_23  and  C_26
REMARK    6  A    between atoms: C_30  and  C_33
REMARK                            x       y       z     vdW  Elec       q    Type
REMARK                         _______ _______ _______ _____ _____    ______ ____
ROOT
ATOM      1  C   UNL     1     -10.084  54.532  52.196  0.00  0.00    +0.000 A 
ATOM      2  C   UNL     1      -8.729  55.135  52.015  0.00  0.00    +0.000 A 
ATOM      3  C   UNL     1     -10.260  53.425  52.936  0.00  0.00    +0.000 A 
ATOM      4  O   UNL     1      -8.666  56.184  51.365  0.00  0.00    +0.000 OA
ATOM      5  N   UNL     1      -7.648  54.499  52.625  0.00  0.00    +0.000 N 
ATOM      6  C   UNL     1      -9.114  52.787  53.587  0.00  0.00    +0.000 A 
ATOM      7  C   UNL     1      -7.826  53.328  53.426  0.00  0.00    +0.000 A 
ATOM      8  C   UNL     1      -9.300  51.665  54.410  0.00  0.00    +0.000 A 
ATOM      9  C   UNL     1      -6.750  52.727  54.096  0.00  0.00    +0.000 A 
ATOM     10  C   UNL     1      -8.231  51.107  55.104  0.00  0.00    +0.000 A 
ATOM     11  C   UNL     1      -6.956  51.640  54.948  0.00  0.00    +0.000 A 
ENDROOT
BRANCH   1  17
ATOM     12  S   UNL     1     -12.532  56.023  49.547  0.00  0.00    +0.000 S 
ATOM     13  O   UNL     1     -13.426  55.008  49.023  0.00  0.00    +0.000 OA
ATOM     14  O   UNL     1     -11.945  57.013  48.665  0.00  0.00    +0.000 OA
ATOM     15  N   UNL     1     -11.330  55.264  50.308  0.00  0.00    +0.000 N 
ATOM     16  C   UNL     1     -13.453  56.915  50.742  0.00  0.00    +0.000 A 
ATOM     17  C   UNL     1     -11.271  55.245  51.608  0.00  0.00    +0.000 C 
ATOM     18  C   UNL     1     -13.148  56.722  52.083  0.00  0.00    +0.000 A 
ATOM     19  C   UNL     1     -14.454  57.788  50.328  0.00  0.00    +0.000 A 
ATOM     20  N   UNL     1     -12.174  55.816  52.474  0.00  0.00    +0.000 N 
ATOM     21  C   UNL     1     -13.913  57.399  53.045  0.00  0.00    +0.000 A 
ATOM     22  C   UNL     1     -15.196  58.473  51.288  0.00  0.00    +0.000 A 
ATOM     23  C   UNL     1     -14.923  58.277  52.643  0.00  0.00    +0.000 A 
ATOM     24  H   UNL     1     -10.633  54.808  49.783  0.00  0.00    +0.000 HD
ATOM     25  H   UNL     1     -12.127  55.567  53.425  0.00  0.00    +0.000 HD
ENDBRANCH   1  17
BRANCH   3  26
ATOM     26  O   UNL     1     -11.490  52.846  53.198  0.00  0.00    +0.000 OA
ATOM     27  H   UNL     1     -12.166  52.871  52.549  0.00  0.00    +0.000 HD
ENDBRANCH   3  26
BRANCH   5  28
ATOM     28  N   UNL     1      -6.306  55.003  52.482  0.00  0.00    +0.000 N 
ATOM     29  H   UNL     1      -5.851  55.495  53.202  0.00  0.00    +0.000 HD
BRANCH  28  30
ATOM     30  C   UNL     1      -5.662  54.734  51.192  0.00  0.00    +0.000 C 
BRANCH  30  31
ATOM     31  C   UNL     1      -5.061  53.352  51.132  0.00  0.00    +0.000 A 
ATOM     32  C   UNL     1      -5.779  52.291  50.568  0.00  0.00    +0.000 A 
ATOM     33  C   UNL     1      -3.813  53.097  51.720  0.00  0.00    +0.000 A 
ATOM     34  C   UNL     1      -5.277  50.987  50.607  0.00  0.00    +0.000 A 
ATOM     35  C   UNL     1      -3.300  51.803  51.751  0.00  0.00    +0.000 A 
ATOM     36  C   UNL     1      -4.032  50.751  51.204  0.00  0.00    +0.000 A 
ATOM     37  C   UNL     1      -6.102  49.853  50.075  0.00  0.00    +0.000 C 
ENDBRANCH  30  31
ENDBRANCH  28  30
ENDBRANCH   5  28
TORSDOF 5
ENDMDL
MODEL 5
REMARK VINA RESULT:      -8.8      1.836      5.645
REMARK  Name = 
REMARK  6 active torsions:
REMARK  status: ('A' for Active; 'I' for Inactive)
REMARK    1  A    between atoms: C_6  and  C_10
REMARK    2  A    between atoms: C_14  and  O_18
REMARK    3  A    between atoms: N_17  and  N_20
REMARK    4  A    between atoms: N_20  and  C_23
REMARK    5  A    between atoms: C_23  and  C_26
REMARK    6  A    between atoms: C_30  and  C_33
REMARK                            x       y       z     vdW  Elec       q    Type
REMARK                         _______ _______ _______ _____ _____    ______ ____
ROOT
ATOM      1  C   UNL     1     -10.602  55.147  50.834  0.00  0.00    +0.000 A 
ATOM      2  C   UNL     1     -10.371  55.094  49.360  0.00  0.00    +0.000 A 
ATOM      3  C   UNL     1     -11.671  55.777  51.349  0.00  0.00    +0.000 A 
ATOM      4  O   UNL     1      -9.394  54.445  48.969  0.00  0.00    +0.000 OA
ATOM      5  N   UNL     1     -11.291  55.739  48.533  0.00  0.00    +0.000 N 
ATOM      6  C   UNL     1     -12.637  56.428  50.462  0.00  0.00    +0.000 A 
ATOM      7  C   UNL     1     -12.439  56.402  49.070  0.00  0.00    +0.000 A 
ATOM      8  C   UNL     1     -13.787  57.037  50.991  0.00  0.00    +0.000 A 
ATOM      9  C   UNL     1     -13.402  56.992  48.237  0.00  0.00    +0.000 A 
ATOM     10  C   UNL     1     -14.755  57.577  50.150  0.00  0.00    +0.000 A 
ATOM     11  C   UNL     1     -14.563  57.553  48.774  0.00  0.00    +0.000 A 
ENDROOT
BRANCH   1  17
ATOM     12  S   UNL     1      -9.182  52.332  53.134  0.00  0.00    +0.000 S 
ATOM     13  O   UNL     1      -8.615  51.247  52.355  0.00  0.00    +0.000 OA
ATOM     14  O   UNL     1      -9.976  52.052  54.314  0.00  0.00    +0.000 OA
ATOM     15  N   UNL     1     -10.077  53.229  52.137  0.00  0.00    +0.000 N 
ATOM     16  C   UNL     1      -7.828  53.305  53.673  0.00  0.00    +0.000 A 
ATOM     17  C   UNL     1      -9.661  54.394  51.736  0.00  0.00    +0.000 C 
ATOM     18  C   UNL     1      -7.638  54.548  53.083  0.00  0.00    +0.000 A 
ATOM     19  C   UNL     1      -6.986  52.822  54.669  0.00  0.00    +0.000 A 
ATOM     20  N   UNL     1      -8.466  54.992  52.063  0.00  0.00    +0.000 N 
ATOM     21  C   UNL     1      -6.530  55.312  53.478  0.00  0.00    +0.000 A 
ATOM     22  C   UNL     1      -5.899  53.594  55.071  0.00  0.00    +0.000 A 
ATOM     23  C   UNL     1      -5.674  54.837  54.476  0.00  0.00    +0.000 A 
ATOM     24  H   UNL     1     -10.948  52.890  51.827  0.00  0.00    +0.000 HD
ATOM     25  H   UNL     1      -8.183  55.779  51.545  0.00  0.00    +0.000 HD
ENDBRANCH   1  17
BRANCH   3  26
ATOM     26  O   UNL     1     -11.982  55.815  52.697  0.00  0.00    +0.000 OA
ATOM     27  H   UNL     1     -12.539  56.492  53.030  0.00  0.00    +0.000 HD
ENDBRANCH   3  26
BRANCH   5  28
ATOM     28  N   UNL     1     -11.129  55.755  47.102  0.00  0.00    +0.000 N 
ATOM     29  H   UNL     1     -10.728  56.519  46.628  0.00  0.00    +0.000 HD
BRANCH  28  30
ATOM     30  C   UNL     1     -11.601  54.559  46.397  0.00  0.00    +0.000 C 
BRANCH  30  31
ATOM     31  C   UNL     1     -10.555  53.994  45.470  0.00  0.00    +0.000 A 
ATOM     32  C   UNL     1     -10.905  53.052  44.496  0.00  0.00    +0.000 A 
ATOM     33  C   UNL     1      -9.205  54.340  45.632  0.00  0.00    +0.000 A 
ATOM     34  C   UNL     1      -9.927  52.442  43.706  0.00  0.00    +0.000 A 
ATOM     35  C   UNL     1      -8.225  53.746  44.840  0.00  0.00    +0.000 A 
ATOM     36  C   UNL     1      -8.583  52.795  43.886  0.00  0.00    +0.000 A 
ATOM     37  C   UNL     1     -10.315  51.372  42.729  0.00  0.00    +0.000 C 
ENDBRANCH  30  31
ENDBRANCH  28  30
ENDBRANCH   5  28
TORSDOF 5
ENDMDL
MODEL 6
REMARK VINA RESULT:      -8.8      3.444      7.511
REMARK  Name = 
REMARK  6 active torsions:
REMARK  status: ('A' for Active; 'I' for Inactive)
REMARK    1  A    between atoms: C_6  and  C_10
REMARK    2  A    between atoms: C_14  and  O_18
REMARK    3  A    between atoms: N_17  and  N_20
REMARK    4  A    between atoms: N_20  and  C_23
REMARK    5  A    between atoms: C_23  and  C_26
REMARK    6  A    between atoms: C_30  and  C_33
REMARK                            x       y       z     vdW  Elec       q    Type
REMARK                         _______ _______ _______ _____ _____    ______ ____
ROOT
ATOM      1  C   UNL     1     -12.557  54.285  49.604  0.00  0.00    +0.000 A 
ATOM      2  C   UNL     1     -12.057  54.242  48.198  0.00  0.00    +0.000 A 
ATOM      3  C   UNL     1     -12.261  53.308  50.478  0.00  0.00    +0.000 A 
ATOM      4  O   UNL     1     -12.330  55.210  47.478  0.00  0.00    +0.000 OA
ATOM      5  N   UNL     1     -11.288  53.144  47.813  0.00  0.00    +0.000 N 
ATOM      6  C   UNL     1     -11.433  52.175  50.060  0.00  0.00    +0.000 A 
ATOM      7  C   UNL     1     -10.957  52.105  48.738  0.00  0.00    +0.000 A 
ATOM      8  C   UNL     1     -11.071  51.182  50.984  0.00  0.00    +0.000 A 
ATOM      9  C   UNL     1     -10.127  51.034  48.373  0.00  0.00    +0.000 A 
ATOM     10  C   UNL     1     -10.212  50.151  50.619  0.00  0.00    +0.000 A 
ATOM     11  C   UNL     1      -9.738  50.079  49.314  0.00  0.00    +0.000 A 
ENDROOT
BRANCH   1  17
ATOM     12  S   UNL     1     -15.384  56.466  51.179  0.00  0.00    +0.000 S 
ATOM     13  O   UNL     1     -15.251  56.545  52.621  0.00  0.00    +0.000 OA
ATOM     14  O   UNL     1     -16.690  56.302  50.570  0.00  0.00    +0.000 OA
ATOM     15  N   UNL     1     -14.446  55.257  50.671  0.00  0.00    +0.000 N 
ATOM     16  C   UNL     1     -14.731  57.963  50.546  0.00  0.00    +0.000 A 
ATOM     17  C   UNL     1     -13.324  55.497  50.057  0.00  0.00    +0.000 C 
ATOM     18  C   UNL     1     -13.506  57.920  49.893  0.00  0.00    +0.000 A 
ATOM     19  C   UNL     1     -15.445  59.147  50.704  0.00  0.00    +0.000 A 
ATOM     20  N   UNL     1     -12.793  56.736  49.784  0.00  0.00    +0.000 N 
ATOM     21  C   UNL     1     -12.957  59.123  49.425  0.00  0.00    +0.000 A 
ATOM     22  C   UNL     1     -14.904  60.335  50.217  0.00  0.00    +0.000 A 
ATOM     23  C   UNL     1     -13.663  60.320  49.579  0.00  0.00    +0.000 A 
ATOM     24  H   UNL     1     -14.725  54.326  50.827  0.00  0.00    +0.000 HD
ATOM     25  H   UNL     1     -11.854  56.785  49.494  0.00  0.00    +0.000 HD
ENDBRANCH   1  17
BRANCH   3  26
ATOM     26  O   UNL     1     -12.637  53.309  51.810  0.00  0.00    +0.000 OA
ATOM     27  H   UNL     1     -12.953  54.097  52.207  0.00  0.00    +0.000 HD
ENDBRANCH   3  26
BRANCH   5  28
ATOM     28  N   UNL     1     -10.787  53.015  46.469  0.00  0.00    +0.000 N 
ATOM     29  H   UNL     1     -11.038  52.263  45.885  0.00  0.00    +0.000 HD
BRANCH  28  30
ATOM     30  C   UNL     1      -9.878  54.077  46.027  0.00  0.00    +0.000 C 
BRANCH  30  31
ATOM     31  C   UNL     1      -8.589  54.086  46.809  0.00  0.00    +0.000 A 
ATOM     32  C   UNL     1      -7.693  53.014  46.711  0.00  0.00    +0.000 A 
ATOM     33  C   UNL     1      -8.314  55.126  47.710  0.00  0.00    +0.000 A 
ATOM     34  C   UNL     1      -6.550  52.962  47.514  0.00  0.00    +0.000 A 
ATOM     35  C   UNL     1      -7.171  55.088  48.504  0.00  0.00    +0.000 A 
ATOM     36  C   UNL     1      -6.297  54.006  48.413  0.00  0.00    +0.000 A 
ATOM     37  C   UNL     1      -5.651  51.763  47.456  0.00  0.00    +0.000 C 
ENDBRANCH  30  31
ENDBRANCH  28  30
ENDBRANCH   5  28
TORSDOF 5
ENDMDL
MODEL 7
REMARK VINA RESULT:      -8.7      1.535      2.093
REMARK  Name = 
REMARK  6 active torsions:
REMARK  status: ('A' for Active; 'I' for Inactive)
REMARK    1  A    between atoms: C_6  and  C_10
REMARK    2  A    between atoms: C_14  and  O_18
REMARK    3  A    between atoms: N_17  and  N_20
REMARK    4  A    between atoms: N_20  and  C_23
REMARK    5  A    between atoms: C_23  and  C_26
REMARK    6  A    between atoms: C_30  and  C_33
REMARK                            x       y       z     vdW  Elec       q    Type
REMARK                         _______ _______ _______ _____ _____    ______ ____
ROOT
ATOM      1  C   UNL     1      -8.773  53.464  49.732  0.00  0.00    +0.000 A 
ATOM      2  C   UNL     1      -9.599  54.583  50.277  0.00  0.00    +0.000 A 
ATOM      3  C   UNL     1      -8.942  53.024  48.474  0.00  0.00    +0.000 A 
ATOM      4  O   UNL     1      -9.340  54.962  51.424  0.00  0.00    +0.000 OA
ATOM      5  N   UNL     1     -10.566  55.144  49.443  0.00  0.00    +0.000 N 
ATOM      6  C   UNL     1      -9.947  53.642  47.608  0.00  0.00    +0.000 A 
ATOM      7  C   UNL     1     -10.745  54.691  48.098  0.00  0.00    +0.000 A 
ATOM      8  C   UNL     1     -10.087  53.225  46.274  0.00  0.00    +0.000 A 
ATOM      9  C   UNL     1     -11.670  55.299  47.236  0.00  0.00    +0.000 A 
ATOM     10  C   UNL     1     -10.977  53.868  45.419  0.00  0.00    +0.000 A 
ATOM     11  C   UNL     1     -11.766  54.906  45.899  0.00  0.00    +0.000 A 
ENDROOT
BRANCH   1  17
ATOM     12  S   UNL     1      -6.905  51.128  52.238  0.00  0.00    +0.000 S 
ATOM     13  O   UNL     1      -6.425  49.926  51.584  0.00  0.00    +0.000 OA
ATOM     14  O   UNL     1      -7.495  51.059  53.561  0.00  0.00    +0.000 OA
ATOM     15  N   UNL     1      -7.978  51.820  51.253  0.00  0.00    +0.000 N 
ATOM     16  C   UNL     1      -5.523  52.197  52.372  0.00  0.00    +0.000 A 
ATOM     17  C   UNL     1      -7.675  52.898  50.591  0.00  0.00    +0.000 C 
ATOM     18  C   UNL     1      -5.475  53.314  51.549  0.00  0.00    +0.000 A 
ATOM     19  C   UNL     1      -4.518  51.910  53.291  0.00  0.00    +0.000 A 
ATOM     20  N   UNL     1      -6.468  53.557  50.612  0.00  0.00    +0.000 N 
ATOM     21  C   UNL     1      -4.349  54.148  51.620  0.00  0.00    +0.000 A 
ATOM     22  C   UNL     1      -3.413  52.754  53.371  0.00  0.00    +0.000 A 
ATOM     23  C   UNL     1      -3.332  53.870  52.537  0.00  0.00    +0.000 A 
ATOM     24  H   UNL     1      -8.873  51.422  51.152  0.00  0.00    +0.000 HD
ATOM     25  H   UNL     1      -6.300  54.240  49.923  0.00  0.00    +0.000 HD
ENDBRANCH   1  17
BRANCH   3  26
ATOM     26  O   UNL     1      -8.174  52.035  47.882  0.00  0.00    +0.000 OA
ATOM     27  H   UNL     1      -8.073  51.205  48.304  0.00  0.00    +0.000 HD
ENDBRANCH   3  26
BRANCH   5  28
ATOM     28  N   UNL     1     -11.420  56.211  49.899  0.00  0.00    +0.000 N 
ATOM     29  H   UNL     1     -11.213  57.158  49.726  0.00  0.00    +0.000 HD
BRANCH  28  30
ATOM     30  C   UNL     1     -12.618  55.794  50.636  0.00  0.00    +0.000 C 
BRANCH  30  31
ATOM     31  C   UNL     1     -13.473  56.968  51.042  0.00  0.00    +0.000 A 
ATOM     32  C   UNL     1     -13.723  58.008  50.140  0.00  0.00    +0.000 A 
ATOM     33  C   UNL     1     -13.955  57.071  52.356  0.00  0.00    +0.000 A 
ATOM     34  C   UNL     1     -14.422  59.150  50.541  0.00  0.00    +0.000 A 
ATOM     35  C   UNL     1     -14.664  58.200  52.760  0.00  0.00    +0.000 A 
ATOM     36  C   UNL     1     -14.890  59.239  51.859  0.00  0.00    +0.000 A 
ATOM     37  C   UNL     1     -14.602  60.291  49.584  0.00  0.00    +0.000 C 
ENDBRANCH  30  31
ENDBRANCH  28  30
ENDBRANCH   5  28
TORSDOF 5
ENDMDL
MODEL 8
REMARK VINA RESULT:      -8.7      2.597      7.422
REMARK  Name = 
REMARK  6 active torsions:
REMARK  status: ('A' for Active; 'I' for Inactive)
REMARK    1  A    between atoms: C_6  and  C_10
REMARK    2  A    between atoms: C_14  and  O_18
REMARK    3  A    between atoms: N_17  and  N_20
REMARK    4  A    between atoms: N_20  and  C_23
REMARK    5  A    between atoms: C_23  and  C_26
REMARK    6  A    between atoms: C_30  and  C_33
REMARK                            x       y       z     vdW  Elec       q    Type
REMARK                         _______ _______ _______ _____ _____    ______ ____
ROOT
ATOM      1  C   UNL     1     -11.247  54.552  48.389  0.00  0.00    +0.000 A 
ATOM      2  C   UNL     1     -10.918  54.149  49.789  0.00  0.00    +0.000 A 
ATOM      3  C   UNL     1     -12.224  55.437  48.131  0.00  0.00    +0.000 A 
ATOM      4  O   UNL     1      -9.968  53.373  49.939  0.00  0.00    +0.000 OA
ATOM      5  N   UNL     1     -11.673  54.707  50.821  0.00  0.00    +0.000 N 
ATOM      6  C   UNL     1     -12.989  56.028  49.231  0.00  0.00    +0.000 A 
ATOM      7  C   UNL     1     -12.706  55.659  50.558  0.00  0.00    +0.000 A 
ATOM      8  C   UNL     1     -13.971  56.998  48.971  0.00  0.00    +0.000 A 
ATOM      9  C   UNL     1     -13.420  56.273  51.599  0.00  0.00    +0.000 A 
ATOM     10  C   UNL     1     -14.639  57.630  50.016  0.00  0.00    +0.000 A 
ATOM     11  C   UNL     1     -14.361  57.269  51.329  0.00  0.00    +0.000 A 
ENDROOT
BRANCH   1  17
ATOM     12  S   UNL     1      -8.187  54.049  46.019  0.00  0.00    +0.000 S 
ATOM     13  O   UNL     1      -7.197  53.171  46.613  0.00  0.00    +0.000 OA
ATOM     14  O   UNL     1      -7.778  55.236  45.294  0.00  0.00    +0.000 OA
ATOM     15  N   UNL     1      -9.193  54.509  47.193  0.00  0.00    +0.000 N 
ATOM     16  C   UNL     1      -9.091  53.067  44.883  0.00  0.00    +0.000 A 
ATOM     17  C   UNL     1     -10.396  54.018  47.269  0.00  0.00    +0.000 C 
ATOM     18  C   UNL     1     -10.392  52.711  45.214  0.00  0.00    +0.000 A 
ATOM     19  C   UNL     1      -8.496  52.673  43.689  0.00  0.00    +0.000 A 
ATOM     20  N   UNL     1     -10.950  53.082  46.428  0.00  0.00    +0.000 N 
ATOM     21  C   UNL     1     -11.104  51.888  44.329  0.00  0.00    +0.000 A 
ATOM     22  C   UNL     1      -9.216  51.872  42.805  0.00  0.00    +0.000 A 
ATOM     23  C   UNL     1     -10.517  51.482  43.127  0.00  0.00    +0.000 A 
ATOM     24  H   UNL     1      -8.893  55.168  47.860  0.00  0.00    +0.000 HD
ATOM     25  H   UNL     1     -11.790  52.649  46.704  0.00  0.00    +0.000 HD
ENDBRANCH   1  17
BRANCH   3  26
ATOM     26  O   UNL     1     -12.545  55.903  46.867  0.00  0.00    +0.000 OA
ATOM     27  H   UNL     1     -11.918  56.400  46.379  0.00  0.00    +0.000 HD
ENDBRANCH   3  26
BRANCH   5  28
ATOM     28  N   UNL     1     -11.434  54.354  52.197  0.00  0.00    +0.000 N 
ATOM     29  H   UNL     1     -11.927  53.630  52.645  0.00  0.00    +0.000 HD
BRANCH  28  30
ATOM     30  C   UNL     1     -10.409  55.144  52.886  0.00  0.00    +0.000 C 
BRANCH  30  31
ATOM     31  C   UNL     1      -9.294  54.284  53.426  0.00  0.00    +0.000 A 
ATOM     32  C   UNL     1      -8.094  54.865  53.852  0.00  0.00    +0.000 A 
ATOM     33  C   UNL     1      -9.414  52.886  53.423  0.00  0.00    +0.000 A 
ATOM     34  C   UNL     1      -7.016  54.069  54.250  0.00  0.00    +0.000 A 
ATOM     35  C   UNL     1      -8.349  52.087  53.830  0.00  0.00    +0.000 A 
ATOM     36  C   UNL     1      -7.152  52.675  54.235  0.00  0.00    +0.000 A 
ATOM     37  C   UNL     1      -5.711  54.710  54.620  0.00  0.00    +0.000 C 
ENDBRANCH  30  31
ENDBRANCH  28  30
ENDBRANCH   5  28
TORSDOF 5
ENDMDL
MODEL 9
REMARK VINA RESULT:      -8.6      3.341      7.617
REMARK  Name = 
REMARK  6 active torsions:
REMARK  status: ('A' for Active; 'I' for Inactive)
REMARK    1  A    between atoms: C_6  and  C_10
REMARK    2  A    between atoms: C_14  and  O_18
REMARK    3  A    between atoms: N_17  and  N_20
REMARK    4  A    between atoms: N_20  and  C_23
REMARK    5  A    between atoms: C_23  and  C_26
REMARK    6  A    between atoms: C_30  and  C_33
REMARK                            x       y       z     vdW  Elec       q    Type
REMARK                         _______ _______ _______ _____ _____    ______ ____
ROOT
ATOM      1  C   UNL     1     -11.978  53.564  50.805  0.00  0.00    +0.000 A 
ATOM      2  C   UNL     1     -11.992  52.590  49.673  0.00  0.00    +0.000 A 
ATOM      3  C   UNL     1     -11.303  53.305  51.937  0.00  0.00    +0.000 A 
ATOM      4  O   UNL     1     -12.591  52.933  48.647  0.00  0.00    +0.000 OA
ATOM      5  N   UNL     1     -11.297  51.392  49.837  0.00  0.00    +0.000 N 
ATOM      6  C   UNL     1     -10.561  52.051  52.079  0.00  0.00    +0.000 A 
ATOM      7  C   UNL     1     -10.565  51.112  51.033  0.00  0.00    +0.000 A 
ATOM      8  C   UNL     1      -9.805  51.802  53.237  0.00  0.00    +0.000 A 
ATOM      9  C   UNL     1      -9.809  49.938  51.172  0.00  0.00    +0.000 A 
ATOM     10  C   UNL     1      -9.025  50.654  53.342  0.00  0.00    +0.000 A 
ATOM     11  C   UNL     1      -9.025  49.724  52.309  0.00  0.00    +0.000 A 
ENDROOT
BRANCH   1  17
ATOM     12  S   UNL     1     -12.989  56.983  49.218  0.00  0.00    +0.000 S 
ATOM     13  O   UNL     1     -13.989  56.811  48.182  0.00  0.00    +0.000 OA
ATOM     14  O   UNL     1     -11.894  57.916  49.035  0.00  0.00    +0.000 OA
ATOM     15  N   UNL     1     -12.356  55.532  49.527  0.00  0.00    +0.000 N 
ATOM     16  C   UNL     1     -13.852  57.514  50.647  0.00  0.00    +0.000 A 
ATOM     17  C   UNL     1     -12.659  54.892  50.618  0.00  0.00    +0.000 C 
ATOM     18  C   UNL     1     -14.002  56.615  51.695  0.00  0.00    +0.000 A 
ATOM     19  C   UNL     1     -14.359  58.809  50.704  0.00  0.00    +0.000 A 
ATOM     20  N   UNL     1     -13.523  55.318  51.600  0.00  0.00    +0.000 N 
ATOM     21  C   UNL     1     -14.731  57.021  52.823  0.00  0.00    +0.000 A 
ATOM     22  C   UNL     1     -15.065  59.211  51.835  0.00  0.00    +0.000 A 
ATOM     23  C   UNL     1     -15.248  58.317  52.891  0.00  0.00    +0.000 A 
ATOM     24  H   UNL     1     -11.733  55.126  48.882  0.00  0.00    +0.000 HD
ATOM     25  H   UNL     1     -13.819  54.663  52.273  0.00  0.00    +0.000 HD
ENDBRANCH   1  17
BRANCH   3  26
ATOM     26  O   UNL     1     -11.195  54.184  53.002  0.00  0.00    +0.000 OA
ATOM     27  H   UNL     1     -11.953  54.640  53.311  0.00  0.00    +0.000 HD
ENDBRANCH   3  26
BRANCH   5  28
ATOM     28  N   UNL     1     -11.279  50.389  48.802  0.00  0.00    +0.000 N 
ATOM     29  H   UNL     1     -12.003  49.730  48.698  0.00  0.00    +0.000 HD
BRANCH  28  30
ATOM     30  C   UNL     1     -10.112  50.416  47.914  0.00  0.00    +0.000 C 
BRANCH  30  31
ATOM     31  C   UNL     1     -10.218  51.496  46.867  0.00  0.00    +0.000 A 
ATOM     32  C   UNL     1      -9.432  52.650  46.958  0.00  0.00    +0.000 A 
ATOM     33  C   UNL     1     -11.168  51.395  45.839  0.00  0.00    +0.000 A 
ATOM     34  C   UNL     1      -9.601  53.704  46.055  0.00  0.00    +0.000 A 
ATOM     35  C   UNL     1     -11.334  52.435  44.928  0.00  0.00    +0.000 A 
ATOM     36  C   UNL     1     -10.560  53.588  45.040  0.00  0.00    +0.000 A 
ATOM     37  C   UNL     1      -8.810  54.967  46.224  0.00  0.00    +0.000 C 
ENDBRANCH  30  31
ENDBRANCH  28  30
ENDBRANCH   5  28
TORSDOF 5
ENDMDL
