MODEL 1
REMARK VINA RESULT:      -8.2      0.000      0.000
REMARK  Name = 
REMARK  5 active torsions:
REMARK  status: ('A' for Active; 'I' for Inactive)
REMARK    1  A    between atoms: C_6  and  C_10
REMARK    2  A    between atoms: C_14  and  O_18
REMARK    3  A    between atoms: N_17  and  N_20
REMARK    4  A    between atoms: N_20  and  C_23
REMARK    5  A    between atoms: C_23  and  C_26
REMARK                            x       y       z     vdW  Elec       q    Type
REMARK                         _______ _______ _______ _____ _____    ______ ____
ROOT
ATOM      1  C   UNL     1     -11.323  53.835  51.562  0.00  0.00    +0.000 A 
ATOM      2  C   UNL     1     -10.389  53.991  52.714  0.00  0.00    +0.000 A 
ATOM      3  C   UNL     1     -11.451  52.648  50.943  0.00  0.00    +0.000 A 
ATOM      4  O   UNL     1     -10.302  55.113  53.223  0.00  0.00    +0.000 OA
ATOM      5  N   UNL     1      -9.698  52.861  53.164  0.00  0.00    +0.000 N 
ATOM      6  C   UNL     1     -10.700  51.476  51.413  0.00  0.00    +0.000 A 
ATOM      7  C   UNL     1      -9.831  51.596  52.515  0.00  0.00    +0.000 A 
ATOM      8  C   UNL     1     -10.855  50.228  50.786  0.00  0.00    +0.000 A 
ATOM      9  C   UNL     1      -9.126  50.463  52.951  0.00  0.00    +0.000 A 
ATOM     10  C   UNL     1     -10.168  49.107  51.243  0.00  0.00    +0.000 A 
ATOM     11  C   UNL     1      -9.300  49.225  52.324  0.00  0.00    +0.000 A 
ENDROOT
BRANCH   1  17
ATOM     12  S   UNL     1     -12.855  56.712  49.372  0.00  0.00    +0.000 S 
ATOM     13  O   UNL     1     -13.889  56.235  48.470  0.00  0.00    +0.000 OA
ATOM     14  O   UNL     1     -11.883  57.688  48.924  0.00  0.00    +0.000 OA
ATOM     15  N   UNL     1     -12.048  55.417  49.918  0.00  0.00    +0.000 N 
ATOM     16  C   UNL     1     -13.696  57.449  50.724  0.00  0.00    +0.000 A 
ATOM     17  C   UNL     1     -12.168  55.022  51.150  0.00  0.00    +0.000 C 
ATOM     18  C   UNL     1     -13.650  56.804  51.948  0.00  0.00    +0.000 A 
ATOM     19  C   UNL     1     -14.376  58.658  50.549  0.00  0.00    +0.000 A 
ATOM     20  N   UNL     1     -12.987  55.590  52.104  0.00  0.00    +0.000 N 
ATOM     21  C   UNL     1     -14.367  57.357  53.016  0.00  0.00    +0.000 A 
ATOM     22  C   UNL     1     -15.057  59.215  51.628  0.00  0.00    +0.000 A 
ATOM     23  C   UNL     1     -15.059  58.560  52.859  0.00  0.00    +0.000 A 
ATOM     24  H   UNL     1     -11.456  54.922  49.307  0.00  0.00    +0.000 HD
ATOM     25  H   UNL     1     -13.111  55.104  52.951  0.00  0.00    +0.000 HD
ENDBRANCH   1  17
BRANCH   3  26
ATOM     26  O   UNL     1     -12.295  52.415  49.873  0.00  0.00    +0.000 OA
ATOM     27  H   UNL     1     -13.136  52.027  50.014  0.00  0.00    +0.000 HD
ENDBRANCH   3  26
BRANCH   5  28
ATOM     28  N   UNL     1      -8.770  52.966  54.265  0.00  0.00    +0.000 N 
ATOM     29  H   UNL     1      -9.029  52.806  55.200  0.00  0.00    +0.000 HD
BRANCH  28  30
ATOM     30  C   UNL     1      -7.406  53.330  53.863  0.00  0.00    +0.000 C 
BRANCH  30  31
ATOM     31  C   UNL     1      -7.026  54.656  54.448  0.00  0.00    +0.000 C 
ATOM     32  C   UNL     1      -6.675  55.849  53.604  0.00  0.00    +0.000 C 
ATOM     33  C   UNL     1      -5.593  55.115  54.343  0.00  0.00    +0.000 C 
ENDBRANCH  30  31
ENDBRANCH  28  30
ENDBRANCH   5  28
TORSDOF 5
ENDMDL
MODEL 2
REMARK VINA RESULT:      -8.2      2.193      2.839
REMARK  Name = 
REMARK  5 active torsions:
REMARK  status: ('A' for Active; 'I' for Inactive)
REMARK    1  A    between atoms: C_6  and  C_10
REMARK    2  A    between atoms: C_14  and  O_18
REMARK    3  A    between atoms: N_17  and  N_20
REMARK    4  A    between atoms: N_20  and  C_23
REMARK    5  A    between atoms: C_23  and  C_26
REMARK                            x       y       z     vdW  Elec       q    Type
REMARK                         _______ _______ _______ _____ _____    ______ ____
ROOT
ATOM      1  C   UNL     1     -10.102  54.540  52.180  0.00  0.00    +0.000 A 
ATOM      2  C   UNL     1      -8.739  55.105  51.962  0.00  0.00    +0.000 A 
ATOM      3  C   UNL     1     -10.272  53.446  52.943  0.00  0.00    +0.000 A 
ATOM      4  O   UNL     1      -8.649  56.097  51.232  0.00  0.00    +0.000 OA
ATOM      5  N   UNL     1      -7.660  54.502  52.615  0.00  0.00    +0.000 N 
ATOM      6  C   UNL     1      -9.125  52.810  53.604  0.00  0.00    +0.000 A 
ATOM      7  C   UNL     1      -7.833  53.342  53.431  0.00  0.00    +0.000 A 
ATOM      8  C   UNL     1      -9.306  51.685  54.427  0.00  0.00    +0.000 A 
ATOM      9  C   UNL     1      -6.750  52.722  54.075  0.00  0.00    +0.000 A 
ATOM     10  C   UNL     1      -8.227  51.093  55.078  0.00  0.00    +0.000 A 
ATOM     11  C   UNL     1      -6.948  51.610  54.899  0.00  0.00    +0.000 A 
ENDROOT
BRANCH   1  17
ATOM     12  S   UNL     1     -12.569  56.033  49.515  0.00  0.00    +0.000 S 
ATOM     13  O   UNL     1     -13.472  55.033  48.970  0.00  0.00    +0.000 OA
ATOM     14  O   UNL     1     -11.967  57.027  48.652  0.00  0.00    +0.000 OA
ATOM     15  N   UNL     1     -11.377  55.249  50.282  0.00  0.00    +0.000 N 
ATOM     16  C   UNL     1     -13.499  56.924  50.707  0.00  0.00    +0.000 A 
ATOM     17  C   UNL     1     -11.289  55.262  51.578  0.00  0.00    +0.000 C 
ATOM     18  C   UNL     1     -13.179  56.751  52.043  0.00  0.00    +0.000 A 
ATOM     19  C   UNL     1     -14.520  57.785  50.296  0.00  0.00    +0.000 A 
ATOM     20  N   UNL     1     -12.174  55.874  52.441  0.00  0.00    +0.000 N 
ATOM     21  C   UNL     1     -13.955  57.415  53.001  0.00  0.00    +0.000 A 
ATOM     22  C   UNL     1     -15.261  58.466  51.258  0.00  0.00    +0.000 A 
ATOM     23  C   UNL     1     -14.984  58.274  52.611  0.00  0.00    +0.000 A 
ATOM     24  H   UNL     1     -10.707  54.754  49.757  0.00  0.00    +0.000 HD
ATOM     25  H   UNL     1     -12.089  55.678  53.402  0.00  0.00    +0.000 HD
ENDBRANCH   1  17
BRANCH   3  26
ATOM     26  O   UNL     1     -11.499  52.860  53.201  0.00  0.00    +0.000 OA
ATOM     27  H   UNL     1     -11.698  52.549  54.063  0.00  0.00    +0.000 HD
ENDBRANCH   3  26
BRANCH   5  28
ATOM     28  N   UNL     1      -6.319  55.002  52.422  0.00  0.00    +0.000 N 
ATOM     29  H   UNL     1      -5.955  55.766  52.923  0.00  0.00    +0.000 HD
BRANCH  28  30
ATOM     30  C   UNL     1      -5.549  54.269  51.410  0.00  0.00    +0.000 C 
BRANCH  30  31
ATOM     31  C   UNL     1      -5.538  55.022  50.115  0.00  0.00    +0.000 C 
ATOM     32  C   UNL     1      -6.294  54.563  48.900  0.00  0.00    +0.000 C 
ATOM     33  C   UNL     1      -4.798  54.437  48.937  0.00  0.00    +0.000 C 
ENDBRANCH  30  31
ENDBRANCH  28  30
ENDBRANCH   5  28
TORSDOF 5
ENDMDL
MODEL 3
REMARK VINA RESULT:      -8.1      3.970      4.893
REMARK  Name = 
REMARK  5 active torsions:
REMARK  status: ('A' for Active; 'I' for Inactive)
REMARK    1  A    between atoms: C_6  and  C_10
REMARK    2  A    between atoms: C_14  and  O_18
REMARK    3  A    between atoms: N_17  and  N_20
REMARK    4  A    between atoms: N_20  and  C_23
REMARK    5  A    between atoms: C_23  and  C_26
REMARK                            x       y       z     vdW  Elec       q    Type
REMARK                         _______ _______ _______ _____ _____    ______ ____
ROOT
ATOM      1  C   UNL     1     -10.674  55.628  48.145  0.00  0.00    +0.000 A 
ATOM      2  C   UNL     1      -9.210  55.741  48.409  0.00  0.00    +0.000 A 
ATOM      3  C   UNL     1     -11.123  54.965  47.066  0.00  0.00    +0.000 A 
ATOM      4  O   UNL     1      -8.864  56.384  49.406  0.00  0.00    +0.000 OA
ATOM      5  N   UNL     1      -8.329  55.094  47.539  0.00  0.00    +0.000 N 
ATOM      6  C   UNL     1     -10.182  54.310  46.147  0.00  0.00    +0.000 A 
ATOM      7  C   UNL     1      -8.797  54.384  46.392  0.00  0.00    +0.000 A 
ATOM      8  C   UNL     1     -10.651  53.590  45.035  0.00  0.00    +0.000 A 
ATOM      9  C   UNL     1      -7.915  53.746  45.505  0.00  0.00    +0.000 A 
ATOM     10  C   UNL     1      -9.767  52.944  44.175  0.00  0.00    +0.000 A 
ATOM     11  C   UNL     1      -8.398  53.025  44.409  0.00  0.00    +0.000 A 
ENDROOT
BRANCH   1  17
ATOM     12  S   UNL     1     -13.072  55.944  51.239  0.00  0.00    +0.000 S 
ATOM     13  O   UNL     1     -12.351  56.148  52.485  0.00  0.00    +0.000 OA
ATOM     14  O   UNL     1     -14.212  55.053  51.190  0.00  0.00    +0.000 OA
ATOM     15  N   UNL     1     -12.000  55.446  50.130  0.00  0.00    +0.000 N 
ATOM     16  C   UNL     1     -13.668  57.524  50.761  0.00  0.00    +0.000 A 
ATOM     17  C   UNL     1     -11.639  56.220  49.152  0.00  0.00    +0.000 C 
ATOM     18  C   UNL     1     -13.096  58.126  49.653  0.00  0.00    +0.000 A 
ATOM     19  C   UNL     1     -14.696  58.131  51.487  0.00  0.00    +0.000 A 
ATOM     20  N   UNL     1     -12.057  57.519  48.953  0.00  0.00    +0.000 N 
ATOM     21  C   UNL     1     -13.527  59.411  49.302  0.00  0.00    +0.000 A 
ATOM     22  C   UNL     1     -15.139  59.395  51.105  0.00  0.00    +0.000 A 
ATOM     23  C   UNL     1     -14.549  60.038  50.018  0.00  0.00    +0.000 A 
ATOM     24  H   UNL     1     -11.617  54.541  50.199  0.00  0.00    +0.000 HD
ATOM     25  H   UNL     1     -11.591  58.053  48.270  0.00  0.00    +0.000 HD
ENDBRANCH   1  17
BRANCH   3  26
ATOM     26  O   UNL     1     -12.460  54.808  46.748  0.00  0.00    +0.000 OA
ATOM     27  H   UNL     1     -12.705  54.391  45.945  0.00  0.00    +0.000 HD
ENDBRANCH   3  26
BRANCH   5  28
ATOM     28  N   UNL     1      -6.903  55.188  47.743  0.00  0.00    +0.000 N 
ATOM     29  H   UNL     1      -6.338  55.849  47.282  0.00  0.00    +0.000 HD
BRANCH  28  30
ATOM     30  C   UNL     1      -6.371  54.211  48.701  0.00  0.00    +0.000 C 
BRANCH  30  31
ATOM     31  C   UNL     1      -5.649  54.908  49.813  0.00  0.00    +0.000 C 
ATOM     32  C   UNL     1      -4.764  54.184  50.789  0.00  0.00    +0.000 C 
ATOM     33  C   UNL     1      -6.108  54.686  51.233  0.00  0.00    +0.000 C 
ENDBRANCH  30  31
ENDBRANCH  28  30
ENDBRANCH   5  28
TORSDOF 5
ENDMDL
MODEL 4
REMARK VINA RESULT:      -8.1      2.943      7.350
REMARK  Name = 
REMARK  5 active torsions:
REMARK  status: ('A' for Active; 'I' for Inactive)
REMARK    1  A    between atoms: C_6  and  C_10
REMARK    2  A    between atoms: C_14  and  O_18
REMARK    3  A    between atoms: N_17  and  N_20
REMARK    4  A    between atoms: N_20  and  C_23
REMARK    5  A    between atoms: C_23  and  C_26
REMARK                            x       y       z     vdW  Elec       q    Type
REMARK                         _______ _______ _______ _____ _____    ______ ____
ROOT
ATOM      1  C   UNL     1     -10.460  54.915  50.519  0.00  0.00    +0.000 A 
ATOM      2  C   UNL     1     -11.588  55.099  51.478  0.00  0.00    +0.000 A 
ATOM      3  C   UNL     1     -10.605  55.247  49.225  0.00  0.00    +0.000 A 
ATOM      4  O   UNL     1     -11.397  54.753  52.648  0.00  0.00    +0.000 OA
ATOM      5  N   UNL     1     -12.770  55.676  51.006  0.00  0.00    +0.000 N 
ATOM      6  C   UNL     1     -11.862  55.831  48.739  0.00  0.00    +0.000 A 
ATOM      7  C   UNL     1     -12.931  56.036  49.633  0.00  0.00    +0.000 A 
ATOM      8  C   UNL     1     -12.004  56.207  47.392  0.00  0.00    +0.000 A 
ATOM      9  C   UNL     1     -14.123  56.600  49.150  0.00  0.00    +0.000 A 
ATOM     10  C   UNL     1     -13.183  56.786  46.931  0.00  0.00    +0.000 A 
ATOM     11  C   UNL     1     -14.244  56.979  47.810  0.00  0.00    +0.000 A 
ENDROOT
BRANCH   1  17
ATOM     12  S   UNL     1      -7.227  52.725  50.931  0.00  0.00    +0.000 S 
ATOM     13  O   UNL     1      -6.197  53.064  49.964  0.00  0.00    +0.000 OA
ATOM     14  O   UNL     1      -7.495  51.342  51.264  0.00  0.00    +0.000 OA
ATOM     15  N   UNL     1      -8.612  53.395  50.426  0.00  0.00    +0.000 N 
ATOM     16  C   UNL     1      -6.753  53.503  52.433  0.00  0.00    +0.000 A 
ATOM     17  C   UNL     1      -9.135  54.408  51.049  0.00  0.00    +0.000 C 
ATOM     18  C   UNL     1      -7.509  54.574  52.876  0.00  0.00    +0.000 A 
ATOM     19  C   UNL     1      -5.649  53.029  53.146  0.00  0.00    +0.000 A 
ATOM     20  N   UNL     1      -8.594  55.050  52.144  0.00  0.00    +0.000 N 
ATOM     21  C   UNL     1      -7.102  55.234  54.042  0.00  0.00    +0.000 A 
ATOM     22  C   UNL     1      -5.276  53.673  54.323  0.00  0.00    +0.000 A 
ATOM     23  C   UNL     1      -5.997  54.781  54.765  0.00  0.00    +0.000 A 
ATOM     24  H   UNL     1      -9.066  53.029  49.632  0.00  0.00    +0.000 HD
ATOM     25  H   UNL     1      -9.001  55.900  52.426  0.00  0.00    +0.000 HD
ENDBRANCH   1  17
BRANCH   3  26
ATOM     26  O   UNL     1      -9.612  55.114  48.270  0.00  0.00    +0.000 OA
ATOM     27  H   UNL     1      -9.674  55.581  47.460  0.00  0.00    +0.000 HD
ENDBRANCH   3  26
BRANCH   5  28
ATOM     28  N   UNL     1     -13.896  55.860  51.892  0.00  0.00    +0.000 N 
ATOM     29  H   UNL     1     -14.616  55.196  51.988  0.00  0.00    +0.000 HD
BRANCH  28  30
ATOM     30  C   UNL     1     -13.869  57.125  52.636  0.00  0.00    +0.000 C 
BRANCH  30  31
ATOM     31  C   UNL     1     -15.104  57.923  52.353  0.00  0.00    +0.000 C 
ATOM     32  C   UNL     1     -15.083  59.207  51.572  0.00  0.00    +0.000 C 
ATOM     33  C   UNL     1     -15.297  59.243  53.058  0.00  0.00    +0.000 C 
ENDBRANCH  30  31
ENDBRANCH  28  30
ENDBRANCH   5  28
TORSDOF 5
ENDMDL
MODEL 5
REMARK VINA RESULT:      -8.0      3.421      7.640
REMARK  Name = 
REMARK  5 active torsions:
REMARK  status: ('A' for Active; 'I' for Inactive)
REMARK    1  A    between atoms: C_6  and  C_10
REMARK    2  A    between atoms: C_14  and  O_18
REMARK    3  A    between atoms: N_17  and  N_20
REMARK    4  A    between atoms: N_20  and  C_23
REMARK    5  A    between atoms: C_23  and  C_26
REMARK                            x       y       z     vdW  Elec       q    Type
REMARK                         _______ _______ _______ _____ _____    ______ ____
ROOT
ATOM      1  C   UNL     1     -10.198  55.236  50.712  0.00  0.00    +0.000 A 
ATOM      2  C   UNL     1      -9.764  55.153  49.288  0.00  0.00    +0.000 A 
ATOM      3  C   UNL     1     -11.413  55.718  51.027  0.00  0.00    +0.000 A 
ATOM      4  O   UNL     1      -8.627  54.723  49.068  0.00  0.00    +0.000 OA
ATOM      5  N   UNL     1     -10.671  55.534  48.295  0.00  0.00    +0.000 N 
ATOM      6  C   UNL     1     -12.347  56.136  49.973  0.00  0.00    +0.000 A 
ATOM      7  C   UNL     1     -11.965  56.043  48.621  0.00  0.00    +0.000 A 
ATOM      8  C   UNL     1     -13.629  56.611  50.300  0.00  0.00    +0.000 A 
ATOM      9  C   UNL     1     -12.875  56.443  47.629  0.00  0.00    +0.000 A 
ATOM     10  C   UNL     1     -14.529  56.984  49.306  0.00  0.00    +0.000 A 
ATOM     11  C   UNL     1     -14.150  56.903  47.969  0.00  0.00    +0.000 A 
ENDROOT
BRANCH   1  17
ATOM     12  S   UNL     1      -7.036  54.833  53.005  0.00  0.00    +0.000 S 
ATOM     13  O   UNL     1      -7.007  55.800  54.090  0.00  0.00    +0.000 OA
ATOM     14  O   UNL     1      -5.826  54.505  52.282  0.00  0.00    +0.000 OA
ATOM     15  N   UNL     1      -8.140  55.336  51.931  0.00  0.00    +0.000 N 
ATOM     16  C   UNL     1      -7.600  53.329  53.715  0.00  0.00    +0.000 A 
ATOM     17  C   UNL     1      -9.268  54.708  51.784  0.00  0.00    +0.000 C 
ATOM     18  C   UNL     1      -8.864  52.882  53.369  0.00  0.00    +0.000 A 
ATOM     19  C   UNL     1      -6.776  52.618  54.591  0.00  0.00    +0.000 A 
ATOM     20  N   UNL     1      -9.683  53.612  52.511  0.00  0.00    +0.000 N 
ATOM     21  C   UNL     1      -9.342  51.714  53.975  0.00  0.00    +0.000 A 
ATOM     22  C   UNL     1      -7.251  51.439  55.160  0.00  0.00    +0.000 A 
ATOM     23  C   UNL     1      -8.536  50.992  54.859  0.00  0.00    +0.000 A 
ATOM     24  H   UNL     1      -7.953  56.130  51.380  0.00  0.00    +0.000 HD
ATOM     25  H   UNL     1     -10.620  53.326  52.418  0.00  0.00    +0.000 HD
ENDBRANCH   1  17
BRANCH   3  26
ATOM     26  O   UNL     1     -11.898  55.826  52.319  0.00  0.00    +0.000 OA
ATOM     27  H   UNL     1     -11.718  56.594  52.824  0.00  0.00    +0.000 HD
ENDBRANCH   3  26
BRANCH   5  28
ATOM     28  N   UNL     1     -10.291  55.487  46.903  0.00  0.00    +0.000 N 
ATOM     29  H   UNL     1     -10.111  56.294  46.370  0.00  0.00    +0.000 HD
BRANCH  28  30
ATOM     30  C   UNL     1     -10.197  54.129  46.356  0.00  0.00    +0.000 C 
BRANCH  30  31
ATOM     31  C   UNL     1     -11.241  53.916  45.304  0.00  0.00    +0.000 C 
ATOM     32  C   UNL     1     -12.020  52.637  45.176  0.00  0.00    +0.000 C 
ATOM     33  C   UNL     1     -10.952  52.961  44.171  0.00  0.00    +0.000 C 
ENDBRANCH  30  31
ENDBRANCH  28  30
ENDBRANCH   5  28
TORSDOF 5
ENDMDL
MODEL 6
REMARK VINA RESULT:      -8.0      2.867      7.307
REMARK  Name = 
REMARK  5 active torsions:
REMARK  status: ('A' for Active; 'I' for Inactive)
REMARK    1  A    between atoms: C_6  and  C_10
REMARK    2  A    between atoms: C_14  and  O_18
REMARK    3  A    between atoms: N_17  and  N_20
REMARK    4  A    between atoms: N_20  and  C_23
REMARK    5  A    between atoms: C_23  and  C_26
REMARK                            x       y       z     vdW  Elec       q    Type
REMARK                         _______ _______ _______ _____ _____    ______ ____
ROOT
ATOM      1  C   UNL     1     -10.213  54.932  50.896  0.00  0.00    +0.000 A 
ATOM      2  C   UNL     1     -11.513  55.480  51.378  0.00  0.00    +0.000 A 
ATOM      3  C   UNL     1      -9.955  54.844  49.580  0.00  0.00    +0.000 A 
ATOM      4  O   UNL     1     -11.695  55.512  52.599  0.00  0.00    +0.000 OA
ATOM      5  N   UNL     1     -12.426  55.950  50.428  0.00  0.00    +0.000 N 
ATOM      6  C   UNL     1     -10.935  55.319  48.594  0.00  0.00    +0.000 A 
ATOM      7  C   UNL     1     -12.159  55.864  49.028  0.00  0.00    +0.000 A 
ATOM      8  C   UNL     1     -10.654  55.256  47.218  0.00  0.00    +0.000 A 
ATOM      9  C   UNL     1     -13.079  56.318  48.069  0.00  0.00    +0.000 A 
ATOM     10  C   UNL     1     -11.566  55.730  46.279  0.00  0.00    +0.000 A 
ATOM     11  C   UNL     1     -12.780  56.258  46.705  0.00  0.00    +0.000 A 
ENDROOT
BRANCH   1  17
ATOM     12  S   UNL     1      -6.873  54.899  52.961  0.00  0.00    +0.000 S 
ATOM     13  O   UNL     1      -6.842  55.927  53.987  0.00  0.00    +0.000 OA
ATOM     14  O   UNL     1      -5.695  54.618  52.167  0.00  0.00    +0.000 OA
ATOM     15  N   UNL     1      -8.086  55.254  51.949  0.00  0.00    +0.000 N 
ATOM     16  C   UNL     1      -7.266  53.402  53.791  0.00  0.00    +0.000 A 
ATOM     17  C   UNL     1      -9.170  54.538  51.921  0.00  0.00    +0.000 C 
ATOM     18  C   UNL     1      -8.513  52.843  53.566  0.00  0.00    +0.000 A 
ATOM     19  C   UNL     1      -6.329  52.806  54.639  0.00  0.00    +0.000 A 
ATOM     20  N   UNL     1      -9.445  53.459  52.735  0.00  0.00    +0.000 N 
ATOM     21  C   UNL     1      -8.854  51.681  54.269  0.00  0.00    +0.000 A 
ATOM     22  C   UNL     1      -6.668  51.632  55.305  0.00  0.00    +0.000 A 
ATOM     23  C   UNL     1      -7.934  51.074  55.126  0.00  0.00    +0.000 A 
ATOM     24  H   UNL     1      -8.002  56.026  51.343  0.00  0.00    +0.000 HD
ATOM     25  H   UNL     1     -10.362  53.100  52.729  0.00  0.00    +0.000 HD
ENDBRANCH   1  17
BRANCH   3  26
ATOM     26  O   UNL     1      -8.776  54.353  49.048  0.00  0.00    +0.000 OA
ATOM     27  H   UNL     1      -8.575  53.440  49.117  0.00  0.00    +0.000 HD
ENDBRANCH   3  26
BRANCH   5  28
ATOM     28  N   UNL     1     -13.705  56.474  50.844  0.00  0.00    +0.000 N 
ATOM     29  H   UNL     1     -14.500  55.909  50.971  0.00  0.00    +0.000 HD
BRANCH  28  30
ATOM     30  C   UNL     1     -13.712  57.926  51.060  0.00  0.00    +0.000 C 
BRANCH  30  31
ATOM     31  C   UNL     1     -14.033  58.240  52.489  0.00  0.00    +0.000 C 
ATOM     32  C   UNL     1     -15.249  57.699  53.189  0.00  0.00    +0.000 C 
ATOM     33  C   UNL     1     -15.200  59.148  52.793  0.00  0.00    +0.000 C 
ENDBRANCH  30  31
ENDBRANCH  28  30
ENDBRANCH   5  28
TORSDOF 5
ENDMDL
MODEL 7
REMARK VINA RESULT:      -7.8      3.171      4.899
REMARK  Name = 
REMARK  5 active torsions:
REMARK  status: ('A' for Active; 'I' for Inactive)
REMARK    1  A    between atoms: C_6  and  C_10
REMARK    2  A    between atoms: C_14  and  O_18
REMARK    3  A    between atoms: N_17  and  N_20
REMARK    4  A    between atoms: N_20  and  C_23
REMARK    5  A    between atoms: C_23  and  C_26
REMARK                            x       y       z     vdW  Elec       q    Type
REMARK                         _______ _______ _______ _____ _____    ______ ____
ROOT
ATOM      1  C   UNL     1     -12.280  54.165  50.024  0.00  0.00    +0.000 A 
ATOM      2  C   UNL     1     -11.942  53.866  48.602  0.00  0.00    +0.000 A 
ATOM      3  C   UNL     1     -11.807  53.389  51.015  0.00  0.00    +0.000 A 
ATOM      4  O   UNL     1     -12.428  54.603  47.739  0.00  0.00    +0.000 OA
ATOM      5  N   UNL     1     -11.080  52.798  48.338  0.00  0.00    +0.000 N 
ATOM      6  C   UNL     1     -10.921  52.256  50.718  0.00  0.00    +0.000 A 
ATOM      7  C   UNL     1     -10.569  51.972  49.385  0.00  0.00    +0.000 A 
ATOM      8  C   UNL     1     -10.401  51.463  51.756  0.00  0.00    +0.000 A 
ATOM      9  C   UNL     1      -9.717  50.887  49.123  0.00  0.00    +0.000 A 
ATOM     10  C   UNL     1      -9.538  50.405  51.484  0.00  0.00    +0.000 A 
ATOM     11  C   UNL     1      -9.199  50.115  50.167  0.00  0.00    +0.000 A 
ENDROOT
BRANCH   1  17
ATOM     12  S   UNL     1     -15.265  56.417  51.223  0.00  0.00    +0.000 S 
ATOM     13  O   UNL     1     -15.276  56.607  52.664  0.00  0.00    +0.000 OA
ATOM     14  O   UNL     1     -16.500  56.185  50.504  0.00  0.00    +0.000 OA
ATOM     15  N   UNL     1     -14.259  55.189  50.900  0.00  0.00    +0.000 N 
ATOM     16  C   UNL     1     -14.579  57.885  50.547  0.00  0.00    +0.000 A 
ATOM     17  C   UNL     1     -13.112  55.394  50.327  0.00  0.00    +0.000 C 
ATOM     18  C   UNL     1     -13.318  57.812  49.981  0.00  0.00    +0.000 A 
ATOM     19  C   UNL     1     -15.307  59.077  50.583  0.00  0.00    +0.000 A 
ATOM     20  N   UNL     1     -12.594  56.622  49.972  0.00  0.00    +0.000 N 
ATOM     21  C   UNL     1     -12.742  58.991  49.492  0.00  0.00    +0.000 A 
ATOM     22  C   UNL     1     -14.736  60.235  50.062  0.00  0.00    +0.000 A 
ATOM     23  C   UNL     1     -13.451  60.193  49.525  0.00  0.00    +0.000 A 
ATOM     24  H   UNL     1     -14.522  54.271  51.141  0.00  0.00    +0.000 HD
ATOM     25  H   UNL     1     -11.651  56.661  49.693  0.00  0.00    +0.000 HD
ENDBRANCH   1  17
BRANCH   3  26
ATOM     26  O   UNL     1     -12.067  53.596  52.358  0.00  0.00    +0.000 OA
ATOM     27  H   UNL     1     -12.804  53.182  52.763  0.00  0.00    +0.000 HD
ENDBRANCH   3  26
BRANCH   5  28
ATOM     28  N   UNL     1     -10.737  52.459  46.977  0.00  0.00    +0.000 N 
ATOM     29  H   UNL     1     -11.232  51.792  46.449  0.00  0.00    +0.000 HD
BRANCH  28  30
ATOM     30  C   UNL     1      -9.582  53.198  46.451  0.00  0.00    +0.000 C 
BRANCH  30  31
ATOM     31  C   UNL     1      -9.845  53.647  45.047  0.00  0.00    +0.000 C 
ATOM     32  C   UNL     1     -10.494  52.764  44.017  0.00  0.00    +0.000 C 
ATOM     33  C   UNL     1      -9.024  53.058  43.926  0.00  0.00    +0.000 C 
ENDBRANCH  30  31
ENDBRANCH  28  30
ENDBRANCH   5  28
TORSDOF 5
ENDMDL
MODEL 8
REMARK VINA RESULT:      -7.8      3.434      4.227
REMARK  Name = 
REMARK  5 active torsions:
REMARK  status: ('A' for Active; 'I' for Inactive)
REMARK    1  A    between atoms: C_6  and  C_10
REMARK    2  A    between atoms: C_14  and  O_18
REMARK    3  A    between atoms: N_17  and  N_20
REMARK    4  A    between atoms: N_20  and  C_23
REMARK    5  A    between atoms: C_23  and  C_26
REMARK                            x       y       z     vdW  Elec       q    Type
REMARK                         _______ _______ _______ _____ _____    ______ ____
ROOT
ATOM      1  C   UNL     1     -11.582  55.943  48.779  0.00  0.00    +0.000 A 
ATOM      2  C   UNL     1     -10.528  55.314  49.627  0.00  0.00    +0.000 A 
ATOM      3  C   UNL     1     -11.718  55.594  47.489  0.00  0.00    +0.000 A 
ATOM      4  O   UNL     1     -10.442  55.696  50.798  0.00  0.00    +0.000 OA
ATOM      5  N   UNL     1      -9.729  54.317  49.058  0.00  0.00    +0.000 N 
ATOM      6  C   UNL     1     -10.854  54.562  46.899  0.00  0.00    +0.000 A 
ATOM      7  C   UNL     1      -9.869  53.937  47.689  0.00  0.00    +0.000 A 
ATOM      8  C   UNL     1     -11.015  54.174  45.558  0.00  0.00    +0.000 A 
ATOM      9  C   UNL     1      -9.058  52.949  47.108  0.00  0.00    +0.000 A 
ATOM     10  C   UNL     1     -10.220  53.177  45.001  0.00  0.00    +0.000 A 
ATOM     11  C   UNL     1      -9.238  52.567  45.775  0.00  0.00    +0.000 A 
ENDROOT
BRANCH   1  17
ATOM     12  S   UNL     1     -13.569  59.258  49.476  0.00  0.00    +0.000 S 
ATOM     13  O   UNL     1     -14.715  59.416  48.596  0.00  0.00    +0.000 OA
ATOM     14  O   UNL     1     -12.726  60.391  49.793  0.00  0.00    +0.000 OA
ATOM     15  N   UNL     1     -12.630  58.094  48.851  0.00  0.00    +0.000 N 
ATOM     16  C   UNL     1     -14.211  58.687  51.006  0.00  0.00    +0.000 A 
ATOM     17  C   UNL     1     -12.532  56.932  49.422  0.00  0.00    +0.000 C 
ATOM     18  C   UNL     1     -13.940  57.381  51.378  0.00  0.00    +0.000 A 
ATOM     19  C   UNL     1     -14.962  59.546  51.813  0.00  0.00    +0.000 A 
ATOM     20  N   UNL     1     -13.209  56.529  50.554  0.00  0.00    +0.000 N 
ATOM     21  C   UNL     1     -14.497  56.902  52.570  0.00  0.00    +0.000 A 
ATOM     22  C   UNL     1     -15.481  59.067  53.013  0.00  0.00    +0.000 A 
ATOM     23  C   UNL     1     -15.256  57.743  53.387  0.00  0.00    +0.000 A 
ATOM     24  H   UNL     1     -12.125  58.271  48.025  0.00  0.00    +0.000 HD
ATOM     25  H   UNL     1     -13.174  55.575  50.797  0.00  0.00    +0.000 HD
ENDBRANCH   1  17
BRANCH   3  26
ATOM     26  O   UNL     1     -12.669  56.123  46.634  0.00  0.00    +0.000 OA
ATOM     27  H   UNL     1     -13.008  56.983  46.785  0.00  0.00    +0.000 HD
ENDBRANCH   3  26
BRANCH   5  28
ATOM     28  N   UNL     1      -8.685  53.690  49.833  0.00  0.00    +0.000 N 
ATOM     29  H   UNL     1      -8.673  52.728  50.038  0.00  0.00    +0.000 HD
BRANCH  28  30
ATOM     30  C   UNL     1      -7.642  54.618  50.289  0.00  0.00    +0.000 C 
BRANCH  30  31
ATOM     31  C   UNL     1      -6.788  55.050  49.137  0.00  0.00    +0.000 C 
ATOM     32  C   UNL     1      -5.842  54.119  48.430  0.00  0.00    +0.000 C 
ATOM     33  C   UNL     1      -5.299  55.182  49.342  0.00  0.00    +0.000 C 
ENDBRANCH  30  31
ENDBRANCH  28  30
ENDBRANCH   5  28
TORSDOF 5
ENDMDL
MODEL 9
REMARK VINA RESULT:      -7.7      3.360      7.714
REMARK  Name = 
REMARK  5 active torsions:
REMARK  status: ('A' for Active; 'I' for Inactive)
REMARK    1  A    between atoms: C_6  and  C_10
REMARK    2  A    between atoms: C_14  and  O_18
REMARK    3  A    between atoms: N_17  and  N_20
REMARK    4  A    between atoms: N_20  and  C_23
REMARK    5  A    between atoms: C_23  and  C_26
REMARK                            x       y       z     vdW  Elec       q    Type
REMARK                         _______ _______ _______ _____ _____    ______ ____
ROOT
ATOM      1  C   UNL     1      -9.357  54.911  50.817  0.00  0.00    +0.000 A 
ATOM      2  C   UNL     1     -10.646  55.041  51.557  0.00  0.00    +0.000 A 
ATOM      3  C   UNL     1      -9.323  55.035  49.479  0.00  0.00    +0.000 A 
ATOM      4  O   UNL     1     -10.611  54.892  52.782  0.00  0.00    +0.000 OA
ATOM      5  N   UNL     1     -11.798  55.350  50.828  0.00  0.00    +0.000 N 
ATOM      6  C   UNL     1     -10.547  55.337  48.726  0.00  0.00    +0.000 A 
ATOM      7  C   UNL     1     -11.770  55.488  49.407  0.00  0.00    +0.000 A 
ATOM      8  C   UNL     1     -10.508  55.498  47.330  0.00  0.00    +0.000 A 
ATOM      9  C   UNL     1     -12.928  55.782  48.669  0.00  0.00    +0.000 A 
ATOM     10  C   UNL     1     -11.659  55.811  46.613  0.00  0.00    +0.000 A 
ATOM     11  C   UNL     1     -12.870  55.950  47.282  0.00  0.00    +0.000 A 
ENDROOT
BRANCH   1  17
ATOM     12  S   UNL     1      -6.594  55.346  53.573  0.00  0.00    +0.000 S 
ATOM     13  O   UNL     1      -6.950  54.702  54.826  0.00  0.00    +0.000 OA
ATOM     14  O   UNL     1      -5.965  56.650  53.571  0.00  0.00    +0.000 OA
ATOM     15  N   UNL     1      -7.936  55.437  52.671  0.00  0.00    +0.000 N 
ATOM     16  C   UNL     1      -5.466  54.262  52.776  0.00  0.00    +0.000 A 
ATOM     17  C   UNL     1      -8.085  54.700  51.612  0.00  0.00    +0.000 C 
ATOM     18  C   UNL     1      -5.896  53.599  51.640  0.00  0.00    +0.000 A 
ATOM     19  C   UNL     1      -4.175  54.098  53.287  0.00  0.00    +0.000 A 
ATOM     20  N   UNL     1      -7.191  53.755  51.154  0.00  0.00    +0.000 N 
ATOM     21  C   UNL     1      -5.021  52.689  51.033  0.00  0.00    +0.000 A 
ATOM     22  C   UNL     1      -3.304  53.216  52.654  0.00  0.00    +0.000 A 
ATOM     23  C   UNL     1      -3.729  52.506  51.533  0.00  0.00    +0.000 A 
ATOM     24  H   UNL     1      -8.652  56.063  52.930  0.00  0.00    +0.000 HD
ATOM     25  H   UNL     1      -7.488  53.150  50.437  0.00  0.00    +0.000 HD
ENDBRANCH   1  17
BRANCH   3  26
ATOM     26  O   UNL     1      -8.173  54.933  48.716  0.00  0.00    +0.000 OA
ATOM     27  H   UNL     1      -7.457  55.518  48.868  0.00  0.00    +0.000 HD
ENDBRANCH   3  26
BRANCH   5  28
ATOM     28  N   UNL     1     -13.072  55.470  51.497  0.00  0.00    +0.000 N 
ATOM     29  H   UNL     1     -13.773  54.781  51.442  0.00  0.00    +0.000 HD
BRANCH  28  30
ATOM     30  C   UNL     1     -13.229  56.711  52.265  0.00  0.00    +0.000 C 
BRANCH  30  31
ATOM     31  C   UNL     1     -14.557  57.340  51.975  0.00  0.00    +0.000 C 
ATOM     32  C   UNL     1     -14.908  58.736  52.409  0.00  0.00    +0.000 C 
ATOM     33  C   UNL     1     -15.523  57.561  53.113  0.00  0.00    +0.000 C 
ENDBRANCH  30  31
ENDBRANCH  28  30
ENDBRANCH   5  28
TORSDOF 5
ENDMDL
