MODEL 1
REMARK VINA RESULT:      -9.4      0.000      0.000
REMARK  Name = 
REMARK  5 active torsions:
REMARK  status: ('A' for Active; 'I' for Inactive)
REMARK    1  A    between atoms: C_7  and  C_8
REMARK    2  A    between atoms: C_8  and  N_9
REMARK    3  A    between atoms: N_9  and  N_10
REMARK    4  A    between atoms: C_14  and  C_17
REMARK    5  A    between atoms: C_18  and  O_23
REMARK                            x       y       z     vdW  Elec       q    Type
REMARK                         _______ _______ _______ _____ _____    ______ ____
ROOT
ATOM      1  N   UNL     1     -10.027  54.465  49.510  0.00  0.00    +0.000 N 
ATOM      2  C   UNL     1     -10.950  55.312  50.120  0.00  0.00    +0.000 A 
ATOM      3  C   UNL     1     -10.146  53.050  49.605  0.00  0.00    +0.000 A 
ATOM      4  O   UNL     1     -10.861  56.539  50.035  0.00  0.00    +0.000 OA
ATOM      5  C   UNL     1     -12.098  54.676  50.844  0.00  0.00    +0.000 A 
ATOM      6  C   UNL     1     -11.088  52.498  50.490  0.00  0.00    +0.000 A 
ATOM      7  C   UNL     1      -9.400  52.199  48.778  0.00  0.00    +0.000 A 
ATOM      8  C   UNL     1     -12.039  53.377  51.184  0.00  0.00    +0.000 A 
ATOM      9  C   UNL     1     -11.257  51.104  50.539  0.00  0.00    +0.000 A 
ATOM     10  C   UNL     1      -9.629  50.823  48.787  0.00  0.00    +0.000 A 
ATOM     11  C   UNL     1     -10.552  50.274  49.670  0.00  0.00    +0.000 A 
ENDROOT
BRANCH   5  12
ATOM     12  C   UNL     1     -13.289  55.514  51.216  0.00  0.00    +0.000 C 
ATOM     13  N   UNL     1     -13.233  56.339  52.233  0.00  0.00    +0.000 N 
ATOM     14  N   UNL     1     -14.417  55.457  50.401  0.00  0.00    +0.000 N 
ATOM     15  S   UNL     1     -14.529  57.353  52.400  0.00  0.00    +0.000 S 
ATOM     16  C   UNL     1     -14.605  56.743  49.822  0.00  0.00    +0.000 A 
ATOM     17  O   UNL     1     -14.106  58.536  53.118  0.00  0.00    +0.000 OA
ATOM     18  O   UNL     1     -15.694  56.583  52.797  0.00  0.00    +0.000 OA
ATOM     19  C   UNL     1     -14.792  57.822  50.694  0.00  0.00    +0.000 A 
ATOM     20  C   UNL     1     -14.134  56.977  48.534  0.00  0.00    +0.000 A 
ATOM     21  C   UNL     1     -14.664  59.136  50.273  0.00  0.00    +0.000 A 
ATOM     22  C   UNL     1     -13.904  58.286  48.125  0.00  0.00    +0.000 A 
ATOM     23  C   UNL     1     -14.206  59.361  48.973  0.00  0.00    +0.000 A 
ATOM     24  H   UNL     1     -12.469  56.356  52.854  0.00  0.00    +0.000 HD
ATOM     25  H   UNL     1     -14.984  54.666  50.251  0.00  0.00    +0.000 HD
ENDBRANCH   5  12
BRANCH   1  26
ATOM     26  N   UNL     1      -9.199  55.011  48.474  0.00  0.00    +0.000 N 
ATOM     27  H   UNL     1      -8.217  55.026  48.533  0.00  0.00    +0.000 HD
BRANCH  26  28
ATOM     28  C   UNL     1      -9.932  55.544  47.315  0.00  0.00    +0.000 C 
BRANCH  28  35
ATOM     29 BR   UNL     1      -9.951  51.358  42.729  0.00  0.00    +0.000 Br
ATOM     30  C   UNL     1      -9.934  52.641  44.118  0.00  0.00    +0.000 A 
ATOM     31  C   UNL     1      -8.725  53.164  44.568  0.00  0.00    +0.000 A 
ATOM     32  C   UNL     1     -11.138  53.057  44.683  0.00  0.00    +0.000 A 
ATOM     33  C   UNL     1      -8.713  54.103  45.603  0.00  0.00    +0.000 A 
ATOM     34  C   UNL     1     -11.127  53.993  45.718  0.00  0.00    +0.000 A 
ATOM     35  C   UNL     1      -9.920  54.522  46.192  0.00  0.00    +0.000 A 
ENDBRANCH  28  35
ENDBRANCH  26  28
ENDBRANCH   1  26
BRANCH   8  36
ATOM     36  O   UNL     1     -12.924  52.734  52.033  0.00  0.00    +0.000 OA
ATOM     37  H   UNL     1     -12.730  51.873  52.346  0.00  0.00    +0.000 HD
ENDBRANCH   8  36
TORSDOF 5
ENDMDL
MODEL 2
REMARK VINA RESULT:      -9.0      2.467      5.578
REMARK  Name = 
REMARK  5 active torsions:
REMARK  status: ('A' for Active; 'I' for Inactive)
REMARK    1  A    between atoms: C_7  and  C_8
REMARK    2  A    between atoms: C_8  and  N_9
REMARK    3  A    between atoms: N_9  and  N_10
REMARK    4  A    between atoms: C_14  and  C_17
REMARK    5  A    between atoms: C_18  and  O_23
REMARK                            x       y       z     vdW  Elec       q    Type
REMARK                         _______ _______ _______ _____ _____    ______ ____
ROOT
ATOM      1  N   UNL     1     -13.034  55.805  48.810  0.00  0.00    +0.000 N 
ATOM      2  C   UNL     1     -12.491  54.868  49.689  0.00  0.00    +0.000 A 
ATOM      3  C   UNL     1     -13.536  57.052  49.275  0.00  0.00    +0.000 A 
ATOM      4  O   UNL     1     -12.045  53.790  49.295  0.00  0.00    +0.000 OA
ATOM      5  C   UNL     1     -12.417  55.244  51.138  0.00  0.00    +0.000 A 
ATOM      6  C   UNL     1     -13.673  57.265  50.658  0.00  0.00    +0.000 A 
ATOM      7  C   UNL     1     -13.822  58.099  48.388  0.00  0.00    +0.000 A 
ATOM      8  C   UNL     1     -13.153  56.268  51.604  0.00  0.00    +0.000 A 
ATOM      9  C   UNL     1     -14.103  58.518  51.125  0.00  0.00    +0.000 A 
ATOM     10  C   UNL     1     -14.181  59.358  48.870  0.00  0.00    +0.000 A 
ATOM     11  C   UNL     1     -14.327  59.567  50.237  0.00  0.00    +0.000 A 
ENDROOT
BRANCH   5  12
ATOM     12  C   UNL     1     -11.545  54.443  52.063  0.00  0.00    +0.000 C 
ATOM     13  N   UNL     1     -11.583  53.133  52.046  0.00  0.00    +0.000 N 
ATOM     14  N   UNL     1     -10.635  55.123  52.868  0.00  0.00    +0.000 N 
ATOM     15  S   UNL     1     -10.425  52.375  52.953  0.00  0.00    +0.000 S 
ATOM     16  C   UNL     1      -9.324  54.738  52.472  0.00  0.00    +0.000 A 
ATOM     17  O   UNL     1     -10.196  51.054  52.408  0.00  0.00    +0.000 OA
ATOM     18  O   UNL     1     -10.699  52.592  54.362  0.00  0.00    +0.000 OA
ATOM     19  C   UNL     1      -8.999  53.378  52.555  0.00  0.00    +0.000 A 
ATOM     20  C   UNL     1      -8.614  55.560  51.602  0.00  0.00    +0.000 A 
ATOM     21  C   UNL     1      -7.893  52.848  51.909  0.00  0.00    +0.000 A 
ATOM     22  C   UNL     1      -7.563  55.022  50.869  0.00  0.00    +0.000 A 
ATOM     23  C   UNL     1      -7.178  53.686  51.051  0.00  0.00    +0.000 A 
ATOM     24  H   UNL     1     -12.254  52.632  51.528  0.00  0.00    +0.000 HD
ATOM     25  H   UNL     1     -10.860  55.760  53.585  0.00  0.00    +0.000 HD
ENDBRANCH   5  12
BRANCH   1  26
ATOM     26  N   UNL     1     -12.726  55.671  47.415  0.00  0.00    +0.000 N 
ATOM     27  H   UNL     1     -13.402  55.420  46.745  0.00  0.00    +0.000 HD
BRANCH  26  28
ATOM     28  C   UNL     1     -11.323  55.941  47.065  0.00  0.00    +0.000 C 
BRANCH  28  35
ATOM     29 BR   UNL     1      -9.127  51.436  43.400  0.00  0.00    +0.000 Br
ATOM     30  C   UNL     1      -9.807  52.799  44.521  0.00  0.00    +0.000 A 
ATOM     31  C   UNL     1     -11.179  53.033  44.578  0.00  0.00    +0.000 A 
ATOM     32  C   UNL     1      -8.928  53.562  45.286  0.00  0.00    +0.000 A 
ATOM     33  C   UNL     1     -11.680  54.048  45.397  0.00  0.00    +0.000 A 
ATOM     34  C   UNL     1      -9.427  54.578  46.102  0.00  0.00    +0.000 A 
ATOM     35  C   UNL     1     -10.802  54.836  46.165  0.00  0.00    +0.000 A 
ENDBRANCH  28  35
ENDBRANCH  26  28
ENDBRANCH   1  26
BRANCH   8  36
ATOM     36  O   UNL     1     -13.339  56.573  52.941  0.00  0.00    +0.000 OA
ATOM     37  H   UNL     1     -14.017  56.149  53.429  0.00  0.00    +0.000 HD
ENDBRANCH   8  36
TORSDOF 5
ENDMDL
MODEL 3
REMARK VINA RESULT:      -8.8      4.011      7.478
REMARK  Name = 
REMARK  5 active torsions:
REMARK  status: ('A' for Active; 'I' for Inactive)
REMARK    1  A    between atoms: C_7  and  C_8
REMARK    2  A    between atoms: C_8  and  N_9
REMARK    3  A    between atoms: N_9  and  N_10
REMARK    4  A    between atoms: C_14  and  C_17
REMARK    5  A    between atoms: C_18  and  O_23
REMARK                            x       y       z     vdW  Elec       q    Type
REMARK                         _______ _______ _______ _____ _____    ______ ____
ROOT
ATOM      1  N   UNL     1     -11.054  55.473  47.734  0.00  0.00    +0.000 N 
ATOM      2  C   UNL     1     -10.253  55.853  48.810  0.00  0.00    +0.000 A 
ATOM      3  C   UNL     1     -10.504  54.819  46.597  0.00  0.00    +0.000 A 
ATOM      4  O   UNL     1     -10.723  56.411  49.804  0.00  0.00    +0.000 OA
ATOM      5  C   UNL     1      -8.797  55.505  48.744  0.00  0.00    +0.000 A 
ATOM      6  C   UNL     1      -9.107  54.731  46.464  0.00  0.00    +0.000 A 
ATOM      7  C   UNL     1     -11.323  54.192  45.649  0.00  0.00    +0.000 A 
ATOM      8  C   UNL     1      -8.240  55.172  47.566  0.00  0.00    +0.000 A 
ATOM      9  C   UNL     1      -8.558  54.027  45.379  0.00  0.00    +0.000 A 
ATOM     10  C   UNL     1     -10.765  53.438  44.617  0.00  0.00    +0.000 A 
ATOM     11  C   UNL     1      -9.384  53.359  44.478  0.00  0.00    +0.000 A 
ENDROOT
BRANCH   5  12
ATOM     12  C   UNL     1      -7.966  55.572  49.994  0.00  0.00    +0.000 C 
ATOM     13  N   UNL     1      -8.398  55.039  51.111  0.00  0.00    +0.000 N 
ATOM     14  N   UNL     1      -6.694  56.132  49.912  0.00  0.00    +0.000 N 
ATOM     15  S   UNL     1      -7.301  54.992  52.348  0.00  0.00    +0.000 S 
ATOM     16  C   UNL     1      -5.746  55.112  50.205  0.00  0.00    +0.000 A 
ATOM     17  O   UNL     1      -7.657  53.913  53.245  0.00  0.00    +0.000 OA
ATOM     18  O   UNL     1      -7.051  56.341  52.822  0.00  0.00    +0.000 OA
ATOM     19  C   UNL     1      -5.833  54.490  51.457  0.00  0.00    +0.000 A 
ATOM     20  C   UNL     1      -5.125  54.447  49.152  0.00  0.00    +0.000 A 
ATOM     21  C   UNL     1      -5.191  53.292  51.727  0.00  0.00    +0.000 A 
ATOM     22  C   UNL     1      -4.561  53.197  49.380  0.00  0.00    +0.000 A 
ATOM     23  C   UNL     1      -4.557  52.641  50.668  0.00  0.00    +0.000 A 
ATOM     24  H   UNL     1      -9.313  54.689  51.207  0.00  0.00    +0.000 HD
ATOM     25  H   UNL     1      -6.486  57.068  49.689  0.00  0.00    +0.000 HD
ENDBRANCH   5  12
BRANCH   1  26
ATOM     26  N   UNL     1     -12.470  55.392  47.948  0.00  0.00    +0.000 N 
ATOM     27  H   UNL     1     -12.910  54.578  48.283  0.00  0.00    +0.000 HD
BRANCH  26  28
ATOM     28  C   UNL     1     -13.213  56.621  47.630  0.00  0.00    +0.000 C 
BRANCH  28  35
ATOM     29 BR   UNL     1     -15.316  59.146  52.898  0.00  0.00    +0.000 Br
ATOM     30  C   UNL     1     -14.663  58.386  51.295  0.00  0.00    +0.000 A 
ATOM     31  C   UNL     1     -14.066  59.197  50.333  0.00  0.00    +0.000 A 
ATOM     32  C   UNL     1     -14.782  57.013  51.087  0.00  0.00    +0.000 A 
ATOM     33  C   UNL     1     -13.595  58.636  49.143  0.00  0.00    +0.000 A 
ATOM     34  C   UNL     1     -14.314  56.453  49.898  0.00  0.00    +0.000 A 
ATOM     35  C   UNL     1     -13.721  57.254  48.913  0.00  0.00    +0.000 A 
ENDBRANCH  28  35
ENDBRANCH  26  28
ENDBRANCH   1  26
BRANCH   8  36
ATOM     36  O   UNL     1      -6.882  55.043  47.334  0.00  0.00    +0.000 OA
ATOM     37  H   UNL     1      -6.456  55.610  46.722  0.00  0.00    +0.000 HD
ENDBRANCH   8  36
TORSDOF 5
ENDMDL
MODEL 4
REMARK VINA RESULT:      -8.8      4.026      7.271
REMARK  Name = 
REMARK  5 active torsions:
REMARK  status: ('A' for Active; 'I' for Inactive)
REMARK    1  A    between atoms: C_7  and  C_8
REMARK    2  A    between atoms: C_8  and  N_9
REMARK    3  A    between atoms: N_9  and  N_10
REMARK    4  A    between atoms: C_14  and  C_17
REMARK    5  A    between atoms: C_18  and  O_23
REMARK                            x       y       z     vdW  Elec       q    Type
REMARK                         _______ _______ _______ _____ _____    ______ ____
ROOT
ATOM      1  N   UNL     1     -10.366  55.069  48.475  0.00  0.00    +0.000 N 
ATOM      2  C   UNL     1      -9.722  55.314  49.687  0.00  0.00    +0.000 A 
ATOM      3  C   UNL     1      -9.632  54.762  47.296  0.00  0.00    +0.000 A 
ATOM      4  O   UNL     1     -10.351  55.571  50.716  0.00  0.00    +0.000 OA
ATOM      5  C   UNL     1      -8.228  55.199  49.711  0.00  0.00    +0.000 A 
ATOM      6  C   UNL     1      -8.233  54.904  47.301  0.00  0.00    +0.000 A 
ATOM      7  C   UNL     1     -10.264  54.247  46.156  0.00  0.00    +0.000 A 
ATOM      8  C   UNL     1      -7.536  55.212  48.558  0.00  0.00    +0.000 A 
ATOM      9  C   UNL     1      -7.496  54.537  46.163  0.00  0.00    +0.000 A 
ATOM     10  C   UNL     1      -9.514  53.822  45.060  0.00  0.00    +0.000 A 
ATOM     11  C   UNL     1      -8.131  53.972  45.060  0.00  0.00    +0.000 A 
ENDROOT
BRANCH   5  12
ATOM     12  C   UNL     1      -7.518  55.109  51.032  0.00  0.00    +0.000 C 
ATOM     13  N   UNL     1      -8.006  55.702  52.094  0.00  0.00    +0.000 N 
ATOM     14  N   UNL     1      -6.381  54.309  51.117  0.00  0.00    +0.000 N 
ATOM     15  S   UNL     1      -7.248  55.347  53.520  0.00  0.00    +0.000 S 
ATOM     16  C   UNL     1      -6.661  53.244  52.017  0.00  0.00    +0.000 A 
ATOM     17  O   UNL     1      -8.182  55.548  54.607  0.00  0.00    +0.000 OA
ATOM     18  O   UNL     1      -5.923  55.937  53.521  0.00  0.00    +0.000 OA
ATOM     19  C   UNL     1      -7.015  53.583  53.329  0.00  0.00    +0.000 A 
ATOM     20  C   UNL     1      -7.048  52.010  51.502  0.00  0.00    +0.000 A 
ATOM     21  C   UNL     1      -7.611  52.673  54.187  0.00  0.00    +0.000 A 
ATOM     22  C   UNL     1      -7.736  51.120  52.319  0.00  0.00    +0.000 A 
ATOM     23  C   UNL     1      -7.980  51.432  53.665  0.00  0.00    +0.000 A 
ATOM     24  H   UNL     1      -8.774  56.316  52.046  0.00  0.00    +0.000 HD
ATOM     25  H   UNL     1      -5.533  54.454  50.638  0.00  0.00    +0.000 HD
ENDBRANCH   5  12
BRANCH   1  26
ATOM     26  N   UNL     1     -11.763  54.743  48.512  0.00  0.00    +0.000 N 
ATOM     27  H   UNL     1     -12.098  53.883  48.854  0.00  0.00    +0.000 HD
BRANCH  26  28
ATOM     28  C   UNL     1     -12.655  55.795  48.001  0.00  0.00    +0.000 C 
BRANCH  28  35
ATOM     29 BR   UNL     1     -15.143  58.857  52.794  0.00  0.00    +0.000 Br
ATOM     30  C   UNL     1     -14.374  57.935  51.333  0.00  0.00    +0.000 A 
ATOM     31  C   UNL     1     -13.912  58.645  50.228  0.00  0.00    +0.000 A 
ATOM     32  C   UNL     1     -14.272  56.546  51.374  0.00  0.00    +0.000 A 
ATOM     33  C   UNL     1     -13.356  57.962  49.144  0.00  0.00    +0.000 A 
ATOM     34  C   UNL     1     -13.719  55.863  50.291  0.00  0.00    +0.000 A 
ATOM     35  C   UNL     1     -13.259  56.558  49.165  0.00  0.00    +0.000 A 
ENDBRANCH  28  35
ENDBRANCH  26  28
ENDBRANCH   1  26
BRANCH   8  36
ATOM     36  O   UNL     1      -6.161  55.331  48.455  0.00  0.00    +0.000 OA
ATOM     37  H   UNL     1      -5.632  55.334  49.227  0.00  0.00    +0.000 HD
ENDBRANCH   8  36
TORSDOF 5
ENDMDL
MODEL 5
REMARK VINA RESULT:      -8.7      3.680      7.000
REMARK  Name = 
REMARK  5 active torsions:
REMARK  status: ('A' for Active; 'I' for Inactive)
REMARK    1  A    between atoms: C_7  and  C_8
REMARK    2  A    between atoms: C_8  and  N_9
REMARK    3  A    between atoms: N_9  and  N_10
REMARK    4  A    between atoms: C_14  and  C_17
REMARK    5  A    between atoms: C_18  and  O_23
REMARK                            x       y       z     vdW  Elec       q    Type
REMARK                         _______ _______ _______ _____ _____    ______ ____
ROOT
ATOM      1  N   UNL     1     -11.043  55.038  47.550  0.00  0.00    +0.000 N 
ATOM      2  C   UNL     1     -10.182  55.195  48.636  0.00  0.00    +0.000 A 
ATOM      3  C   UNL     1     -10.608  54.421  46.345  0.00  0.00    +0.000 A 
ATOM      4  O   UNL     1     -10.553  55.720  49.688  0.00  0.00    +0.000 OA
ATOM      5  C   UNL     1      -8.794  54.648  48.501  0.00  0.00    +0.000 A 
ATOM      6  C   UNL     1      -9.240  54.145  46.169  0.00  0.00    +0.000 A 
ATOM      7  C   UNL     1     -11.522  54.011  45.365  0.00  0.00    +0.000 A 
ATOM      8  C   UNL     1      -8.305  54.350  47.285  0.00  0.00    +0.000 A 
ATOM      9  C   UNL     1      -8.814  53.474  45.011  0.00  0.00    +0.000 A 
ATOM     10  C   UNL     1     -11.092  53.284  44.254  0.00  0.00    +0.000 A 
ATOM     11  C   UNL     1      -9.739  53.020  44.074  0.00  0.00    +0.000 A 
ENDROOT
BRANCH   5  12
ATOM     12  C   UNL     1      -7.947  54.477  49.731  0.00  0.00    +0.000 C 
ATOM     13  N   UNL     1      -7.648  55.507  50.484  0.00  0.00    +0.000 N 
ATOM     14  N   UNL     1      -7.567  53.188  50.096  0.00  0.00    +0.000 N 
ATOM     15  S   UNL     1      -6.898  55.150  51.914  0.00  0.00    +0.000 S 
ATOM     16  C   UNL     1      -8.168  52.892  51.352  0.00  0.00    +0.000 A 
ATOM     17  O   UNL     1      -7.160  56.217  52.857  0.00  0.00    +0.000 OA
ATOM     18  O   UNL     1      -5.556  54.668  51.647  0.00  0.00    +0.000 OA
ATOM     19  C   UNL     1      -7.852  53.728  52.431  0.00  0.00    +0.000 A 
ATOM     20  C   UNL     1      -9.350  52.159  51.377  0.00  0.00    +0.000 A 
ATOM     21  C   UNL     1      -8.604  53.739  53.594  0.00  0.00    +0.000 A 
ATOM     22  C   UNL     1     -10.170  52.235  52.497  0.00  0.00    +0.000 A 
ATOM     23  C   UNL     1      -9.781  52.987  53.615  0.00  0.00    +0.000 A 
ATOM     24  H   UNL     1      -7.858  56.432  50.217  0.00  0.00    +0.000 HD
ATOM     25  H   UNL     1      -6.986  52.586  49.577  0.00  0.00    +0.000 HD
ENDBRANCH   5  12
BRANCH   1  26
ATOM     26  N   UNL     1     -12.453  55.143  47.792  0.00  0.00    +0.000 N 
ATOM     27  H   UNL     1     -12.992  54.388  48.120  0.00  0.00    +0.000 HD
BRANCH  26  28
ATOM     28  C   UNL     1     -13.029  56.468  47.515  0.00  0.00    +0.000 C 
BRANCH  28  35
ATOM     29 BR   UNL     1     -15.160  58.898  52.816  0.00  0.00    +0.000 Br
ATOM     30  C   UNL     1     -14.499  58.168  51.201  0.00  0.00    +0.000 A 
ATOM     31  C   UNL     1     -14.043  59.012  50.191  0.00  0.00    +0.000 A 
ATOM     32  C   UNL     1     -14.472  56.785  51.033  0.00  0.00    +0.000 A 
ATOM     33  C   UNL     1     -13.567  58.472  48.994  0.00  0.00    +0.000 A 
ATOM     34  C   UNL     1     -13.999  56.246  49.837  0.00  0.00    +0.000 A 
ATOM     35  C   UNL     1     -13.546  57.077  48.805  0.00  0.00    +0.000 A 
ENDBRANCH  28  35
ENDBRANCH  26  28
ENDBRANCH   1  26
BRANCH   8  36
ATOM     36  O   UNL     1      -6.984  54.049  47.007  0.00  0.00    +0.000 OA
ATOM     37  H   UNL     1      -6.327  54.174  47.664  0.00  0.00    +0.000 HD
ENDBRANCH   8  36
TORSDOF 5
ENDMDL
MODEL 6
REMARK VINA RESULT:      -8.4      4.305      7.212
REMARK  Name = 
REMARK  5 active torsions:
REMARK  status: ('A' for Active; 'I' for Inactive)
REMARK    1  A    between atoms: C_7  and  C_8
REMARK    2  A    between atoms: C_8  and  N_9
REMARK    3  A    between atoms: N_9  and  N_10
REMARK    4  A    between atoms: C_14  and  C_17
REMARK    5  A    between atoms: C_18  and  O_23
REMARK                            x       y       z     vdW  Elec       q    Type
REMARK                         _______ _______ _______ _____ _____    ______ ____
ROOT
ATOM      1  N   UNL     1     -11.020  54.960  48.902  0.00  0.00    +0.000 N 
ATOM      2  C   UNL     1     -10.817  54.682  50.253  0.00  0.00    +0.000 A 
ATOM      3  C   UNL     1      -9.941  54.959  47.975  0.00  0.00    +0.000 A 
ATOM      4  O   UNL     1     -11.747  54.672  51.061  0.00  0.00    +0.000 OA
ATOM      5  C   UNL     1      -9.424  54.338  50.684  0.00  0.00    +0.000 A 
ATOM      6  C   UNL     1      -8.622  54.874  48.457  0.00  0.00    +0.000 A 
ATOM      7  C   UNL     1     -10.167  54.960  46.592  0.00  0.00    +0.000 A 
ATOM      8  C   UNL     1      -8.382  54.631  49.886  0.00  0.00    +0.000 A 
ATOM      9  C   UNL     1      -7.557  54.802  47.545  0.00  0.00    +0.000 A 
ATOM     10  C   UNL     1      -9.105  54.818  45.700  0.00  0.00    +0.000 A 
ATOM     11  C   UNL     1      -7.800  54.745  46.174  0.00  0.00    +0.000 A 
ENDROOT
BRANCH   5  12
ATOM     12  C   UNL     1      -9.205  53.701  52.028  0.00  0.00    +0.000 C 
ATOM     13  N   UNL     1      -8.776  52.466  52.119  0.00  0.00    +0.000 N 
ATOM     14  N   UNL     1      -9.382  54.484  53.166  0.00  0.00    +0.000 N 
ATOM     15  S   UNL     1      -8.373  51.963  53.643  0.00  0.00    +0.000 S 
ATOM     16  C   UNL     1      -8.125  54.596  53.822  0.00  0.00    +0.000 A 
ATOM     17  O   UNL     1      -7.408  50.889  53.538  0.00  0.00    +0.000 OA
ATOM     18  O   UNL     1      -9.577  51.845  54.445  0.00  0.00    +0.000 OA
ATOM     19  C   UNL     1      -7.508  53.410  54.240  0.00  0.00    +0.000 A 
ATOM     20  C   UNL     1      -7.349  55.731  53.605  0.00  0.00    +0.000 A 
ATOM     21  C   UNL     1      -6.167  53.364  54.589  0.00  0.00    +0.000 A 
ATOM     22  C   UNL     1      -5.983  55.675  53.855  0.00  0.00    +0.000 A 
ATOM     23  C   UNL     1      -5.402  54.513  54.383  0.00  0.00    +0.000 A 
ATOM     24  H   UNL     1      -8.698  51.878  51.334  0.00  0.00    +0.000 HD
ATOM     25  H   UNL     1     -10.228  54.890  53.464  0.00  0.00    +0.000 HD
ENDBRANCH   5  12
BRANCH   1  26
ATOM     26  N   UNL     1     -12.357  54.860  48.391  0.00  0.00    +0.000 N 
ATOM     27  H   UNL     1     -12.845  54.006  48.348  0.00  0.00    +0.000 HD
BRANCH  26  28
ATOM     28  C   UNL     1     -12.941  56.132  47.939  0.00  0.00    +0.000 C 
BRANCH  28  35
ATOM     29 BR   UNL     1     -15.356  59.188  52.774  0.00  0.00    +0.000 Br
ATOM     30  C   UNL     1     -14.634  58.251  51.299  0.00  0.00    +0.000 A 
ATOM     31  C   UNL     1     -14.979  56.919  51.085  0.00  0.00    +0.000 A 
ATOM     32  C   UNL     1     -13.761  58.903  50.431  0.00  0.00    +0.000 A 
ATOM     33  C   UNL     1     -14.435  56.224  50.001  0.00  0.00    +0.000 A 
ATOM     34  C   UNL     1     -13.216  58.209  49.351  0.00  0.00    +0.000 A 
ATOM     35  C   UNL     1     -13.541  56.865  49.125  0.00  0.00    +0.000 A 
ENDBRANCH  28  35
ENDBRANCH  26  28
ENDBRANCH   1  26
BRANCH   8  36
ATOM     36  O   UNL     1      -7.050  54.565  50.256  0.00  0.00    +0.000 OA
ATOM     37  H   UNL     1      -6.423  54.179  49.678  0.00  0.00    +0.000 HD
ENDBRANCH   8  36
TORSDOF 5
ENDMDL
MODEL 7
REMARK VINA RESULT:      -8.4      3.140      4.034
REMARK  Name = 
REMARK  5 active torsions:
REMARK  status: ('A' for Active; 'I' for Inactive)
REMARK    1  A    between atoms: C_7  and  C_8
REMARK    2  A    between atoms: C_8  and  N_9
REMARK    3  A    between atoms: N_9  and  N_10
REMARK    4  A    between atoms: C_14  and  C_17
REMARK    5  A    between atoms: C_18  and  O_23
REMARK                            x       y       z     vdW  Elec       q    Type
REMARK                         _______ _______ _______ _____ _____    ______ ____
ROOT
ATOM      1  N   UNL     1      -6.668  55.267  49.663  0.00  0.00    +0.000 N 
ATOM      2  C   UNL     1      -8.034  55.532  49.581  0.00  0.00    +0.000 A 
ATOM      3  C   UNL     1      -6.088  54.729  50.846  0.00  0.00    +0.000 A 
ATOM      4  O   UNL     1      -8.546  55.989  48.557  0.00  0.00    +0.000 OA
ATOM      5  C   UNL     1      -8.877  55.188  50.771  0.00  0.00    +0.000 A 
ATOM      6  C   UNL     1      -6.864  54.651  52.017  0.00  0.00    +0.000 A 
ATOM      7  C   UNL     1      -4.789  54.204  50.848  0.00  0.00    +0.000 A 
ATOM      8  C   UNL     1      -8.296  54.975  51.965  0.00  0.00    +0.000 A 
ATOM      9  C   UNL     1      -6.320  54.059  53.168  0.00  0.00    +0.000 A 
ATOM     10  C   UNL     1      -4.287  53.557  51.977  0.00  0.00    +0.000 A 
ATOM     11  C   UNL     1      -5.049  53.488  53.138  0.00  0.00    +0.000 A 
ENDROOT
BRANCH   5  12
ATOM     12  C   UNL     1     -10.371  55.125  50.622  0.00  0.00    +0.000 C 
ATOM     13  N   UNL     1     -11.120  56.138  50.983  0.00  0.00    +0.000 N 
ATOM     14  N   UNL     1     -10.927  54.005  50.010  0.00  0.00    +0.000 N 
ATOM     15  S   UNL     1     -12.718  56.026  50.567  0.00  0.00    +0.000 S 
ATOM     16  C   UNL     1     -11.551  54.428  48.804  0.00  0.00    +0.000 A 
ATOM     17  O   UNL     1     -13.269  57.361  50.471  0.00  0.00    +0.000 OA
ATOM     18  O   UNL     1     -13.348  54.985  51.357  0.00  0.00    +0.000 OA
ATOM     19  C   UNL     1     -12.572  55.381  48.905  0.00  0.00    +0.000 A 
ATOM     20  C   UNL     1     -10.860  54.291  47.603  0.00  0.00    +0.000 A 
ATOM     21  C   UNL     1     -13.022  56.094  47.806  0.00  0.00    +0.000 A 
ATOM     22  C   UNL     1     -11.232  55.071  46.515  0.00  0.00    +0.000 A 
ATOM     23  C   UNL     1     -12.332  55.937  46.602  0.00  0.00    +0.000 A 
ATOM     24  H   UNL     1     -10.757  56.915  51.467  0.00  0.00    +0.000 HD
ATOM     25  H   UNL     1     -10.893  53.082  50.351  0.00  0.00    +0.000 HD
ENDBRANCH   5  12
BRANCH   1  26
ATOM     26  N   UNL     1      -5.929  55.169  48.437  0.00  0.00    +0.000 N 
ATOM     27  H   UNL     1      -5.567  55.957  47.972  0.00  0.00    +0.000 HD
BRANCH  26  28
ATOM     28  C   UNL     1      -5.754  53.798  47.932  0.00  0.00    +0.000 C 
BRANCH  28  35
ATOM     29 BR   UNL     1      -9.933  52.610  43.496  0.00  0.00    +0.000 Br
ATOM     30  C   UNL     1      -8.667  52.986  44.850  0.00  0.00    +0.000 A 
ATOM     31  C   UNL     1      -8.106  54.257  44.945  0.00  0.00    +0.000 A 
ATOM     32  C   UNL     1      -8.304  51.984  45.748  0.00  0.00    +0.000 A 
ATOM     33  C   UNL     1      -7.162  54.530  45.938  0.00  0.00    +0.000 A 
ATOM     34  C   UNL     1      -7.359  52.255  46.737  0.00  0.00    +0.000 A 
ATOM     35  C   UNL     1      -6.775  53.524  46.843  0.00  0.00    +0.000 A 
ENDBRANCH  28  35
ENDBRANCH  26  28
ENDBRANCH   1  26
BRANCH   8  36
ATOM     36  O   UNL     1      -8.968  54.866  53.170  0.00  0.00    +0.000 OA
ATOM     37  H   UNL     1      -9.655  55.466  53.379  0.00  0.00    +0.000 HD
ENDBRANCH   8  36
TORSDOF 5
ENDMDL
MODEL 8
REMARK VINA RESULT:      -8.1      3.956      6.926
REMARK  Name = 
REMARK  5 active torsions:
REMARK  status: ('A' for Active; 'I' for Inactive)
REMARK    1  A    between atoms: C_7  and  C_8
REMARK    2  A    between atoms: C_8  and  N_9
REMARK    3  A    between atoms: N_9  and  N_10
REMARK    4  A    between atoms: C_14  and  C_17
REMARK    5  A    between atoms: C_18  and  O_23
REMARK                            x       y       z     vdW  Elec       q    Type
REMARK                         _______ _______ _______ _____ _____    ______ ____
ROOT
ATOM      1  N   UNL     1     -10.206  54.990  47.322  0.00  0.00    +0.000 N 
ATOM      2  C   UNL     1      -9.373  54.865  48.433  0.00  0.00    +0.000 A 
ATOM      3  C   UNL     1     -10.144  54.065  46.242  0.00  0.00    +0.000 A 
ATOM      4  O   UNL     1      -9.426  55.655  49.377  0.00  0.00    +0.000 OA
ATOM      5  C   UNL     1      -8.439  53.693  48.466  0.00  0.00    +0.000 A 
ATOM      6  C   UNL     1      -9.095  53.130  46.198  0.00  0.00    +0.000 A 
ATOM      7  C   UNL     1     -11.149  54.016  45.267  0.00  0.00    +0.000 A 
ATOM      8  C   UNL     1      -8.173  53.014  47.337  0.00  0.00    +0.000 A 
ATOM      9  C   UNL     1      -9.067  52.171  45.173  0.00  0.00    +0.000 A 
ATOM     10  C   UNL     1     -11.146  53.014  44.296  0.00  0.00    +0.000 A 
ATOM     11  C   UNL     1     -10.103  52.095  44.245  0.00  0.00    +0.000 A 
ENDROOT
BRANCH   5  12
ATOM     12  C   UNL     1      -7.780  53.314  49.762  0.00  0.00    +0.000 C 
ATOM     13  N   UNL     1      -6.708  53.946  50.175  0.00  0.00    +0.000 N 
ATOM     14  N   UNL     1      -8.386  52.341  50.553  0.00  0.00    +0.000 N 
ATOM     15  S   UNL     1      -6.212  53.580  51.710  0.00  0.00    +0.000 S 
ATOM     16  C   UNL     1      -8.786  52.953  51.773  0.00  0.00    +0.000 A 
ATOM     17  O   UNL     1      -5.459  54.699  52.236  0.00  0.00    +0.000 OA
ATOM     18  O   UNL     1      -5.700  52.223  51.739  0.00  0.00    +0.000 OA
ATOM     19  C   UNL     1      -7.787  53.544  52.556  0.00  0.00    +0.000 A 
ATOM     20  C   UNL     1     -10.106  53.373  51.915  0.00  0.00    +0.000 A 
ATOM     21  C   UNL     1      -8.085  54.432  53.578  0.00  0.00    +0.000 A 
ATOM     22  C   UNL     1     -10.410  54.338  52.869  0.00  0.00    +0.000 A 
ATOM     23  C   UNL     1      -9.414  54.834  53.723  0.00  0.00    +0.000 A 
ATOM     24  H   UNL     1      -6.231  54.597  49.610  0.00  0.00    +0.000 HD
ATOM     25  H   UNL     1      -8.516  51.396  50.310  0.00  0.00    +0.000 HD
ENDBRANCH   5  12
BRANCH   1  26
ATOM     26  N   UNL     1     -11.377  55.809  47.451  0.00  0.00    +0.000 N 
ATOM     27  H   UNL     1     -11.417  56.733  47.114  0.00  0.00    +0.000 HD
BRANCH  26  28
ATOM     28  C   UNL     1     -12.512  55.160  48.125  0.00  0.00    +0.000 C 
BRANCH  28  35
ATOM     29 BR   UNL     1     -14.789  58.918  52.512  0.00  0.00    +0.000 Br
ATOM     30  C   UNL     1     -14.089  57.786  51.169  0.00  0.00    +0.000 A 
ATOM     31  C   UNL     1     -14.196  58.148  49.828  0.00  0.00    +0.000 A 
ATOM     32  C   UNL     1     -13.468  56.592  51.531  0.00  0.00    +0.000 A 
ATOM     33  C   UNL     1     -13.690  57.305  48.836  0.00  0.00    +0.000 A 
ATOM     34  C   UNL     1     -12.965  55.749  50.540  0.00  0.00    +0.000 A 
ATOM     35  C   UNL     1     -13.072  56.090  49.186  0.00  0.00    +0.000 A 
ENDBRANCH  28  35
ENDBRANCH  26  28
ENDBRANCH   1  26
BRANCH   8  36
ATOM     36  O   UNL     1      -7.177  52.064  47.193  0.00  0.00    +0.000 OA
ATOM     37  H   UNL     1      -7.378  51.227  46.825  0.00  0.00    +0.000 HD
ENDBRANCH   8  36
TORSDOF 5
ENDMDL
MODEL 9
REMARK VINA RESULT:      -8.0      4.496      7.267
REMARK  Name = 
REMARK  5 active torsions:
REMARK  status: ('A' for Active; 'I' for Inactive)
REMARK    1  A    between atoms: C_7  and  C_8
REMARK    2  A    between atoms: C_8  and  N_9
REMARK    3  A    between atoms: N_9  and  N_10
REMARK    4  A    between atoms: C_14  and  C_17
REMARK    5  A    between atoms: C_18  and  O_23
REMARK                            x       y       z     vdW  Elec       q    Type
REMARK                         _______ _______ _______ _____ _____    ______ ____
ROOT
ATOM      1  N   UNL     1      -8.117  53.329  50.787  0.00  0.00    +0.000 N 
ATOM      2  C   UNL     1      -8.568  52.921  49.533  0.00  0.00    +0.000 A 
ATOM      3  C   UNL     1      -6.728  53.393  51.090  0.00  0.00    +0.000 A 
ATOM      4  O   UNL     1      -9.769  52.872  49.258  0.00  0.00    +0.000 OA
ATOM      5  C   UNL     1      -7.533  52.594  48.500  0.00  0.00    +0.000 A 
ATOM      6  C   UNL     1      -5.802  52.847  50.183  0.00  0.00    +0.000 A 
ATOM      7  C   UNL     1      -6.261  54.057  52.232  0.00  0.00    +0.000 A 
ATOM      8  C   UNL     1      -6.262  52.364  48.874  0.00  0.00    +0.000 A 
ATOM      9  C   UNL     1      -4.427  52.968  50.443  0.00  0.00    +0.000 A 
ATOM     10  C   UNL     1      -4.893  54.230  52.441  0.00  0.00    +0.000 A 
ATOM     11  C   UNL     1      -3.976  53.681  51.551  0.00  0.00    +0.000 A 
ENDROOT
BRANCH   5  12
ATOM     12  C   UNL     1      -7.939  52.488  47.057  0.00  0.00    +0.000 C 
ATOM     13  N   UNL     1      -8.546  51.414  46.613  0.00  0.00    +0.000 N 
ATOM     14  N   UNL     1      -7.737  53.591  46.231  0.00  0.00    +0.000 N 
ATOM     15  S   UNL     1      -9.129  51.514  45.068  0.00  0.00    +0.000 S 
ATOM     16  C   UNL     1      -9.011  54.058  45.804  0.00  0.00    +0.000 A 
ATOM     17  O   UNL     1     -10.228  50.583  44.923  0.00  0.00    +0.000 OA
ATOM     18  O   UNL     1      -8.018  51.549  44.135  0.00  0.00    +0.000 OA
ATOM     19  C   UNL     1      -9.821  53.164  45.092  0.00  0.00    +0.000 A 
ATOM     20  C   UNL     1      -9.597  55.126  46.476  0.00  0.00    +0.000 A 
ATOM     21  C   UNL     1     -11.176  53.388  44.909  0.00  0.00    +0.000 A 
ATOM     22  C   UNL     1     -10.972  55.310  46.385  0.00  0.00    +0.000 A 
ATOM     23  C   UNL     1     -11.751  54.472  45.575  0.00  0.00    +0.000 A 
ATOM     24  H   UNL     1      -8.649  50.603  47.162  0.00  0.00    +0.000 HD
ATOM     25  H   UNL     1      -6.866  53.979  45.987  0.00  0.00    +0.000 HD
ENDBRANCH   5  12
BRANCH   1  26
ATOM     26  N   UNL     1      -9.031  54.050  51.626  0.00  0.00    +0.000 N 
ATOM     27  H   UNL     1      -9.494  53.633  52.387  0.00  0.00    +0.000 HD
BRANCH  26  28
ATOM     28  C   UNL     1      -9.220  55.463  51.260  0.00  0.00    +0.000 C 
BRANCH  28  35
ATOM     29 BR   UNL     1     -15.250  56.620  50.336  0.00  0.00    +0.000 Br
ATOM     30  C   UNL     1     -13.417  56.255  50.625  0.00  0.00    +0.000 A 
ATOM     31  C   UNL     1     -12.988  55.782  51.863  0.00  0.00    +0.000 A 
ATOM     32  C   UNL     1     -12.504  56.459  49.592  0.00  0.00    +0.000 A 
ATOM     33  C   UNL     1     -11.632  55.524  52.079  0.00  0.00    +0.000 A 
ATOM     34  C   UNL     1     -11.150  56.204  49.808  0.00  0.00    +0.000 A 
ATOM     35  C   UNL     1     -10.697  55.740  51.049  0.00  0.00    +0.000 A 
ENDBRANCH  28  35
ENDBRANCH  26  28
ENDBRANCH   1  26
BRANCH   8  36
ATOM     36  O   UNL     1      -5.271  51.846  48.057  0.00  0.00    +0.000 OA
ATOM     37  H   UNL     1      -4.376  52.078  48.203  0.00  0.00    +0.000 HD
ENDBRANCH   8  36
TORSDOF 5
ENDMDL
