MODEL 1
REMARK VINA RESULT:      -9.3      0.000      0.000
REMARK  Name = 
REMARK  6 active torsions:
REMARK  status: ('A' for Active; 'I' for Inactive)
REMARK    1  A    between atoms: C_6  and  C_10
REMARK    2  A    between atoms: C_14  and  O_18
REMARK    3  A    between atoms: N_17  and  N_20
REMARK    4  A    between atoms: N_20  and  C_23
REMARK    5  A    between atoms: C_23  and  C_26
REMARK    6  A    between atoms: C_30  and  C_33
REMARK                            x       y       z     vdW  Elec       q    Type
REMARK                         _______ _______ _______ _____ _____    ______ ____
ROOT
ATOM      1  C   UNL     1      -9.236  54.088  49.626  0.00  0.00    +0.000 A 
ATOM      2  C   UNL     1     -10.184  55.230  49.524  0.00  0.00    +0.000 A 
ATOM      3  C   UNL     1      -9.114  53.194  48.633  0.00  0.00    +0.000 A 
ATOM      4  O   UNL     1     -10.199  56.036  50.459  0.00  0.00    +0.000 OA
ATOM      5  N   UNL     1     -10.959  55.338  48.364  0.00  0.00    +0.000 N 
ATOM      6  C   UNL     1      -9.919  53.334  47.415  0.00  0.00    +0.000 A 
ATOM      7  C   UNL     1     -10.830  54.400  47.296  0.00  0.00    +0.000 A 
ATOM      8  C   UNL     1      -9.756  52.436  46.349  0.00  0.00    +0.000 A 
ATOM      9  C   UNL     1     -11.560  54.538  46.107  0.00  0.00    +0.000 A 
ATOM     10  C   UNL     1     -10.457  52.607  45.161  0.00  0.00    +0.000 A 
ATOM     11  C   UNL     1     -11.362  53.661  45.037  0.00  0.00    +0.000 A 
ENDROOT
BRANCH   1  17
ATOM     12  S   UNL     1      -8.088  54.026  53.363  0.00  0.00    +0.000 S 
ATOM     13  O   UNL     1      -8.295  52.721  53.959  0.00  0.00    +0.000 OA
ATOM     14  O   UNL     1      -8.392  55.232  54.110  0.00  0.00    +0.000 OA
ATOM     15  N   UNL     1      -8.935  54.069  51.987  0.00  0.00    +0.000 N 
ATOM     16  C   UNL     1      -6.385  54.118  52.957  0.00  0.00    +0.000 A 
ATOM     17  C   UNL     1      -8.340  54.007  50.834  0.00  0.00    +0.000 C 
ATOM     18  C   UNL     1      -6.028  54.057  51.619  0.00  0.00    +0.000 A 
ATOM     19  C   UNL     1      -5.438  54.259  53.971  0.00  0.00    +0.000 A 
ATOM     20  N   UNL     1      -6.985  53.885  50.625  0.00  0.00    +0.000 N 
ATOM     21  C   UNL     1      -4.670  54.086  51.293  0.00  0.00    +0.000 A 
ATOM     22  C   UNL     1      -4.093  54.309  53.630  0.00  0.00    +0.000 A 
ATOM     23  C   UNL     1      -3.705  54.221  52.293  0.00  0.00    +0.000 A 
ATOM     24  H   UNL     1      -9.916  54.143  52.024  0.00  0.00    +0.000 HD
ATOM     25  H   UNL     1      -6.675  53.661  49.718  0.00  0.00    +0.000 HD
ENDBRANCH   1  17
BRANCH   3  26
ATOM     26  O   UNL     1      -8.218  52.139  48.630  0.00  0.00    +0.000 OA
ATOM     27  H   UNL     1      -8.216  51.525  49.338  0.00  0.00    +0.000 HD
ENDBRANCH   3  26
BRANCH   5  28
ATOM     28  N   UNL     1     -11.919  56.400  48.206  0.00  0.00    +0.000 N 
ATOM     29  H   UNL     1     -11.711  57.228  47.718  0.00  0.00    +0.000 HD
BRANCH  28  30
ATOM     30  C   UNL     1     -13.228  56.160  48.823  0.00  0.00    +0.000 C 
BRANCH  30  31
ATOM     31  C   UNL     1     -13.688  57.323  49.667  0.00  0.00    +0.000 A 
ATOM     32  C   UNL     1     -14.077  57.125  50.995  0.00  0.00    +0.000 A 
ATOM     33  C   UNL     1     -13.809  58.603  49.102  0.00  0.00    +0.000 A 
ATOM     34  C   UNL     1     -14.598  58.174  51.751  0.00  0.00    +0.000 A 
ATOM     35  C   UNL     1     -14.322  59.660  49.853  0.00  0.00    +0.000 A 
ATOM     36  C   UNL     1     -14.721  59.447  51.171  0.00  0.00    +0.000 A 
ATOM     37  C   UNL     1     -15.087  57.927  53.146  0.00  0.00    +0.000 C 
ENDBRANCH  30  31
ENDBRANCH  28  30
ENDBRANCH   5  28
TORSDOF 5
ENDMDL
MODEL 2
REMARK VINA RESULT:      -9.1      2.524      7.278
REMARK  Name = 
REMARK  6 active torsions:
REMARK  status: ('A' for Active; 'I' for Inactive)
REMARK    1  A    between atoms: C_6  and  C_10
REMARK    2  A    between atoms: C_14  and  O_18
REMARK    3  A    between atoms: N_17  and  N_20
REMARK    4  A    between atoms: N_20  and  C_23
REMARK    5  A    between atoms: C_23  and  C_26
REMARK    6  A    between atoms: C_30  and  C_33
REMARK                            x       y       z     vdW  Elec       q    Type
REMARK                         _______ _______ _______ _____ _____    ______ ____
ROOT
ATOM      1  C   UNL     1     -11.590  55.977  48.848  0.00  0.00    +0.000 A 
ATOM      2  C   UNL     1     -10.585  55.314  49.722  0.00  0.00    +0.000 A 
ATOM      3  C   UNL     1     -11.701  55.656  47.549  0.00  0.00    +0.000 A 
ATOM      4  O   UNL     1     -10.580  55.630  50.916  0.00  0.00    +0.000 OA
ATOM      5  N   UNL     1      -9.745  54.353  49.147  0.00  0.00    +0.000 N 
ATOM      6  C   UNL     1     -10.829  54.630  46.968  0.00  0.00    +0.000 A 
ATOM      7  C   UNL     1      -9.863  53.995  47.770  0.00  0.00    +0.000 A 
ATOM      8  C   UNL     1     -10.979  54.249  45.626  0.00  0.00    +0.000 A 
ATOM      9  C   UNL     1      -9.066  52.990  47.204  0.00  0.00    +0.000 A 
ATOM     10  C   UNL     1     -10.209  53.224  45.087  0.00  0.00    +0.000 A 
ATOM     11  C   UNL     1      -9.250  52.591  45.877  0.00  0.00    +0.000 A 
ENDROOT
BRANCH   1  17
ATOM     12  S   UNL     1     -13.587  59.274  49.500  0.00  0.00    +0.000 S 
ATOM     13  O   UNL     1     -14.717  59.395  48.599  0.00  0.00    +0.000 OA
ATOM     14  O   UNL     1     -12.766  60.428  49.810  0.00  0.00    +0.000 OA
ATOM     15  N   UNL     1     -12.620  58.121  48.909  0.00  0.00    +0.000 N 
ATOM     16  C   UNL     1     -14.235  58.710  51.028  0.00  0.00    +0.000 A 
ATOM     17  C   UNL     1     -12.550  56.953  49.474  0.00  0.00    +0.000 C 
ATOM     18  C   UNL     1     -13.976  57.400  51.405  0.00  0.00    +0.000 A 
ATOM     19  C   UNL     1     -14.978  59.577  51.828  0.00  0.00    +0.000 A 
ATOM     20  N   UNL     1     -13.260  56.541  50.579  0.00  0.00    +0.000 N 
ATOM     21  C   UNL     1     -14.527  56.933  52.601  0.00  0.00    +0.000 A 
ATOM     22  C   UNL     1     -15.501  59.105  53.025  0.00  0.00    +0.000 A 
ATOM     23  C   UNL     1     -15.279  57.783  53.414  0.00  0.00    +0.000 A 
ATOM     24  H   UNL     1     -12.076  58.308  48.111  0.00  0.00    +0.000 HD
ATOM     25  H   UNL     1     -13.260  55.582  50.797  0.00  0.00    +0.000 HD
ENDBRANCH   1  17
BRANCH   3  26
ATOM     26  O   UNL     1     -12.645  56.186  46.688  0.00  0.00    +0.000 OA
ATOM     27  H   UNL     1     -13.353  55.652  46.383  0.00  0.00    +0.000 HD
ENDBRANCH   3  26
BRANCH   5  28
ATOM     28  N   UNL     1      -8.730  53.691  49.924  0.00  0.00    +0.000 N 
ATOM     29  H   UNL     1      -8.843  52.776  50.267  0.00  0.00    +0.000 HD
BRANCH  28  30
ATOM     30  C   UNL     1      -7.514  54.475  50.167  0.00  0.00    +0.000 C 
BRANCH  30  31
ATOM     31  C   UNL     1      -7.225  54.649  51.637  0.00  0.00    +0.000 A 
ATOM     32  C   UNL     1      -6.970  53.537  52.445  0.00  0.00    +0.000 A 
ATOM     33  C   UNL     1      -7.292  55.923  52.226  0.00  0.00    +0.000 A 
ATOM     34  C   UNL     1      -6.802  53.678  53.822  0.00  0.00    +0.000 A 
ATOM     35  C   UNL     1      -7.117  56.074  53.600  0.00  0.00    +0.000 A 
ATOM     36  C   UNL     1      -6.879  54.957  54.399  0.00  0.00    +0.000 A 
ATOM     37  C   UNL     1      -6.612  52.468  54.686  0.00  0.00    +0.000 C 
ENDBRANCH  30  31
ENDBRANCH  28  30
ENDBRANCH   5  28
TORSDOF 5
ENDMDL
MODEL 3
REMARK VINA RESULT:      -9.0      1.455      1.986
REMARK  Name = 
REMARK  6 active torsions:
REMARK  status: ('A' for Active; 'I' for Inactive)
REMARK    1  A    between atoms: C_6  and  C_10
REMARK    2  A    between atoms: C_14  and  O_18
REMARK    3  A    between atoms: N_17  and  N_20
REMARK    4  A    between atoms: N_20  and  C_23
REMARK    5  A    between atoms: C_23  and  C_26
REMARK    6  A    between atoms: C_30  and  C_33
REMARK                            x       y       z     vdW  Elec       q    Type
REMARK                         _______ _______ _______ _____ _____    ______ ____
ROOT
ATOM      1  C   UNL     1      -9.582  54.066  49.625  0.00  0.00    +0.000 A 
ATOM      2  C   UNL     1     -10.512  55.216  49.471  0.00  0.00    +0.000 A 
ATOM      3  C   UNL     1      -9.405  53.177  48.634  0.00  0.00    +0.000 A 
ATOM      4  O   UNL     1     -10.580  56.016  50.409  0.00  0.00    +0.000 OA
ATOM      5  N   UNL     1     -11.212  55.339  48.265  0.00  0.00    +0.000 N 
ATOM      6  C   UNL     1     -10.130  53.333  47.369  0.00  0.00    +0.000 A 
ATOM      7  C   UNL     1     -11.023  54.407  47.200  0.00  0.00    +0.000 A 
ATOM      8  C   UNL     1      -9.906  52.441  46.309  0.00  0.00    +0.000 A 
ATOM      9  C   UNL     1     -11.675  54.560  45.969  0.00  0.00    +0.000 A 
ATOM     10  C   UNL     1     -10.529  52.627  45.080  0.00  0.00    +0.000 A 
ATOM     11  C   UNL     1     -11.416  53.688  44.907  0.00  0.00    +0.000 A 
ENDROOT
BRANCH   1  17
ATOM     12  S   UNL     1      -6.796  54.783  52.273  0.00  0.00    +0.000 S 
ATOM     13  O   UNL     1      -7.116  55.946  53.076  0.00  0.00    +0.000 OA
ATOM     14  O   UNL     1      -5.442  54.565  51.801  0.00  0.00    +0.000 OA
ATOM     15  N   UNL     1      -7.772  54.802  50.985  0.00  0.00    +0.000 N 
ATOM     16  C   UNL     1      -7.206  53.384  53.246  0.00  0.00    +0.000 A 
ATOM     17  C   UNL     1      -8.765  53.969  50.886  0.00  0.00    +0.000 C 
ATOM     18  C   UNL     1      -8.323  52.643  52.889  0.00  0.00    +0.000 A 
ATOM     19  C   UNL     1      -6.409  53.043  54.338  0.00  0.00    +0.000 A 
ATOM     20  N   UNL     1      -9.123  53.019  51.815  0.00  0.00    +0.000 N 
ATOM     21  C   UNL     1      -8.679  51.553  53.687  0.00  0.00    +0.000 A 
ATOM     22  C   UNL     1      -6.764  51.943  55.110  0.00  0.00    +0.000 A 
ATOM     23  C   UNL     1      -7.898  51.197  54.788  0.00  0.00    +0.000 A 
ATOM     24  H   UNL     1      -7.612  55.453  50.264  0.00  0.00    +0.000 HD
ATOM     25  H   UNL     1      -9.998  52.579  51.714  0.00  0.00    +0.000 HD
ENDBRANCH   1  17
BRANCH   3  26
ATOM     26  O   UNL     1      -8.519  52.116  48.681  0.00  0.00    +0.000 OA
ATOM     27  H   UNL     1      -7.744  52.175  49.203  0.00  0.00    +0.000 HD
ENDBRANCH   3  26
BRANCH   5  28
ATOM     28  N   UNL     1     -12.151  56.410  48.055  0.00  0.00    +0.000 N 
ATOM     29  H   UNL     1     -11.932  57.203  47.515  0.00  0.00    +0.000 HD
BRANCH  28  30
ATOM     30  C   UNL     1     -13.456  56.237  48.702  0.00  0.00    +0.000 C 
BRANCH  30  31
ATOM     31  C   UNL     1     -13.793  57.376  49.632  0.00  0.00    +0.000 A 
ATOM     32  C   UNL     1     -14.188  57.123  50.948  0.00  0.00    +0.000 A 
ATOM     33  C   UNL     1     -13.793  58.699  49.160  0.00  0.00    +0.000 A 
ATOM     34  C   UNL     1     -14.598  58.161  51.784  0.00  0.00    +0.000 A 
ATOM     35  C   UNL     1     -14.192  59.744  49.990  0.00  0.00    +0.000 A 
ATOM     36  C   UNL     1     -14.601  59.479  51.296  0.00  0.00    +0.000 A 
ATOM     37  C   UNL     1     -15.098  57.864  53.165  0.00  0.00    +0.000 C 
ENDBRANCH  30  31
ENDBRANCH  28  30
ENDBRANCH   5  28
TORSDOF 5
ENDMDL
MODEL 4
REMARK VINA RESULT:      -9.0      2.550      3.356
REMARK  Name = 
REMARK  6 active torsions:
REMARK  status: ('A' for Active; 'I' for Inactive)
REMARK    1  A    between atoms: C_6  and  C_10
REMARK    2  A    between atoms: C_14  and  O_18
REMARK    3  A    between atoms: N_17  and  N_20
REMARK    4  A    between atoms: N_20  and  C_23
REMARK    5  A    between atoms: C_23  and  C_26
REMARK    6  A    between atoms: C_30  and  C_33
REMARK                            x       y       z     vdW  Elec       q    Type
REMARK                         _______ _______ _______ _____ _____    ______ ____
ROOT
ATOM      1  C   UNL     1      -8.276  53.688  51.067  0.00  0.00    +0.000 A 
ATOM      2  C   UNL     1      -9.360  54.707  51.036  0.00  0.00    +0.000 A 
ATOM      3  C   UNL     1      -7.640  53.315  49.946  0.00  0.00    +0.000 A 
ATOM      4  O   UNL     1      -9.860  55.031  52.118  0.00  0.00    +0.000 OA
ATOM      5  N   UNL     1      -9.710  55.257  49.798  0.00  0.00    +0.000 N 
ATOM      6  C   UNL     1      -8.004  53.918  48.659  0.00  0.00    +0.000 A 
ATOM      7  C   UNL     1      -9.032  54.877  48.601  0.00  0.00    +0.000 A 
ATOM      8  C   UNL     1      -7.305  53.575  47.492  0.00  0.00    +0.000 A 
ATOM      9  C   UNL     1      -9.337  55.470  47.367  0.00  0.00    +0.000 A 
ATOM     10  C   UNL     1      -7.590  54.199  46.283  0.00  0.00    +0.000 A 
ATOM     11  C   UNL     1      -8.608  55.149  46.218  0.00  0.00    +0.000 A 
ENDROOT
BRANCH   1  17
ATOM     12  S   UNL     1      -6.019  52.903  54.162  0.00  0.00    +0.000 S 
ATOM     13  O   UNL     1      -5.965  54.026  55.076  0.00  0.00    +0.000 OA
ATOM     14  O   UNL     1      -4.822  52.141  53.861  0.00  0.00    +0.000 OA
ATOM     15  N   UNL     1      -6.626  53.445  52.765  0.00  0.00    +0.000 N 
ATOM     16  C   UNL     1      -7.164  51.765  54.847  0.00  0.00    +0.000 A 
ATOM     17  C   UNL     1      -7.838  53.149  52.403  0.00  0.00    +0.000 C 
ATOM     18  C   UNL     1      -8.397  51.625  54.228  0.00  0.00    +0.000 A 
ATOM     19  C   UNL     1      -6.814  51.028  55.978  0.00  0.00    +0.000 A 
ATOM     20  N   UNL     1      -8.738  52.392  53.119  0.00  0.00    +0.000 N 
ATOM     21  C   UNL     1      -9.329  50.752  54.796  0.00  0.00    +0.000 A 
ATOM     22  C   UNL     1      -7.743  50.148  56.518  0.00  0.00    +0.000 A 
ATOM     23  C   UNL     1      -9.001  50.009  55.931  0.00  0.00    +0.000 A 
ATOM     24  H   UNL     1      -6.069  54.007  52.180  0.00  0.00    +0.000 HD
ATOM     25  H   UNL     1      -9.678  52.395  52.830  0.00  0.00    +0.000 HD
ENDBRANCH   1  17
BRANCH   3  26
ATOM     26  O   UNL     1      -6.588  52.418  49.901  0.00  0.00    +0.000 OA
ATOM     27  H   UNL     1      -6.534  51.727  50.532  0.00  0.00    +0.000 HD
ENDBRANCH   3  26
BRANCH   5  28
ATOM     28  N   UNL     1     -10.768  56.227  49.686  0.00  0.00    +0.000 N 
ATOM     29  H   UNL     1     -10.595  57.172  49.478  0.00  0.00    +0.000 HD
BRANCH  28  30
ATOM     30  C   UNL     1     -12.123  55.706  49.904  0.00  0.00    +0.000 C 
BRANCH  30  31
ATOM     31  C   UNL     1     -13.013  56.696  50.611  0.00  0.00    +0.000 A 
ATOM     32  C   UNL     1     -13.455  57.848  49.953  0.00  0.00    +0.000 A 
ATOM     33  C   UNL     1     -13.340  56.514  51.965  0.00  0.00    +0.000 A 
ATOM     34  C   UNL     1     -14.194  58.818  50.629  0.00  0.00    +0.000 A 
ATOM     35  C   UNL     1     -14.086  57.475  52.646  0.00  0.00    +0.000 A 
ATOM     36  C   UNL     1     -14.507  58.627  51.985  0.00  0.00    +0.000 A 
ATOM     37  C   UNL     1     -14.589  60.085  49.932  0.00  0.00    +0.000 C 
ENDBRANCH  30  31
ENDBRANCH  28  30
ENDBRANCH   5  28
TORSDOF 5
ENDMDL
MODEL 5
REMARK VINA RESULT:      -9.0      2.991      7.900
REMARK  Name = 
REMARK  6 active torsions:
REMARK  status: ('A' for Active; 'I' for Inactive)
REMARK    1  A    between atoms: C_6  and  C_10
REMARK    2  A    between atoms: C_14  and  O_18
REMARK    3  A    between atoms: N_17  and  N_20
REMARK    4  A    between atoms: N_20  and  C_23
REMARK    5  A    between atoms: C_23  and  C_26
REMARK    6  A    between atoms: C_30  and  C_33
REMARK                            x       y       z     vdW  Elec       q    Type
REMARK                         _______ _______ _______ _____ _____    ______ ____
ROOT
ATOM      1  C   UNL     1     -11.220  54.621  50.701  0.00  0.00    +0.000 A 
ATOM      2  C   UNL     1      -9.859  55.023  50.251  0.00  0.00    +0.000 A 
ATOM      3  C   UNL     1     -11.448  53.406  51.222  0.00  0.00    +0.000 A 
ATOM      4  O   UNL     1      -9.723  56.176  49.831  0.00  0.00    +0.000 OA
ATOM      5  N   UNL     1      -8.824  54.090  50.374  0.00  0.00    +0.000 N 
ATOM      6  C   UNL     1     -10.348  52.447  51.363  0.00  0.00    +0.000 A 
ATOM      7  C   UNL     1      -9.053  52.798  50.937  0.00  0.00    +0.000 A 
ATOM      8  C   UNL     1     -10.569  51.196  51.959  0.00  0.00    +0.000 A 
ATOM      9  C   UNL     1      -8.008  51.882  51.117  0.00  0.00    +0.000 A 
ATOM     10  C   UNL     1      -9.516  50.312  52.168  0.00  0.00    +0.000 A 
ATOM     11  C   UNL     1      -8.231  50.654  51.748  0.00  0.00    +0.000 A 
ENDROOT
BRANCH   1  17
ATOM     12  S   UNL     1     -13.758  57.230  49.274  0.00  0.00    +0.000 S 
ATOM     13  O   UNL     1     -14.913  56.580  48.689  0.00  0.00    +0.000 OA
ATOM     14  O   UNL     1     -13.149  58.373  48.622  0.00  0.00    +0.000 OA
ATOM     15  N   UNL     1     -12.616  56.104  49.469  0.00  0.00    +0.000 N 
ATOM     16  C   UNL     1     -14.255  57.781  50.863  0.00  0.00    +0.000 A 
ATOM     17  C   UNL     1     -12.323  55.645  50.649  0.00  0.00    +0.000 C 
ATOM     18  C   UNL     1     -13.756  57.114  51.972  0.00  0.00    +0.000 A 
ATOM     19  C   UNL     1     -15.121  58.868  50.979  0.00  0.00    +0.000 A 
ATOM     20  N   UNL     1     -12.918  56.012  51.834  0.00  0.00    +0.000 N 
ATOM     21  C   UNL     1     -14.183  57.521  53.238  0.00  0.00    +0.000 A 
ATOM     22  C   UNL     1     -15.519  59.275  52.247  0.00  0.00    +0.000 A 
ATOM     23  C   UNL     1     -15.054  58.603  53.377  0.00  0.00    +0.000 A 
ATOM     24  H   UNL     1     -12.134  55.761  48.682  0.00  0.00    +0.000 HD
ATOM     25  H   UNL     1     -12.742  55.462  52.630  0.00  0.00    +0.000 HD
ENDBRANCH   1  17
BRANCH   3  26
ATOM     26  O   UNL     1     -12.670  52.979  51.712  0.00  0.00    +0.000 OA
ATOM     27  H   UNL     1     -13.277  52.547  51.144  0.00  0.00    +0.000 HD
ENDBRANCH   3  26
BRANCH   5  28
ATOM     28  N   UNL     1      -7.488  54.398  49.933  0.00  0.00    +0.000 N 
ATOM     29  H   UNL     1      -7.065  53.935  49.175  0.00  0.00    +0.000 HD
BRANCH  28  30
ATOM     30  C   UNL     1      -6.803  55.449  50.693  0.00  0.00    +0.000 C 
BRANCH  30  31
ATOM     31  C   UNL     1      -6.381  54.985  52.065  0.00  0.00    +0.000 A 
ATOM     32  C   UNL     1      -5.320  54.087  52.214  0.00  0.00    +0.000 A 
ATOM     33  C   UNL     1      -7.104  55.385  53.201  0.00  0.00    +0.000 A 
ATOM     34  C   UNL     1      -4.988  53.575  53.468  0.00  0.00    +0.000 A 
ATOM     35  C   UNL     1      -6.774  54.885  54.459  0.00  0.00    +0.000 A 
ATOM     36  C   UNL     1      -5.725  53.978  54.595  0.00  0.00    +0.000 A 
ATOM     37  C   UNL     1      -3.903  52.550  53.600  0.00  0.00    +0.000 C 
ENDBRANCH  30  31
ENDBRANCH  28  30
ENDBRANCH   5  28
TORSDOF 5
ENDMDL
MODEL 6
REMARK VINA RESULT:      -8.9      3.152      8.020
REMARK  Name = 
REMARK  6 active torsions:
REMARK  status: ('A' for Active; 'I' for Inactive)
REMARK    1  A    between atoms: C_6  and  C_10
REMARK    2  A    between atoms: C_14  and  O_18
REMARK    3  A    between atoms: N_17  and  N_20
REMARK    4  A    between atoms: N_20  and  C_23
REMARK    5  A    between atoms: C_23  and  C_26
REMARK    6  A    between atoms: C_30  and  C_33
REMARK                            x       y       z     vdW  Elec       q    Type
REMARK                         _______ _______ _______ _____ _____    ______ ____
ROOT
ATOM      1  C   UNL     1     -11.274  54.013  51.574  0.00  0.00    +0.000 A 
ATOM      2  C   UNL     1     -10.297  54.222  52.677  0.00  0.00    +0.000 A 
ATOM      3  C   UNL     1     -11.433  52.809  51.005  0.00  0.00    +0.000 A 
ATOM      4  O   UNL     1     -10.248  55.348  53.181  0.00  0.00    +0.000 OA
ATOM      5  N   UNL     1      -9.536  53.126  53.097  0.00  0.00    +0.000 N 
ATOM      6  C   UNL     1     -10.642  51.665  51.471  0.00  0.00    +0.000 A 
ATOM      7  C   UNL     1      -9.705  51.837  52.507  0.00  0.00    +0.000 A 
ATOM      8  C   UNL     1     -10.845  50.391  50.920  0.00  0.00    +0.000 A 
ATOM      9  C   UNL     1      -8.988  50.722  52.964  0.00  0.00    +0.000 A 
ATOM     10  C   UNL     1     -10.156  49.286  51.409  0.00  0.00    +0.000 A 
ATOM     11  C   UNL     1      -9.225  49.450  52.434  0.00  0.00    +0.000 A 
ENDROOT
BRANCH   1  17
ATOM     12  S   UNL     1     -12.899  56.816  49.386  0.00  0.00    +0.000 S 
ATOM     13  O   UNL     1     -13.929  56.280  48.519  0.00  0.00    +0.000 OA
ATOM     14  O   UNL     1     -11.970  57.815  48.894  0.00  0.00    +0.000 OA
ATOM     15  N   UNL     1     -12.036  55.567  49.941  0.00  0.00    +0.000 N 
ATOM     16  C   UNL     1     -13.731  57.548  50.744  0.00  0.00    +0.000 A 
ATOM     17  C   UNL     1     -12.155  55.166  51.171  0.00  0.00    +0.000 C 
ATOM     18  C   UNL     1     -13.665  56.909  51.973  0.00  0.00    +0.000 A 
ATOM     19  C   UNL     1     -14.424  58.746  50.568  0.00  0.00    +0.000 A 
ATOM     20  N   UNL     1     -12.995  55.699  52.121  0.00  0.00    +0.000 N 
ATOM     21  C   UNL     1     -14.363  57.465  53.049  0.00  0.00    +0.000 A 
ATOM     22  C   UNL     1     -15.095  59.299  51.652  0.00  0.00    +0.000 A 
ATOM     23  C   UNL     1     -15.067  58.660  52.893  0.00  0.00    +0.000 A 
ATOM     24  H   UNL     1     -11.411  55.105  49.337  0.00  0.00    +0.000 HD
ATOM     25  H   UNL     1     -13.131  55.194  52.954  0.00  0.00    +0.000 HD
ENDBRANCH   1  17
BRANCH   3  26
ATOM     26  O   UNL     1     -12.357  52.523  50.016  0.00  0.00    +0.000 OA
ATOM     27  H   UNL     1     -12.623  51.638  49.865  0.00  0.00    +0.000 HD
ENDBRANCH   3  26
BRANCH   5  28
ATOM     28  N   UNL     1      -8.551  53.258  54.138  0.00  0.00    +0.000 N 
ATOM     29  H   UNL     1      -8.558  52.694  54.944  0.00  0.00    +0.000 HD
BRANCH  28  30
ATOM     30  C   UNL     1      -7.534  54.293  53.914  0.00  0.00    +0.000 C 
BRANCH  30  31
ATOM     31  C   UNL     1      -6.558  53.914  52.829  0.00  0.00    +0.000 A 
ATOM     32  C   UNL     1      -6.390  54.733  51.708  0.00  0.00    +0.000 A 
ATOM     33  C   UNL     1      -5.867  52.692  52.892  0.00  0.00    +0.000 A 
ATOM     34  C   UNL     1      -5.566  54.342  50.654  0.00  0.00    +0.000 A 
ATOM     35  C   UNL     1      -5.035  52.297  51.847  0.00  0.00    +0.000 A 
ATOM     36  C   UNL     1      -4.888  53.114  50.727  0.00  0.00    +0.000 A 
ATOM     37  C   UNL     1      -5.462  55.193  49.424  0.00  0.00    +0.000 C 
ENDBRANCH  30  31
ENDBRANCH  28  30
ENDBRANCH   5  28
TORSDOF 5
ENDMDL
MODEL 7
REMARK VINA RESULT:      -8.9      1.752      2.513
REMARK  Name = 
REMARK  6 active torsions:
REMARK  status: ('A' for Active; 'I' for Inactive)
REMARK    1  A    between atoms: C_6  and  C_10
REMARK    2  A    between atoms: C_14  and  O_18
REMARK    3  A    between atoms: N_17  and  N_20
REMARK    4  A    between atoms: N_20  and  C_23
REMARK    5  A    between atoms: C_23  and  C_26
REMARK    6  A    between atoms: C_30  and  C_33
REMARK                            x       y       z     vdW  Elec       q    Type
REMARK                         _______ _______ _______ _____ _____    ______ ____
ROOT
ATOM      1  C   UNL     1      -9.450  53.676  50.366  0.00  0.00    +0.000 A 
ATOM      2  C   UNL     1     -10.627  54.061  51.190  0.00  0.00    +0.000 A 
ATOM      3  C   UNL     1      -9.408  53.935  49.049  0.00  0.00    +0.000 A 
ATOM      4  O   UNL     1     -10.566  53.833  52.402  0.00  0.00    +0.000 OA
ATOM      5  N   UNL     1     -11.701  54.689  50.549  0.00  0.00    +0.000 N 
ATOM      6  C   UNL     1     -10.532  54.614  48.397  0.00  0.00    +0.000 A 
ATOM      7  C   UNL     1     -11.662  54.981  49.152  0.00  0.00    +0.000 A 
ATOM      8  C   UNL     1     -10.471  54.939  47.034  0.00  0.00    +0.000 A 
ATOM      9  C   UNL     1     -12.709  55.664  48.517  0.00  0.00    +0.000 A 
ATOM     10  C   UNL     1     -11.498  55.652  46.426  0.00  0.00    +0.000 A 
ATOM     11  C   UNL     1     -12.620  56.017  47.167  0.00  0.00    +0.000 A 
ENDROOT
BRANCH   1  17
ATOM     12  S   UNL     1      -7.297  51.250  52.549  0.00  0.00    +0.000 S 
ATOM     13  O   UNL     1      -6.940  50.053  51.815  0.00  0.00    +0.000 OA
ATOM     14  O   UNL     1      -7.701  51.168  53.939  0.00  0.00    +0.000 OA
ATOM     15  N   UNL     1      -8.482  51.984  51.731  0.00  0.00    +0.000 N 
ATOM     16  C   UNL     1      -5.886  52.290  52.510  0.00  0.00    +0.000 A 
ATOM     17  C   UNL     1      -8.257  53.073  51.059  0.00  0.00    +0.000 C 
ATOM     18  C   UNL     1      -5.931  53.425  51.715  0.00  0.00    +0.000 A 
ATOM     19  C   UNL     1      -4.766  51.967  53.276  0.00  0.00    +0.000 A 
ATOM     20  N   UNL     1      -7.046  53.714  50.934  0.00  0.00    +0.000 N 
ATOM     21  C   UNL     1      -4.794  54.234  51.646  0.00  0.00    +0.000 A 
ATOM     22  C   UNL     1      -3.650  52.792  53.215  0.00  0.00    +0.000 A 
ATOM     23  C   UNL     1      -3.660  53.925  52.400  0.00  0.00    +0.000 A 
ATOM     24  H   UNL     1      -9.389  51.600  51.744  0.00  0.00    +0.000 HD
ATOM     25  H   UNL     1      -6.963  54.418  50.252  0.00  0.00    +0.000 HD
ENDBRANCH   1  17
BRANCH   3  26
ATOM     26  O   UNL     1      -8.329  53.659  48.229  0.00  0.00    +0.000 OA
ATOM     27  H   UNL     1      -7.529  53.339  48.598  0.00  0.00    +0.000 HD
ENDBRANCH   3  26
BRANCH   5  28
ATOM     28  N   UNL     1     -12.886  55.064  51.276  0.00  0.00    +0.000 N 
ATOM     29  H   UNL     1     -13.755  54.628  51.126  0.00  0.00    +0.000 HD
BRANCH  28  30
ATOM     30  C   UNL     1     -12.707  56.142  52.256  0.00  0.00    +0.000 C 
BRANCH  30  31
ATOM     31  C   UNL     1     -13.666  57.285  52.036  0.00  0.00    +0.000 A 
ATOM     32  C   UNL     1     -13.657  57.995  50.831  0.00  0.00    +0.000 A 
ATOM     33  C   UNL     1     -14.521  57.701  53.069  0.00  0.00    +0.000 A 
ATOM     34  C   UNL     1     -14.469  59.115  50.657  0.00  0.00    +0.000 A 
ATOM     35  C   UNL     1     -15.342  58.814  52.901  0.00  0.00    +0.000 A 
ATOM     36  C   UNL     1     -15.314  59.525  51.702  0.00  0.00    +0.000 A 
ATOM     37  C   UNL     1     -14.387  59.915  49.392  0.00  0.00    +0.000 C 
ENDBRANCH  30  31
ENDBRANCH  28  30
ENDBRANCH   5  28
TORSDOF 5
ENDMDL
MODEL 8
REMARK VINA RESULT:      -8.8      2.065      7.396
REMARK  Name = 
REMARK  6 active torsions:
REMARK  status: ('A' for Active; 'I' for Inactive)
REMARK    1  A    between atoms: C_6  and  C_10
REMARK    2  A    between atoms: C_14  and  O_18
REMARK    3  A    between atoms: N_17  and  N_20
REMARK    4  A    between atoms: N_20  and  C_23
REMARK    5  A    between atoms: C_23  and  C_26
REMARK    6  A    between atoms: C_30  and  C_33
REMARK                            x       y       z     vdW  Elec       q    Type
REMARK                         _______ _______ _______ _____ _____    ______ ____
ROOT
ATOM      1  C   UNL     1     -10.952  55.503  48.822  0.00  0.00    +0.000 A 
ATOM      2  C   UNL     1      -9.777  54.954  49.551  0.00  0.00    +0.000 A 
ATOM      3  C   UNL     1     -11.154  55.231  47.524  0.00  0.00    +0.000 A 
ATOM      4  O   UNL     1      -9.690  55.210  50.756  0.00  0.00    +0.000 OA
ATOM      5  N   UNL     1      -8.877  54.153  48.839  0.00  0.00    +0.000 N 
ATOM      6  C   UNL     1     -10.213  54.373  46.797  0.00  0.00    +0.000 A 
ATOM      7  C   UNL     1      -9.089  53.847  47.461  0.00  0.00    +0.000 A 
ATOM      8  C   UNL     1     -10.450  54.037  45.456  0.00  0.00    +0.000 A 
ATOM      9  C   UNL     1      -8.223  52.997  46.758  0.00  0.00    +0.000 A 
ATOM     10  C   UNL     1      -9.605  53.161  44.782  0.00  0.00    +0.000 A 
ATOM     11  C   UNL     1      -8.489  52.638  45.433  0.00  0.00    +0.000 A 
ENDROOT
BRANCH   1  17
ATOM     12  S   UNL     1     -13.675  56.405  51.480  0.00  0.00    +0.000 S 
ATOM     13  O   UNL     1     -13.079  56.718  52.763  0.00  0.00    +0.000 OA
ATOM     14  O   UNL     1     -14.882  55.606  51.404  0.00  0.00    +0.000 OA
ATOM     15  N   UNL     1     -12.542  55.678  50.585  0.00  0.00    +0.000 N 
ATOM     16  C   UNL     1     -14.058  57.942  50.727  0.00  0.00    +0.000 A 
ATOM     17  C   UNL     1     -11.968  56.299  49.599  0.00  0.00    +0.000 C 
ATOM     18  C   UNL     1     -13.286  58.354  49.652  0.00  0.00    +0.000 A 
ATOM     19  C   UNL     1     -15.121  58.703  51.211  0.00  0.00    +0.000 A 
ATOM     20  N   UNL     1     -12.209  57.595  49.205  0.00  0.00    +0.000 N 
ATOM     21  C   UNL     1     -13.559  59.598  49.077  0.00  0.00    +0.000 A 
ATOM     22  C   UNL     1     -15.395  59.928  50.615  0.00  0.00    +0.000 A 
ATOM     23  C   UNL     1     -14.615  60.379  49.550  0.00  0.00    +0.000 A 
ATOM     24  H   UNL     1     -12.285  54.750  50.790  0.00  0.00    +0.000 HD
ATOM     25  H   UNL     1     -11.583  58.010  48.570  0.00  0.00    +0.000 HD
ENDBRANCH   1  17
BRANCH   3  26
ATOM     26  O   UNL     1     -12.249  55.658  46.793  0.00  0.00    +0.000 OA
ATOM     27  H   UNL     1     -12.125  56.053  45.953  0.00  0.00    +0.000 HD
ENDBRANCH   3  26
BRANCH   5  28
ATOM     28  N   UNL     1      -7.702  53.610  49.470  0.00  0.00    +0.000 N 
ATOM     29  H   UNL     1      -7.654  52.677  49.777  0.00  0.00    +0.000 HD
BRANCH  28  30
ATOM     30  C   UNL     1      -6.582  54.546  49.621  0.00  0.00    +0.000 C 
BRANCH  30  31
ATOM     31  C   UNL     1      -5.858  54.368  50.932  0.00  0.00    +0.000 A 
ATOM     32  C   UNL     1      -6.530  54.556  52.144  0.00  0.00    +0.000 A 
ATOM     33  C   UNL     1      -4.480  54.094  50.949  0.00  0.00    +0.000 A 
ATOM     34  C   UNL     1      -5.845  54.493  53.357  0.00  0.00    +0.000 A 
ATOM     35  C   UNL     1      -3.790  54.021  52.157  0.00  0.00    +0.000 A 
ATOM     36  C   UNL     1      -4.466  54.226  53.359  0.00  0.00    +0.000 A 
ATOM     37  C   UNL     1      -6.563  54.779  54.642  0.00  0.00    +0.000 C 
ENDBRANCH  30  31
ENDBRANCH  28  30
ENDBRANCH   5  28
TORSDOF 5
ENDMDL
MODEL 9
REMARK VINA RESULT:      -8.7      2.645      7.461
REMARK  Name = 
REMARK  6 active torsions:
REMARK  status: ('A' for Active; 'I' for Inactive)
REMARK    1  A    between atoms: C_6  and  C_10
REMARK    2  A    between atoms: C_14  and  O_18
REMARK    3  A    between atoms: N_17  and  N_20
REMARK    4  A    between atoms: N_20  and  C_23
REMARK    5  A    between atoms: C_23  and  C_26
REMARK    6  A    between atoms: C_30  and  C_33
REMARK                            x       y       z     vdW  Elec       q    Type
REMARK                         _______ _______ _______ _____ _____    ______ ____
ROOT
ATOM      1  C   UNL     1     -11.242  54.517  48.352  0.00  0.00    +0.000 A 
ATOM      2  C   UNL     1     -10.916  54.100  49.743  0.00  0.00    +0.000 A 
ATOM      3  C   UNL     1     -12.204  55.418  48.104  0.00  0.00    +0.000 A 
ATOM      4  O   UNL     1      -9.984  53.304  49.889  0.00  0.00    +0.000 OA
ATOM      5  N   UNL     1     -11.654  54.666  50.788  0.00  0.00    +0.000 N 
ATOM      6  C   UNL     1     -12.954  56.018  49.212  0.00  0.00    +0.000 A 
ATOM      7  C   UNL     1     -12.672  55.635  50.537  0.00  0.00    +0.000 A 
ATOM      8  C   UNL     1     -13.921  57.003  48.964  0.00  0.00    +0.000 A 
ATOM      9  C   UNL     1     -13.373  56.249  51.584  0.00  0.00    +0.000 A 
ATOM     10  C   UNL     1     -14.581  57.633  50.013  0.00  0.00    +0.000 A 
ATOM     11  C   UNL     1     -14.307  57.257  51.328  0.00  0.00    +0.000 A 
ENDROOT
BRANCH   1  17
ATOM     12  S   UNL     1      -8.194  53.972  45.964  0.00  0.00    +0.000 S 
ATOM     13  O   UNL     1      -7.208  53.091  46.557  0.00  0.00    +0.000 OA
ATOM     14  O   UNL     1      -7.779  55.153  45.232  0.00  0.00    +0.000 OA
ATOM     15  N   UNL     1      -9.192  54.444  47.145  0.00  0.00    +0.000 N 
ATOM     16  C   UNL     1      -9.112  52.993  44.836  0.00  0.00    +0.000 A 
ATOM     17  C   UNL     1     -10.400  53.975  47.227  0.00  0.00    +0.000 C 
ATOM     18  C   UNL     1     -10.415  52.658  45.170  0.00  0.00    +0.000 A 
ATOM     19  C   UNL     1      -8.527  52.586  43.637  0.00  0.00    +0.000 A 
ATOM     20  N   UNL     1     -10.970  53.047  46.385  0.00  0.00    +0.000 N 
ATOM     21  C   UNL     1     -11.136  51.842  44.295  0.00  0.00    +0.000 A 
ATOM     22  C   UNL     1      -9.264  51.794  42.766  0.00  0.00    +0.000 A 
ATOM     23  C   UNL     1     -10.567  51.419  43.092  0.00  0.00    +0.000 A 
ATOM     24  H   UNL     1      -8.879  55.099  47.810  0.00  0.00    +0.000 HD
ATOM     25  H   UNL     1     -11.820  52.634  46.659  0.00  0.00    +0.000 HD
ENDBRANCH   1  17
BRANCH   3  26
ATOM     26  O   UNL     1     -12.527  55.897  46.846  0.00  0.00    +0.000 OA
ATOM     27  H   UNL     1     -11.862  55.978  46.191  0.00  0.00    +0.000 HD
ENDBRANCH   3  26
BRANCH   5  28
ATOM     28  N   UNL     1     -11.416  54.289  52.157  0.00  0.00    +0.000 N 
ATOM     29  H   UNL     1     -11.893  53.546  52.589  0.00  0.00    +0.000 HD
BRANCH  28  30
ATOM     30  C   UNL     1     -10.410  55.093  52.863  0.00  0.00    +0.000 C 
BRANCH  30  31
ATOM     31  C   UNL     1      -9.281  54.253  53.407  0.00  0.00    +0.000 A 
ATOM     32  C   UNL     1      -8.102  54.856  53.853  0.00  0.00    +0.000 A 
ATOM     33  C   UNL     1      -9.371  52.852  53.393  0.00  0.00    +0.000 A 
ATOM     34  C   UNL     1      -7.015  54.084  54.263  0.00  0.00    +0.000 A 
ATOM     35  C   UNL     1      -8.294  52.072  53.809  0.00  0.00    +0.000 A 
ATOM     36  C   UNL     1      -7.116  52.683  54.236  0.00  0.00    +0.000 A 
ATOM     37  C   UNL     1      -5.729  54.743  54.659  0.00  0.00    +0.000 C 
ENDBRANCH  30  31
ENDBRANCH  28  30
ENDBRANCH   5  28
TORSDOF 5
ENDMDL
