MODEL 1
REMARK VINA RESULT:      -8.8      0.000      0.000
REMARK  Name = 
REMARK  5 active torsions:
REMARK  status: ('A' for Active; 'I' for Inactive)
REMARK    1  A    between atoms: C_6  and  C_10
REMARK    2  A    between atoms: C_14  and  O_18
REMARK    3  A    between atoms: N_17  and  N_20
REMARK    4  A    between atoms: N_20  and  C_23
REMARK    5  A    between atoms: C_23  and  C_26
REMARK                            x       y       z     vdW  Elec       q    Type
REMARK                         _______ _______ _______ _____ _____    ______ ____
ROOT
ATOM      1  C   UNL     1      -9.098  54.370  49.897  0.00  0.00    +0.000 A 
ATOM      2  C   UNL     1     -10.142  55.434  49.984  0.00  0.00    +0.000 A 
ATOM      3  C   UNL     1      -8.994  53.610  48.793  0.00  0.00    +0.000 A 
ATOM      4  O   UNL     1     -10.200  56.088  51.030  0.00  0.00    +0.000 OA
ATOM      5  N   UNL     1     -10.971  55.639  48.878  0.00  0.00    +0.000 N 
ATOM      6  C   UNL     1      -9.876  53.837  47.640  0.00  0.00    +0.000 A 
ATOM      7  C   UNL     1     -10.855  54.845  47.697  0.00  0.00    +0.000 A 
ATOM      8  C   UNL     1      -9.743  53.067  46.471  0.00  0.00    +0.000 A 
ATOM      9  C   UNL     1     -11.688  55.050  46.584  0.00  0.00    +0.000 A 
ATOM     10  C   UNL     1     -10.562  53.294  45.367  0.00  0.00    +0.000 A 
ATOM     11  C   UNL     1     -11.537  54.284  45.425  0.00  0.00    +0.000 A 
ENDROOT
BRANCH   1  17
ATOM     12  S   UNL     1      -7.700  54.118  53.559  0.00  0.00    +0.000 S 
ATOM     13  O   UNL     1      -7.939  52.812  54.143  0.00  0.00    +0.000 OA
ATOM     14  O   UNL     1      -7.877  55.320  54.349  0.00  0.00    +0.000 OA
ATOM     15  N   UNL     1      -8.636  54.242  52.243  0.00  0.00    +0.000 N 
ATOM     16  C   UNL     1      -6.020  54.118  53.044  0.00  0.00    +0.000 A 
ATOM     17  C   UNL     1      -8.125  54.209  51.050  0.00  0.00    +0.000 C 
ATOM     18  C   UNL     1      -5.761  54.098  51.684  0.00  0.00    +0.000 A 
ATOM     19  C   UNL     1      -4.999  54.156  53.996  0.00  0.00    +0.000 A 
ATOM     20  N   UNL     1      -6.791  54.042  50.748  0.00  0.00    +0.000 N 
ATOM     21  C   UNL     1      -4.428  54.038  51.270  0.00  0.00    +0.000 A 
ATOM     22  C   UNL     1      -3.675  54.133  53.566  0.00  0.00    +0.000 A 
ATOM     23  C   UNL     1      -3.390  54.066  52.203  0.00  0.00    +0.000 A 
ATOM     24  H   UNL     1      -9.609  54.346  52.351  0.00  0.00    +0.000 HD
ATOM     25  H   UNL     1      -6.549  53.873  49.808  0.00  0.00    +0.000 HD
ENDBRANCH   1  17
BRANCH   3  26
ATOM     26  O   UNL     1      -8.060  52.602  48.626  0.00  0.00    +0.000 OA
ATOM     27  H   UNL     1      -7.610  52.252  49.370  0.00  0.00    +0.000 HD
ENDBRANCH   3  26
BRANCH   5  28
ATOM     28  N   UNL     1     -12.049  56.587  48.939  0.00  0.00    +0.000 N 
ATOM     29  H   UNL     1     -11.983  57.488  48.552  0.00  0.00    +0.000 HD
BRANCH  28  30
ATOM     30  C   UNL     1     -13.260  56.112  49.625  0.00  0.00    +0.000 C 
BRANCH  30  31
ATOM     31  C   UNL     1     -13.719  57.088  50.675  0.00  0.00    +0.000 A 
ATOM     32  C   UNL     1     -14.258  58.322  50.316  0.00  0.00    +0.000 A 
ATOM     33  C   UNL     1     -13.643  56.793  52.038  0.00  0.00    +0.000 A 
ATOM     34  N   UNL     1     -14.691  59.249  51.200  0.00  0.00    +0.000 NA
ATOM     35  C   UNL     1     -14.078  57.728  52.970  0.00  0.00    +0.000 A 
ATOM     36  C   UNL     1     -14.586  58.932  52.508  0.00  0.00    +0.000 A 
ENDBRANCH  30  31
ENDBRANCH  28  30
ENDBRANCH   5  28
TORSDOF 5
ENDMDL
MODEL 2
REMARK VINA RESULT:      -8.8      2.571      7.349
REMARK  Name = 
REMARK  5 active torsions:
REMARK  status: ('A' for Active; 'I' for Inactive)
REMARK    1  A    between atoms: C_6  and  C_10
REMARK    2  A    between atoms: C_14  and  O_18
REMARK    3  A    between atoms: N_17  and  N_20
REMARK    4  A    between atoms: N_20  and  C_23
REMARK    5  A    between atoms: C_23  and  C_26
REMARK                            x       y       z     vdW  Elec       q    Type
REMARK                         _______ _______ _______ _____ _____    ______ ____
ROOT
ATOM      1  C   UNL     1     -11.354  55.991  48.896  0.00  0.00    +0.000 A 
ATOM      2  C   UNL     1     -10.287  55.432  49.780  0.00  0.00    +0.000 A 
ATOM      3  C   UNL     1     -11.440  55.609  47.611  0.00  0.00    +0.000 A 
ATOM      4  O   UNL     1     -10.248  55.833  50.947  0.00  0.00    +0.000 OA
ATOM      5  N   UNL     1      -9.417  54.479  49.243  0.00  0.00    +0.000 N 
ATOM      6  C   UNL     1     -10.514  54.608  47.062  0.00  0.00    +0.000 A 
ATOM      7  C   UNL     1      -9.513  54.058  47.882  0.00  0.00    +0.000 A 
ATOM      8  C   UNL     1     -10.627  54.181  45.727  0.00  0.00    +0.000 A 
ATOM      9  C   UNL     1      -8.638  53.101  47.341  0.00  0.00    +0.000 A 
ATOM     10  C   UNL     1      -9.766  53.216  45.209  0.00  0.00    +0.000 A 
ATOM     11  C   UNL     1      -8.769  52.678  46.015  0.00  0.00    +0.000 A 
ENDROOT
BRANCH   1  17
ATOM     12  S   UNL     1     -13.539  59.207  49.453  0.00  0.00    +0.000 S 
ATOM     13  O   UNL     1     -14.667  59.261  48.545  0.00  0.00    +0.000 OA
ATOM     14  O   UNL     1     -12.776  60.403  49.749  0.00  0.00    +0.000 OA
ATOM     15  N   UNL     1     -12.514  58.086  48.892  0.00  0.00    +0.000 N 
ATOM     16  C   UNL     1     -14.181  58.648  50.990  0.00  0.00    +0.000 A 
ATOM     17  C   UNL     1     -12.369  56.946  49.496  0.00  0.00    +0.000 C 
ATOM     18  C   UNL     1     -13.843  57.372  51.407  0.00  0.00    +0.000 A 
ATOM     19  C   UNL     1     -14.990  59.491  51.755  0.00  0.00    +0.000 A 
ATOM     20  N   UNL     1     -13.049  56.537  50.623  0.00  0.00    +0.000 N 
ATOM     21  C   UNL     1     -14.399  56.900  52.598  0.00  0.00    +0.000 A 
ATOM     22  C   UNL     1     -15.507  59.020  52.960  0.00  0.00    +0.000 A 
ATOM     23  C   UNL     1     -15.217  57.721  53.377  0.00  0.00    +0.000 A 
ATOM     24  H   UNL     1     -11.992  58.273  48.079  0.00  0.00    +0.000 HD
ATOM     25  H   UNL     1     -12.969  55.593  50.892  0.00  0.00    +0.000 HD
ENDBRANCH   1  17
BRANCH   3  26
ATOM     26  O   UNL     1     -12.392  56.075  46.721  0.00  0.00    +0.000 OA
ATOM     27  H   UNL     1     -12.437  56.989  46.519  0.00  0.00    +0.000 HD
ENDBRANCH   3  26
BRANCH   5  28
ATOM     28  N   UNL     1      -8.318  53.975  50.020  0.00  0.00    +0.000 N 
ATOM     29  H   UNL     1      -8.353  53.110  50.487  0.00  0.00    +0.000 HD
BRANCH  28  30
ATOM     30  C   UNL     1      -7.135  54.846  50.068  0.00  0.00    +0.000 C 
BRANCH  30  31
ATOM     31  C   UNL     1      -6.560  54.922  51.457  0.00  0.00    +0.000 A 
ATOM     32  C   UNL     1      -7.201  55.650  52.457  0.00  0.00    +0.000 A 
ATOM     33  C   UNL     1      -5.380  54.257  51.802  0.00  0.00    +0.000 A 
ATOM     34  N   UNL     1      -6.747  55.764  53.725  0.00  0.00    +0.000 NA
ATOM     35  C   UNL     1      -4.888  54.359  53.098  0.00  0.00    +0.000 A 
ATOM     36  C   UNL     1      -5.597  55.119  54.015  0.00  0.00    +0.000 A 
ENDBRANCH  30  31
ENDBRANCH  28  30
ENDBRANCH   5  28
TORSDOF 5
ENDMDL
MODEL 3
REMARK VINA RESULT:      -8.8      3.257      8.553
REMARK  Name = 
REMARK  5 active torsions:
REMARK  status: ('A' for Active; 'I' for Inactive)
REMARK    1  A    between atoms: C_6  and  C_10
REMARK    2  A    between atoms: C_14  and  O_18
REMARK    3  A    between atoms: N_17  and  N_20
REMARK    4  A    between atoms: N_20  and  C_23
REMARK    5  A    between atoms: C_23  and  C_26
REMARK                            x       y       z     vdW  Elec       q    Type
REMARK                         _______ _______ _______ _____ _____    ______ ____
ROOT
ATOM      1  C   UNL     1     -10.116  54.568  52.210  0.00  0.00    +0.000 A 
ATOM      2  C   UNL     1      -8.748  55.136  52.019  0.00  0.00    +0.000 A 
ATOM      3  C   UNL     1     -10.293  53.459  52.949  0.00  0.00    +0.000 A 
ATOM      4  O   UNL     1      -8.645  56.147  51.316  0.00  0.00    +0.000 OA
ATOM      5  N   UNL     1      -7.676  54.509  52.660  0.00  0.00    +0.000 N 
ATOM      6  C   UNL     1      -9.154  52.810  53.613  0.00  0.00    +0.000 A 
ATOM      7  C   UNL     1      -7.861  53.340  53.459  0.00  0.00    +0.000 A 
ATOM      8  C   UNL     1      -9.345  51.672  54.416  0.00  0.00    +0.000 A 
ATOM      9  C   UNL     1      -6.784  52.707  54.103  0.00  0.00    +0.000 A 
ATOM     10  C   UNL     1      -8.271  51.066  55.066  0.00  0.00    +0.000 A 
ATOM     11  C   UNL     1      -6.991  51.583  54.907  0.00  0.00    +0.000 A 
ENDROOT
BRANCH   1  17
ATOM     12  S   UNL     1     -12.566  56.085  49.541  0.00  0.00    +0.000 S 
ATOM     13  O   UNL     1     -13.456  55.083  48.988  0.00  0.00    +0.000 OA
ATOM     14  O   UNL     1     -11.967  57.089  48.683  0.00  0.00    +0.000 OA
ATOM     15  N   UNL     1     -11.372  55.307  50.309  0.00  0.00    +0.000 N 
ATOM     16  C   UNL     1     -13.509  56.965  50.734  0.00  0.00    +0.000 A 
ATOM     17  C   UNL     1     -11.299  55.301  51.606  0.00  0.00    +0.000 C 
ATOM     18  C   UNL     1     -13.197  56.779  52.070  0.00  0.00    +0.000 A 
ATOM     19  C   UNL     1     -14.523  57.832  50.319  0.00  0.00    +0.000 A 
ATOM     20  N   UNL     1     -12.194  55.898  52.467  0.00  0.00    +0.000 N 
ATOM     21  C   UNL     1     -13.982  57.430  53.025  0.00  0.00    +0.000 A 
ATOM     22  C   UNL     1     -15.273  58.502  51.282  0.00  0.00    +0.000 A 
ATOM     23  C   UNL     1     -15.006  58.295  52.636  0.00  0.00    +0.000 A 
ATOM     24  H   UNL     1     -10.688  54.832  49.784  0.00  0.00    +0.000 HD
ATOM     25  H   UNL     1     -12.120  55.688  53.426  0.00  0.00    +0.000 HD
ENDBRANCH   1  17
BRANCH   3  26
ATOM     26  O   UNL     1     -11.521  52.864  53.177  0.00  0.00    +0.000 OA
ATOM     27  H   UNL     1     -12.112  52.720  52.464  0.00  0.00    +0.000 HD
ENDBRANCH   3  26
BRANCH   5  28
ATOM     28  N   UNL     1      -6.329  54.958  52.439  0.00  0.00    +0.000 N 
ATOM     29  H   UNL     1      -5.799  55.404  53.138  0.00  0.00    +0.000 HD
BRANCH  28  30
ATOM     30  C   UNL     1      -5.798  54.705  51.092  0.00  0.00    +0.000 C 
BRANCH  30  31
ATOM     31  C   UNL     1      -5.104  53.372  51.013  0.00  0.00    +0.000 A 
ATOM     32  C   UNL     1      -5.632  52.335  50.246  0.00  0.00    +0.000 A 
ATOM     33  C   UNL     1      -3.903  53.127  51.684  0.00  0.00    +0.000 A 
ATOM     34  N   UNL     1      -5.066  51.113  50.126  0.00  0.00    +0.000 NA
ATOM     35  C   UNL     1      -3.300  51.879  51.581  0.00  0.00    +0.000 A 
ATOM     36  C   UNL     1      -3.915  50.912  50.802  0.00  0.00    +0.000 A 
ENDBRANCH  30  31
ENDBRANCH  28  30
ENDBRANCH   5  28
TORSDOF 5
ENDMDL
MODEL 4
REMARK VINA RESULT:      -8.7      3.012      7.649
REMARK  Name = 
REMARK  5 active torsions:
REMARK  status: ('A' for Active; 'I' for Inactive)
REMARK    1  A    between atoms: C_6  and  C_10
REMARK    2  A    between atoms: C_14  and  O_18
REMARK    3  A    between atoms: N_17  and  N_20
REMARK    4  A    between atoms: N_20  and  C_23
REMARK    5  A    between atoms: C_23  and  C_26
REMARK                            x       y       z     vdW  Elec       q    Type
REMARK                         _______ _______ _______ _____ _____    ______ ____
ROOT
ATOM      1  C   UNL     1     -11.157  54.581  50.760  0.00  0.00    +0.000 A 
ATOM      2  C   UNL     1      -9.772  54.951  50.341  0.00  0.00    +0.000 A 
ATOM      3  C   UNL     1     -11.418  53.349  51.230  0.00  0.00    +0.000 A 
ATOM      4  O   UNL     1      -9.596  56.092  49.901  0.00  0.00    +0.000 OA
ATOM      5  N   UNL     1      -8.760  53.999  50.490  0.00  0.00    +0.000 N 
ATOM      6  C   UNL     1     -10.342  52.359  51.376  0.00  0.00    +0.000 A 
ATOM      7  C   UNL     1      -9.029  52.693  51.002  0.00  0.00    +0.000 A 
ATOM      8  C   UNL     1     -10.608  51.082  51.902  0.00  0.00    +0.000 A 
ATOM      9  C   UNL     1      -8.012  51.734  51.152  0.00  0.00    +0.000 A 
ATOM     10  C   UNL     1      -9.587  50.148  52.065  0.00  0.00    +0.000 A 
ATOM     11  C   UNL     1      -8.290  50.473  51.686  0.00  0.00    +0.000 A 
ENDROOT
BRANCH   1  17
ATOM     12  S   UNL     1     -13.620  57.290  49.336  0.00  0.00    +0.000 S 
ATOM     13  O   UNL     1     -14.770  56.691  48.689  0.00  0.00    +0.000 OA
ATOM     14  O   UNL     1     -12.965  58.443  48.751  0.00  0.00    +0.000 OA
ATOM     15  N   UNL     1     -12.508  56.128  49.528  0.00  0.00    +0.000 N 
ATOM     16  C   UNL     1     -14.168  57.798  50.926  0.00  0.00    +0.000 A 
ATOM     17  C   UNL     1     -12.241  55.641  50.702  0.00  0.00    +0.000 C 
ATOM     18  C   UNL     1     -13.701  57.097  52.026  0.00  0.00    +0.000 A 
ATOM     19  C   UNL     1     -15.033  58.887  51.050  0.00  0.00    +0.000 A 
ATOM     20  N   UNL     1     -12.852  56.002  51.883  0.00  0.00    +0.000 N 
ATOM     21  C   UNL     1     -14.180  57.459  53.287  0.00  0.00    +0.000 A 
ATOM     22  C   UNL     1     -15.473  59.259  52.318  0.00  0.00    +0.000 A 
ATOM     23  C   UNL     1     -15.051  58.539  53.436  0.00  0.00    +0.000 A 
ATOM     24  H   UNL     1     -12.026  55.786  48.741  0.00  0.00    +0.000 HD
ATOM     25  H   UNL     1     -12.677  55.450  52.680  0.00  0.00    +0.000 HD
ENDBRANCH   1  17
BRANCH   3  26
ATOM     26  O   UNL     1     -12.668  52.920  51.639  0.00  0.00    +0.000 OA
ATOM     27  H   UNL     1     -13.232  53.501  52.112  0.00  0.00    +0.000 HD
ENDBRANCH   3  26
BRANCH   5  28
ATOM     28  N   UNL     1      -7.429  54.268  50.020  0.00  0.00    +0.000 N 
ATOM     29  H   UNL     1      -7.024  53.776  49.270  0.00  0.00    +0.000 HD
BRANCH  28  30
ATOM     30  C   UNL     1      -6.713  55.331  50.741  0.00  0.00    +0.000 C 
BRANCH  30  31
ATOM     31  C   UNL     1      -6.486  54.963  52.183  0.00  0.00    +0.000 A 
ATOM     32  C   UNL     1      -7.268  55.518  53.194  0.00  0.00    +0.000 A 
ATOM     33  C   UNL     1      -5.502  54.046  52.562  0.00  0.00    +0.000 A 
ATOM     34  N   UNL     1      -7.123  55.237  54.508  0.00  0.00    +0.000 NA
ATOM     35  C   UNL     1      -5.329  53.741  53.907  0.00  0.00    +0.000 A 
ATOM     36  C   UNL     1      -6.153  54.358  54.835  0.00  0.00    +0.000 A 
ENDBRANCH  30  31
ENDBRANCH  28  30
ENDBRANCH   5  28
TORSDOF 5
ENDMDL
MODEL 5
REMARK VINA RESULT:      -8.7      3.731      7.676
REMARK  Name = 
REMARK  5 active torsions:
REMARK  status: ('A' for Active; 'I' for Inactive)
REMARK    1  A    between atoms: C_6  and  C_10
REMARK    2  A    between atoms: C_14  and  O_18
REMARK    3  A    between atoms: N_17  and  N_20
REMARK    4  A    between atoms: N_20  and  C_23
REMARK    5  A    between atoms: C_23  and  C_26
REMARK                            x       y       z     vdW  Elec       q    Type
REMARK                         _______ _______ _______ _____ _____    ______ ____
ROOT
ATOM      1  C   UNL     1     -12.515  54.302  49.551  0.00  0.00    +0.000 A 
ATOM      2  C   UNL     1     -12.015  54.267  48.145  0.00  0.00    +0.000 A 
ATOM      3  C   UNL     1     -12.215  53.307  50.404  0.00  0.00    +0.000 A 
ATOM      4  O   UNL     1     -12.337  55.201  47.403  0.00  0.00    +0.000 OA
ATOM      5  N   UNL     1     -11.200  53.199  47.760  0.00  0.00    +0.000 N 
ATOM      6  C   UNL     1     -11.360  52.189  49.981  0.00  0.00    +0.000 A 
ATOM      7  C   UNL     1     -10.866  52.147  48.666  0.00  0.00    +0.000 A 
ATOM      8  C   UNL     1     -11.016  51.168  50.883  0.00  0.00    +0.000 A 
ATOM      9  C   UNL     1     -10.047  51.072  48.280  0.00  0.00    +0.000 A 
ATOM     10  C   UNL     1     -10.187  50.118  50.494  0.00  0.00    +0.000 A 
ATOM     11  C   UNL     1      -9.705  50.068  49.191  0.00  0.00    +0.000 A 
ENDROOT
BRANCH   1  17
ATOM     12  S   UNL     1     -15.363  56.462  51.180  0.00  0.00    +0.000 S 
ATOM     13  O   UNL     1     -15.224  56.547  52.621  0.00  0.00    +0.000 OA
ATOM     14  O   UNL     1     -16.669  56.280  50.578  0.00  0.00    +0.000 OA
ATOM     15  N   UNL     1     -14.404  55.262  50.668  0.00  0.00    +0.000 N 
ATOM     16  C   UNL     1     -14.741  57.977  50.544  0.00  0.00    +0.000 A 
ATOM     17  C   UNL     1     -13.312  55.509  50.010  0.00  0.00    +0.000 C 
ATOM     18  C   UNL     1     -13.540  57.944  49.854  0.00  0.00    +0.000 A 
ATOM     19  C   UNL     1     -15.462  59.158  50.727  0.00  0.00    +0.000 A 
ATOM     20  N   UNL     1     -12.825  56.759  49.696  0.00  0.00    +0.000 N 
ATOM     21  C   UNL     1     -13.011  59.153  49.398  0.00  0.00    +0.000 A 
ATOM     22  C   UNL     1     -14.939  60.351  50.233  0.00  0.00    +0.000 A 
ATOM     23  C   UNL     1     -13.710  60.349  49.576  0.00  0.00    +0.000 A 
ATOM     24  H   UNL     1     -14.655  54.329  50.857  0.00  0.00    +0.000 HD
ATOM     25  H   UNL     1     -11.910  56.819  49.337  0.00  0.00    +0.000 HD
ENDBRANCH   1  17
BRANCH   3  26
ATOM     26  O   UNL     1     -12.637  53.256  51.721  0.00  0.00    +0.000 OA
ATOM     27  H   UNL     1     -12.268  52.625  52.307  0.00  0.00    +0.000 HD
ENDBRANCH   3  26
BRANCH   5  28
ATOM     28  N   UNL     1     -10.765  53.067  46.397  0.00  0.00    +0.000 N 
ATOM     29  H   UNL     1     -11.046  52.319  45.823  0.00  0.00    +0.000 HD
BRANCH  28  30
ATOM     30  C   UNL     1      -9.868  54.129  45.920  0.00  0.00    +0.000 C 
BRANCH  30  31
ATOM     31  C   UNL     1      -8.549  54.107  46.647  0.00  0.00    +0.000 A 
ATOM     32  C   UNL     1      -7.560  53.189  46.303  0.00  0.00    +0.000 A 
ATOM     33  C   UNL     1      -8.260  55.009  47.674  0.00  0.00    +0.000 A 
ATOM     34  N   UNL     1      -6.354  53.108  46.908  0.00  0.00    +0.000 NA
ATOM     35  C   UNL     1      -7.028  54.947  48.316  0.00  0.00    +0.000 A 
ATOM     36  C   UNL     1      -6.118  53.986  47.904  0.00  0.00    +0.000 A 
ENDBRANCH  30  31
ENDBRANCH  28  30
ENDBRANCH   5  28
TORSDOF 5
ENDMDL
MODEL 6
REMARK VINA RESULT:      -8.7      2.318      5.658
REMARK  Name = 
REMARK  5 active torsions:
REMARK  status: ('A' for Active; 'I' for Inactive)
REMARK    1  A    between atoms: C_6  and  C_10
REMARK    2  A    between atoms: C_14  and  O_18
REMARK    3  A    between atoms: N_17  and  N_20
REMARK    4  A    between atoms: N_20  and  C_23
REMARK    5  A    between atoms: C_23  and  C_26
REMARK                            x       y       z     vdW  Elec       q    Type
REMARK                         _______ _______ _______ _____ _____    ______ ____
ROOT
ATOM      1  C   UNL     1     -10.405  55.179  50.923  0.00  0.00    +0.000 A 
ATOM      2  C   UNL     1     -10.094  55.072  49.466  0.00  0.00    +0.000 A 
ATOM      3  C   UNL     1     -11.574  55.703  51.330  0.00  0.00    +0.000 A 
ATOM      4  O   UNL     1      -8.997  54.597  49.153  0.00  0.00    +0.000 OA
ATOM      5  N   UNL     1     -11.062  55.493  48.550  0.00  0.00    +0.000 N 
ATOM      6  C   UNL     1     -12.579  56.145  50.353  0.00  0.00    +0.000 A 
ATOM      7  C   UNL     1     -12.311  56.037  48.978  0.00  0.00    +0.000 A 
ATOM      8  C   UNL     1     -13.816  56.659  50.780  0.00  0.00    +0.000 A 
ATOM      9  C   UNL     1     -13.286  56.461  48.058  0.00  0.00    +0.000 A 
ATOM     10  C   UNL     1     -14.782  57.057  49.857  0.00  0.00    +0.000 A 
ATOM     11  C   UNL     1     -14.515  56.961  48.497  0.00  0.00    +0.000 A 
ENDROOT
BRANCH   1  17
ATOM     12  S   UNL     1      -7.080  54.697  52.957  0.00  0.00    +0.000 S 
ATOM     13  O   UNL     1      -6.941  55.682  54.012  0.00  0.00    +0.000 OA
ATOM     14  O   UNL     1      -5.936  54.318  52.151  0.00  0.00    +0.000 OA
ATOM     15  N   UNL     1      -8.247  55.213  51.959  0.00  0.00    +0.000 N 
ATOM     16  C   UNL     1      -7.633  53.224  53.739  0.00  0.00    +0.000 A 
ATOM     17  C   UNL     1      -9.406  54.628  51.922  0.00  0.00    +0.000 C 
ATOM     18  C   UNL     1      -8.935  52.817  53.504  0.00  0.00    +0.000 A 
ATOM     19  C   UNL     1      -6.760  52.497  54.552  0.00  0.00    +0.000 A 
ATOM     20  N   UNL     1      -9.797  53.563  52.705  0.00  0.00    +0.000 N 
ATOM     21  C   UNL     1      -9.399  51.680  54.170  0.00  0.00    +0.000 A 
ATOM     22  C   UNL     1      -7.226  51.345  55.180  0.00  0.00    +0.000 A 
ATOM     23  C   UNL     1      -8.548  50.941  54.994  0.00  0.00    +0.000 A 
ATOM     24  H   UNL     1      -8.073  55.981  51.370  0.00  0.00    +0.000 HD
ATOM     25  H   UNL     1     -10.750  53.313  52.698  0.00  0.00    +0.000 HD
ENDBRANCH   1  17
BRANCH   3  26
ATOM     26  O   UNL     1     -11.945  55.843  52.656  0.00  0.00    +0.000 OA
ATOM     27  H   UNL     1     -11.817  56.660  53.095  0.00  0.00    +0.000 HD
ENDBRANCH   3  26
BRANCH   5  28
ATOM     28  N   UNL     1     -10.782  55.497  47.141  0.00  0.00    +0.000 N 
ATOM     29  H   UNL     1     -10.201  56.171  46.720  0.00  0.00    +0.000 HD
BRANCH  28  30
ATOM     30  C   UNL     1     -11.426  54.423  46.371  0.00  0.00    +0.000 C 
BRANCH  30  31
ATOM     31  C   UNL     1     -10.482  53.822  45.365  0.00  0.00    +0.000 A 
ATOM     32  C   UNL     1      -9.104  53.979  45.495  0.00  0.00    +0.000 A 
ATOM     33  C   UNL     1     -10.944  53.073  44.280  0.00  0.00    +0.000 A 
ATOM     34  N   UNL     1      -8.196  53.469  44.633  0.00  0.00    +0.000 NA
ATOM     35  C   UNL     1     -10.032  52.538  43.376  0.00  0.00    +0.000 A 
ATOM     36  C   UNL     1      -8.682  52.764  43.590  0.00  0.00    +0.000 A 
ENDBRANCH  30  31
ENDBRANCH  28  30
ENDBRANCH   5  28
TORSDOF 5
ENDMDL
MODEL 7
REMARK VINA RESULT:      -8.6      1.606      2.151
REMARK  Name = 
REMARK  5 active torsions:
REMARK  status: ('A' for Active; 'I' for Inactive)
REMARK    1  A    between atoms: C_6  and  C_10
REMARK    2  A    between atoms: C_14  and  O_18
REMARK    3  A    between atoms: N_17  and  N_20
REMARK    4  A    between atoms: N_20  and  C_23
REMARK    5  A    between atoms: C_23  and  C_26
REMARK                            x       y       z     vdW  Elec       q    Type
REMARK                         _______ _______ _______ _____ _____    ______ ____
ROOT
ATOM      1  C   UNL     1      -9.635  54.302  50.182  0.00  0.00    +0.000 A 
ATOM      2  C   UNL     1     -10.667  55.380  50.228  0.00  0.00    +0.000 A 
ATOM      3  C   UNL     1      -9.436  53.602  49.052  0.00  0.00    +0.000 A 
ATOM      4  O   UNL     1     -10.817  55.978  51.299  0.00  0.00    +0.000 OA
ATOM      5  N   UNL     1     -11.381  55.663  49.060  0.00  0.00    +0.000 N 
ATOM      6  C   UNL     1     -10.199  53.909  47.834  0.00  0.00    +0.000 A 
ATOM      7  C   UNL     1     -11.163  54.932  47.853  0.00  0.00    +0.000 A 
ATOM      8  C   UNL     1      -9.964  53.202  46.642  0.00  0.00    +0.000 A 
ATOM      9  C   UNL     1     -11.880  55.215  46.678  0.00  0.00    +0.000 A 
ATOM     10  C   UNL     1     -10.668  53.505  45.478  0.00  0.00    +0.000 A 
ATOM     11  C   UNL     1     -11.629  54.510  45.498  0.00  0.00    +0.000 A 
ENDROOT
BRANCH   1  17
ATOM     12  S   UNL     1      -6.758  54.675  52.830  0.00  0.00    +0.000 S 
ATOM     13  O   UNL     1      -7.001  55.773  53.745  0.00  0.00    +0.000 OA
ATOM     14  O   UNL     1      -5.429  54.437  52.304  0.00  0.00    +0.000 OA
ATOM     15  N   UNL     1      -7.768  54.852  51.576  0.00  0.00    +0.000 N 
ATOM     16  C   UNL     1      -7.206  53.214  53.697  0.00  0.00    +0.000 A 
ATOM     17  C   UNL     1      -8.782  54.058  51.412  0.00  0.00    +0.000 C 
ATOM     18  C   UNL     1      -8.348  52.544  53.290  0.00  0.00    +0.000 A 
ATOM     19  C   UNL     1      -6.408  52.754  54.747  0.00  0.00    +0.000 A 
ATOM     20  N   UNL     1      -9.142  53.026  52.251  0.00  0.00    +0.000 N 
ATOM     21  C   UNL     1      -8.742  51.416  54.013  0.00  0.00    +0.000 A 
ATOM     22  C   UNL     1      -6.795  51.606  55.435  0.00  0.00    +0.000 A 
ATOM     23  C   UNL     1      -7.966  50.942  55.072  0.00  0.00    +0.000 A 
ATOM     24  H   UNL     1      -7.608  55.574  50.926  0.00  0.00    +0.000 HD
ATOM     25  H   UNL     1     -10.019  52.601  52.108  0.00  0.00    +0.000 HD
ENDBRANCH   1  17
BRANCH   3  26
ATOM     26  O   UNL     1      -8.505  52.586  48.919  0.00  0.00    +0.000 OA
ATOM     27  H   UNL     1      -8.631  51.773  49.369  0.00  0.00    +0.000 HD
ENDBRANCH   3  26
BRANCH   5  28
ATOM     28  N   UNL     1     -12.446  56.627  49.071  0.00  0.00    +0.000 N 
ATOM     29  H   UNL     1     -12.351  57.524  48.679  0.00  0.00    +0.000 HD
BRANCH  28  30
ATOM     30  C   UNL     1     -13.691  56.177  49.712  0.00  0.00    +0.000 C 
BRANCH  30  31
ATOM     31  C   UNL     1     -14.157  57.152  50.759  0.00  0.00    +0.000 A 
ATOM     32  C   UNL     1     -14.542  58.445  50.412  0.00  0.00    +0.000 A 
ATOM     33  C   UNL     1     -14.239  56.798  52.108  0.00  0.00    +0.000 A 
ATOM     34  N   UNL     1     -14.971  59.374  51.295  0.00  0.00    +0.000 NA
ATOM     35  C   UNL     1     -14.675  57.735  53.040  0.00  0.00    +0.000 A 
ATOM     36  C   UNL     1     -15.022  58.998  52.590  0.00  0.00    +0.000 A 
ENDBRANCH  30  31
ENDBRANCH  28  30
ENDBRANCH   5  28
TORSDOF 5
ENDMDL
MODEL 8
REMARK VINA RESULT:      -8.5      2.251      7.369
REMARK  Name = 
REMARK  5 active torsions:
REMARK  status: ('A' for Active; 'I' for Inactive)
REMARK    1  A    between atoms: C_6  and  C_10
REMARK    2  A    between atoms: C_14  and  O_18
REMARK    3  A    between atoms: N_17  and  N_20
REMARK    4  A    between atoms: N_20  and  C_23
REMARK    5  A    between atoms: C_23  and  C_26
REMARK                            x       y       z     vdW  Elec       q    Type
REMARK                         _______ _______ _______ _____ _____    ______ ____
ROOT
ATOM      1  C   UNL     1     -10.950  55.468  48.781  0.00  0.00    +0.000 A 
ATOM      2  C   UNL     1      -9.744  54.949  49.492  0.00  0.00    +0.000 A 
ATOM      3  C   UNL     1     -11.145  55.186  47.481  0.00  0.00    +0.000 A 
ATOM      4  O   UNL     1      -9.611  55.255  50.682  0.00  0.00    +0.000 OA
ATOM      5  N   UNL     1      -8.857  54.136  48.782  0.00  0.00    +0.000 N 
ATOM      6  C   UNL     1     -10.200  54.333  46.749  0.00  0.00    +0.000 A 
ATOM      7  C   UNL     1      -9.067  53.821  47.405  0.00  0.00    +0.000 A 
ATOM      8  C   UNL     1     -10.423  54.008  45.399  0.00  0.00    +0.000 A 
ATOM      9  C   UNL     1      -8.175  53.004  46.690  0.00  0.00    +0.000 A 
ATOM     10  C   UNL     1      -9.542  53.181  44.706  0.00  0.00    +0.000 A 
ATOM     11  C   UNL     1      -8.416  52.682  45.351  0.00  0.00    +0.000 A 
ENDROOT
BRANCH   1  17
ATOM     12  S   UNL     1     -13.648  56.386  51.484  0.00  0.00    +0.000 S 
ATOM     13  O   UNL     1     -13.047  56.710  52.764  0.00  0.00    +0.000 OA
ATOM     14  O   UNL     1     -14.853  55.584  51.421  0.00  0.00    +0.000 OA
ATOM     15  N   UNL     1     -12.516  55.659  50.584  0.00  0.00    +0.000 N 
ATOM     16  C   UNL     1     -14.048  57.923  50.734  0.00  0.00    +0.000 A 
ATOM     17  C   UNL     1     -11.974  56.263  49.570  0.00  0.00    +0.000 C 
ATOM     18  C   UNL     1     -13.304  58.320  49.635  0.00  0.00    +0.000 A 
ATOM     19  C   UNL     1     -15.099  58.693  51.238  0.00  0.00    +0.000 A 
ATOM     20  N   UNL     1     -12.248  57.549  49.156  0.00  0.00    +0.000 N 
ATOM     21  C   UNL     1     -13.579  59.568  49.071  0.00  0.00    +0.000 A 
ATOM     22  C   UNL     1     -15.385  59.919  50.642  0.00  0.00    +0.000 A 
ATOM     23  C   UNL     1     -14.619  60.359  49.563  0.00  0.00    +0.000 A 
ATOM     24  H   UNL     1     -12.235  54.743  50.808  0.00  0.00    +0.000 HD
ATOM     25  H   UNL     1     -11.659  57.949  48.476  0.00  0.00    +0.000 HD
ENDBRANCH   1  17
BRANCH   3  26
ATOM     26  O   UNL     1     -12.231  55.626  46.743  0.00  0.00    +0.000 OA
ATOM     27  H   UNL     1     -12.150  56.381  46.195  0.00  0.00    +0.000 HD
ENDBRANCH   3  26
BRANCH   5  28
ATOM     28  N   UNL     1      -7.636  53.683  49.389  0.00  0.00    +0.000 N 
ATOM     29  H   UNL     1      -7.509  52.757  49.694  0.00  0.00    +0.000 HD
BRANCH  28  30
ATOM     30  C   UNL     1      -6.588  54.706  49.525  0.00  0.00    +0.000 C 
BRANCH  30  31
ATOM     31  C   UNL     1      -5.850  54.572  50.830  0.00  0.00    +0.000 A 
ATOM     32  C   UNL     1      -6.449  54.947  52.031  0.00  0.00    +0.000 A 
ATOM     33  C   UNL     1      -4.554  54.054  50.892  0.00  0.00    +0.000 A 
ATOM     34  N   UNL     1      -5.851  54.857  53.239  0.00  0.00    +0.000 NA
ATOM     35  C   UNL     1      -3.913  53.952  52.122  0.00  0.00    +0.000 A 
ATOM     36  C   UNL     1      -4.594  54.365  53.256  0.00  0.00    +0.000 A 
ENDBRANCH  30  31
ENDBRANCH  28  30
ENDBRANCH   5  28
TORSDOF 5
ENDMDL
MODEL 9
REMARK VINA RESULT:      -8.5      2.118      5.514
REMARK  Name = 
REMARK  5 active torsions:
REMARK  status: ('A' for Active; 'I' for Inactive)
REMARK    1  A    between atoms: C_6  and  C_10
REMARK    2  A    between atoms: C_14  and  O_18
REMARK    3  A    between atoms: N_17  and  N_20
REMARK    4  A    between atoms: N_20  and  C_23
REMARK    5  A    between atoms: C_23  and  C_26
REMARK                            x       y       z     vdW  Elec       q    Type
REMARK                         _______ _______ _______ _____ _____    ______ ____
ROOT
ATOM      1  C   UNL     1     -10.722  54.836  50.668  0.00  0.00    +0.000 A 
ATOM      2  C   UNL     1     -10.431  54.747  49.206  0.00  0.00    +0.000 A 
ATOM      3  C   UNL     1     -11.709  55.631  51.116  0.00  0.00    +0.000 A 
ATOM      4  O   UNL     1      -9.501  54.013  48.855  0.00  0.00    +0.000 OA
ATOM      5  N   UNL     1     -11.235  55.476  48.326  0.00  0.00    +0.000 N 
ATOM      6  C   UNL     1     -12.543  56.394  50.177  0.00  0.00    +0.000 A 
ATOM      7  C   UNL     1     -12.295  56.311  48.796  0.00  0.00    +0.000 A 
ATOM      8  C   UNL     1     -13.599  57.197  50.643  0.00  0.00    +0.000 A 
ATOM      9  C   UNL     1     -13.104  57.045  47.912  0.00  0.00    +0.000 A 
ATOM     10  C   UNL     1     -14.407  57.904  49.755  0.00  0.00    +0.000 A 
ATOM     11  C   UNL     1     -14.157  57.831  48.390  0.00  0.00    +0.000 A 
ENDROOT
BRANCH   1  17
ATOM     12  S   UNL     1      -9.851  52.051  53.297  0.00  0.00    +0.000 S 
ATOM     13  O   UNL     1      -9.720  50.745  52.682  0.00  0.00    +0.000 OA
ATOM     14  O   UNL     1     -10.530  52.199  54.570  0.00  0.00    +0.000 OA
ATOM     15  N   UNL     1     -10.580  53.023  52.227  0.00  0.00    +0.000 N 
ATOM     16  C   UNL     1      -8.214  52.635  53.549  0.00  0.00    +0.000 A 
ATOM     17  C   UNL     1      -9.924  53.968  51.623  0.00  0.00    +0.000 C 
ATOM     18  C   UNL     1      -7.773  53.686  52.762  0.00  0.00    +0.000 A 
ATOM     19  C   UNL     1      -7.409  52.052  54.531  0.00  0.00    +0.000 A 
ATOM     20  N   UNL     1      -8.583  54.244  51.775  0.00  0.00    +0.000 N 
ATOM     21  C   UNL     1      -6.453  54.115  52.916  0.00  0.00    +0.000 A 
ATOM     22  C   UNL     1      -6.106  52.516  54.698  0.00  0.00    +0.000 A 
ATOM     23  C   UNL     1      -5.627  53.542  53.885  0.00  0.00    +0.000 A 
ATOM     24  H   UNL     1     -11.536  52.897  52.032  0.00  0.00    +0.000 HD
ATOM     25  H   UNL     1      -8.169  54.878  51.145  0.00  0.00    +0.000 HD
ENDBRANCH   1  17
BRANCH   3  26
ATOM     26  O   UNL     1     -12.047  55.776  52.451  0.00  0.00    +0.000 OA
ATOM     27  H   UNL     1     -12.802  56.276  52.691  0.00  0.00    +0.000 HD
ENDBRANCH   3  26
BRANCH   5  28
ATOM     28  N   UNL     1     -10.944  55.499  46.919  0.00  0.00    +0.000 N 
ATOM     29  H   UNL     1     -10.359  56.177  46.512  0.00  0.00    +0.000 HD
BRANCH  28  30
ATOM     30  C   UNL     1     -11.584  54.436  46.130  0.00  0.00    +0.000 C 
BRANCH  30  31
ATOM     31  C   UNL     1     -10.599  53.755  45.219  0.00  0.00    +0.000 A 
ATOM     32  C   UNL     1      -9.228  53.943  45.379  0.00  0.00    +0.000 A 
ATOM     33  C   UNL     1     -11.014  52.900  44.195  0.00  0.00    +0.000 A 
ATOM     34  N   UNL     1      -8.284  53.367  44.602  0.00  0.00    +0.000 NA
ATOM     35  C   UNL     1     -10.066  52.295  43.377  0.00  0.00    +0.000 A 
ATOM     36  C   UNL     1      -8.726  52.560  43.614  0.00  0.00    +0.000 A 
ENDBRANCH  30  31
ENDBRANCH  28  30
ENDBRANCH   5  28
TORSDOF 5
ENDMDL
