MODEL 1
REMARK VINA RESULT:      -8.3      0.000      0.000
REMARK  Name = 
REMARK  5 active torsions:
REMARK  status: ('A' for Active; 'I' for Inactive)
REMARK    1  A    between atoms: C_6  and  C_10
REMARK    2  A    between atoms: C_14  and  O_18
REMARK    3  A    between atoms: N_17  and  N_20
REMARK    4  A    between atoms: N_20  and  C_23
REMARK    5  A    between atoms: C_23  and  C_26
REMARK                            x       y       z     vdW  Elec       q    Type
REMARK                         _______ _______ _______ _____ _____    ______ ____
ROOT
ATOM      1  C   UNL     1     -11.345  53.901  51.574  0.00  0.00    +0.000 A 
ATOM      2  C   UNL     1     -10.389  54.064  52.708  0.00  0.00    +0.000 A 
ATOM      3  C   UNL     1     -11.488  52.708  50.971  0.00  0.00    +0.000 A 
ATOM      4  O   UNL     1     -10.277  55.192  53.197  0.00  0.00    +0.000 OA
ATOM      5  N   UNL     1      -9.705  52.934  53.165  0.00  0.00    +0.000 N 
ATOM      6  C   UNL     1     -10.740  51.536  51.447  0.00  0.00    +0.000 A 
ATOM      7  C   UNL     1      -9.857  51.662  52.535  0.00  0.00    +0.000 A 
ATOM      8  C   UNL     1     -10.906  50.282  50.834  0.00  0.00    +0.000 A 
ATOM      9  C   UNL     1      -9.150  50.531  52.975  0.00  0.00    +0.000 A 
ATOM     10  C   UNL     1     -10.209  49.165  51.288  0.00  0.00    +0.000 A 
ATOM     11  C   UNL     1      -9.327  49.290  52.356  0.00  0.00    +0.000 A 
ENDROOT
BRANCH   1  17
ATOM     12  S   UNL     1     -12.874  56.779  49.381  0.00  0.00    +0.000 S 
ATOM     13  O   UNL     1     -13.905  56.309  48.478  0.00  0.00    +0.000 OA
ATOM     14  O   UNL     1     -11.900  57.753  48.930  0.00  0.00    +0.000 OA
ATOM     15  N   UNL     1     -12.069  55.484  49.926  0.00  0.00    +0.000 N 
ATOM     16  C   UNL     1     -13.712  57.523  50.731  0.00  0.00    +0.000 A 
ATOM     17  C   UNL     1     -12.182  55.094  51.159  0.00  0.00    +0.000 C 
ATOM     18  C   UNL     1     -13.662  56.881  51.956  0.00  0.00    +0.000 A 
ATOM     19  C   UNL     1     -14.390  58.733  50.552  0.00  0.00    +0.000 A 
ATOM     20  N   UNL     1     -12.996  55.670  52.114  0.00  0.00    +0.000 N 
ATOM     21  C   UNL     1     -14.381  57.436  53.021  0.00  0.00    +0.000 A 
ATOM     22  C   UNL     1     -15.070  59.293  51.631  0.00  0.00    +0.000 A 
ATOM     23  C   UNL     1     -15.073  58.641  52.863  0.00  0.00    +0.000 A 
ATOM     24  H   UNL     1     -11.485  54.983  49.312  0.00  0.00    +0.000 HD
ATOM     25  H   UNL     1     -13.112  55.190  52.966  0.00  0.00    +0.000 HD
ENDBRANCH   1  17
BRANCH   3  26
ATOM     26  O   UNL     1     -12.342  52.470  49.908  0.00  0.00    +0.000 OA
ATOM     27  H   UNL     1     -12.278  51.669  49.426  0.00  0.00    +0.000 HD
ENDBRANCH   3  26
BRANCH   5  28
ATOM     28  N   UNL     1      -8.743  53.052  54.234  0.00  0.00    +0.000 N 
ATOM     29  H   UNL     1      -8.966  52.880  55.177  0.00  0.00    +0.000 HD
BRANCH  28  30
ATOM     30  C   UNL     1      -7.403  53.451  53.789  0.00  0.00    +0.000 C 
BRANCH  30  31
ATOM     31  C   UNL     1      -7.006  54.743  54.430  0.00  0.00    +0.000 C 
ATOM     32  C   UNL     1      -6.764  56.001  53.640  0.00  0.00    +0.000 C 
ATOM     33  C   UNL     1      -5.601  55.257  54.234  0.00  0.00    +0.000 C 
ENDBRANCH  30  31
ENDBRANCH  28  30
ENDBRANCH   5  28
TORSDOF 5
ENDMDL
MODEL 2
REMARK VINA RESULT:      -8.2      2.211      2.816
REMARK  Name = 
REMARK  5 active torsions:
REMARK  status: ('A' for Active; 'I' for Inactive)
REMARK    1  A    between atoms: C_6  and  C_10
REMARK    2  A    between atoms: C_14  and  O_18
REMARK    3  A    between atoms: N_17  and  N_20
REMARK    4  A    between atoms: N_20  and  C_23
REMARK    5  A    between atoms: C_23  and  C_26
REMARK                            x       y       z     vdW  Elec       q    Type
REMARK                         _______ _______ _______ _____ _____    ______ ____
ROOT
ATOM      1  C   UNL     1     -10.103  54.544  52.204  0.00  0.00    +0.000 A 
ATOM      2  C   UNL     1      -8.738  55.108  51.989  0.00  0.00    +0.000 A 
ATOM      3  C   UNL     1     -10.274  53.447  52.962  0.00  0.00    +0.000 A 
ATOM      4  O   UNL     1      -8.642  56.095  51.253  0.00  0.00    +0.000 OA
ATOM      5  N   UNL     1      -7.662  54.508  52.649  0.00  0.00    +0.000 N 
ATOM      6  C   UNL     1      -9.127  52.813  53.628  0.00  0.00    +0.000 A 
ATOM      7  C   UNL     1      -7.836  53.349  53.463  0.00  0.00    +0.000 A 
ATOM      8  C   UNL     1      -9.306  51.681  54.442  0.00  0.00    +0.000 A 
ATOM      9  C   UNL     1      -6.752  52.727  54.105  0.00  0.00    +0.000 A 
ATOM     10  C   UNL     1      -8.225  51.082  55.084  0.00  0.00    +0.000 A 
ATOM     11  C   UNL     1      -6.947  51.603  54.912  0.00  0.00    +0.000 A 
ENDROOT
BRANCH   1  17
ATOM     12  S   UNL     1     -12.568  56.025  49.529  0.00  0.00    +0.000 S 
ATOM     13  O   UNL     1     -13.465  55.028  48.980  0.00  0.00    +0.000 OA
ATOM     14  O   UNL     1     -11.965  57.019  48.663  0.00  0.00    +0.000 OA
ATOM     15  N   UNL     1     -11.377  55.244  50.298  0.00  0.00    +0.000 N 
ATOM     16  C   UNL     1     -13.504  56.919  50.714  0.00  0.00    +0.000 A 
ATOM     17  C   UNL     1     -11.287  55.266  51.593  0.00  0.00    +0.000 C 
ATOM     18  C   UNL     1     -13.184  56.753  52.050  0.00  0.00    +0.000 A 
ATOM     19  C   UNL     1     -14.526  57.777  50.295  0.00  0.00    +0.000 A 
ATOM     20  N   UNL     1     -12.173  55.885  52.451  0.00  0.00    +0.000 N 
ATOM     21  C   UNL     1     -13.967  57.414  53.003  0.00  0.00    +0.000 A 
ATOM     22  C   UNL     1     -15.272  58.458  51.253  0.00  0.00    +0.000 A 
ATOM     23  C   UNL     1     -14.999  58.271  52.607  0.00  0.00    +0.000 A 
ATOM     24  H   UNL     1     -10.708  54.744  49.775  0.00  0.00    +0.000 HD
ATOM     25  H   UNL     1     -12.084  55.699  53.414  0.00  0.00    +0.000 HD
ENDBRANCH   1  17
BRANCH   3  26
ATOM     26  O   UNL     1     -11.499  52.853  53.207  0.00  0.00    +0.000 OA
ATOM     27  H   UNL     1     -11.741  52.621  54.082  0.00  0.00    +0.000 HD
ENDBRANCH   3  26
BRANCH   5  28
ATOM     28  N   UNL     1      -6.321  54.997  52.441  0.00  0.00    +0.000 N 
ATOM     29  H   UNL     1      -5.943  55.756  52.940  0.00  0.00    +0.000 HD
BRANCH  28  30
ATOM     30  C   UNL     1      -5.570  54.260  51.418  0.00  0.00    +0.000 C 
BRANCH  30  31
ATOM     31  C   UNL     1      -5.540  55.032  50.137  0.00  0.00    +0.000 C 
ATOM     32  C   UNL     1      -6.311  54.611  48.915  0.00  0.00    +0.000 C 
ATOM     33  C   UNL     1      -4.817  54.452  48.947  0.00  0.00    +0.000 C 
ENDBRANCH  30  31
ENDBRANCH  28  30
ENDBRANCH   5  28
TORSDOF 5
ENDMDL
MODEL 3
REMARK VINA RESULT:      -8.1      4.005      4.904
REMARK  Name = 
REMARK  5 active torsions:
REMARK  status: ('A' for Active; 'I' for Inactive)
REMARK    1  A    between atoms: C_6  and  C_10
REMARK    2  A    between atoms: C_14  and  O_18
REMARK    3  A    between atoms: N_17  and  N_20
REMARK    4  A    between atoms: N_20  and  C_23
REMARK    5  A    between atoms: C_23  and  C_26
REMARK                            x       y       z     vdW  Elec       q    Type
REMARK                         _______ _______ _______ _____ _____    ______ ____
ROOT
ATOM      1  C   UNL     1     -10.692  55.616  48.126  0.00  0.00    +0.000 A 
ATOM      2  C   UNL     1      -9.228  55.711  48.398  0.00  0.00    +0.000 A 
ATOM      3  C   UNL     1     -11.141  54.975  47.033  0.00  0.00    +0.000 A 
ATOM      4  O   UNL     1      -8.877  56.343  49.399  0.00  0.00    +0.000 OA
ATOM      5  N   UNL     1      -8.349  55.062  47.525  0.00  0.00    +0.000 N 
ATOM      6  C   UNL     1     -10.201  54.321  46.112  0.00  0.00    +0.000 A 
ATOM      7  C   UNL     1      -8.818  54.374  46.367  0.00  0.00    +0.000 A 
ATOM      8  C   UNL     1     -10.669  53.629  44.981  0.00  0.00    +0.000 A 
ATOM      9  C   UNL     1      -7.935  53.744  45.474  0.00  0.00    +0.000 A 
ATOM     10  C   UNL     1      -9.784  52.998  44.110  0.00  0.00    +0.000 A 
ATOM     11  C   UNL     1      -8.416  53.059  44.354  0.00  0.00    +0.000 A 
ENDROOT
BRANCH   1  17
ATOM     12  S   UNL     1     -13.043  55.957  51.254  0.00  0.00    +0.000 S 
ATOM     13  O   UNL     1     -12.312  56.189  52.483  0.00  0.00    +0.000 OA
ATOM     14  O   UNL     1     -14.174  55.051  51.239  0.00  0.00    +0.000 OA
ATOM     15  N   UNL     1     -11.984  55.452  50.139  0.00  0.00    +0.000 N 
ATOM     16  C   UNL     1     -13.670  57.520  50.760  0.00  0.00    +0.000 A 
ATOM     17  C   UNL     1     -11.653  56.209  49.137  0.00  0.00    +0.000 C 
ATOM     18  C   UNL     1     -13.127  58.107  49.630  0.00  0.00    +0.000 A 
ATOM     19  C   UNL     1     -14.695  58.126  51.493  0.00  0.00    +0.000 A 
ATOM     20  N   UNL     1     -12.098  57.497  48.920  0.00  0.00    +0.000 N 
ATOM     21  C   UNL     1     -13.578  59.381  49.267  0.00  0.00    +0.000 A 
ATOM     22  C   UNL     1     -15.160  59.378  51.098  0.00  0.00    +0.000 A 
ATOM     23  C   UNL     1     -14.597  60.009  49.991  0.00  0.00    +0.000 A 
ATOM     24  H   UNL     1     -11.584  54.556  50.221  0.00  0.00    +0.000 HD
ATOM     25  H   UNL     1     -11.655  58.021  48.213  0.00  0.00    +0.000 HD
ENDBRANCH   1  17
BRANCH   3  26
ATOM     26  O   UNL     1     -12.478  54.847  46.699  0.00  0.00    +0.000 OA
ATOM     27  H   UNL     1     -12.724  54.655  45.816  0.00  0.00    +0.000 HD
ENDBRANCH   3  26
BRANCH   5  28
ATOM     28  N   UNL     1      -6.924  55.160  47.728  0.00  0.00    +0.000 N 
ATOM     29  H   UNL     1      -6.360  55.819  47.263  0.00  0.00    +0.000 HD
BRANCH  28  30
ATOM     30  C   UNL     1      -6.391  54.187  48.689  0.00  0.00    +0.000 C 
BRANCH  30  31
ATOM     31  C   UNL     1      -5.655  54.890  49.785  0.00  0.00    +0.000 C 
ATOM     32  C   UNL     1      -4.755  54.169  50.753  0.00  0.00    +0.000 C 
ATOM     33  C   UNL     1      -6.091  54.679  51.214  0.00  0.00    +0.000 C 
ENDBRANCH  30  31
ENDBRANCH  28  30
ENDBRANCH   5  28
TORSDOF 5
ENDMDL
MODEL 4
REMARK VINA RESULT:      -8.1      2.922      7.347
REMARK  Name = 
REMARK  5 active torsions:
REMARK  status: ('A' for Active; 'I' for Inactive)
REMARK    1  A    between atoms: C_6  and  C_10
REMARK    2  A    between atoms: C_14  and  O_18
REMARK    3  A    between atoms: N_17  and  N_20
REMARK    4  A    between atoms: N_20  and  C_23
REMARK    5  A    between atoms: C_23  and  C_26
REMARK                            x       y       z     vdW  Elec       q    Type
REMARK                         _______ _______ _______ _____ _____    ______ ____
ROOT
ATOM      1  C   UNL     1     -10.460  54.916  50.516  0.00  0.00    +0.000 A 
ATOM      2  C   UNL     1     -11.593  55.106  51.469  0.00  0.00    +0.000 A 
ATOM      3  C   UNL     1     -10.598  55.248  49.221  0.00  0.00    +0.000 A 
ATOM      4  O   UNL     1     -11.417  54.749  52.638  0.00  0.00    +0.000 OA
ATOM      5  N   UNL     1     -12.767  55.697  50.992  0.00  0.00    +0.000 N 
ATOM      6  C   UNL     1     -11.849  55.844  48.731  0.00  0.00    +0.000 A 
ATOM      7  C   UNL     1     -12.918  56.059  49.620  0.00  0.00    +0.000 A 
ATOM      8  C   UNL     1     -11.987  56.215  47.382  0.00  0.00    +0.000 A 
ATOM      9  C   UNL     1     -14.106  56.629  49.133  0.00  0.00    +0.000 A 
ATOM     10  C   UNL     1     -13.165  56.790  46.914  0.00  0.00    +0.000 A 
ATOM     11  C   UNL     1     -14.228  56.993  47.789  0.00  0.00    +0.000 A 
ENDROOT
BRANCH   1  17
ATOM     12  S   UNL     1      -7.249  52.697  50.956  0.00  0.00    +0.000 S 
ATOM     13  O   UNL     1      -6.215  53.008  49.991  0.00  0.00    +0.000 OA
ATOM     14  O   UNL     1      -7.533  51.318  51.301  0.00  0.00    +0.000 OA
ATOM     15  N   UNL     1      -8.626  53.375  50.440  0.00  0.00    +0.000 N 
ATOM     16  C   UNL     1      -6.769  53.480  52.452  0.00  0.00    +0.000 A 
ATOM     17  C   UNL     1      -9.144  54.393  51.056  0.00  0.00    +0.000 C 
ATOM     18  C   UNL     1      -7.518  54.561  52.885  0.00  0.00    +0.000 A 
ATOM     19  C   UNL     1      -5.670  53.000  53.171  0.00  0.00    +0.000 A 
ATOM     20  N   UNL     1      -8.600  55.035  52.150  0.00  0.00    +0.000 N 
ATOM     21  C   UNL     1      -7.103  55.229  54.043  0.00  0.00    +0.000 A 
ATOM     22  C   UNL     1      -5.292  53.652  54.342  0.00  0.00    +0.000 A 
ATOM     23  C   UNL     1      -6.002  54.770  54.774  0.00  0.00    +0.000 A 
ATOM     24  H   UNL     1      -9.077  53.009  49.645  0.00  0.00    +0.000 HD
ATOM     25  H   UNL     1      -9.005  55.888  52.429  0.00  0.00    +0.000 HD
ENDBRANCH   1  17
BRANCH   3  26
ATOM     26  O   UNL     1      -9.605  55.097  48.269  0.00  0.00    +0.000 OA
ATOM     27  H   UNL     1      -9.080  55.832  48.019  0.00  0.00    +0.000 HD
ENDBRANCH   3  26
BRANCH   5  28
ATOM     28  N   UNL     1     -13.901  55.866  51.868  0.00  0.00    +0.000 N 
ATOM     29  H   UNL     1     -14.625  55.204  51.942  0.00  0.00    +0.000 HD
BRANCH  28  30
ATOM     30  C   UNL     1     -13.877  57.113  52.641  0.00  0.00    +0.000 C 
BRANCH  30  31
ATOM     31  C   UNL     1     -15.098  57.927  52.352  0.00  0.00    +0.000 C 
ATOM     32  C   UNL     1     -15.052  59.219  51.581  0.00  0.00    +0.000 C 
ATOM     33  C   UNL     1     -15.288  59.244  53.065  0.00  0.00    +0.000 C 
ENDBRANCH  30  31
ENDBRANCH  28  30
ENDBRANCH   5  28
TORSDOF 5
ENDMDL
MODEL 5
REMARK VINA RESULT:      -8.0      2.875      7.309
REMARK  Name = 
REMARK  5 active torsions:
REMARK  status: ('A' for Active; 'I' for Inactive)
REMARK    1  A    between atoms: C_6  and  C_10
REMARK    2  A    between atoms: C_14  and  O_18
REMARK    3  A    between atoms: N_17  and  N_20
REMARK    4  A    between atoms: N_20  and  C_23
REMARK    5  A    between atoms: C_23  and  C_26
REMARK                            x       y       z     vdW  Elec       q    Type
REMARK                         _______ _______ _______ _____ _____    ______ ____
ROOT
ATOM      1  C   UNL     1     -10.185  54.924  50.903  0.00  0.00    +0.000 A 
ATOM      2  C   UNL     1     -11.490  55.471  51.376  0.00  0.00    +0.000 A 
ATOM      3  C   UNL     1      -9.920  54.838  49.588  0.00  0.00    +0.000 A 
ATOM      4  O   UNL     1     -11.688  55.491  52.595  0.00  0.00    +0.000 OA
ATOM      5  N   UNL     1     -12.393  55.949  50.422  0.00  0.00    +0.000 N 
ATOM      6  C   UNL     1     -10.892  55.322  48.597  0.00  0.00    +0.000 A 
ATOM      7  C   UNL     1     -12.116  55.869  49.024  0.00  0.00    +0.000 A 
ATOM      8  C   UNL     1     -10.608  55.256  47.222  0.00  0.00    +0.000 A 
ATOM      9  C   UNL     1     -13.033  56.324  48.062  0.00  0.00    +0.000 A 
ATOM     10  C   UNL     1     -11.520  55.722  46.278  0.00  0.00    +0.000 A 
ATOM     11  C   UNL     1     -12.735  56.253  46.698  0.00  0.00    +0.000 A 
ENDROOT
BRANCH   1  17
ATOM     12  S   UNL     1      -6.878  54.875  53.022  0.00  0.00    +0.000 S 
ATOM     13  O   UNL     1      -6.855  55.896  54.050  0.00  0.00    +0.000 OA
ATOM     14  O   UNL     1      -5.687  54.599  52.243  0.00  0.00    +0.000 OA
ATOM     15  N   UNL     1      -8.074  55.240  51.992  0.00  0.00    +0.000 N 
ATOM     16  C   UNL     1      -7.282  53.375  53.836  0.00  0.00    +0.000 A 
ATOM     17  C   UNL     1      -9.153  54.522  51.938  0.00  0.00    +0.000 C 
ATOM     18  C   UNL     1      -8.524  52.817  53.585  0.00  0.00    +0.000 A 
ATOM     19  C   UNL     1      -6.357  52.775  54.696  0.00  0.00    +0.000 A 
ATOM     20  N   UNL     1      -9.439  53.434  52.738  0.00  0.00    +0.000 N 
ATOM     21  C   UNL     1      -8.877  51.654  54.280  0.00  0.00    +0.000 A 
ATOM     22  C   UNL     1      -6.708  51.597  55.352  0.00  0.00    +0.000 A 
ATOM     23  C   UNL     1      -7.970  51.041  55.151  0.00  0.00    +0.000 A 
ATOM     24  H   UNL     1      -7.980  56.020  51.398  0.00  0.00    +0.000 HD
ATOM     25  H   UNL     1     -10.353  53.070  52.708  0.00  0.00    +0.000 HD
ENDBRANCH   1  17
BRANCH   3  26
ATOM     26  O   UNL     1      -8.743  54.336  49.061  0.00  0.00    +0.000 OA
ATOM     27  H   UNL     1      -8.477  53.460  49.259  0.00  0.00    +0.000 HD
ENDBRANCH   3  26
BRANCH   5  28
ATOM     28  N   UNL     1     -13.682  56.452  50.832  0.00  0.00    +0.000 N 
ATOM     29  H   UNL     1     -14.468  55.874  50.956  0.00  0.00    +0.000 HD
BRANCH  28  30
ATOM     30  C   UNL     1     -13.714  57.904  51.046  0.00  0.00    +0.000 C 
BRANCH  30  31
ATOM     31  C   UNL     1     -14.039  58.210  52.474  0.00  0.00    +0.000 C 
ATOM     32  C   UNL     1     -15.259  57.664  53.166  0.00  0.00    +0.000 C 
ATOM     33  C   UNL     1     -15.206  59.116  52.783  0.00  0.00    +0.000 C 
ENDBRANCH  30  31
ENDBRANCH  28  30
ENDBRANCH   5  28
TORSDOF 5
ENDMDL
MODEL 6
REMARK VINA RESULT:      -8.0      3.350      7.685
REMARK  Name = 
REMARK  5 active torsions:
REMARK  status: ('A' for Active; 'I' for Inactive)
REMARK    1  A    between atoms: C_6  and  C_10
REMARK    2  A    between atoms: C_14  and  O_18
REMARK    3  A    between atoms: N_17  and  N_20
REMARK    4  A    between atoms: N_20  and  C_23
REMARK    5  A    between atoms: C_23  and  C_26
REMARK                            x       y       z     vdW  Elec       q    Type
REMARK                         _______ _______ _______ _____ _____    ______ ____
ROOT
ATOM      1  C   UNL     1      -9.667  55.166  50.922  0.00  0.00    +0.000 A 
ATOM      2  C   UNL     1     -10.891  55.314  51.763  0.00  0.00    +0.000 A 
ATOM      3  C   UNL     1      -9.738  55.308  49.587  0.00  0.00    +0.000 A 
ATOM      4  O   UNL     1     -10.769  55.137  52.979  0.00  0.00    +0.000 OA
ATOM      5  N   UNL     1     -12.088  55.668  51.133  0.00  0.00    +0.000 N 
ATOM      6  C   UNL     1     -11.011  55.654  48.939  0.00  0.00    +0.000 A 
ATOM      7  C   UNL     1     -12.170  55.827  49.718  0.00  0.00    +0.000 A 
ATOM      8  C   UNL     1     -11.082  55.826  47.546  0.00  0.00    +0.000 A 
ATOM      9  C   UNL     1     -13.378  56.156  49.079  0.00  0.00    +0.000 A 
ATOM     10  C   UNL     1     -12.283  56.165  46.926  0.00  0.00    +0.000 A 
ATOM     11  C   UNL     1     -13.432  56.325  47.693  0.00  0.00    +0.000 A 
ENDROOT
BRANCH   1  17
ATOM     12  S   UNL     1      -6.750  55.369  53.543  0.00  0.00    +0.000 S 
ATOM     13  O   UNL     1      -7.014  54.593  54.739  0.00  0.00    +0.000 OA
ATOM     14  O   UNL     1      -6.144  56.682  53.646  0.00  0.00    +0.000 OA
ATOM     15  N   UNL     1      -8.146  55.525  52.739  0.00  0.00    +0.000 N 
ATOM     16  C   UNL     1      -5.652  54.404  52.572  0.00  0.00    +0.000 A 
ATOM     17  C   UNL     1      -8.344  54.908  51.614  0.00  0.00    +0.000 C 
ATOM     18  C   UNL     1      -6.137  53.860  51.396  0.00  0.00    +0.000 A 
ATOM     19  C   UNL     1      -4.330  54.218  52.988  0.00  0.00    +0.000 A 
ATOM     20  N   UNL     1      -7.459  54.043  51.003  0.00  0.00    +0.000 N 
ATOM     21  C   UNL     1      -5.285  53.038  50.649  0.00  0.00    +0.000 A 
ATOM     22  C   UNL     1      -3.482  53.428  52.215  0.00  0.00    +0.000 A 
ATOM     23  C   UNL     1      -3.961  52.832  51.051  0.00  0.00    +0.000 A 
ATOM     24  H   UNL     1      -8.857  56.097  53.109  0.00  0.00    +0.000 HD
ATOM     25  H   UNL     1      -7.786  53.519  50.236  0.00  0.00    +0.000 HD
ENDBRANCH   1  17
BRANCH   3  26
ATOM     26  O   UNL     1      -8.658  55.179  48.732  0.00  0.00    +0.000 OA
ATOM     27  H   UNL     1      -8.570  54.412  48.200  0.00  0.00    +0.000 HD
ENDBRANCH   3  26
BRANCH   5  28
ATOM     28  N   UNL     1     -13.304  55.784  51.901  0.00  0.00    +0.000 N 
ATOM     29  H   UNL     1     -13.961  55.056  51.980  0.00  0.00    +0.000 HD
BRANCH  28  30
ATOM     30  C   UNL     1     -13.472  57.087  52.556  0.00  0.00    +0.000 C 
BRANCH  30  31
ATOM     31  C   UNL     1     -14.794  57.684  52.192  0.00  0.00    +0.000 C 
ATOM     32  C   UNL     1     -14.925  58.887  51.295  0.00  0.00    +0.000 C 
ATOM     33  C   UNL     1     -15.178  59.025  52.771  0.00  0.00    +0.000 C 
ENDBRANCH  30  31
ENDBRANCH  28  30
ENDBRANCH   5  28
TORSDOF 5
ENDMDL
MODEL 7
REMARK VINA RESULT:      -7.8      3.560      7.454
REMARK  Name = 
REMARK  5 active torsions:
REMARK  status: ('A' for Active; 'I' for Inactive)
REMARK    1  A    between atoms: C_6  and  C_10
REMARK    2  A    between atoms: C_14  and  O_18
REMARK    3  A    between atoms: N_17  and  N_20
REMARK    4  A    between atoms: N_20  and  C_23
REMARK    5  A    between atoms: C_23  and  C_26
REMARK                            x       y       z     vdW  Elec       q    Type
REMARK                         _______ _______ _______ _____ _____    ______ ____
ROOT
ATOM      1  C   UNL     1     -10.156  55.274  50.680  0.00  0.00    +0.000 A 
ATOM      2  C   UNL     1      -9.704  55.237  49.258  0.00  0.00    +0.000 A 
ATOM      3  C   UNL     1     -11.384  55.721  50.992  0.00  0.00    +0.000 A 
ATOM      4  O   UNL     1      -8.552  54.849  49.038  0.00  0.00    +0.000 OA
ATOM      5  N   UNL     1     -10.614  55.612  48.265  0.00  0.00    +0.000 N 
ATOM      6  C   UNL     1     -12.318  56.138  49.936  0.00  0.00    +0.000 A 
ATOM      7  C   UNL     1     -11.922  56.080  48.587  0.00  0.00    +0.000 A 
ATOM      8  C   UNL     1     -13.612  56.583  50.258  0.00  0.00    +0.000 A 
ATOM      9  C   UNL     1     -12.829  56.485  47.593  0.00  0.00    +0.000 A 
ATOM     10  C   UNL     1     -14.506  56.968  49.262  0.00  0.00    +0.000 A 
ATOM     11  C   UNL     1     -14.112  56.924  47.929  0.00  0.00    +0.000 A 
ENDROOT
BRANCH   1  17
ATOM     12  S   UNL     1      -6.989  54.877  52.968  0.00  0.00    +0.000 S 
ATOM     13  O   UNL     1      -6.948  55.847  54.045  0.00  0.00    +0.000 OA
ATOM     14  O   UNL     1      -5.779  54.545  52.242  0.00  0.00    +0.000 OA
ATOM     15  N   UNL     1      -8.092  55.378  51.896  0.00  0.00    +0.000 N 
ATOM     16  C   UNL     1      -7.549  53.378  53.686  0.00  0.00    +0.000 A 
ATOM     17  C   UNL     1      -9.218  54.748  51.748  0.00  0.00    +0.000 C 
ATOM     18  C   UNL     1      -8.812  52.928  53.342  0.00  0.00    +0.000 A 
ATOM     19  C   UNL     1      -6.722  52.670  54.565  0.00  0.00    +0.000 A 
ATOM     20  N   UNL     1      -9.629  53.652  52.478  0.00  0.00    +0.000 N 
ATOM     21  C   UNL     1      -9.290  51.767  53.960  0.00  0.00    +0.000 A 
ATOM     22  C   UNL     1      -7.197  51.495  55.142  0.00  0.00    +0.000 A 
ATOM     23  C   UNL     1      -8.483  51.048  54.847  0.00  0.00    +0.000 A 
ATOM     24  H   UNL     1      -7.907  56.174  51.345  0.00  0.00    +0.000 HD
ATOM     25  H   UNL     1     -10.565  53.361  52.381  0.00  0.00    +0.000 HD
ENDBRANCH   1  17
BRANCH   3  26
ATOM     26  O   UNL     1     -11.880  55.799  52.282  0.00  0.00    +0.000 OA
ATOM     27  H   UNL     1     -11.310  55.658  53.012  0.00  0.00    +0.000 HD
ENDBRANCH   3  26
BRANCH   5  28
ATOM     28  N   UNL     1     -10.209  55.627  46.880  0.00  0.00    +0.000 N 
ATOM     29  H   UNL     1      -9.877  56.435  46.427  0.00  0.00    +0.000 HD
BRANCH  28  30
ATOM     30  C   UNL     1     -10.335  54.329  46.208  0.00  0.00    +0.000 C 
BRANCH  30  31
ATOM     31  C   UNL     1      -8.984  53.789  45.861  0.00  0.00    +0.000 C 
ATOM     32  C   UNL     1      -7.910  54.632  45.227  0.00  0.00    +0.000 C 
ATOM     33  C   UNL     1      -8.623  53.592  44.409  0.00  0.00    +0.000 C 
ENDBRANCH  30  31
ENDBRANCH  28  30
ENDBRANCH   5  28
TORSDOF 5
ENDMDL
MODEL 8
REMARK VINA RESULT:      -7.8      3.501      4.278
REMARK  Name = 
REMARK  5 active torsions:
REMARK  status: ('A' for Active; 'I' for Inactive)
REMARK    1  A    between atoms: C_6  and  C_10
REMARK    2  A    between atoms: C_14  and  O_18
REMARK    3  A    between atoms: N_17  and  N_20
REMARK    4  A    between atoms: N_20  and  C_23
REMARK    5  A    between atoms: C_23  and  C_26
REMARK                            x       y       z     vdW  Elec       q    Type
REMARK                         _______ _______ _______ _____ _____    ______ ____
ROOT
ATOM      1  C   UNL     1     -11.590  56.038  48.758  0.00  0.00    +0.000 A 
ATOM      2  C   UNL     1     -10.505  55.433  49.584  0.00  0.00    +0.000 A 
ATOM      3  C   UNL     1     -11.747  55.679  47.472  0.00  0.00    +0.000 A 
ATOM      4  O   UNL     1     -10.389  55.830  50.748  0.00  0.00    +0.000 OA
ATOM      5  N   UNL     1      -9.707  54.441  49.006  0.00  0.00    +0.000 N 
ATOM      6  C   UNL     1     -10.881  54.653  46.872  0.00  0.00    +0.000 A 
ATOM      7  C   UNL     1      -9.872  54.048  47.644  0.00  0.00    +0.000 A 
ATOM      8  C   UNL     1     -11.059  54.257  45.535  0.00  0.00    +0.000 A 
ATOM      9  C   UNL     1      -9.054  53.071  47.052  0.00  0.00    +0.000 A 
ATOM     10  C   UNL     1     -10.250  53.278  44.964  0.00  0.00    +0.000 A 
ATOM     11  C   UNL     1      -9.244  52.688  45.722  0.00  0.00    +0.000 A 
ENDROOT
BRANCH   1  17
ATOM     12  S   UNL     1     -13.587  59.337  49.504  0.00  0.00    +0.000 S 
ATOM     13  O   UNL     1     -14.731  59.510  48.632  0.00  0.00    +0.000 OA
ATOM     14  O   UNL     1     -12.745  60.469  49.835  0.00  0.00    +0.000 OA
ATOM     15  N   UNL     1     -12.646  58.187  48.860  0.00  0.00    +0.000 N 
ATOM     16  C   UNL     1     -14.224  58.747  51.029  0.00  0.00    +0.000 A 
ATOM     17  C   UNL     1     -12.537  57.020  49.418  0.00  0.00    +0.000 C 
ATOM     18  C   UNL     1     -13.943  57.438  51.384  0.00  0.00    +0.000 A 
ATOM     19  C   UNL     1     -14.975  59.595  51.848  0.00  0.00    +0.000 A 
ATOM     20  N   UNL     1     -13.206  56.603  50.550  0.00  0.00    +0.000 N 
ATOM     21  C   UNL     1     -14.501  56.942  52.568  0.00  0.00    +0.000 A 
ATOM     22  C   UNL     1     -15.492  59.098  53.043  0.00  0.00    +0.000 A 
ATOM     23  C   UNL     1     -15.263  57.771  53.399  0.00  0.00    +0.000 A 
ATOM     24  H   UNL     1     -12.149  58.376  48.031  0.00  0.00    +0.000 HD
ATOM     25  H   UNL     1     -13.159  55.647  50.785  0.00  0.00    +0.000 HD
ENDBRANCH   1  17
BRANCH   3  26
ATOM     26  O   UNL     1     -12.718  56.194  46.632  0.00  0.00    +0.000 OA
ATOM     27  H   UNL     1     -13.466  55.676  46.407  0.00  0.00    +0.000 HD
ENDBRANCH   3  26
BRANCH   5  28
ATOM     28  N   UNL     1      -8.622  53.855  49.755  0.00  0.00    +0.000 N 
ATOM     29  H   UNL     1      -8.580  52.898  49.979  0.00  0.00    +0.000 HD
BRANCH  28  30
ATOM     30  C   UNL     1      -7.587  54.816  50.155  0.00  0.00    +0.000 C 
BRANCH  30  31
ATOM     31  C   UNL     1      -6.621  55.035  49.034  0.00  0.00    +0.000 C 
ATOM     32  C   UNL     1      -5.747  53.937  48.487  0.00  0.00    +0.000 C 
ATOM     33  C   UNL     1      -5.141  55.025  49.328  0.00  0.00    +0.000 C 
ENDBRANCH  30  31
ENDBRANCH  28  30
ENDBRANCH   5  28
TORSDOF 5
ENDMDL
MODEL 9
REMARK VINA RESULT:      -7.7      2.512      3.341
REMARK  Name = 
REMARK  5 active torsions:
REMARK  status: ('A' for Active; 'I' for Inactive)
REMARK    1  A    between atoms: C_6  and  C_10
REMARK    2  A    between atoms: C_14  and  O_18
REMARK    3  A    between atoms: N_17  and  N_20
REMARK    4  A    between atoms: N_20  and  C_23
REMARK    5  A    between atoms: C_23  and  C_26
REMARK                            x       y       z     vdW  Elec       q    Type
REMARK                         _______ _______ _______ _____ _____    ______ ____
ROOT
ATOM      1  C   UNL     1     -10.328  54.557  52.166  0.00  0.00    +0.000 A 
ATOM      2  C   UNL     1      -8.932  55.086  52.165  0.00  0.00    +0.000 A 
ATOM      3  C   UNL     1     -10.627  53.428  52.831  0.00  0.00    +0.000 A 
ATOM      4  O   UNL     1      -8.713  56.107  51.506  0.00  0.00    +0.000 OA
ATOM      5  N   UNL     1      -7.970  54.416  52.926  0.00  0.00    +0.000 N 
ATOM      6  C   UNL     1      -9.596  52.722  53.605  0.00  0.00    +0.000 A 
ATOM      7  C   UNL     1      -8.282  53.222  53.642  0.00  0.00    +0.000 A 
ATOM      8  C   UNL     1      -9.912  51.554  54.322  0.00  0.00    +0.000 A 
ATOM      9  C   UNL     1      -7.310  52.531  54.385  0.00  0.00    +0.000 A 
ATOM     10  C   UNL     1      -8.943  50.886  55.065  0.00  0.00    +0.000 A 
ATOM     11  C   UNL     1      -7.639  51.372  55.093  0.00  0.00    +0.000 A 
ENDROOT
BRANCH   1  17
ATOM     12  S   UNL     1     -13.618  56.598  51.503  0.00  0.00    +0.000 S 
ATOM     13  O   UNL     1     -13.520  57.977  51.937  0.00  0.00    +0.000 OA
ATOM     14  O   UNL     1     -14.833  55.844  51.741  0.00  0.00    +0.000 OA
ATOM     15  N   UNL     1     -12.387  55.784  52.169  0.00  0.00    +0.000 N 
ATOM     16  C   UNL     1     -13.395  56.619  49.763  0.00  0.00    +0.000 A 
ATOM     17  C   UNL     1     -11.400  55.350  51.446  0.00  0.00    +0.000 C 
ATOM     18  C   UNL     1     -12.228  56.075  49.254  0.00  0.00    +0.000 A 
ATOM     19  C   UNL     1     -14.385  57.161  48.937  0.00  0.00    +0.000 A 
ATOM     20  N   UNL     1     -11.246  55.553  50.089  0.00  0.00    +0.000 N 
ATOM     21  C   UNL     1     -12.016  56.146  47.872  0.00  0.00    +0.000 A 
ATOM     22  C   UNL     1     -14.177  57.190  47.561  0.00  0.00    +0.000 A 
ATOM     23  C   UNL     1     -12.990  56.691  47.028  0.00  0.00    +0.000 A 
ATOM     24  H   UNL     1     -12.387  55.614  53.140  0.00  0.00    +0.000 HD
ATOM     25  H   UNL     1     -10.381  55.311  49.686  0.00  0.00    +0.000 HD
ENDBRANCH   1  17
BRANCH   3  26
ATOM     26  O   UNL     1     -11.889  52.863  52.877  0.00  0.00    +0.000 OA
ATOM     27  H   UNL     1     -12.562  53.170  52.302  0.00  0.00    +0.000 HD
ENDBRANCH   3  26
BRANCH   5  28
ATOM     28  N   UNL     1      -6.601  54.870  52.925  0.00  0.00    +0.000 N 
ATOM     29  H   UNL     1      -6.231  55.461  53.619  0.00  0.00    +0.000 HD
BRANCH  28  30
ATOM     30  C   UNL     1      -5.809  54.372  51.794  0.00  0.00    +0.000 C 
BRANCH  30  31
ATOM     31  C   UNL     1      -4.752  53.429  52.275  0.00  0.00    +0.000 C 
ATOM     32  C   UNL     1      -3.881  53.723  53.468  0.00  0.00    +0.000 C 
ATOM     33  C   UNL     1      -3.300  53.795  52.083  0.00  0.00    +0.000 C 
ENDBRANCH  30  31
ENDBRANCH  28  30
ENDBRANCH   5  28
TORSDOF 5
ENDMDL
