MODEL 1
REMARK VINA RESULT:      -8.8      0.000      0.000
REMARK  Name = 
REMARK  5 active torsions:
REMARK  status: ('A' for Active; 'I' for Inactive)
REMARK    1  A    between atoms: C_6  and  C_10
REMARK    2  A    between atoms: C_14  and  O_18
REMARK    3  A    between atoms: N_17  and  N_20
REMARK    4  A    between atoms: N_20  and  C_23
REMARK    5  A    between atoms: C_23  and  C_26
REMARK                            x       y       z     vdW  Elec       q    Type
REMARK                         _______ _______ _______ _____ _____    ______ ____
ROOT
ATOM      1  C   UNL     1     -11.438  56.061  48.813  0.00  0.00    +0.000 A 
ATOM      2  C   UNL     1     -10.347  55.505  49.668  0.00  0.00    +0.000 A 
ATOM      3  C   UNL     1     -11.563  55.674  47.532  0.00  0.00    +0.000 A 
ATOM      4  O   UNL     1     -10.279  55.909  50.832  0.00  0.00    +0.000 OA
ATOM      5  N   UNL     1      -9.492  54.550  49.109  0.00  0.00    +0.000 N 
ATOM      6  C   UNL     1     -10.655  54.671  46.961  0.00  0.00    +0.000 A 
ATOM      7  C   UNL     1      -9.630  54.124  47.752  0.00  0.00    +0.000 A 
ATOM      8  C   UNL     1     -10.811  54.238  45.632  0.00  0.00    +0.000 A 
ATOM      9  C   UNL     1      -8.775  53.162  47.190  0.00  0.00    +0.000 A 
ATOM     10  C   UNL     1      -9.971  53.266  45.095  0.00  0.00    +0.000 A 
ATOM     11  C   UNL     1      -8.951  52.730  45.872  0.00  0.00    +0.000 A 
ENDROOT
BRANCH   1  17
ATOM     12  S   UNL     1     -13.559  59.301  49.449  0.00  0.00    +0.000 S 
ATOM     13  O   UNL     1     -14.691  59.389  48.543  0.00  0.00    +0.000 OA
ATOM     14  O   UNL     1     -12.779  60.481  49.761  0.00  0.00    +0.000 OA
ATOM     15  N   UNL     1     -12.551  58.178  48.861  0.00  0.00    +0.000 N 
ATOM     16  C   UNL     1     -14.201  58.722  50.974  0.00  0.00    +0.000 A 
ATOM     17  C   UNL     1     -12.433  57.019  49.434  0.00  0.00    +0.000 C 
ATOM     18  C   UNL     1     -13.894  57.426  51.357  0.00  0.00    +0.000 A 
ATOM     19  C   UNL     1     -14.982  59.566  51.769  0.00  0.00    +0.000 A 
ATOM     20  N   UNL     1     -13.125  56.594  50.548  0.00  0.00    +0.000 N 
ATOM     21  C   UNL     1     -14.450  56.940  52.544  0.00  0.00    +0.000 A 
ATOM     22  C   UNL     1     -15.501  59.079  52.965  0.00  0.00    +0.000 A 
ATOM     23  C   UNL     1     -15.243  57.764  53.349  0.00  0.00    +0.000 A 
ATOM     24  H   UNL     1     -12.019  58.377  48.056  0.00  0.00    +0.000 HD
ATOM     25  H   UNL     1     -13.073  55.640  50.788  0.00  0.00    +0.000 HD
ENDBRANCH   1  17
BRANCH   3  26
ATOM     26  O   UNL     1     -12.544  56.134  46.670  0.00  0.00    +0.000 OA
ATOM     27  H   UNL     1     -13.168  56.767  46.966  0.00  0.00    +0.000 HD
ENDBRANCH   3  26
BRANCH   5  28
ATOM     28  N   UNL     1      -8.375  54.043  49.855  0.00  0.00    +0.000 N 
ATOM     29  H   UNL     1      -8.383  53.152  50.274  0.00  0.00    +0.000 HD
BRANCH  28  30
ATOM     30  C   UNL     1      -7.218  54.945  49.952  0.00  0.00    +0.000 C 
BRANCH  30  31
ATOM     31  C   UNL     1      -6.718  55.045  51.369  0.00  0.00    +0.000 A 
ATOM     32  C   UNL     1      -5.610  54.312  51.789  0.00  0.00    +0.000 A 
ATOM     33  C   UNL     1      -7.332  55.878  52.308  0.00  0.00    +0.000 A 
ATOM     34  N   UNL     1      -5.110  54.343  53.044  0.00  0.00    +0.000 NA
ATOM     35  C   UNL     1      -6.839  55.927  53.607  0.00  0.00    +0.000 A 
ATOM     36  C   UNL     1      -5.740  55.146  53.925  0.00  0.00    +0.000 A 
ENDBRANCH  30  31
ENDBRANCH  28  30
ENDBRANCH   5  28
TORSDOF 5
ENDMDL
MODEL 2
REMARK VINA RESULT:      -8.7      2.616      7.331
REMARK  Name = 
REMARK  5 active torsions:
REMARK  status: ('A' for Active; 'I' for Inactive)
REMARK    1  A    between atoms: C_6  and  C_10
REMARK    2  A    between atoms: C_14  and  O_18
REMARK    3  A    between atoms: N_17  and  N_20
REMARK    4  A    between atoms: N_20  and  C_23
REMARK    5  A    between atoms: C_23  and  C_26
REMARK                            x       y       z     vdW  Elec       q    Type
REMARK                         _______ _______ _______ _____ _____    ______ ____
ROOT
ATOM      1  C   UNL     1      -9.141  54.362  49.897  0.00  0.00    +0.000 A 
ATOM      2  C   UNL     1     -10.194  55.417  49.981  0.00  0.00    +0.000 A 
ATOM      3  C   UNL     1      -9.023  53.603  48.794  0.00  0.00    +0.000 A 
ATOM      4  O   UNL     1     -10.257  56.072  51.025  0.00  0.00    +0.000 OA
ATOM      5  N   UNL     1     -11.020  55.615  48.870  0.00  0.00    +0.000 N 
ATOM      6  C   UNL     1      -9.902  53.823  47.637  0.00  0.00    +0.000 A 
ATOM      7  C   UNL     1     -10.890  54.822  47.690  0.00  0.00    +0.000 A 
ATOM      8  C   UNL     1      -9.752  53.056  46.469  0.00  0.00    +0.000 A 
ATOM      9  C   UNL     1     -11.717  55.021  46.571  0.00  0.00    +0.000 A 
ATOM     10  C   UNL     1     -10.562  53.280  45.359  0.00  0.00    +0.000 A 
ATOM     11  C   UNL     1     -11.547  54.260  45.411  0.00  0.00    +0.000 A 
ENDROOT
BRANCH   1  17
ATOM     12  S   UNL     1      -7.756  54.114  53.561  0.00  0.00    +0.000 S 
ATOM     13  O   UNL     1      -7.982  52.799  54.134  0.00  0.00    +0.000 OA
ATOM     14  O   UNL     1      -7.954  55.305  54.362  0.00  0.00    +0.000 OA
ATOM     15  N   UNL     1      -8.690  54.239  52.243  0.00  0.00    +0.000 N 
ATOM     16  C   UNL     1      -6.079  54.141  53.053  0.00  0.00    +0.000 A 
ATOM     17  C   UNL     1      -8.174  54.206  51.052  0.00  0.00    +0.000 C 
ATOM     18  C   UNL     1      -5.812  54.117  51.693  0.00  0.00    +0.000 A 
ATOM     19  C   UNL     1      -5.059  54.201  54.008  0.00  0.00    +0.000 A 
ATOM     20  N   UNL     1      -6.837  54.045  50.754  0.00  0.00    +0.000 N 
ATOM     21  C   UNL     1      -4.475  54.081  51.283  0.00  0.00    +0.000 A 
ATOM     22  C   UNL     1      -3.733  54.197  53.584  0.00  0.00    +0.000 A 
ATOM     23  C   UNL     1      -3.441  54.129  52.223  0.00  0.00    +0.000 A 
ATOM     24  H   UNL     1      -9.663  54.342  52.347  0.00  0.00    +0.000 HD
ATOM     25  H   UNL     1      -6.591  53.869  49.817  0.00  0.00    +0.000 HD
ENDBRANCH   1  17
BRANCH   3  26
ATOM     26  O   UNL     1      -8.077  52.607  48.629  0.00  0.00    +0.000 OA
ATOM     27  H   UNL     1      -8.254  51.882  48.062  0.00  0.00    +0.000 HD
ENDBRANCH   3  26
BRANCH   5  28
ATOM     28  N   UNL     1     -12.104  56.556  48.923  0.00  0.00    +0.000 N 
ATOM     29  H   UNL     1     -12.038  57.456  48.529  0.00  0.00    +0.000 HD
BRANCH  28  30
ATOM     30  C   UNL     1     -13.317  56.086  49.607  0.00  0.00    +0.000 C 
BRANCH  30  31
ATOM     31  C   UNL     1     -13.763  57.060  50.665  0.00  0.00    +0.000 A 
ATOM     32  C   UNL     1     -14.318  58.289  50.316  0.00  0.00    +0.000 A 
ATOM     33  C   UNL     1     -13.650  56.768  52.027  0.00  0.00    +0.000 A 
ATOM     34  N   UNL     1     -14.732  59.217  51.208  0.00  0.00    +0.000 NA
ATOM     35  C   UNL     1     -14.066  57.706  52.965  0.00  0.00    +0.000 A 
ATOM     36  C   UNL     1     -14.591  58.905  52.512  0.00  0.00    +0.000 A 
ENDBRANCH  30  31
ENDBRANCH  28  30
ENDBRANCH   5  28
TORSDOF 5
ENDMDL
MODEL 3
REMARK VINA RESULT:      -8.7      3.130      4.891
REMARK  Name = 
REMARK  5 active torsions:
REMARK  status: ('A' for Active; 'I' for Inactive)
REMARK    1  A    between atoms: C_6  and  C_10
REMARK    2  A    between atoms: C_14  and  O_18
REMARK    3  A    between atoms: N_17  and  N_20
REMARK    4  A    between atoms: N_20  and  C_23
REMARK    5  A    between atoms: C_23  and  C_26
REMARK                            x       y       z     vdW  Elec       q    Type
REMARK                         _______ _______ _______ _____ _____    ______ ____
ROOT
ATOM      1  C   UNL     1     -10.110  54.570  52.206  0.00  0.00    +0.000 A 
ATOM      2  C   UNL     1      -8.743  55.138  52.013  0.00  0.00    +0.000 A 
ATOM      3  C   UNL     1     -10.290  53.463  52.947  0.00  0.00    +0.000 A 
ATOM      4  O   UNL     1      -8.644  56.150  51.314  0.00  0.00    +0.000 OA
ATOM      5  N   UNL     1      -7.671  54.508  52.654  0.00  0.00    +0.000 N 
ATOM      6  C   UNL     1      -9.152  52.814  53.610  0.00  0.00    +0.000 A 
ATOM      7  C   UNL     1      -7.857  53.340  53.454  0.00  0.00    +0.000 A 
ATOM      8  C   UNL     1      -9.345  51.679  54.417  0.00  0.00    +0.000 A 
ATOM      9  C   UNL     1      -6.782  52.709  54.100  0.00  0.00    +0.000 A 
ATOM     10  C   UNL     1      -8.274  51.077  55.071  0.00  0.00    +0.000 A 
ATOM     11  C   UNL     1      -6.993  51.589  54.912  0.00  0.00    +0.000 A 
ENDROOT
BRANCH   1  17
ATOM     12  S   UNL     1     -12.561  56.086  49.541  0.00  0.00    +0.000 S 
ATOM     13  O   UNL     1     -13.453  55.077  48.996  0.00  0.00    +0.000 OA
ATOM     14  O   UNL     1     -11.967  57.083  48.675  0.00  0.00    +0.000 OA
ATOM     15  N   UNL     1     -11.361  55.312  50.307  0.00  0.00    +0.000 N 
ATOM     16  C   UNL     1     -13.496  56.969  50.732  0.00  0.00    +0.000 A 
ATOM     17  C   UNL     1     -11.293  55.300  51.603  0.00  0.00    +0.000 C 
ATOM     18  C   UNL     1     -13.190  56.776  52.070  0.00  0.00    +0.000 A 
ATOM     19  C   UNL     1     -14.503  57.846  50.320  0.00  0.00    +0.000 A 
ATOM     20  N   UNL     1     -12.193  55.889  52.465  0.00  0.00    +0.000 N 
ATOM     21  C   UNL     1     -13.970  57.433  53.027  0.00  0.00    +0.000 A 
ATOM     22  C   UNL     1     -15.250  58.520  51.283  0.00  0.00    +0.000 A 
ATOM     23  C   UNL     1     -14.990  58.307  52.636  0.00  0.00    +0.000 A 
ATOM     24  H   UNL     1     -10.673  54.845  49.780  0.00  0.00    +0.000 HD
ATOM     25  H   UNL     1     -12.126  55.670  53.423  0.00  0.00    +0.000 HD
ENDBRANCH   1  17
BRANCH   3  26
ATOM     26  O   UNL     1     -11.519  52.871  53.181  0.00  0.00    +0.000 OA
ATOM     27  H   UNL     1     -12.179  53.336  53.657  0.00  0.00    +0.000 HD
ENDBRANCH   3  26
BRANCH   5  28
ATOM     28  N   UNL     1      -6.324  54.958  52.437  0.00  0.00    +0.000 N 
ATOM     29  H   UNL     1      -5.800  55.408  53.140  0.00  0.00    +0.000 HD
BRANCH  28  30
ATOM     30  C   UNL     1      -5.781  54.704  51.096  0.00  0.00    +0.000 C 
BRANCH  30  31
ATOM     31  C   UNL     1      -5.078  53.373  51.031  0.00  0.00    +0.000 A 
ATOM     32  C   UNL     1      -5.574  52.341  50.238  0.00  0.00    +0.000 A 
ATOM     33  C   UNL     1      -3.905  53.127  51.749  0.00  0.00    +0.000 A 
ATOM     34  N   UNL     1      -5.004  51.119  50.137  0.00  0.00    +0.000 NA
ATOM     35  C   UNL     1      -3.300  51.878  51.665  0.00  0.00    +0.000 A 
ATOM     36  C   UNL     1      -3.883  50.915  50.859  0.00  0.00    +0.000 A 
ENDBRANCH  30  31
ENDBRANCH  28  30
ENDBRANCH   5  28
TORSDOF 5
ENDMDL
MODEL 4
REMARK VINA RESULT:      -8.7      2.396      3.218
REMARK  Name = 
REMARK  5 active torsions:
REMARK  status: ('A' for Active; 'I' for Inactive)
REMARK    1  A    between atoms: C_6  and  C_10
REMARK    2  A    between atoms: C_14  and  O_18
REMARK    3  A    between atoms: N_17  and  N_20
REMARK    4  A    between atoms: N_20  and  C_23
REMARK    5  A    between atoms: C_23  and  C_26
REMARK                            x       y       z     vdW  Elec       q    Type
REMARK                         _______ _______ _______ _____ _____    ______ ____
ROOT
ATOM      1  C   UNL     1     -11.164  54.577  50.745  0.00  0.00    +0.000 A 
ATOM      2  C   UNL     1      -9.780  54.950  50.327  0.00  0.00    +0.000 A 
ATOM      3  C   UNL     1     -11.424  53.346  51.218  0.00  0.00    +0.000 A 
ATOM      4  O   UNL     1      -9.608  56.092  49.892  0.00  0.00    +0.000 OA
ATOM      5  N   UNL     1      -8.766  53.998  50.477  0.00  0.00    +0.000 N 
ATOM      6  C   UNL     1     -10.347  52.358  51.366  0.00  0.00    +0.000 A 
ATOM      7  C   UNL     1      -9.034  52.693  50.992  0.00  0.00    +0.000 A 
ATOM      8  C   UNL     1     -10.613  51.084  51.896  0.00  0.00    +0.000 A 
ATOM      9  C   UNL     1      -8.017  51.737  51.146  0.00  0.00    +0.000 A 
ATOM     10  C   UNL     1      -9.591  50.154  52.067  0.00  0.00    +0.000 A 
ATOM     11  C   UNL     1      -8.294  50.478  51.689  0.00  0.00    +0.000 A 
ENDROOT
BRANCH   1  17
ATOM     12  S   UNL     1     -13.636  57.271  49.318  0.00  0.00    +0.000 S 
ATOM     13  O   UNL     1     -14.789  56.659  48.681  0.00  0.00    +0.000 OA
ATOM     14  O   UNL     1     -12.992  58.421  48.717  0.00  0.00    +0.000 OA
ATOM     15  N   UNL     1     -12.515  56.116  49.510  0.00  0.00    +0.000 N 
ATOM     16  C   UNL     1     -14.174  57.787  50.904  0.00  0.00    +0.000 A 
ATOM     17  C   UNL     1     -12.251  55.630  50.684  0.00  0.00    +0.000 C 
ATOM     18  C   UNL     1     -13.710  57.086  52.006  0.00  0.00    +0.000 A 
ATOM     19  C   UNL     1     -15.032  58.884  51.029  0.00  0.00    +0.000 A 
ATOM     20  N   UNL     1     -12.866  55.988  51.865  0.00  0.00    +0.000 N 
ATOM     21  C   UNL     1     -14.181  57.457  53.270  0.00  0.00    +0.000 A 
ATOM     22  C   UNL     1     -15.466  59.262  52.296  0.00  0.00    +0.000 A 
ATOM     23  C   UNL     1     -15.048  58.544  53.416  0.00  0.00    +0.000 A 
ATOM     24  H   UNL     1     -12.028  55.779  48.724  0.00  0.00    +0.000 HD
ATOM     25  H   UNL     1     -12.698  55.432  52.661  0.00  0.00    +0.000 HD
ENDBRANCH   1  17
BRANCH   3  26
ATOM     26  O   UNL     1     -12.674  52.916  51.630  0.00  0.00    +0.000 OA
ATOM     27  H   UNL     1     -13.382  53.527  51.690  0.00  0.00    +0.000 HD
ENDBRANCH   3  26
BRANCH   5  28
ATOM     28  N   UNL     1      -7.434  54.270  50.014  0.00  0.00    +0.000 N 
ATOM     29  H   UNL     1      -7.028  53.778  49.264  0.00  0.00    +0.000 HD
BRANCH  28  30
ATOM     30  C   UNL     1      -6.718  55.331  50.737  0.00  0.00    +0.000 C 
BRANCH  30  31
ATOM     31  C   UNL     1      -6.493  54.957  52.179  0.00  0.00    +0.000 A 
ATOM     32  C   UNL     1      -7.275  55.511  53.190  0.00  0.00    +0.000 A 
ATOM     33  C   UNL     1      -5.508  54.041  52.555  0.00  0.00    +0.000 A 
ATOM     34  N   UNL     1      -7.126  55.232  54.504  0.00  0.00    +0.000 NA
ATOM     35  C   UNL     1      -5.332  53.739  53.900  0.00  0.00    +0.000 A 
ATOM     36  C   UNL     1      -6.153  54.356  54.829  0.00  0.00    +0.000 A 
ENDBRANCH  30  31
ENDBRANCH  28  30
ENDBRANCH   5  28
TORSDOF 5
ENDMDL
MODEL 5
REMARK VINA RESULT:      -8.6      3.153      7.369
REMARK  Name = 
REMARK  5 active torsions:
REMARK  status: ('A' for Active; 'I' for Inactive)
REMARK    1  A    between atoms: C_6  and  C_10
REMARK    2  A    between atoms: C_14  and  O_18
REMARK    3  A    between atoms: N_17  and  N_20
REMARK    4  A    between atoms: N_20  and  C_23
REMARK    5  A    between atoms: C_23  and  C_26
REMARK                            x       y       z     vdW  Elec       q    Type
REMARK                         _______ _______ _______ _____ _____    ______ ____
ROOT
ATOM      1  C   UNL     1     -10.408  55.196  50.909  0.00  0.00    +0.000 A 
ATOM      2  C   UNL     1     -10.094  55.089  49.453  0.00  0.00    +0.000 A 
ATOM      3  C   UNL     1     -11.577  55.718  51.318  0.00  0.00    +0.000 A 
ATOM      4  O   UNL     1      -9.000  54.610  49.143  0.00  0.00    +0.000 OA
ATOM      5  N   UNL     1     -11.063  55.512  48.537  0.00  0.00    +0.000 N 
ATOM      6  C   UNL     1     -12.582  56.159  50.341  0.00  0.00    +0.000 A 
ATOM      7  C   UNL     1     -12.312  56.054  48.965  0.00  0.00    +0.000 A 
ATOM      8  C   UNL     1     -13.820  56.668  50.768  0.00  0.00    +0.000 A 
ATOM      9  C   UNL     1     -13.288  56.476  48.046  0.00  0.00    +0.000 A 
ATOM     10  C   UNL     1     -14.787  57.060  49.846  0.00  0.00    +0.000 A 
ATOM     11  C   UNL     1     -14.521  56.967  48.486  0.00  0.00    +0.000 A 
ENDROOT
BRANCH   1  17
ATOM     12  S   UNL     1      -7.085  54.709  52.941  0.00  0.00    +0.000 S 
ATOM     13  O   UNL     1      -6.949  55.700  53.995  0.00  0.00    +0.000 OA
ATOM     14  O   UNL     1      -5.940  54.330  52.140  0.00  0.00    +0.000 OA
ATOM     15  N   UNL     1      -8.248  55.223  51.936  0.00  0.00    +0.000 N 
ATOM     16  C   UNL     1      -7.641  53.242  53.722  0.00  0.00    +0.000 A 
ATOM     17  C   UNL     1      -9.411  54.648  51.910  0.00  0.00    +0.000 C 
ATOM     18  C   UNL     1      -8.950  52.843  53.499  0.00  0.00    +0.000 A 
ATOM     19  C   UNL     1      -6.768  52.505  54.528  0.00  0.00    +0.000 A 
ATOM     20  N   UNL     1      -9.811  53.594  52.704  0.00  0.00    +0.000 N 
ATOM     21  C   UNL     1      -9.416  51.705  54.165  0.00  0.00    +0.000 A 
ATOM     22  C   UNL     1      -7.236  51.355  55.158  0.00  0.00    +0.000 A 
ATOM     23  C   UNL     1      -8.562  50.960  54.984  0.00  0.00    +0.000 A 
ATOM     24  H   UNL     1      -8.068  55.982  51.336  0.00  0.00    +0.000 HD
ATOM     25  H   UNL     1     -10.766  53.356  52.709  0.00  0.00    +0.000 HD
ENDBRANCH   1  17
BRANCH   3  26
ATOM     26  O   UNL     1     -11.952  55.852  52.643  0.00  0.00    +0.000 OA
ATOM     27  H   UNL     1     -11.895  55.117  53.222  0.00  0.00    +0.000 HD
ENDBRANCH   3  26
BRANCH   5  28
ATOM     28  N   UNL     1     -10.784  55.513  47.128  0.00  0.00    +0.000 N 
ATOM     29  H   UNL     1     -10.195  56.181  46.709  0.00  0.00    +0.000 HD
BRANCH  28  30
ATOM     30  C   UNL     1     -11.440  54.450  46.353  0.00  0.00    +0.000 C 
BRANCH  30  31
ATOM     31  C   UNL     1     -10.492  53.828  45.362  0.00  0.00    +0.000 A 
ATOM     32  C   UNL     1      -9.114  53.978  45.501  0.00  0.00    +0.000 A 
ATOM     33  C   UNL     1     -10.951  53.074  44.279  0.00  0.00    +0.000 A 
ATOM     34  N   UNL     1      -8.203  53.458  44.648  0.00  0.00    +0.000 NA
ATOM     35  C   UNL     1     -10.036  52.531  43.385  0.00  0.00    +0.000 A 
ATOM     36  C   UNL     1      -8.686  52.752  43.606  0.00  0.00    +0.000 A 
ENDBRANCH  30  31
ENDBRANCH  28  30
ENDBRANCH   5  28
TORSDOF 5
ENDMDL
MODEL 6
REMARK VINA RESULT:      -8.5      2.080      2.624
REMARK  Name = 
REMARK  5 active torsions:
REMARK  status: ('A' for Active; 'I' for Inactive)
REMARK    1  A    between atoms: C_6  and  C_10
REMARK    2  A    between atoms: C_14  and  O_18
REMARK    3  A    between atoms: N_17  and  N_20
REMARK    4  A    between atoms: N_20  and  C_23
REMARK    5  A    between atoms: C_23  and  C_26
REMARK                            x       y       z     vdW  Elec       q    Type
REMARK                         _______ _______ _______ _____ _____    ______ ____
ROOT
ATOM      1  C   UNL     1     -10.696  55.618  48.134  0.00  0.00    +0.000 A 
ATOM      2  C   UNL     1      -9.232  55.667  48.419  0.00  0.00    +0.000 A 
ATOM      3  C   UNL     1     -11.156  55.004  47.030  0.00  0.00    +0.000 A 
ATOM      4  O   UNL     1      -8.873  56.254  49.444  0.00  0.00    +0.000 OA
ATOM      5  N   UNL     1      -8.365  55.026  47.527  0.00  0.00    +0.000 N 
ATOM      6  C   UNL     1     -10.230  54.339  46.104  0.00  0.00    +0.000 A 
ATOM      7  C   UNL     1      -8.848  54.361  46.360  0.00  0.00    +0.000 A 
ATOM      8  C   UNL     1     -10.715  53.664  44.970  0.00  0.00    +0.000 A 
ATOM      9  C   UNL     1      -7.979  53.714  45.466  0.00  0.00    +0.000 A 
ATOM     10  C   UNL     1      -9.845  53.007  44.104  0.00  0.00    +0.000 A 
ATOM     11  C   UNL     1      -8.477  53.034  44.350  0.00  0.00    +0.000 A 
ENDROOT
BRANCH   1  17
ATOM     12  S   UNL     1     -13.054  55.963  51.253  0.00  0.00    +0.000 S 
ATOM     13  O   UNL     1     -12.301  56.192  52.474  0.00  0.00    +0.000 OA
ATOM     14  O   UNL     1     -14.191  55.065  51.251  0.00  0.00    +0.000 OA
ATOM     15  N   UNL     1     -12.010  55.448  50.126  0.00  0.00    +0.000 N 
ATOM     16  C   UNL     1     -13.669  57.529  50.761  0.00  0.00    +0.000 A 
ATOM     17  C   UNL     1     -11.654  56.218  49.143  0.00  0.00    +0.000 C 
ATOM     18  C   UNL     1     -13.108  58.124  49.642  0.00  0.00    +0.000 A 
ATOM     19  C   UNL     1     -14.704  58.132  51.482  0.00  0.00    +0.000 A 
ATOM     20  N   UNL     1     -12.069  57.517  48.942  0.00  0.00    +0.000 N 
ATOM     21  C   UNL     1     -13.555  59.399  49.278  0.00  0.00    +0.000 A 
ATOM     22  C   UNL     1     -15.162  59.386  51.088  0.00  0.00    +0.000 A 
ATOM     23  C   UNL     1     -14.581  60.024  49.992  0.00  0.00    +0.000 A 
ATOM     24  H   UNL     1     -11.642  54.538  50.187  0.00  0.00    +0.000 HD
ATOM     25  H   UNL     1     -11.602  58.051  48.258  0.00  0.00    +0.000 HD
ENDBRANCH   1  17
BRANCH   3  26
ATOM     26  O   UNL     1     -12.494  54.909  46.690  0.00  0.00    +0.000 OA
ATOM     27  H   UNL     1     -13.129  55.434  47.137  0.00  0.00    +0.000 HD
ENDBRANCH   3  26
BRANCH   5  28
ATOM     28  N   UNL     1      -6.942  55.112  47.703  0.00  0.00    +0.000 N 
ATOM     29  H   UNL     1      -6.433  55.928  47.488  0.00  0.00    +0.000 HD
BRANCH  28  30
ATOM     30  C   UNL     1      -6.295  53.899  48.224  0.00  0.00    +0.000 C 
BRANCH  30  31
ATOM     31  C   UNL     1      -6.439  53.800  49.720  0.00  0.00    +0.000 A 
ATOM     32  C   UNL     1      -7.273  52.843  50.295  0.00  0.00    +0.000 A 
ATOM     33  C   UNL     1      -5.741  54.647  50.583  0.00  0.00    +0.000 A 
ATOM     34  N   UNL     1      -7.461  52.699  51.625  0.00  0.00    +0.000 NA
ATOM     35  C   UNL     1      -5.918  54.522  51.957  0.00  0.00    +0.000 A 
ATOM     36  C   UNL     1      -6.782  53.547  52.425  0.00  0.00    +0.000 A 
ENDBRANCH  30  31
ENDBRANCH  28  30
ENDBRANCH   5  28
TORSDOF 5
ENDMDL
MODEL 7
REMARK VINA RESULT:      -8.4      3.097      6.890
REMARK  Name = 
REMARK  5 active torsions:
REMARK  status: ('A' for Active; 'I' for Inactive)
REMARK    1  A    between atoms: C_6  and  C_10
REMARK    2  A    between atoms: C_14  and  O_18
REMARK    3  A    between atoms: N_17  and  N_20
REMARK    4  A    between atoms: N_20  and  C_23
REMARK    5  A    between atoms: C_23  and  C_26
REMARK                            x       y       z     vdW  Elec       q    Type
REMARK                         _______ _______ _______ _____ _____    ______ ____
ROOT
ATOM      1  C   UNL     1     -11.254  54.639  48.368  0.00  0.00    +0.000 A 
ATOM      2  C   UNL     1     -10.995  54.188  49.767  0.00  0.00    +0.000 A 
ATOM      3  C   UNL     1     -12.178  55.583  48.116  0.00  0.00    +0.000 A 
ATOM      4  O   UNL     1     -10.142  53.311  49.931  0.00  0.00    +0.000 OA
ATOM      5  N   UNL     1     -11.711  54.800  50.801  0.00  0.00    +0.000 N 
ATOM      6  C   UNL     1     -12.922  56.213  49.215  0.00  0.00    +0.000 A 
ATOM      7  C   UNL     1     -12.684  55.813  50.542  0.00  0.00    +0.000 A 
ATOM      8  C   UNL     1     -13.860  57.227  48.955  0.00  0.00    +0.000 A 
ATOM      9  C   UNL     1     -13.401  56.431  51.579  0.00  0.00    +0.000 A 
ATOM     10  C   UNL     1     -14.547  57.848  49.994  0.00  0.00    +0.000 A 
ATOM     11  C   UNL     1     -14.320  57.449  51.306  0.00  0.00    +0.000 A 
ENDROOT
BRANCH   1  17
ATOM     12  S   UNL     1      -8.196  53.950  46.007  0.00  0.00    +0.000 S 
ATOM     13  O   UNL     1      -7.239  53.043  46.616  0.00  0.00    +0.000 OA
ATOM     14  O   UNL     1      -7.738  55.105  45.262  0.00  0.00    +0.000 OA
ATOM     15  N   UNL     1      -9.186  54.473  47.177  0.00  0.00    +0.000 N 
ATOM     16  C   UNL     1      -9.133  52.985  44.883  0.00  0.00    +0.000 A 
ATOM     17  C   UNL     1     -10.414  54.058  47.249  0.00  0.00    +0.000 C 
ATOM     18  C   UNL     1     -10.450  52.704  45.209  0.00  0.00    +0.000 A 
ATOM     19  C   UNL     1      -8.551  52.536  43.693  0.00  0.00    +0.000 A 
ATOM     20  N   UNL     1     -11.012  53.148  46.403  0.00  0.00    +0.000 N 
ATOM     21  C   UNL     1     -11.185  51.887  44.344  0.00  0.00    +0.000 A 
ATOM     22  C   UNL     1      -9.305  51.750  42.826  0.00  0.00    +0.000 A 
ATOM     23  C   UNL     1     -10.619  51.419  43.155  0.00  0.00    +0.000 A 
ATOM     24  H   UNL     1      -8.851  55.115  47.844  0.00  0.00    +0.000 HD
ATOM     25  H   UNL     1     -11.892  52.788  46.658  0.00  0.00    +0.000 HD
ENDBRANCH   1  17
BRANCH   3  26
ATOM     26  O   UNL     1     -12.481  56.062  46.854  0.00  0.00    +0.000 OA
ATOM     27  H   UNL     1     -13.100  55.607  46.317  0.00  0.00    +0.000 HD
ENDBRANCH   3  26
BRANCH   5  28
ATOM     28  N   UNL     1     -11.566  54.349  52.157  0.00  0.00    +0.000 N 
ATOM     29  H   UNL     1     -12.209  53.733  52.578  0.00  0.00    +0.000 HD
BRANCH  28  30
ATOM     30  C   UNL     1     -10.395  54.871  52.875  0.00  0.00    +0.000 C 
BRANCH  30  31
ATOM     31  C   UNL     1      -9.542  53.754  53.420  0.00  0.00    +0.000 A 
ATOM     32  C   UNL     1      -8.167  53.915  53.572  0.00  0.00    +0.000 A 
ATOM     33  C   UNL     1     -10.093  52.528  53.800  0.00  0.00    +0.000 A 
ATOM     34  N   UNL     1      -7.338  52.958  54.045  0.00  0.00    +0.000 NA
ATOM     35  C   UNL     1      -9.262  51.525  54.286  0.00  0.00    +0.000 A 
ATOM     36  C   UNL     1      -7.905  51.783  54.385  0.00  0.00    +0.000 A 
ENDBRANCH  30  31
ENDBRANCH  28  30
ENDBRANCH   5  28
TORSDOF 5
ENDMDL
MODEL 8
REMARK VINA RESULT:      -8.4      3.037      7.510
REMARK  Name = 
REMARK  5 active torsions:
REMARK  status: ('A' for Active; 'I' for Inactive)
REMARK    1  A    between atoms: C_6  and  C_10
REMARK    2  A    between atoms: C_14  and  O_18
REMARK    3  A    between atoms: N_17  and  N_20
REMARK    4  A    between atoms: N_20  and  C_23
REMARK    5  A    between atoms: C_23  and  C_26
REMARK                            x       y       z     vdW  Elec       q    Type
REMARK                         _______ _______ _______ _____ _____    ______ ____
ROOT
ATOM      1  C   UNL     1     -10.521  54.930  50.626  0.00  0.00    +0.000 A 
ATOM      2  C   UNL     1     -10.223  54.875  49.164  0.00  0.00    +0.000 A 
ATOM      3  C   UNL     1     -11.621  55.561  51.074  0.00  0.00    +0.000 A 
ATOM      4  O   UNL     1      -9.193  54.290  48.818  0.00  0.00    +0.000 OA
ATOM      5  N   UNL     1     -11.135  55.464  48.282  0.00  0.00    +0.000 N 
ATOM      6  C   UNL     1     -12.566  56.176  50.132  0.00  0.00    +0.000 A 
ATOM      7  C   UNL     1     -12.311  56.123  48.751  0.00  0.00    +0.000 A 
ATOM      8  C   UNL     1     -13.735  56.802  50.599  0.00  0.00    +0.000 A 
ATOM      9  C   UNL     1     -13.230  56.711  47.866  0.00  0.00    +0.000 A 
ATOM     10  C   UNL     1     -14.649  57.360  49.709  0.00  0.00    +0.000 A 
ATOM     11  C   UNL     1     -14.397  57.318  48.344  0.00  0.00    +0.000 A 
ENDROOT
BRANCH   1  17
ATOM     12  S   UNL     1      -9.122  52.204  53.079  0.00  0.00    +0.000 S 
ATOM     13  O   UNL     1      -8.559  51.073  52.362  0.00  0.00    +0.000 OA
ATOM     14  O   UNL     1      -9.925  51.992  54.265  0.00  0.00    +0.000 OA
ATOM     15  N   UNL     1     -10.007  53.059  52.024  0.00  0.00    +0.000 N 
ATOM     16  C   UNL     1      -7.761  53.188  53.581  0.00  0.00    +0.000 A 
ATOM     17  C   UNL     1      -9.596  54.209  51.585  0.00  0.00    +0.000 C 
ATOM     18  C   UNL     1      -7.568  54.403  52.943  0.00  0.00    +0.000 A 
ATOM     19  C   UNL     1      -6.919  52.746  54.606  0.00  0.00    +0.000 A 
ATOM     20  N   UNL     1      -8.407  54.824  51.915  0.00  0.00    +0.000 N 
ATOM     21  C   UNL     1      -6.451  55.165  53.299  0.00  0.00    +0.000 A 
ATOM     22  C   UNL     1      -5.830  53.531  54.973  0.00  0.00    +0.000 A 
ATOM     23  C   UNL     1      -5.590  54.737  54.314  0.00  0.00    +0.000 A 
ATOM     24  H   UNL     1     -10.869  52.700  51.712  0.00  0.00    +0.000 HD
ATOM     25  H   UNL     1      -8.133  55.611  51.391  0.00  0.00    +0.000 HD
ENDBRANCH   1  17
BRANCH   3  26
ATOM     26  O   UNL     1     -11.976  55.658  52.408  0.00  0.00    +0.000 OA
ATOM     27  H   UNL     1     -11.989  54.891  52.945  0.00  0.00    +0.000 HD
ENDBRANCH   3  26
BRANCH   5  28
ATOM     28  N   UNL     1     -10.859  55.517  46.873  0.00  0.00    +0.000 N 
ATOM     29  H   UNL     1     -10.265  56.196  46.479  0.00  0.00    +0.000 HD
BRANCH  28  30
ATOM     30  C   UNL     1     -11.524  54.489  46.060  0.00  0.00    +0.000 C 
BRANCH  30  31
ATOM     31  C   UNL     1     -10.538  53.753  45.191  0.00  0.00    +0.000 A 
ATOM     32  C   UNL     1      -9.167  53.905  45.381  0.00  0.00    +0.000 A 
ATOM     33  C   UNL     1     -10.956  52.889  44.176  0.00  0.00    +0.000 A 
ATOM     34  N   UNL     1      -8.223  53.286  44.637  0.00  0.00    +0.000 NA
ATOM     35  C   UNL     1     -10.006  52.242  43.394  0.00  0.00    +0.000 A 
ATOM     36  C   UNL     1      -8.666  52.473  43.656  0.00  0.00    +0.000 A 
ENDBRANCH  30  31
ENDBRANCH  28  30
ENDBRANCH   5  28
TORSDOF 5
ENDMDL
MODEL 9
REMARK VINA RESULT:      -8.4      1.744      2.134
REMARK  Name = 
REMARK  5 active torsions:
REMARK  status: ('A' for Active; 'I' for Inactive)
REMARK    1  A    between atoms: C_6  and  C_10
REMARK    2  A    between atoms: C_14  and  O_18
REMARK    3  A    between atoms: N_17  and  N_20
REMARK    4  A    between atoms: N_20  and  C_23
REMARK    5  A    between atoms: C_23  and  C_26
REMARK                            x       y       z     vdW  Elec       q    Type
REMARK                         _______ _______ _______ _____ _____    ______ ____
ROOT
ATOM      1  C   UNL     1     -11.671  56.131  48.601  0.00  0.00    +0.000 A 
ATOM      2  C   UNL     1     -10.464  55.627  49.321  0.00  0.00    +0.000 A 
ATOM      3  C   UNL     1     -11.952  55.702  47.358  0.00  0.00    +0.000 A 
ATOM      4  O   UNL     1     -10.255  56.068  50.454  0.00  0.00    +0.000 OA
ATOM      5  N   UNL     1      -9.664  54.674  48.681  0.00  0.00    +0.000 N 
ATOM      6  C   UNL     1     -11.100  54.702  46.701  0.00  0.00    +0.000 A 
ATOM      7  C   UNL     1      -9.966  54.203  47.367  0.00  0.00    +0.000 A 
ATOM      8  C   UNL     1     -11.416  54.224  45.418  0.00  0.00    +0.000 A 
ATOM      9  C   UNL     1      -9.167  53.244  46.725  0.00  0.00    +0.000 A 
ATOM     10  C   UNL     1     -10.628  53.255  44.803  0.00  0.00    +0.000 A 
ATOM     11  C   UNL     1      -9.502  52.767  45.454  0.00  0.00    +0.000 A 
ENDROOT
BRANCH   1  17
ATOM     12  S   UNL     1     -13.629  59.405  49.523  0.00  0.00    +0.000 S 
ATOM     13  O   UNL     1     -14.789  59.597  48.670  0.00  0.00    +0.000 OA
ATOM     14  O   UNL     1     -12.789  60.530  49.879  0.00  0.00    +0.000 OA
ATOM     15  N   UNL     1     -12.691  58.283  48.826  0.00  0.00    +0.000 N 
ATOM     16  C   UNL     1     -14.238  58.754  51.032  0.00  0.00    +0.000 A 
ATOM     17  C   UNL     1     -12.601  57.086  49.320  0.00  0.00    +0.000 C 
ATOM     18  C   UNL     1     -13.973  57.425  51.320  0.00  0.00    +0.000 A 
ATOM     19  C   UNL     1     -14.954  59.575  51.910  0.00  0.00    +0.000 A 
ATOM     20  N   UNL     1     -13.270  56.617  50.431  0.00  0.00    +0.000 N 
ATOM     21  C   UNL     1     -14.505  56.885  52.496  0.00  0.00    +0.000 A 
ATOM     22  C   UNL     1     -15.449  59.032  53.092  0.00  0.00    +0.000 A 
ATOM     23  C   UNL     1     -15.232  57.686  53.381  0.00  0.00    +0.000 A 
ATOM     24  H   UNL     1     -12.182  58.513  48.016  0.00  0.00    +0.000 HD
ATOM     25  H   UNL     1     -13.249  55.649  50.608  0.00  0.00    +0.000 HD
ENDBRANCH   1  17
BRANCH   3  26
ATOM     26  O   UNL     1     -13.048  56.112  46.620  0.00  0.00    +0.000 OA
ATOM     27  H   UNL     1     -12.927  56.653  45.864  0.00  0.00    +0.000 HD
ENDBRANCH   3  26
BRANCH   5  28
ATOM     28  N   UNL     1      -8.446  54.216  49.288  0.00  0.00    +0.000 N 
ATOM     29  H   UNL     1      -7.638  54.777  49.334  0.00  0.00    +0.000 HD
BRANCH  28  30
ATOM     30  C   UNL     1      -8.486  52.853  49.837  0.00  0.00    +0.000 C 
BRANCH  30  31
ATOM     31  C   UNL     1      -9.308  52.792  51.097  0.00  0.00    +0.000 A 
ATOM     32  C   UNL     1      -8.815  53.302  52.296  0.00  0.00    +0.000 A 
ATOM     33  C   UNL     1     -10.591  52.239  51.112  0.00  0.00    +0.000 A 
ATOM     34  N   UNL     1      -9.488  53.275  53.468  0.00  0.00    +0.000 NA
ATOM     35  C   UNL     1     -11.304  52.196  52.305  0.00  0.00    +0.000 A 
ATOM     36  C   UNL     1     -10.716  52.717  53.445  0.00  0.00    +0.000 A 
ENDBRANCH  30  31
ENDBRANCH  28  30
ENDBRANCH   5  28
TORSDOF 5
ENDMDL
