MODEL 1
REMARK VINA RESULT:      -8.3      0.000      0.000
REMARK  Name = 
REMARK  5 active torsions:
REMARK  status: ('A' for Active; 'I' for Inactive)
REMARK    1  A    between atoms: C_6  and  C_10
REMARK    2  A    between atoms: C_14  and  O_18
REMARK    3  A    between atoms: N_17  and  N_20
REMARK    4  A    between atoms: N_20  and  C_23
REMARK    5  A    between atoms: C_23  and  C_26
REMARK                            x       y       z     vdW  Elec       q    Type
REMARK                         _______ _______ _______ _____ _____    ______ ____
ROOT
ATOM      1  C   UNL     1     -11.344  53.909  51.573  0.00  0.00    +0.000 A 
ATOM      2  C   UNL     1     -10.381  54.079  52.700  0.00  0.00    +0.000 A 
ATOM      3  C   UNL     1     -11.494  52.713  50.981  0.00  0.00    +0.000 A 
ATOM      4  O   UNL     1     -10.262  55.212  53.177  0.00  0.00    +0.000 OA
ATOM      5  N   UNL     1      -9.698  52.950  53.163  0.00  0.00    +0.000 N 
ATOM      6  C   UNL     1     -10.744  51.543  51.458  0.00  0.00    +0.000 A 
ATOM      7  C   UNL     1      -9.855  51.674  52.542  0.00  0.00    +0.000 A 
ATOM      8  C   UNL     1     -10.917  50.286  50.852  0.00  0.00    +0.000 A 
ATOM      9  C   UNL     1      -9.151  50.543  52.986  0.00  0.00    +0.000 A 
ATOM     10  C   UNL     1     -10.223  49.169  51.313  0.00  0.00    +0.000 A 
ATOM     11  C   UNL     1      -9.338  49.299  52.377  0.00  0.00    +0.000 A 
ENDROOT
BRANCH   1  17
ATOM     12  S   UNL     1     -12.873  56.788  49.380  0.00  0.00    +0.000 S 
ATOM     13  O   UNL     1     -13.897  56.314  48.468  0.00  0.00    +0.000 OA
ATOM     14  O   UNL     1     -11.900  57.767  48.946  0.00  0.00    +0.000 OA
ATOM     15  N   UNL     1     -12.067  55.494  49.927  0.00  0.00    +0.000 N 
ATOM     16  C   UNL     1     -13.728  57.520  50.730  0.00  0.00    +0.000 A 
ATOM     17  C   UNL     1     -12.188  55.099  51.159  0.00  0.00    +0.000 C 
ATOM     18  C   UNL     1     -13.679  56.876  51.955  0.00  0.00    +0.000 A 
ATOM     19  C   UNL     1     -14.412  58.726  50.551  0.00  0.00    +0.000 A 
ATOM     20  N   UNL     1     -13.007  55.667  52.112  0.00  0.00    +0.000 N 
ATOM     21  C   UNL     1     -14.402  57.425  53.021  0.00  0.00    +0.000 A 
ATOM     22  C   UNL     1     -15.098  59.279  51.632  0.00  0.00    +0.000 A 
ATOM     23  C   UNL     1     -15.100  58.625  52.862  0.00  0.00    +0.000 A 
ATOM     24  H   UNL     1     -11.477  54.998  49.315  0.00  0.00    +0.000 HD
ATOM     25  H   UNL     1     -13.123  55.185  52.963  0.00  0.00    +0.000 HD
ENDBRANCH   1  17
BRANCH   3  26
ATOM     26  O   UNL     1     -12.360  52.467  49.929  0.00  0.00    +0.000 OA
ATOM     27  H   UNL     1     -12.071  51.965  49.191  0.00  0.00    +0.000 HD
ENDBRANCH   3  26
BRANCH   5  28
ATOM     28  N   UNL     1      -8.740  53.072  54.234  0.00  0.00    +0.000 N 
ATOM     29  H   UNL     1      -8.969  52.916  55.179  0.00  0.00    +0.000 HD
BRANCH  28  30
ATOM     30  C   UNL     1      -7.393  53.448  53.791  0.00  0.00    +0.000 C 
BRANCH  30  31
ATOM     31  C   UNL     1      -6.979  54.741  54.423  0.00  0.00    +0.000 C 
ATOM     32  C   UNL     1      -6.778  56.004  53.631  0.00  0.00    +0.000 C 
ATOM     33  C   UNL     1      -5.586  55.263  54.170  0.00  0.00    +0.000 C 
ENDBRANCH  30  31
ENDBRANCH  28  30
ENDBRANCH   5  28
TORSDOF 5
ENDMDL
MODEL 2
REMARK VINA RESULT:      -8.2      2.199      2.801
REMARK  Name = 
REMARK  5 active torsions:
REMARK  status: ('A' for Active; 'I' for Inactive)
REMARK    1  A    between atoms: C_6  and  C_10
REMARK    2  A    between atoms: C_14  and  O_18
REMARK    3  A    between atoms: N_17  and  N_20
REMARK    4  A    between atoms: N_20  and  C_23
REMARK    5  A    between atoms: C_23  and  C_26
REMARK                            x       y       z     vdW  Elec       q    Type
REMARK                         _______ _______ _______ _____ _____    ______ ____
ROOT
ATOM      1  C   UNL     1     -10.101  54.548  52.191  0.00  0.00    +0.000 A 
ATOM      2  C   UNL     1      -8.738  55.115  51.975  0.00  0.00    +0.000 A 
ATOM      3  C   UNL     1     -10.271  53.453  52.949  0.00  0.00    +0.000 A 
ATOM      4  O   UNL     1      -8.644  56.101  51.237  0.00  0.00    +0.000 OA
ATOM      5  N   UNL     1      -7.661  54.518  52.639  0.00  0.00    +0.000 N 
ATOM      6  C   UNL     1      -9.124  52.818  53.613  0.00  0.00    +0.000 A 
ATOM      7  C   UNL     1      -7.834  53.357  53.451  0.00  0.00    +0.000 A 
ATOM      8  C   UNL     1      -9.304  51.684  54.426  0.00  0.00    +0.000 A 
ATOM      9  C   UNL     1      -6.751  52.738  54.097  0.00  0.00    +0.000 A 
ATOM     10  C   UNL     1      -8.224  51.090  55.073  0.00  0.00    +0.000 A 
ATOM     11  C   UNL     1      -6.947  51.615  54.906  0.00  0.00    +0.000 A 
ENDROOT
BRANCH   1  17
ATOM     12  S   UNL     1     -12.569  56.039  49.522  0.00  0.00    +0.000 S 
ATOM     13  O   UNL     1     -13.469  55.042  48.973  0.00  0.00    +0.000 OA
ATOM     14  O   UNL     1     -11.965  57.034  48.663  0.00  0.00    +0.000 OA
ATOM     15  N   UNL     1     -11.379  55.254  50.290  0.00  0.00    +0.000 N 
ATOM     16  C   UNL     1     -13.503  56.931  50.714  0.00  0.00    +0.000 A 
ATOM     17  C   UNL     1     -11.287  55.274  51.586  0.00  0.00    +0.000 C 
ATOM     18  C   UNL     1     -13.178  56.766  52.049  0.00  0.00    +0.000 A 
ATOM     19  C   UNL     1     -14.525  57.789  50.299  0.00  0.00    +0.000 A 
ATOM     20  N   UNL     1     -12.167  55.895  52.447  0.00  0.00    +0.000 N 
ATOM     21  C   UNL     1     -13.952  57.432  53.007  0.00  0.00    +0.000 A 
ATOM     22  C   UNL     1     -15.265  58.474  51.263  0.00  0.00    +0.000 A 
ATOM     23  C   UNL     1     -14.984  58.288  52.615  0.00  0.00    +0.000 A 
ATOM     24  H   UNL     1     -10.713  54.753  49.765  0.00  0.00    +0.000 HD
ATOM     25  H   UNL     1     -12.074  55.710  53.410  0.00  0.00    +0.000 HD
ENDBRANCH   1  17
BRANCH   3  26
ATOM     26  O   UNL     1     -11.497  52.860  53.199  0.00  0.00    +0.000 OA
ATOM     27  H   UNL     1     -11.565  52.174  53.834  0.00  0.00    +0.000 HD
ENDBRANCH   3  26
BRANCH   5  28
ATOM     28  N   UNL     1      -6.322  55.018  52.441  0.00  0.00    +0.000 N 
ATOM     29  H   UNL     1      -5.958  55.786  52.938  0.00  0.00    +0.000 HD
BRANCH  28  30
ATOM     30  C   UNL     1      -5.551  54.278  51.435  0.00  0.00    +0.000 C 
BRANCH  30  31
ATOM     31  C   UNL     1      -5.518  55.037  50.145  0.00  0.00    +0.000 C 
ATOM     32  C   UNL     1      -6.337  54.639  48.948  0.00  0.00    +0.000 C 
ATOM     33  C   UNL     1      -4.852  54.407  48.946  0.00  0.00    +0.000 C 
ENDBRANCH  30  31
ENDBRANCH  28  30
ENDBRANCH   5  28
TORSDOF 5
ENDMDL
MODEL 3
REMARK VINA RESULT:      -8.1      3.967      4.858
REMARK  Name = 
REMARK  5 active torsions:
REMARK  status: ('A' for Active; 'I' for Inactive)
REMARK    1  A    between atoms: C_6  and  C_10
REMARK    2  A    between atoms: C_14  and  O_18
REMARK    3  A    between atoms: N_17  and  N_20
REMARK    4  A    between atoms: N_20  and  C_23
REMARK    5  A    between atoms: C_23  and  C_26
REMARK                            x       y       z     vdW  Elec       q    Type
REMARK                         _______ _______ _______ _____ _____    ______ ____
ROOT
ATOM      1  C   UNL     1     -10.667  55.658  48.186  0.00  0.00    +0.000 A 
ATOM      2  C   UNL     1      -9.207  55.753  48.477  0.00  0.00    +0.000 A 
ATOM      3  C   UNL     1     -11.102  55.014  47.091  0.00  0.00    +0.000 A 
ATOM      4  O   UNL     1      -8.870  56.390  49.480  0.00  0.00    +0.000 OA
ATOM      5  N   UNL     1      -8.317  55.098  47.621  0.00  0.00    +0.000 N 
ATOM      6  C   UNL     1     -10.151  54.358  46.182  0.00  0.00    +0.000 A 
ATOM      7  C   UNL     1      -8.771  54.407  46.456  0.00  0.00    +0.000 A 
ATOM      8  C   UNL     1     -10.607  53.665  45.046  0.00  0.00    +0.000 A 
ATOM      9  C   UNL     1      -7.879  53.771  45.578  0.00  0.00    +0.000 A 
ATOM     10  C   UNL     1      -9.712  53.025  44.192  0.00  0.00    +0.000 A 
ATOM     11  C   UNL     1      -8.348  53.081  44.457  0.00  0.00    +0.000 A 
ENDROOT
BRANCH   1  17
ATOM     12  S   UNL     1     -13.054  55.985  51.289  0.00  0.00    +0.000 S 
ATOM     13  O   UNL     1     -12.334  56.224  52.527  0.00  0.00    +0.000 OA
ATOM     14  O   UNL     1     -14.176  55.072  51.258  0.00  0.00    +0.000 OA
ATOM     15  N   UNL     1     -11.977  55.489  50.185  0.00  0.00    +0.000 N 
ATOM     16  C   UNL     1     -13.685  57.546  50.786  0.00  0.00    +0.000 A 
ATOM     17  C   UNL     1     -11.642  56.248  49.186  0.00  0.00    +0.000 C 
ATOM     18  C   UNL     1     -13.137  58.134  49.658  0.00  0.00    +0.000 A 
ATOM     19  C   UNL     1     -14.720  58.145  51.509  0.00  0.00    +0.000 A 
ATOM     20  N   UNL     1     -12.096  57.531  48.959  0.00  0.00    +0.000 N 
ATOM     21  C   UNL     1     -13.598  59.401  49.283  0.00  0.00    +0.000 A 
ATOM     22  C   UNL     1     -15.193  59.393  51.102  0.00  0.00    +0.000 A 
ATOM     23  C   UNL     1     -14.626  60.023  49.995  0.00  0.00    +0.000 A 
ATOM     24  H   UNL     1     -11.570  54.597  50.274  0.00  0.00    +0.000 HD
ATOM     25  H   UNL     1     -11.652  58.056  48.254  0.00  0.00    +0.000 HD
ENDBRANCH   1  17
BRANCH   3  26
ATOM     26  O   UNL     1     -12.435  54.880  46.742  0.00  0.00    +0.000 OA
ATOM     27  H   UNL     1     -12.749  54.070  46.391  0.00  0.00    +0.000 HD
ENDBRANCH   3  26
BRANCH   5  28
ATOM     28  N   UNL     1      -6.895  55.183  47.850  0.00  0.00    +0.000 N 
ATOM     29  H   UNL     1      -6.317  55.840  47.398  0.00  0.00    +0.000 HD
BRANCH  28  30
ATOM     30  C   UNL     1      -6.387  54.204  48.818  0.00  0.00    +0.000 C 
BRANCH  30  31
ATOM     31  C   UNL     1      -5.662  54.899  49.929  0.00  0.00    +0.000 C 
ATOM     32  C   UNL     1      -4.781  54.168  50.905  0.00  0.00    +0.000 C 
ATOM     33  C   UNL     1      -6.123  54.679  51.349  0.00  0.00    +0.000 C 
ENDBRANCH  30  31
ENDBRANCH  28  30
ENDBRANCH   5  28
TORSDOF 5
ENDMDL
MODEL 4
REMARK VINA RESULT:      -8.1      2.913      7.348
REMARK  Name = 
REMARK  5 active torsions:
REMARK  status: ('A' for Active; 'I' for Inactive)
REMARK    1  A    between atoms: C_6  and  C_10
REMARK    2  A    between atoms: C_14  and  O_18
REMARK    3  A    between atoms: N_17  and  N_20
REMARK    4  A    between atoms: N_20  and  C_23
REMARK    5  A    between atoms: C_23  and  C_26
REMARK                            x       y       z     vdW  Elec       q    Type
REMARK                         _______ _______ _______ _____ _____    ______ ____
ROOT
ATOM      1  C   UNL     1     -10.474  54.896  50.508  0.00  0.00    +0.000 A 
ATOM      2  C   UNL     1     -11.612  55.076  51.455  0.00  0.00    +0.000 A 
ATOM      3  C   UNL     1     -10.603  55.239  49.216  0.00  0.00    +0.000 A 
ATOM      4  O   UNL     1     -11.443  54.707  52.622  0.00  0.00    +0.000 OA
ATOM      5  N   UNL     1     -12.783  55.673  50.977  0.00  0.00    +0.000 N 
ATOM      6  C   UNL     1     -11.853  55.834  48.721  0.00  0.00    +0.000 A 
ATOM      7  C   UNL     1     -12.927  56.044  49.606  0.00  0.00    +0.000 A 
ATOM      8  C   UNL     1     -11.981  56.213  47.373  0.00  0.00    +0.000 A 
ATOM      9  C   UNL     1     -14.111  56.618  49.115  0.00  0.00    +0.000 A 
ATOM     10  C   UNL     1     -13.156  56.796  46.903  0.00  0.00    +0.000 A 
ATOM     11  C   UNL     1     -14.222  56.995  47.774  0.00  0.00    +0.000 A 
ENDROOT
BRANCH   1  17
ATOM     12  S   UNL     1      -7.267  52.674  50.965  0.00  0.00    +0.000 S 
ATOM     13  O   UNL     1      -6.232  52.977  49.994  0.00  0.00    +0.000 OA
ATOM     14  O   UNL     1      -7.556  51.302  51.323  0.00  0.00    +0.000 OA
ATOM     15  N   UNL     1      -8.641  53.353  50.443  0.00  0.00    +0.000 N 
ATOM     16  C   UNL     1      -6.784  53.472  52.454  0.00  0.00    +0.000 A 
ATOM     17  C   UNL     1      -9.157  54.378  51.053  0.00  0.00    +0.000 C 
ATOM     18  C   UNL     1      -7.533  54.555  52.882  0.00  0.00    +0.000 A 
ATOM     19  C   UNL     1      -5.685  52.997  53.175  0.00  0.00    +0.000 A 
ATOM     20  N   UNL     1      -8.615  55.026  52.143  0.00  0.00    +0.000 N 
ATOM     21  C   UNL     1      -7.122  55.229  54.038  0.00  0.00    +0.000 A 
ATOM     22  C   UNL     1      -5.310  53.657  54.345  0.00  0.00    +0.000 A 
ATOM     23  C   UNL     1      -6.022  54.776  54.771  0.00  0.00    +0.000 A 
ATOM     24  H   UNL     1      -9.093  52.983  49.651  0.00  0.00    +0.000 HD
ATOM     25  H   UNL     1      -9.021  55.880  52.418  0.00  0.00    +0.000 HD
ENDBRANCH   1  17
BRANCH   3  26
ATOM     26  O   UNL     1      -9.602  55.102  48.269  0.00  0.00    +0.000 OA
ATOM     27  H   UNL     1      -9.434  54.265  47.881  0.00  0.00    +0.000 HD
ENDBRANCH   3  26
BRANCH   5  28
ATOM     28  N   UNL     1     -13.917  55.845  51.851  0.00  0.00    +0.000 N 
ATOM     29  H   UNL     1     -14.647  55.187  51.919  0.00  0.00    +0.000 HD
BRANCH  28  30
ATOM     30  C   UNL     1     -13.887  57.088  52.631  0.00  0.00    +0.000 C 
BRANCH  30  31
ATOM     31  C   UNL     1     -15.096  57.919  52.332  0.00  0.00    +0.000 C 
ATOM     32  C   UNL     1     -15.019  59.225  51.590  0.00  0.00    +0.000 C 
ATOM     33  C   UNL     1     -15.284  59.222  53.070  0.00  0.00    +0.000 C 
ENDBRANCH  30  31
ENDBRANCH  28  30
ENDBRANCH   5  28
TORSDOF 5
ENDMDL
MODEL 5
REMARK VINA RESULT:      -8.0      2.854      7.318
REMARK  Name = 
REMARK  5 active torsions:
REMARK  status: ('A' for Active; 'I' for Inactive)
REMARK    1  A    between atoms: C_6  and  C_10
REMARK    2  A    between atoms: C_14  and  O_18
REMARK    3  A    between atoms: N_17  and  N_20
REMARK    4  A    between atoms: N_20  and  C_23
REMARK    5  A    between atoms: C_23  and  C_26
REMARK                            x       y       z     vdW  Elec       q    Type
REMARK                         _______ _______ _______ _____ _____    ______ ____
ROOT
ATOM      1  C   UNL     1     -10.210  54.936  50.922  0.00  0.00    +0.000 A 
ATOM      2  C   UNL     1     -11.504  55.484  51.424  0.00  0.00    +0.000 A 
ATOM      3  C   UNL     1      -9.972  54.851  49.603  0.00  0.00    +0.000 A 
ATOM      4  O   UNL     1     -11.676  55.502  52.646  0.00  0.00    +0.000 OA
ATOM      5  N   UNL     1     -12.424  55.968  50.488  0.00  0.00    +0.000 N 
ATOM      6  C   UNL     1     -10.964  55.334  48.632  0.00  0.00    +0.000 A 
ATOM      7  C   UNL     1     -12.177  55.886  49.085  0.00  0.00    +0.000 A 
ATOM      8  C   UNL     1     -10.706  55.265  47.251  0.00  0.00    +0.000 A 
ATOM      9  C   UNL     1     -13.110  56.345  48.140  0.00  0.00    +0.000 A 
ATOM     10  C   UNL     1     -11.634  55.738  46.327  0.00  0.00    +0.000 A 
ATOM     11  C   UNL     1     -12.837  56.276  46.772  0.00  0.00    +0.000 A 
ENDROOT
BRANCH   1  17
ATOM     12  S   UNL     1      -6.850  54.904  52.959  0.00  0.00    +0.000 S 
ATOM     13  O   UNL     1      -6.806  55.931  53.983  0.00  0.00    +0.000 OA
ATOM     14  O   UNL     1      -5.683  54.624  52.151  0.00  0.00    +0.000 OA
ATOM     15  N   UNL     1      -8.074  55.261  51.960  0.00  0.00    +0.000 N 
ATOM     16  C   UNL     1      -7.234  53.404  53.792  0.00  0.00    +0.000 A 
ATOM     17  C   UNL     1      -9.154  54.539  51.936  0.00  0.00    +0.000 C 
ATOM     18  C   UNL     1      -8.478  52.840  53.570  0.00  0.00    +0.000 A 
ATOM     19  C   UNL     1      -6.287  52.811  54.631  0.00  0.00    +0.000 A 
ATOM     20  N   UNL     1      -9.416  53.452  52.743  0.00  0.00    +0.000 N 
ATOM     21  C   UNL     1      -8.811  51.674  54.271  0.00  0.00    +0.000 A 
ATOM     22  C   UNL     1      -6.620  51.631  55.295  0.00  0.00    +0.000 A 
ATOM     23  C   UNL     1      -7.883  51.068  55.122  0.00  0.00    +0.000 A 
ATOM     24  H   UNL     1      -7.998  56.039  51.361  0.00  0.00    +0.000 HD
ATOM     25  H   UNL     1     -10.329  53.084  52.734  0.00  0.00    +0.000 HD
ENDBRANCH   1  17
BRANCH   3  26
ATOM     26  O   UNL     1      -8.803  54.353  49.052  0.00  0.00    +0.000 OA
ATOM     27  H   UNL     1      -8.430  53.559  49.383  0.00  0.00    +0.000 HD
ENDBRANCH   3  26
BRANCH   5  28
ATOM     28  N   UNL     1     -13.697  56.485  50.926  0.00  0.00    +0.000 N 
ATOM     29  H   UNL     1     -14.479  55.911  51.099  0.00  0.00    +0.000 HD
BRANCH  28  30
ATOM     30  C   UNL     1     -13.725  57.943  51.091  0.00  0.00    +0.000 C 
BRANCH  30  31
ATOM     31  C   UNL     1     -14.043  58.300  52.510  0.00  0.00    +0.000 C 
ATOM     32  C   UNL     1     -15.247  57.760  53.232  0.00  0.00    +0.000 C 
ATOM     33  C   UNL     1     -15.225  59.196  52.788  0.00  0.00    +0.000 C 
ENDBRANCH  30  31
ENDBRANCH  28  30
ENDBRANCH   5  28
TORSDOF 5
ENDMDL
MODEL 6
REMARK VINA RESULT:      -7.9      3.339      7.676
REMARK  Name = 
REMARK  5 active torsions:
REMARK  status: ('A' for Active; 'I' for Inactive)
REMARK    1  A    between atoms: C_6  and  C_10
REMARK    2  A    between atoms: C_14  and  O_18
REMARK    3  A    between atoms: N_17  and  N_20
REMARK    4  A    between atoms: N_20  and  C_23
REMARK    5  A    between atoms: C_23  and  C_26
REMARK                            x       y       z     vdW  Elec       q    Type
REMARK                         _______ _______ _______ _____ _____    ______ ____
ROOT
ATOM      1  C   UNL     1      -9.681  55.160  50.903  0.00  0.00    +0.000 A 
ATOM      2  C   UNL     1     -10.910  55.301  51.738  0.00  0.00    +0.000 A 
ATOM      3  C   UNL     1      -9.745  55.302  49.569  0.00  0.00    +0.000 A 
ATOM      4  O   UNL     1     -10.792  55.123  52.954  0.00  0.00    +0.000 OA
ATOM      5  N   UNL     1     -12.105  55.651  51.102  0.00  0.00    +0.000 N 
ATOM      6  C   UNL     1     -11.016  55.637  48.912  0.00  0.00    +0.000 A 
ATOM      7  C   UNL     1     -12.180  55.808  49.685  0.00  0.00    +0.000 A 
ATOM      8  C   UNL     1     -11.078  55.807  47.518  0.00  0.00    +0.000 A 
ATOM      9  C   UNL     1     -13.384  56.133  49.039  0.00  0.00    +0.000 A 
ATOM     10  C   UNL     1     -12.276  56.144  46.892  0.00  0.00    +0.000 A 
ATOM     11  C   UNL     1     -13.429  56.304  47.652  0.00  0.00    +0.000 A 
ENDROOT
BRANCH   1  17
ATOM     12  S   UNL     1      -6.783  55.405  53.544  0.00  0.00    +0.000 S 
ATOM     13  O   UNL     1      -7.047  54.624  54.739  0.00  0.00    +0.000 OA
ATOM     14  O   UNL     1      -6.198  56.723  53.645  0.00  0.00    +0.000 OA
ATOM     15  N   UNL     1      -8.177  55.538  52.730  0.00  0.00    +0.000 N 
ATOM     16  C   UNL     1      -5.666  54.451  52.579  0.00  0.00    +0.000 A 
ATOM     17  C   UNL     1      -8.358  54.917  51.603  0.00  0.00    +0.000 C 
ATOM     18  C   UNL     1      -6.135  53.903  51.397  0.00  0.00    +0.000 A 
ATOM     19  C   UNL     1      -4.346  54.281  53.005  0.00  0.00    +0.000 A 
ATOM     20  N   UNL     1      -7.457  54.068  50.996  0.00  0.00    +0.000 N 
ATOM     21  C   UNL     1      -5.266  53.098  50.650  0.00  0.00    +0.000 A 
ATOM     22  C   UNL     1      -3.482  53.506  52.232  0.00  0.00    +0.000 A 
ATOM     23  C   UNL     1      -3.944  52.909  51.061  0.00  0.00    +0.000 A 
ATOM     24  H   UNL     1      -8.898  56.099  53.095  0.00  0.00    +0.000 HD
ATOM     25  H   UNL     1      -7.772  53.542  50.224  0.00  0.00    +0.000 HD
ENDBRANCH   1  17
BRANCH   3  26
ATOM     26  O   UNL     1      -8.657  55.184  48.720  0.00  0.00    +0.000 OA
ATOM     27  H   UNL     1      -8.202  54.368  48.651  0.00  0.00    +0.000 HD
ENDBRANCH   3  26
BRANCH   5  28
ATOM     28  N   UNL     1     -13.322  55.775  51.866  0.00  0.00    +0.000 N 
ATOM     29  H   UNL     1     -13.990  55.054  51.931  0.00  0.00    +0.000 HD
BRANCH  28  30
ATOM     30  C   UNL     1     -13.477  57.071  52.537  0.00  0.00    +0.000 C 
BRANCH  30  31
ATOM     31  C   UNL     1     -14.759  57.723  52.119  0.00  0.00    +0.000 C 
ATOM     32  C   UNL     1     -14.800  59.038  51.390  0.00  0.00    +0.000 C 
ATOM     33  C   UNL     1     -15.206  58.974  52.835  0.00  0.00    +0.000 C 
ENDBRANCH  30  31
ENDBRANCH  28  30
ENDBRANCH   5  28
TORSDOF 5
ENDMDL
MODEL 7
REMARK VINA RESULT:      -7.8      3.570      7.456
REMARK  Name = 
REMARK  5 active torsions:
REMARK  status: ('A' for Active; 'I' for Inactive)
REMARK    1  A    between atoms: C_6  and  C_10
REMARK    2  A    between atoms: C_14  and  O_18
REMARK    3  A    between atoms: N_17  and  N_20
REMARK    4  A    between atoms: N_20  and  C_23
REMARK    5  A    between atoms: C_23  and  C_26
REMARK                            x       y       z     vdW  Elec       q    Type
REMARK                         _______ _______ _______ _____ _____    ______ ____
ROOT
ATOM      1  C   UNL     1     -10.148  55.281  50.668  0.00  0.00    +0.000 A 
ATOM      2  C   UNL     1      -9.682  55.250  49.251  0.00  0.00    +0.000 A 
ATOM      3  C   UNL     1     -11.382  55.716  50.970  0.00  0.00    +0.000 A 
ATOM      4  O   UNL     1      -8.524  54.874  49.043  0.00  0.00    +0.000 OA
ATOM      5  N   UNL     1     -10.587  55.617  48.249  0.00  0.00    +0.000 N 
ATOM      6  C   UNL     1     -12.309  56.130  49.907  0.00  0.00    +0.000 A 
ATOM      7  C   UNL     1     -11.902  56.076  48.561  0.00  0.00    +0.000 A 
ATOM      8  C   UNL     1     -13.609  56.565  50.221  0.00  0.00    +0.000 A 
ATOM      9  C   UNL     1     -12.805  56.472  47.560  0.00  0.00    +0.000 A 
ATOM     10  C   UNL     1     -14.499  56.940  49.217  0.00  0.00    +0.000 A 
ATOM     11  C   UNL     1     -14.095  56.896  47.887  0.00  0.00    +0.000 A 
ENDROOT
BRANCH   1  17
ATOM     12  S   UNL     1      -7.003  54.899  52.991  0.00  0.00    +0.000 S 
ATOM     13  O   UNL     1      -6.991  55.858  54.080  0.00  0.00    +0.000 OA
ATOM     14  O   UNL     1      -5.785  54.588  52.275  0.00  0.00    +0.000 OA
ATOM     15  N   UNL     1      -8.103  55.397  51.912  0.00  0.00    +0.000 N 
ATOM     16  C   UNL     1      -7.557  53.382  53.687  0.00  0.00    +0.000 A 
ATOM     17  C   UNL     1      -9.219  54.753  51.744  0.00  0.00    +0.000 C 
ATOM     18  C   UNL     1      -8.808  52.919  53.318  0.00  0.00    +0.000 A 
ATOM     19  C   UNL     1      -6.732  52.677  54.568  0.00  0.00    +0.000 A 
ATOM     20  N   UNL     1      -9.623  53.642  52.452  0.00  0.00    +0.000 N 
ATOM     21  C   UNL     1      -9.277  51.739  53.910  0.00  0.00    +0.000 A 
ATOM     22  C   UNL     1      -7.199  51.485  55.121  0.00  0.00    +0.000 A 
ATOM     23  C   UNL     1      -8.473  51.022  54.799  0.00  0.00    +0.000 A 
ATOM     24  H   UNL     1      -7.923  56.202  51.375  0.00  0.00    +0.000 HD
ATOM     25  H   UNL     1     -10.553  53.338  52.337  0.00  0.00    +0.000 HD
ENDBRANCH   1  17
BRANCH   3  26
ATOM     26  O   UNL     1     -11.894  55.783  52.255  0.00  0.00    +0.000 OA
ATOM     27  H   UNL     1     -11.313  55.861  52.987  0.00  0.00    +0.000 HD
ENDBRANCH   3  26
BRANCH   5  28
ATOM     28  N   UNL     1     -10.173  55.624  46.867  0.00  0.00    +0.000 N 
ATOM     29  H   UNL     1      -9.828  56.428  46.415  0.00  0.00    +0.000 HD
BRANCH  28  30
ATOM     30  C   UNL     1     -10.312  54.327  46.196  0.00  0.00    +0.000 C 
BRANCH  30  31
ATOM     31  C   UNL     1      -8.964  53.776  45.845  0.00  0.00    +0.000 C 
ATOM     32  C   UNL     1      -7.919  54.585  45.127  0.00  0.00    +0.000 C 
ATOM     33  C   UNL     1      -8.648  53.492  44.396  0.00  0.00    +0.000 C 
ENDBRANCH  30  31
ENDBRANCH  28  30
ENDBRANCH   5  28
TORSDOF 5
ENDMDL
MODEL 8
REMARK VINA RESULT:      -7.8      3.684      4.370
REMARK  Name = 
REMARK  5 active torsions:
REMARK  status: ('A' for Active; 'I' for Inactive)
REMARK    1  A    between atoms: C_6  and  C_10
REMARK    2  A    between atoms: C_14  and  O_18
REMARK    3  A    between atoms: N_17  and  N_20
REMARK    4  A    between atoms: N_20  and  C_23
REMARK    5  A    between atoms: C_23  and  C_26
REMARK                            x       y       z     vdW  Elec       q    Type
REMARK                         _______ _______ _______ _____ _____    ______ ____
ROOT
ATOM      1  C   UNL     1     -11.607  56.096  48.673  0.00  0.00    +0.000 A 
ATOM      2  C   UNL     1     -10.459  55.550  49.453  0.00  0.00    +0.000 A 
ATOM      3  C   UNL     1     -11.822  55.698  47.409  0.00  0.00    +0.000 A 
ATOM      4  O   UNL     1     -10.293  55.984  50.597  0.00  0.00    +0.000 OA
ATOM      5  N   UNL     1      -9.662  54.567  48.857  0.00  0.00    +0.000 N 
ATOM      6  C   UNL     1     -10.956  54.688  46.785  0.00  0.00    +0.000 A 
ATOM      7  C   UNL     1      -9.887  54.134  47.515  0.00  0.00    +0.000 A 
ATOM      8  C   UNL     1     -11.194  54.254  45.469  0.00  0.00    +0.000 A 
ATOM      9  C   UNL     1      -9.073  53.167  46.903  0.00  0.00    +0.000 A 
ATOM     10  C   UNL     1     -10.388  53.283  44.879  0.00  0.00    +0.000 A 
ATOM     11  C   UNL     1      -9.326  52.742  45.595  0.00  0.00    +0.000 A 
ENDROOT
BRANCH   1  17
ATOM     12  S   UNL     1     -13.616  59.370  49.499  0.00  0.00    +0.000 S 
ATOM     13  O   UNL     1     -14.773  59.548  48.642  0.00  0.00    +0.000 OA
ATOM     14  O   UNL     1     -12.776  60.497  49.841  0.00  0.00    +0.000 OA
ATOM     15  N   UNL     1     -12.678  58.235  48.825  0.00  0.00    +0.000 N 
ATOM     16  C   UNL     1     -14.233  58.746  51.023  0.00  0.00    +0.000 A 
ATOM     17  C   UNL     1     -12.555  57.059  49.363  0.00  0.00    +0.000 C 
ATOM     18  C   UNL     1     -13.936  57.435  51.354  0.00  0.00    +0.000 A 
ATOM     19  C   UNL     1     -14.981  59.575  51.864  0.00  0.00    +0.000 A 
ATOM     20  N   UNL     1     -13.203  56.618  50.497  0.00  0.00    +0.000 N 
ATOM     21  C   UNL     1     -14.469  56.915  52.540  0.00  0.00    +0.000 A 
ATOM     22  C   UNL     1     -15.475  59.053  53.059  0.00  0.00    +0.000 A 
ATOM     23  C   UNL     1     -15.226  57.723  53.392  0.00  0.00    +0.000 A 
ATOM     24  H   UNL     1     -12.193  58.440  47.993  0.00  0.00    +0.000 HD
ATOM     25  H   UNL     1     -13.144  55.660  50.717  0.00  0.00    +0.000 HD
ENDBRANCH   1  17
BRANCH   3  26
ATOM     26  O   UNL     1     -12.859  56.155  46.613  0.00  0.00    +0.000 OA
ATOM     27  H   UNL     1     -13.028  55.749  45.785  0.00  0.00    +0.000 HD
ENDBRANCH   3  26
BRANCH   5  28
ATOM     28  N   UNL     1      -8.527  54.027  49.565  0.00  0.00    +0.000 N 
ATOM     29  H   UNL     1      -8.484  53.095  49.877  0.00  0.00    +0.000 HD
BRANCH  28  30
ATOM     30  C   UNL     1      -7.442  54.992  49.777  0.00  0.00    +0.000 C 
BRANCH  30  31
ATOM     31  C   UNL     1      -6.330  54.746  48.804  0.00  0.00    +0.000 C 
ATOM     32  C   UNL     1      -5.434  53.540  48.885  0.00  0.00    +0.000 C 
ATOM     33  C   UNL     1      -4.904  54.891  49.277  0.00  0.00    +0.000 C 
ENDBRANCH  30  31
ENDBRANCH  28  30
ENDBRANCH   5  28
TORSDOF 5
ENDMDL
MODEL 9
REMARK VINA RESULT:      -7.7      3.171      4.860
REMARK  Name = 
REMARK  5 active torsions:
REMARK  status: ('A' for Active; 'I' for Inactive)
REMARK    1  A    between atoms: C_6  and  C_10
REMARK    2  A    between atoms: C_14  and  O_18
REMARK    3  A    between atoms: N_17  and  N_20
REMARK    4  A    between atoms: N_20  and  C_23
REMARK    5  A    between atoms: C_23  and  C_26
REMARK                            x       y       z     vdW  Elec       q    Type
REMARK                         _______ _______ _______ _____ _____    ______ ____
ROOT
ATOM      1  C   UNL     1     -12.248  54.319  50.144  0.00  0.00    +0.000 A 
ATOM      2  C   UNL     1     -11.952  53.985  48.720  0.00  0.00    +0.000 A 
ATOM      3  C   UNL     1     -11.709  53.596  51.139  0.00  0.00    +0.000 A 
ATOM      4  O   UNL     1     -12.508  54.664  47.851  0.00  0.00    +0.000 OA
ATOM      5  N   UNL     1     -11.048  52.952  48.458  0.00  0.00    +0.000 N 
ATOM      6  C   UNL     1     -10.785  52.491  50.845  0.00  0.00    +0.000 A 
ATOM      7  C   UNL     1     -10.466  52.181  49.509  0.00  0.00    +0.000 A 
ATOM      8  C   UNL     1     -10.203  51.748  51.887  0.00  0.00    +0.000 A 
ATOM      9  C   UNL     1      -9.578  51.124  49.249  0.00  0.00    +0.000 A 
ATOM     10  C   UNL     1      -9.312  50.712  51.615  0.00  0.00    +0.000 A 
ATOM     11  C   UNL     1      -9.002  50.399  50.296  0.00  0.00    +0.000 A 
ENDROOT
BRANCH   1  17
ATOM     12  S   UNL     1     -15.287  56.493  51.358  0.00  0.00    +0.000 S 
ATOM     13  O   UNL     1     -15.282  56.711  52.793  0.00  0.00    +0.000 OA
ATOM     14  O   UNL     1     -16.523  56.203  50.665  0.00  0.00    +0.000 OA
ATOM     15  N   UNL     1     -14.245  55.294  51.042  0.00  0.00    +0.000 N 
ATOM     16  C   UNL     1     -14.664  57.972  50.642  0.00  0.00    +0.000 A 
ATOM     17  C   UNL     1     -13.119  55.525  50.436  0.00  0.00    +0.000 C 
ATOM     18  C   UNL     1     -13.417  57.928  50.044  0.00  0.00    +0.000 A 
ATOM     19  C   UNL     1     -15.434  59.139  50.671  0.00  0.00    +0.000 A 
ATOM     20  N   UNL     1     -12.656  56.762  50.037  0.00  0.00    +0.000 N 
ATOM     21  C   UNL     1     -12.892  59.115  49.518  0.00  0.00    +0.000 A 
ATOM     22  C   UNL     1     -14.912  60.305  50.112  0.00  0.00    +0.000 A 
ATOM     23  C   UNL     1     -13.640  60.295  49.544  0.00  0.00    +0.000 A 
ATOM     24  H   UNL     1     -14.468  54.375  51.314  0.00  0.00    +0.000 HD
ATOM     25  H   UNL     1     -11.724  56.824  49.726  0.00  0.00    +0.000 HD
ENDBRANCH   1  17
BRANCH   3  26
ATOM     26  O   UNL     1     -11.932  53.833  52.485  0.00  0.00    +0.000 OA
ATOM     27  H   UNL     1     -12.808  53.854  52.818  0.00  0.00    +0.000 HD
ENDBRANCH   3  26
BRANCH   5  28
ATOM     28  N   UNL     1     -10.749  52.579  47.096  0.00  0.00    +0.000 N 
ATOM     29  H   UNL     1     -11.250  51.886  46.607  0.00  0.00    +0.000 HD
BRANCH  28  30
ATOM     30  C   UNL     1      -9.632  53.325  46.504  0.00  0.00    +0.000 C 
BRANCH  30  31
ATOM     31  C   UNL     1      -9.890  53.580  45.051  0.00  0.00    +0.000 C 
ATOM     32  C   UNL     1     -10.167  52.473  44.070  0.00  0.00    +0.000 C 
ATOM     33  C   UNL     1      -8.839  53.178  44.044  0.00  0.00    +0.000 C 
ENDBRANCH  30  31
ENDBRANCH  28  30
ENDBRANCH   5  28
TORSDOF 5
ENDMDL
