MODEL 1
REMARK VINA RESULT:      -8.0      0.000      0.000
REMARK  Name = 
REMARK  9 active torsions:
REMARK  status: ('A' for Active; 'I' for Inactive)
REMARK    1  A    between atoms: C_6  and  C_10
REMARK    2  A    between atoms: C_14  and  O_18
REMARK    3  A    between atoms: N_17  and  N_20
REMARK    4  A    between atoms: N_20  and  C_23
REMARK    5  A    between atoms: C_23  and  C_26
REMARK    6  A    between atoms: C_23  and  C_27
REMARK    7  A    between atoms: C_26  and  C_29
REMARK    8  A    between atoms: C_27  and  C_30
REMARK    9  A    between atoms: C_29  and  C_31
REMARK                            x       y       z     vdW  Elec       q    Type
REMARK                         _______ _______ _______ _____ _____    ______ ____
ROOT
ATOM      1  C   UNL     1      -9.905  54.388  52.182  0.00  0.00    +0.000 A 
ATOM      2  C   UNL     1      -8.497  54.829  51.930  0.00  0.00    +0.000 A 
ATOM      3  C   UNL     1     -10.126  53.335  52.993  0.00  0.00    +0.000 A 
ATOM      4  O   UNL     1      -8.288  55.565  50.960  0.00  0.00    +0.000 OA
ATOM      5  N   UNL     1      -7.527  54.434  52.868  0.00  0.00    +0.000 N 
ATOM      6  C   UNL     1      -9.018  52.684  53.703  0.00  0.00    +0.000 A 
ATOM      7  C   UNL     1      -7.741  53.269  53.685  0.00  0.00    +0.000 A 
ATOM      8  C   UNL     1      -9.249  51.516  54.455  0.00  0.00    +0.000 A 
ATOM      9  C   UNL     1      -6.722  52.657  54.441  0.00  0.00    +0.000 A 
ATOM     10  C   UNL     1      -8.229  50.927  55.197  0.00  0.00    +0.000 A 
ATOM     11  C   UNL     1      -6.968  51.501  55.191  0.00  0.00    +0.000 A 
ENDROOT
BRANCH   1  17
ATOM     12  S   UNL     1     -12.369  55.822  49.471  0.00  0.00    +0.000 S 
ATOM     13  O   UNL     1     -13.185  54.749  48.933  0.00  0.00    +0.000 OA
ATOM     14  O   UNL     1     -11.820  56.835  48.592  0.00  0.00    +0.000 OA
ATOM     15  N   UNL     1     -11.136  55.147  50.269  0.00  0.00    +0.000 N 
ATOM     16  C   UNL     1     -13.375  56.663  50.627  0.00  0.00    +0.000 A 
ATOM     17  C   UNL     1     -11.058  55.175  51.568  0.00  0.00    +0.000 C 
ATOM     18  C   UNL     1     -13.052  56.554  51.969  0.00  0.00    +0.000 A 
ATOM     19  C   UNL     1     -14.470  57.401  50.170  0.00  0.00    +0.000 A 
ATOM     20  N   UNL     1     -11.955  55.814  52.396  0.00  0.00    +0.000 N 
ATOM     21  C   UNL     1     -13.891  57.192  52.892  0.00  0.00    +0.000 A 
ATOM     22  C   UNL     1     -15.284  58.043  51.096  0.00  0.00    +0.000 A 
ATOM     23  C   UNL     1     -14.998  57.933  52.457  0.00  0.00    +0.000 A 
ATOM     24  H   UNL     1     -10.422  54.702  49.757  0.00  0.00    +0.000 HD
ATOM     25  H   UNL     1     -11.806  55.741  53.367  0.00  0.00    +0.000 HD
ENDBRANCH   1  17
BRANCH   3  26
ATOM     26  O   UNL     1     -11.373  52.812  53.287  0.00  0.00    +0.000 OA
ATOM     27  H   UNL     1     -11.443  51.985  53.721  0.00  0.00    +0.000 HD
ENDBRANCH   3  26
BRANCH   5  28
ATOM     28  N   UNL     1      -6.212  55.001  52.782  0.00  0.00    +0.000 N 
ATOM     29  H   UNL     1      -6.012  55.897  53.136  0.00  0.00    +0.000 HD
BRANCH  28  30
ATOM     30  C   UNL     1      -5.171  54.167  52.132  0.00  0.00    +0.000 C 
BRANCH  30  31
ATOM     31  C   UNL     1      -3.844  54.476  52.869  0.00  0.00    +0.000 C 
ATOM     32  C   UNL     1      -4.035  55.179  54.208  0.00  0.00    +0.000 C 
ENDBRANCH  30  31
BRANCH  30  33
ATOM     33  C   UNL     1      -5.035  54.444  50.611  0.00  0.00    +0.000 C 
BRANCH  33  34
ATOM     34  C   UNL     1      -5.693  53.356  49.744  0.00  0.00    +0.000 C 
ATOM     35  C   UNL     1      -6.068  52.113  50.538  0.00  0.00    +0.000 C 
ENDBRANCH  33  34
ENDBRANCH  30  33
ENDBRANCH  28  30
ENDBRANCH   5  28
TORSDOF 7
ENDMDL
MODEL 2
REMARK VINA RESULT:      -8.0      3.388      7.405
REMARK  Name = 
REMARK  9 active torsions:
REMARK  status: ('A' for Active; 'I' for Inactive)
REMARK    1  A    between atoms: C_6  and  C_10
REMARK    2  A    between atoms: C_14  and  O_18
REMARK    3  A    between atoms: N_17  and  N_20
REMARK    4  A    between atoms: N_20  and  C_23
REMARK    5  A    between atoms: C_23  and  C_26
REMARK    6  A    between atoms: C_23  and  C_27
REMARK    7  A    between atoms: C_26  and  C_29
REMARK    8  A    between atoms: C_27  and  C_30
REMARK    9  A    between atoms: C_29  and  C_31
REMARK                            x       y       z     vdW  Elec       q    Type
REMARK                         _______ _______ _______ _____ _____    ______ ____
ROOT
ATOM      1  C   UNL     1      -9.934  55.286  50.375  0.00  0.00    +0.000 A 
ATOM      2  C   UNL     1      -9.464  55.354  48.955  0.00  0.00    +0.000 A 
ATOM      3  C   UNL     1     -11.171  55.729  50.676  0.00  0.00    +0.000 A 
ATOM      4  O   UNL     1      -8.250  55.253  48.744  0.00  0.00    +0.000 OA
ATOM      5  N   UNL     1     -10.452  55.448  47.959  0.00  0.00    +0.000 N 
ATOM      6  C   UNL     1     -12.087  56.181  49.622  0.00  0.00    +0.000 A 
ATOM      7  C   UNL     1     -11.749  55.985  48.273  0.00  0.00    +0.000 A 
ATOM      8  C   UNL     1     -13.332  56.748  49.963  0.00  0.00    +0.000 A 
ATOM      9  C   UNL     1     -12.688  56.362  47.294  0.00  0.00    +0.000 A 
ATOM     10  C   UNL     1     -14.247  57.113  48.980  0.00  0.00    +0.000 A 
ATOM     11  C   UNL     1     -13.925  56.915  47.647  0.00  0.00    +0.000 A 
ENDROOT
BRANCH   1  17
ATOM     12  S   UNL     1      -6.928  54.845  52.873  0.00  0.00    +0.000 S 
ATOM     13  O   UNL     1      -7.027  55.826  53.938  0.00  0.00    +0.000 OA
ATOM     14  O   UNL     1      -5.645  54.548  52.270  0.00  0.00    +0.000 OA
ATOM     15  N   UNL     1      -7.930  55.304  51.690  0.00  0.00    +0.000 N 
ATOM     16  C   UNL     1      -7.520  53.342  53.541  0.00  0.00    +0.000 A 
ATOM     17  C   UNL     1      -9.033  54.661  51.434  0.00  0.00    +0.000 C 
ATOM     18  C   UNL     1      -8.724  52.850  53.066  0.00  0.00    +0.000 A 
ATOM     19  C   UNL     1      -6.776  52.696  54.532  0.00  0.00    +0.000 A 
ATOM     20  N   UNL     1      -9.442  53.514  52.077  0.00  0.00    +0.000 N 
ATOM     21  C   UNL     1      -9.215  51.670  53.640  0.00  0.00    +0.000 A 
ATOM     22  C   UNL     1      -7.267  51.516  55.081  0.00  0.00    +0.000 A 
ATOM     23  C   UNL     1      -8.488  51.008  54.639  0.00  0.00    +0.000 A 
ATOM     24  H   UNL     1      -7.699  56.091  51.146  0.00  0.00    +0.000 HD
ATOM     25  H   UNL     1     -10.312  53.133  51.815  0.00  0.00    +0.000 HD
ENDBRANCH   1  17
BRANCH   3  26
ATOM     26  O   UNL     1     -11.715  55.745  51.948  0.00  0.00    +0.000 OA
ATOM     27  H   UNL     1     -11.562  55.030  52.533  0.00  0.00    +0.000 HD
ENDBRANCH   3  26
BRANCH   5  28
ATOM     28  N   UNL     1     -10.063  55.308  46.585  0.00  0.00    +0.000 N 
ATOM     29  H   UNL     1      -9.783  56.082  46.046  0.00  0.00    +0.000 HD
BRANCH  28  30
ATOM     30  C   UNL     1     -10.103  53.937  46.020  0.00  0.00    +0.000 C 
BRANCH  30  31
ATOM     31  C   UNL     1      -8.904  53.832  45.046  0.00  0.00    +0.000 C 
ATOM     32  C   UNL     1      -7.787  54.829  45.337  0.00  0.00    +0.000 C 
ENDBRANCH  30  31
BRANCH  30  33
ATOM     33  C   UNL     1     -11.436  53.621  45.291  0.00  0.00    +0.000 C 
BRANCH  33  34
ATOM     34  C   UNL     1     -12.138  52.368  45.845  0.00  0.00    +0.000 C 
ATOM     35  C   UNL     1     -12.224  52.360  47.363  0.00  0.00    +0.000 C 
ENDBRANCH  33  34
ENDBRANCH  30  33
ENDBRANCH  28  30
ENDBRANCH   5  28
TORSDOF 7
ENDMDL
MODEL 3
REMARK VINA RESULT:      -7.9      3.384      7.411
REMARK  Name = 
REMARK  9 active torsions:
REMARK  status: ('A' for Active; 'I' for Inactive)
REMARK    1  A    between atoms: C_6  and  C_10
REMARK    2  A    between atoms: C_14  and  O_18
REMARK    3  A    between atoms: N_17  and  N_20
REMARK    4  A    between atoms: N_20  and  C_23
REMARK    5  A    between atoms: C_23  and  C_26
REMARK    6  A    between atoms: C_23  and  C_27
REMARK    7  A    between atoms: C_26  and  C_29
REMARK    8  A    between atoms: C_27  and  C_30
REMARK    9  A    between atoms: C_29  and  C_31
REMARK                            x       y       z     vdW  Elec       q    Type
REMARK                         _______ _______ _______ _____ _____    ______ ____
ROOT
ATOM      1  C   UNL     1     -10.375  55.187  50.547  0.00  0.00    +0.000 A 
ATOM      2  C   UNL     1      -9.816  55.309  49.163  0.00  0.00    +0.000 A 
ATOM      3  C   UNL     1     -11.611  55.661  50.796  0.00  0.00    +0.000 A 
ATOM      4  O   UNL     1      -8.596  55.172  49.020  0.00  0.00    +0.000 OA
ATOM      5  N   UNL     1     -10.736  55.491  48.116  0.00  0.00    +0.000 N 
ATOM      6  C   UNL     1     -12.445  56.201  49.715  0.00  0.00    +0.000 A 
ATOM      7  C   UNL     1     -12.031  56.060  48.381  0.00  0.00    +0.000 A 
ATOM      8  C   UNL     1     -13.687  56.797  50.011  0.00  0.00    +0.000 A 
ATOM      9  C   UNL     1     -12.894  56.523  47.368  0.00  0.00    +0.000 A 
ATOM     10  C   UNL     1     -14.526  57.246  48.996  0.00  0.00    +0.000 A 
ATOM     11  C   UNL     1     -14.130  57.104  47.676  0.00  0.00    +0.000 A 
ENDROOT
BRANCH   1  17
ATOM     12  S   UNL     1      -9.170  52.356  52.999  0.00  0.00    +0.000 S 
ATOM     13  O   UNL     1      -8.600  51.259  52.239  0.00  0.00    +0.000 OA
ATOM     14  O   UNL     1     -10.036  52.091  54.129  0.00  0.00    +0.000 OA
ATOM     15  N   UNL     1      -9.988  53.293  51.967  0.00  0.00    +0.000 N 
ATOM     16  C   UNL     1      -7.816  53.273  53.617  0.00  0.00    +0.000 A 
ATOM     17  C   UNL     1      -9.563  54.475  51.623  0.00  0.00    +0.000 C 
ATOM     18  C   UNL     1      -7.598  54.538  53.098  0.00  0.00    +0.000 A 
ATOM     19  C   UNL     1      -6.997  52.705  54.596  0.00  0.00    +0.000 A 
ATOM     20  N   UNL     1      -8.431  55.080  52.125  0.00  0.00    +0.000 N 
ATOM     21  C   UNL     1      -6.484  55.247  53.564  0.00  0.00    +0.000 A 
ATOM     22  C   UNL     1      -5.904  53.427  55.062  0.00  0.00    +0.000 A 
ATOM     23  C   UNL     1      -5.644  54.695  54.541  0.00  0.00    +0.000 A 
ATOM     24  H   UNL     1     -10.834  52.962  51.587  0.00  0.00    +0.000 HD
ATOM     25  H   UNL     1      -8.195  55.967  51.767  0.00  0.00    +0.000 HD
ENDBRANCH   1  17
BRANCH   3  26
ATOM     26  O   UNL     1     -12.232  55.633  52.032  0.00  0.00    +0.000 OA
ATOM     27  H   UNL     1     -12.152  56.364  52.613  0.00  0.00    +0.000 HD
ENDBRANCH   3  26
BRANCH   5  28
ATOM     28  N   UNL     1     -10.269  55.407  46.763  0.00  0.00    +0.000 N 
ATOM     29  H   UNL     1      -9.925  56.195  46.284  0.00  0.00    +0.000 HD
BRANCH  28  30
ATOM     30  C   UNL     1     -10.330  54.070  46.121  0.00  0.00    +0.000 C 
BRANCH  30  31
ATOM     31  C   UNL     1      -9.016  53.913  45.317  0.00  0.00    +0.000 C 
ATOM     32  C   UNL     1      -7.944  54.934  45.685  0.00  0.00    +0.000 C 
ENDBRANCH  30  31
BRANCH  30  33
ATOM     33  C   UNL     1     -11.565  53.895  45.200  0.00  0.00    +0.000 C 
BRANCH  33  34
ATOM     34  C   UNL     1     -12.081  52.446  45.159  0.00  0.00    +0.000 C 
ATOM     35  C   UNL     1     -12.334  51.869  46.544  0.00  0.00    +0.000 C 
ENDBRANCH  33  34
ENDBRANCH  30  33
ENDBRANCH  28  30
ENDBRANCH   5  28
TORSDOF 7
ENDMDL
MODEL 4
REMARK VINA RESULT:      -7.8      2.446      8.116
REMARK  Name = 
REMARK  9 active torsions:
REMARK  status: ('A' for Active; 'I' for Inactive)
REMARK    1  A    between atoms: C_6  and  C_10
REMARK    2  A    between atoms: C_14  and  O_18
REMARK    3  A    between atoms: N_17  and  N_20
REMARK    4  A    between atoms: N_20  and  C_23
REMARK    5  A    between atoms: C_23  and  C_26
REMARK    6  A    between atoms: C_23  and  C_27
REMARK    7  A    between atoms: C_26  and  C_29
REMARK    8  A    between atoms: C_27  and  C_30
REMARK    9  A    between atoms: C_29  and  C_31
REMARK                            x       y       z     vdW  Elec       q    Type
REMARK                         _______ _______ _______ _____ _____    ______ ____
ROOT
ATOM      1  C   UNL     1     -10.260  54.661  50.738  0.00  0.00    +0.000 A 
ATOM      2  C   UNL     1     -11.645  54.900  51.252  0.00  0.00    +0.000 A 
ATOM      3  C   UNL     1     -10.010  54.835  49.426  0.00  0.00    +0.000 A 
ATOM      4  O   UNL     1     -11.936  54.438  52.361  0.00  0.00    +0.000 OA
ATOM      5  N   UNL     1     -12.489  55.703  50.465  0.00  0.00    +0.000 N 
ATOM      6  C   UNL     1     -11.048  55.347  48.522  0.00  0.00    +0.000 A 
ATOM      7  C   UNL     1     -12.255  55.832  49.051  0.00  0.00    +0.000 A 
ATOM      8  C   UNL     1     -10.807  55.415  47.135  0.00  0.00    +0.000 A 
ATOM      9  C   UNL     1     -13.194  56.385  48.159  0.00  0.00    +0.000 A 
ATOM     10  C   UNL     1     -11.747  55.967  46.270  0.00  0.00    +0.000 A 
ATOM     11  C   UNL     1     -12.938  56.455  46.785  0.00  0.00    +0.000 A 
ENDROOT
BRANCH   1  17
ATOM     12  S   UNL     1      -6.937  54.918  52.828  0.00  0.00    +0.000 S 
ATOM     13  O   UNL     1      -7.051  55.988  53.801  0.00  0.00    +0.000 OA
ATOM     14  O   UNL     1      -5.708  54.734  52.083  0.00  0.00    +0.000 OA
ATOM     15  N   UNL     1      -8.134  55.100  51.757  0.00  0.00    +0.000 N 
ATOM     16  C   UNL     1      -7.209  53.432  53.707  0.00  0.00    +0.000 A 
ATOM     17  C   UNL     1      -9.151  54.288  51.716  0.00  0.00    +0.000 C 
ATOM     18  C   UNL     1      -8.374  52.729  53.450  0.00  0.00    +0.000 A 
ATOM     19  C   UNL     1      -6.260  53.008  54.642  0.00  0.00    +0.000 A 
ATOM     20  N   UNL     1      -9.301  53.174  52.513  0.00  0.00    +0.000 N 
ATOM     21  C   UNL     1      -8.608  51.565  54.193  0.00  0.00    +0.000 A 
ATOM     22  C   UNL     1      -6.497  51.841  55.360  0.00  0.00    +0.000 A 
ATOM     23  C   UNL     1      -7.673  51.124  55.140  0.00  0.00    +0.000 A 
ATOM     24  H   UNL     1      -8.093  55.846  51.116  0.00  0.00    +0.000 HD
ATOM     25  H   UNL     1     -10.129  52.651  52.409  0.00  0.00    +0.000 HD
ENDBRANCH   1  17
BRANCH   3  26
ATOM     26  O   UNL     1      -8.784  54.624  48.820  0.00  0.00    +0.000 OA
ATOM     27  H   UNL     1      -8.031  54.428  49.342  0.00  0.00    +0.000 HD
ENDBRANCH   3  26
BRANCH   5  28
ATOM     28  N   UNL     1     -13.745  56.128  51.012  0.00  0.00    +0.000 N 
ATOM     29  H   UNL     1     -14.500  55.505  51.116  0.00  0.00    +0.000 HD
BRANCH  28  30
ATOM     30  C   UNL     1     -13.848  57.553  51.411  0.00  0.00    +0.000 C 
BRANCH  30  31
ATOM     31  C   UNL     1     -13.932  57.567  52.958  0.00  0.00    +0.000 C 
ATOM     32  C   UNL     1     -15.229  58.162  53.497  0.00  0.00    +0.000 C 
ENDBRANCH  30  31
BRANCH  30  33
ATOM     33  C   UNL     1     -15.073  58.271  50.786  0.00  0.00    +0.000 C 
BRANCH  33  34
ATOM     34  C   UNL     1     -14.713  59.627  50.153  0.00  0.00    +0.000 C 
ATOM     35  C   UNL     1     -13.236  59.744  49.807  0.00  0.00    +0.000 C 
ENDBRANCH  33  34
ENDBRANCH  30  33
ENDBRANCH  28  30
ENDBRANCH   5  28
TORSDOF 7
ENDMDL
MODEL 5
REMARK VINA RESULT:      -7.7      4.144      5.375
REMARK  Name = 
REMARK  9 active torsions:
REMARK  status: ('A' for Active; 'I' for Inactive)
REMARK    1  A    between atoms: C_6  and  C_10
REMARK    2  A    between atoms: C_14  and  O_18
REMARK    3  A    between atoms: N_17  and  N_20
REMARK    4  A    between atoms: N_20  and  C_23
REMARK    5  A    between atoms: C_23  and  C_26
REMARK    6  A    between atoms: C_23  and  C_27
REMARK    7  A    between atoms: C_26  and  C_29
REMARK    8  A    between atoms: C_27  and  C_30
REMARK    9  A    between atoms: C_29  and  C_31
REMARK                            x       y       z     vdW  Elec       q    Type
REMARK                         _______ _______ _______ _____ _____    ______ ____
ROOT
ATOM      1  C   UNL     1     -12.346  54.286  49.717  0.00  0.00    +0.000 A 
ATOM      2  C   UNL     1     -11.609  54.212  48.415  0.00  0.00    +0.000 A 
ATOM      3  C   UNL     1     -12.159  53.314  50.630  0.00  0.00    +0.000 A 
ATOM      4  O   UNL     1     -12.018  54.910  47.481  0.00  0.00    +0.000 OA
ATOM      5  N   UNL     1     -10.455  53.410  48.380  0.00  0.00    +0.000 N 
ATOM      6  C   UNL     1     -11.178  52.245  50.405  0.00  0.00    +0.000 A 
ATOM      7  C   UNL     1     -10.294  52.330  49.317  0.00  0.00    +0.000 A 
ATOM      8  C   UNL     1     -11.077  51.174  51.315  0.00  0.00    +0.000 A 
ATOM      9  C   UNL     1      -9.317  51.325  49.178  0.00  0.00    +0.000 A 
ATOM     10  C   UNL     1     -10.103  50.192  51.162  0.00  0.00    +0.000 A 
ATOM     11  C   UNL     1      -9.222  50.272  50.095  0.00  0.00    +0.000 A 
ENDROOT
BRANCH   1  17
ATOM     12  S   UNL     1     -15.340  56.409  51.133  0.00  0.00    +0.000 S 
ATOM     13  O   UNL     1     -15.246  56.486  52.579  0.00  0.00    +0.000 OA
ATOM     14  O   UNL     1     -16.622  56.196  50.494  0.00  0.00    +0.000 OA
ATOM     15  N   UNL     1     -14.346  55.233  50.639  0.00  0.00    +0.000 N 
ATOM     16  C   UNL     1     -14.731  57.932  50.526  0.00  0.00    +0.000 A 
ATOM     17  C   UNL     1     -13.238  55.489  50.006  0.00  0.00    +0.000 C 
ATOM     18  C   UNL     1     -13.525  57.924  49.847  0.00  0.00    +0.000 A 
ATOM     19  C   UNL     1     -15.466  59.099  50.752  0.00  0.00    +0.000 A 
ATOM     20  N   UNL     1     -12.815  56.747  49.635  0.00  0.00    +0.000 N 
ATOM     21  C   UNL     1     -13.021  59.154  49.405  0.00  0.00    +0.000 A 
ATOM     22  C   UNL     1     -14.962  60.311  50.293  0.00  0.00    +0.000 A 
ATOM     23  C   UNL     1     -13.737  60.339  49.626  0.00  0.00    +0.000 A 
ATOM     24  H   UNL     1     -14.586  54.296  50.823  0.00  0.00    +0.000 HD
ATOM     25  H   UNL     1     -11.943  56.817  49.183  0.00  0.00    +0.000 HD
ENDBRANCH   1  17
BRANCH   3  26
ATOM     26  O   UNL     1     -12.795  53.250  51.857  0.00  0.00    +0.000 OA
ATOM     27  H   UNL     1     -12.399  52.783  52.567  0.00  0.00    +0.000 HD
ENDBRANCH   3  26
BRANCH   5  28
ATOM     28  N   UNL     1      -9.608  53.470  47.224  0.00  0.00    +0.000 N 
ATOM     29  H   UNL     1      -8.900  54.149  47.137  0.00  0.00    +0.000 HD
BRANCH  28  30
ATOM     30  C   UNL     1      -9.852  52.458  46.167  0.00  0.00    +0.000 C 
BRANCH  30  31
ATOM     31  C   UNL     1      -8.464  52.086  45.591  0.00  0.00    +0.000 C 
ATOM     32  C   UNL     1      -8.418  52.058  44.067  0.00  0.00    +0.000 C 
ENDBRANCH  30  31
BRANCH  30  33
ATOM     33  C   UNL     1     -10.796  52.968  45.046  0.00  0.00    +0.000 C 
BRANCH  33  34
ATOM     34  C   UNL     1     -12.137  52.213  45.004  0.00  0.00    +0.000 C 
ATOM     35  C   UNL     1     -12.333  51.288  46.196  0.00  0.00    +0.000 C 
ENDBRANCH  33  34
ENDBRANCH  30  33
ENDBRANCH  28  30
ENDBRANCH   5  28
TORSDOF 7
ENDMDL
MODEL 6
REMARK VINA RESULT:      -7.6      3.188      4.670
REMARK  Name = 
REMARK  9 active torsions:
REMARK  status: ('A' for Active; 'I' for Inactive)
REMARK    1  A    between atoms: C_6  and  C_10
REMARK    2  A    between atoms: C_14  and  O_18
REMARK    3  A    between atoms: N_17  and  N_20
REMARK    4  A    between atoms: N_20  and  C_23
REMARK    5  A    between atoms: C_23  and  C_26
REMARK    6  A    between atoms: C_23  and  C_27
REMARK    7  A    between atoms: C_26  and  C_29
REMARK    8  A    between atoms: C_27  and  C_30
REMARK    9  A    between atoms: C_29  and  C_31
REMARK                            x       y       z     vdW  Elec       q    Type
REMARK                         _______ _______ _______ _____ _____    ______ ____
ROOT
ATOM      1  C   UNL     1     -12.073  54.394  49.893  0.00  0.00    +0.000 A 
ATOM      2  C   UNL     1     -11.634  54.068  48.500  0.00  0.00    +0.000 A 
ATOM      3  C   UNL     1     -11.565  53.687  50.921  0.00  0.00    +0.000 A 
ATOM      4  O   UNL     1     -12.326  54.486  47.565  0.00  0.00    +0.000 OA
ATOM      5  N   UNL     1     -10.419  53.375  48.358  0.00  0.00    +0.000 N 
ATOM      6  C   UNL     1     -10.522  52.677  50.700  0.00  0.00    +0.000 A 
ATOM      7  C   UNL     1      -9.915  52.568  49.438  0.00  0.00    +0.000 A 
ATOM      8  C   UNL     1     -10.083  51.868  51.766  0.00  0.00    +0.000 A 
ATOM      9  C   UNL     1      -8.866  51.641  49.286  0.00  0.00    +0.000 A 
ATOM     10  C   UNL     1      -9.044  50.958  51.596  0.00  0.00    +0.000 A 
ATOM     11  C   UNL     1      -8.434  50.850  50.357  0.00  0.00    +0.000 A 
ENDROOT
BRANCH   1  17
ATOM     12  S   UNL     1     -15.213  56.393  51.166  0.00  0.00    +0.000 S 
ATOM     13  O   UNL     1     -15.168  56.510  52.612  0.00  0.00    +0.000 OA
ATOM     14  O   UNL     1     -16.463  56.098  50.495  0.00  0.00    +0.000 OA
ATOM     15  N   UNL     1     -14.147  55.258  50.732  0.00  0.00    +0.000 N 
ATOM     16  C   UNL     1     -14.665  57.930  50.537  0.00  0.00    +0.000 A 
ATOM     17  C   UNL     1     -13.034  55.555  50.125  0.00  0.00    +0.000 C 
ATOM     18  C   UNL     1     -13.440  57.968  49.894  0.00  0.00    +0.000 A 
ATOM     19  C   UNL     1     -15.465  59.062  50.711  0.00  0.00    +0.000 A 
ATOM     20  N   UNL     1     -12.665  56.824  49.733  0.00  0.00    +0.000 N 
ATOM     21  C   UNL     1     -12.986  59.211  49.435  0.00  0.00    +0.000 A 
ATOM     22  C   UNL     1     -15.010  60.287  50.235  0.00  0.00    +0.000 A 
ATOM     23  C   UNL     1     -13.769  60.362  49.603  0.00  0.00    +0.000 A 
ATOM     24  H   UNL     1     -14.344  54.315  50.933  0.00  0.00    +0.000 HD
ATOM     25  H   UNL     1     -11.785  56.928  49.305  0.00  0.00    +0.000 HD
ENDBRANCH   1  17
BRANCH   3  26
ATOM     26  O   UNL     1     -11.904  53.869  52.250  0.00  0.00    +0.000 OA
ATOM     27  H   UNL     1     -12.130  54.723  52.563  0.00  0.00    +0.000 HD
ENDBRANCH   3  26
BRANCH   5  28
ATOM     28  N   UNL     1      -9.859  53.224  47.047  0.00  0.00    +0.000 N 
ATOM     29  H   UNL     1      -9.871  52.360  46.575  0.00  0.00    +0.000 HD
BRANCH  28  30
ATOM     30  C   UNL     1      -9.259  54.437  46.437  0.00  0.00    +0.000 C 
BRANCH  30  31
ATOM     31  C   UNL     1      -8.313  53.939  45.317  0.00  0.00    +0.000 C 
ATOM     32  C   UNL     1      -8.526  52.477  44.938  0.00  0.00    +0.000 C 
ENDBRANCH  30  31
BRANCH  30  33
ATOM     33  C   UNL     1      -8.490  55.313  47.460  0.00  0.00    +0.000 C 
BRANCH  33  34
ATOM     34  C   UNL     1      -7.117  54.728  47.836  0.00  0.00    +0.000 C 
ATOM     35  C   UNL     1      -6.874  54.706  49.337  0.00  0.00    +0.000 C 
ENDBRANCH  33  34
ENDBRANCH  30  33
ENDBRANCH  28  30
ENDBRANCH   5  28
TORSDOF 7
ENDMDL
MODEL 7
REMARK VINA RESULT:      -7.5      3.349      5.726
REMARK  Name = 
REMARK  9 active torsions:
REMARK  status: ('A' for Active; 'I' for Inactive)
REMARK    1  A    between atoms: C_6  and  C_10
REMARK    2  A    between atoms: C_14  and  O_18
REMARK    3  A    between atoms: N_17  and  N_20
REMARK    4  A    between atoms: N_20  and  C_23
REMARK    5  A    between atoms: C_23  and  C_26
REMARK    6  A    between atoms: C_23  and  C_27
REMARK    7  A    between atoms: C_26  and  C_29
REMARK    8  A    between atoms: C_27  and  C_30
REMARK    9  A    between atoms: C_29  and  C_31
REMARK                            x       y       z     vdW  Elec       q    Type
REMARK                         _______ _______ _______ _____ _____    ______ ____
ROOT
ATOM      1  C   UNL     1     -11.597  56.094  48.674  0.00  0.00    +0.000 A 
ATOM      2  C   UNL     1     -10.384  55.509  49.326  0.00  0.00    +0.000 A 
ATOM      3  C   UNL     1     -11.933  55.688  47.433  0.00  0.00    +0.000 A 
ATOM      4  O   UNL     1      -9.910  56.103  50.301  0.00  0.00    +0.000 OA
ATOM      5  N   UNL     1      -9.921  54.278  48.827  0.00  0.00    +0.000 N 
ATOM      6  C   UNL     1     -11.185  54.618  46.762  0.00  0.00    +0.000 A 
ATOM      7  C   UNL     1     -10.227  53.882  47.479  0.00  0.00    +0.000 A 
ATOM      8  C   UNL     1     -11.474  54.285  45.424  0.00  0.00    +0.000 A 
ATOM      9  C   UNL     1      -9.586  52.813  46.822  0.00  0.00    +0.000 A 
ATOM     10  C   UNL     1     -10.831  53.225  44.793  0.00  0.00    +0.000 A 
ATOM     11  C   UNL     1      -9.891  52.488  45.495  0.00  0.00    +0.000 A 
ENDROOT
BRANCH   1  17
ATOM     12  S   UNL     1     -13.609  59.367  49.516  0.00  0.00    +0.000 S 
ATOM     13  O   UNL     1     -14.765  59.471  48.645  0.00  0.00    +0.000 OA
ATOM     14  O   UNL     1     -12.811  60.539  49.815  0.00  0.00    +0.000 OA
ATOM     15  N   UNL     1     -12.622  58.251  48.890  0.00  0.00    +0.000 N 
ATOM     16  C   UNL     1     -14.207  58.774  51.048  0.00  0.00    +0.000 A 
ATOM     17  C   UNL     1     -12.460  57.085  49.447  0.00  0.00    +0.000 C 
ATOM     18  C   UNL     1     -13.857  57.489  51.428  0.00  0.00    +0.000 A 
ATOM     19  C   UNL     1     -15.022  59.598  51.829  0.00  0.00    +0.000 A 
ATOM     20  N   UNL     1     -13.042  56.691  50.632  0.00  0.00    +0.000 N 
ATOM     21  C   UNL     1     -14.379  57.004  52.634  0.00  0.00    +0.000 A 
ATOM     22  C   UNL     1     -15.520  59.109  53.032  0.00  0.00    +0.000 A 
ATOM     23  C   UNL     1     -15.203  57.811  53.430  0.00  0.00    +0.000 A 
ATOM     24  H   UNL     1     -12.129  58.458  48.064  0.00  0.00    +0.000 HD
ATOM     25  H   UNL     1     -12.867  55.772  50.940  0.00  0.00    +0.000 HD
ENDBRANCH   1  17
BRANCH   3  26
ATOM     26  O   UNL     1     -13.011  56.166  46.711  0.00  0.00    +0.000 OA
ATOM     27  H   UNL     1     -13.147  57.090  46.627  0.00  0.00    +0.000 HD
ENDBRANCH   3  26
BRANCH   5  28
ATOM     28  N   UNL     1      -8.895  53.583  49.549  0.00  0.00    +0.000 N 
ATOM     29  H   UNL     1      -7.942  53.695  49.329  0.00  0.00    +0.000 HD
BRANCH  28  30
ATOM     30  C   UNL     1      -9.343  52.685  50.642  0.00  0.00    +0.000 C 
BRANCH  30  31
ATOM     31  C   UNL     1     -10.817  52.325  50.333  0.00  0.00    +0.000 C 
ATOM     32  C   UNL     1     -11.006  50.906  49.808  0.00  0.00    +0.000 C 
ENDBRANCH  30  31
BRANCH  30  33
ATOM     33  C   UNL     1      -9.216  53.331  52.047  0.00  0.00    +0.000 C 
BRANCH  33  34
ATOM     34  C   UNL     1     -10.554  53.381  52.806  0.00  0.00    +0.000 C 
ATOM     35  C   UNL     1     -10.577  52.472  54.025  0.00  0.00    +0.000 C 
ENDBRANCH  33  34
ENDBRANCH  30  33
ENDBRANCH  28  30
ENDBRANCH   5  28
TORSDOF 7
ENDMDL
MODEL 8
REMARK VINA RESULT:      -7.4      4.045      7.350
REMARK  Name = 
REMARK  9 active torsions:
REMARK  status: ('A' for Active; 'I' for Inactive)
REMARK    1  A    between atoms: C_6  and  C_10
REMARK    2  A    between atoms: C_14  and  O_18
REMARK    3  A    between atoms: N_17  and  N_20
REMARK    4  A    between atoms: N_20  and  C_23
REMARK    5  A    between atoms: C_23  and  C_26
REMARK    6  A    between atoms: C_23  and  C_27
REMARK    7  A    between atoms: C_26  and  C_29
REMARK    8  A    between atoms: C_27  and  C_30
REMARK    9  A    between atoms: C_29  and  C_31
REMARK                            x       y       z     vdW  Elec       q    Type
REMARK                         _______ _______ _______ _____ _____    ______ ____
ROOT
ATOM      1  C   UNL     1     -11.782  54.541  48.261  0.00  0.00    +0.000 A 
ATOM      2  C   UNL     1     -11.848  53.724  49.514  0.00  0.00    +0.000 A 
ATOM      3  C   UNL     1     -12.492  55.683  48.187  0.00  0.00    +0.000 A 
ATOM      4  O   UNL     1     -11.466  52.550  49.458  0.00  0.00    +0.000 OA
ATOM      5  N   UNL     1     -12.267  54.382  50.684  0.00  0.00    +0.000 N 
ATOM      6  C   UNL     1     -13.244  56.180  49.346  0.00  0.00    +0.000 A 
ATOM      7  C   UNL     1     -13.082  55.565  50.598  0.00  0.00    +0.000 A 
ATOM      8  C   UNL     1     -14.073  57.313  49.219  0.00  0.00    +0.000 A 
ATOM      9  C   UNL     1     -13.760  56.118  51.701  0.00  0.00    +0.000 A 
ATOM     10  C   UNL     1     -14.734  57.846  50.321  0.00  0.00    +0.000 A 
ATOM     11  C   UNL     1     -14.573  57.249  51.562  0.00  0.00    +0.000 A 
ENDROOT
BRANCH   1  17
ATOM     12  S   UNL     1      -8.535  54.130  46.079  0.00  0.00    +0.000 S 
ATOM     13  O   UNL     1      -7.556  53.339  46.801  0.00  0.00    +0.000 OA
ATOM     14  O   UNL     1      -8.123  55.303  45.335  0.00  0.00    +0.000 OA
ATOM     15  N   UNL     1      -9.665  54.596  47.137  0.00  0.00    +0.000 N 
ATOM     16  C   UNL     1      -9.278  53.048  44.925  0.00  0.00    +0.000 A 
ATOM     17  C   UNL     1     -10.867  54.097  47.125  0.00  0.00    +0.000 C 
ATOM     18  C   UNL     1     -10.601  52.693  45.126  0.00  0.00    +0.000 A 
ATOM     19  C   UNL     1      -8.520  52.568  43.853  0.00  0.00    +0.000 A 
ATOM     20  N   UNL     1     -11.332  53.187  46.201  0.00  0.00    +0.000 N 
ATOM     21  C   UNL     1     -11.175  51.788  44.224  0.00  0.00    +0.000 A 
ATOM     22  C   UNL     1      -9.108  51.684  42.954  0.00  0.00    +0.000 A 
ATOM     23  C   UNL     1     -10.432  51.290  43.144  0.00  0.00    +0.000 A 
ATOM     24  H   UNL     1      -9.437  55.276  47.811  0.00  0.00    +0.000 HD
ATOM     25  H   UNL     1     -12.255  52.860  46.311  0.00  0.00    +0.000 HD
ENDBRANCH   1  17
BRANCH   3  26
ATOM     26  O   UNL     1     -12.539  56.514  47.082  0.00  0.00    +0.000 OA
ATOM     27  H   UNL     1     -12.244  57.401  47.150  0.00  0.00    +0.000 HD
ENDBRANCH   3  26
BRANCH   5  28
ATOM     28  N   UNL     1     -12.148  53.699  51.940  0.00  0.00    +0.000 N 
ATOM     29  H   UNL     1     -12.937  53.355  52.418  0.00  0.00    +0.000 HD
BRANCH  28  30
ATOM     30  C   UNL     1     -10.776  53.540  52.482  0.00  0.00    +0.000 C 
BRANCH  30  31
ATOM     31  C   UNL     1     -10.886  52.532  53.653  0.00  0.00    +0.000 C 
ATOM     32  C   UNL     1      -9.550  51.919  54.062  0.00  0.00    +0.000 C 
ENDBRANCH  30  31
BRANCH  30  33
ATOM     33  C   UNL     1     -10.155  54.878  52.962  0.00  0.00    +0.000 C 
BRANCH  33  34
ATOM     34  C   UNL     1      -8.848  55.227  52.229  0.00  0.00    +0.000 C 
ATOM     35  C   UNL     1      -8.541  54.276  51.082  0.00  0.00    +0.000 C 
ENDBRANCH  33  34
ENDBRANCH  30  33
ENDBRANCH  28  30
ENDBRANCH   5  28
TORSDOF 7
ENDMDL
MODEL 9
REMARK VINA RESULT:      -7.4      2.313      2.864
REMARK  Name = 
REMARK  9 active torsions:
REMARK  status: ('A' for Active; 'I' for Inactive)
REMARK    1  A    between atoms: C_6  and  C_10
REMARK    2  A    between atoms: C_14  and  O_18
REMARK    3  A    between atoms: N_17  and  N_20
REMARK    4  A    between atoms: N_20  and  C_23
REMARK    5  A    between atoms: C_23  and  C_26
REMARK    6  A    between atoms: C_23  and  C_27
REMARK    7  A    between atoms: C_26  and  C_29
REMARK    8  A    between atoms: C_27  and  C_30
REMARK    9  A    between atoms: C_29  and  C_31
REMARK                            x       y       z     vdW  Elec       q    Type
REMARK                         _______ _______ _______ _____ _____    ______ ____
ROOT
ATOM      1  C   UNL     1     -11.249  54.468  50.377  0.00  0.00    +0.000 A 
ATOM      2  C   UNL     1      -9.950  54.643  49.653  0.00  0.00    +0.000 A 
ATOM      3  C   UNL     1     -11.492  53.305  51.012  0.00  0.00    +0.000 A 
ATOM      4  O   UNL     1      -9.870  55.558  48.826  0.00  0.00    +0.000 OA
ATOM      5  N   UNL     1      -8.890  53.799  50.029  0.00  0.00    +0.000 N 
ATOM      6  C   UNL     1     -10.468  52.255  51.082  0.00  0.00    +0.000 A 
ATOM      7  C   UNL     1      -9.161  52.527  50.646  0.00  0.00    +0.000 A 
ATOM      8  C   UNL     1     -10.777  51.002  51.648  0.00  0.00    +0.000 A 
ATOM      9  C   UNL     1      -8.188  51.521  50.801  0.00  0.00    +0.000 A 
ATOM     10  C   UNL     1      -9.801  50.021  51.794  0.00  0.00    +0.000 A 
ATOM     11  C   UNL     1      -8.507  50.284  51.374  0.00  0.00    +0.000 A 
ENDROOT
BRANCH   1  17
ATOM     12  S   UNL     1     -13.758  57.247  49.169  0.00  0.00    +0.000 S 
ATOM     13  O   UNL     1     -14.948  56.627  48.618  0.00  0.00    +0.000 OA
ATOM     14  O   UNL     1     -13.162  58.394  48.516  0.00  0.00    +0.000 OA
ATOM     15  N   UNL     1     -12.620  56.105  49.285  0.00  0.00    +0.000 N 
ATOM     16  C   UNL     1     -14.183  57.764  50.785  0.00  0.00    +0.000 A 
ATOM     17  C   UNL     1     -12.237  55.628  50.435  0.00  0.00    +0.000 C 
ATOM     18  C   UNL     1     -13.601  57.101  51.852  0.00  0.00    +0.000 A 
ATOM     19  C   UNL     1     -15.095  58.809  50.949  0.00  0.00    +0.000 A 
ATOM     20  N   UNL     1     -12.694  56.064  51.659  0.00  0.00    +0.000 N 
ATOM     21  C   UNL     1     -13.983  57.489  53.143  0.00  0.00    +0.000 A 
ATOM     22  C   UNL     1     -15.452  59.196  52.236  0.00  0.00    +0.000 A 
ATOM     23  C   UNL     1     -14.901  58.531  53.331  0.00  0.00    +0.000 A 
ATOM     24  H   UNL     1     -12.203  55.760  48.463  0.00  0.00    +0.000 HD
ATOM     25  H   UNL     1     -12.351  55.605  52.461  0.00  0.00    +0.000 HD
ENDBRANCH   1  17
BRANCH   3  26
ATOM     26  O   UNL     1     -12.658  53.006  51.694  0.00  0.00    +0.000 OA
ATOM     27  H   UNL     1     -13.108  53.676  52.169  0.00  0.00    +0.000 HD
ENDBRANCH   3  26
BRANCH   5  28
ATOM     28  N   UNL     1      -7.579  54.066  49.513  0.00  0.00    +0.000 N 
ATOM     29  H   UNL     1      -7.221  53.582  48.734  0.00  0.00    +0.000 HD
BRANCH  28  30
ATOM     30  C   UNL     1      -6.789  55.109  50.214  0.00  0.00    +0.000 C 
BRANCH  30  31
ATOM     31  C   UNL     1      -5.407  55.150  49.516  0.00  0.00    +0.000 C 
ATOM     32  C   UNL     1      -4.582  53.882  49.711  0.00  0.00    +0.000 C 
ENDBRANCH  30  31
BRANCH  30  33
ATOM     33  C   UNL     1      -6.632  54.832  51.732  0.00  0.00    +0.000 C 
BRANCH  33  34
ATOM     34  C   UNL     1      -7.533  55.729  52.600  0.00  0.00    +0.000 C 
ATOM     35  C   UNL     1      -8.524  54.937  53.439  0.00  0.00    +0.000 C 
ENDBRANCH  33  34
ENDBRANCH  30  33
ENDBRANCH  28  30
ENDBRANCH   5  28
TORSDOF 7
ENDMDL
