MODEL 1
REMARK VINA RESULT:      -9.6      0.000      0.000
REMARK  Name = 
REMARK  6 active torsions:
REMARK  status: ('A' for Active; 'I' for Inactive)
REMARK    1  A    between atoms: C_6  and  C_10
REMARK    2  A    between atoms: C_14  and  O_18
REMARK    3  A    between atoms: N_17  and  N_20
REMARK    4  A    between atoms: N_20  and  C_23
REMARK    5  A    between atoms: C_23  and  C_26
REMARK    6  A    between atoms: C_23  and  C_27
REMARK                            x       y       z     vdW  Elec       q    Type
REMARK                         _______ _______ _______ _____ _____    ______ ____
ROOT
ATOM      1  C   UNL     1      -9.143  54.448  49.976  0.00  0.00    +0.000 A 
ATOM      2  C   UNL     1     -10.243  55.458  50.101  0.00  0.00    +0.000 A 
ATOM      3  C   UNL     1      -9.070  53.686  48.869  0.00  0.00    +0.000 A 
ATOM      4  O   UNL     1     -10.466  55.901  51.233  0.00  0.00    +0.000 OA
ATOM      5  N   UNL     1     -10.916  55.841  48.928  0.00  0.00    +0.000 N 
ATOM      6  C   UNL     1      -9.975  53.915  47.738  0.00  0.00    +0.000 A 
ATOM      7  C   UNL     1     -10.852  55.012  47.753  0.00  0.00    +0.000 A 
ATOM      8  C   UNL     1      -9.931  53.062  46.619  0.00  0.00    +0.000 A 
ATOM      9  C   UNL     1     -11.661  55.230  46.623  0.00  0.00    +0.000 A 
ATOM     10  C   UNL     1     -10.733  53.297  45.508  0.00  0.00    +0.000 A 
ATOM     11  C   UNL     1     -11.594  54.385  45.508  0.00  0.00    +0.000 A 
ENDROOT
BRANCH   1  17
ATOM     12  S   UNL     1      -7.675  54.141  53.616  0.00  0.00    +0.000 S 
ATOM     13  O   UNL     1      -7.935  52.831  54.175  0.00  0.00    +0.000 OA
ATOM     14  O   UNL     1      -7.823  55.330  54.438  0.00  0.00    +0.000 OA
ATOM     15  N   UNL     1      -8.616  54.331  52.318  0.00  0.00    +0.000 N 
ATOM     16  C   UNL     1      -6.007  54.123  53.085  0.00  0.00    +0.000 A 
ATOM     17  C   UNL     1      -8.133  54.296  51.110  0.00  0.00    +0.000 C 
ATOM     18  C   UNL     1      -5.761  54.114  51.721  0.00  0.00    +0.000 A 
ATOM     19  C   UNL     1      -4.981  54.121  54.033  0.00  0.00    +0.000 A 
ATOM     20  N   UNL     1      -6.802  54.119  50.798  0.00  0.00    +0.000 N 
ATOM     21  C   UNL     1      -4.430  54.046  51.298  0.00  0.00    +0.000 A 
ATOM     22  C   UNL     1      -3.662  54.084  53.597  0.00  0.00    +0.000 A 
ATOM     23  C   UNL     1      -3.387  54.038  52.231  0.00  0.00    +0.000 A 
ATOM     24  H   UNL     1      -9.581  54.478  52.444  0.00  0.00    +0.000 HD
ATOM     25  H   UNL     1      -6.570  53.985  49.850  0.00  0.00    +0.000 HD
ENDBRANCH   1  17
BRANCH   3  26
ATOM     26  O   UNL     1      -8.153  52.670  48.668  0.00  0.00    +0.000 OA
ATOM     27  H   UNL     1      -7.237  52.841  48.765  0.00  0.00    +0.000 HD
ENDBRANCH   3  26
BRANCH   5  28
ATOM     28  N   UNL     1     -11.891  56.918  48.937  0.00  0.00    +0.000 N 
ATOM     29  H   UNL     1     -11.633  57.838  48.700  0.00  0.00    +0.000 HD
BRANCH  28  30
ATOM     30  C   UNL     1     -13.288  56.589  49.313  0.00  0.00    +0.000 C 
ATOM     31  C   UNL     1     -14.183  56.881  48.096  0.00  0.00    +0.000 C 
BRANCH  30  32
ATOM     32  C   UNL     1     -13.793  57.353  50.532  0.00  0.00    +0.000 A 
ATOM     33  C   UNL     1     -13.668  56.836  51.832  0.00  0.00    +0.000 A 
ATOM     34  C   UNL     1     -14.384  58.618  50.376  0.00  0.00    +0.000 A 
ATOM     35  C   UNL     1     -14.124  57.558  52.937  0.00  0.00    +0.000 A 
ATOM     36  C   UNL     1     -14.850  59.335  51.479  0.00  0.00    +0.000 A 
ATOM     37  C   UNL     1     -14.720  58.804  52.759  0.00  0.00    +0.000 A 
ENDBRANCH  30  32
ENDBRANCH  28  30
ENDBRANCH   5  28
TORSDOF 5
ENDMDL
MODEL 2
REMARK VINA RESULT:      -9.3      3.272      7.613
REMARK  Name = 
REMARK  6 active torsions:
REMARK  status: ('A' for Active; 'I' for Inactive)
REMARK    1  A    between atoms: C_6  and  C_10
REMARK    2  A    between atoms: C_14  and  O_18
REMARK    3  A    between atoms: N_17  and  N_20
REMARK    4  A    between atoms: N_20  and  C_23
REMARK    5  A    between atoms: C_23  and  C_26
REMARK    6  A    between atoms: C_23  and  C_27
REMARK                            x       y       z     vdW  Elec       q    Type
REMARK                         _______ _______ _______ _____ _____    ______ ____
ROOT
ATOM      1  C   UNL     1     -12.231  54.383  49.683  0.00  0.00    +0.000 A 
ATOM      2  C   UNL     1     -11.538  54.378  48.354  0.00  0.00    +0.000 A 
ATOM      3  C   UNL     1     -12.055  53.345  50.521  0.00  0.00    +0.000 A 
ATOM      4  O   UNL     1     -11.963  55.166  47.502  0.00  0.00    +0.000 OA
ATOM      5  N   UNL     1     -10.450  53.505  48.187  0.00  0.00    +0.000 N 
ATOM      6  C   UNL     1     -11.104  52.276  50.205  0.00  0.00    +0.000 A 
ATOM      7  C   UNL     1     -10.278  52.384  49.074  0.00  0.00    +0.000 A 
ATOM      8  C   UNL     1     -10.987  51.164  51.060  0.00  0.00    +0.000 A 
ATOM      9  C   UNL     1      -9.336  51.366  48.839  0.00  0.00    +0.000 A 
ATOM     10  C   UNL     1     -10.046  50.169  50.816  0.00  0.00    +0.000 A 
ATOM     11  C   UNL     1      -9.217  50.274  49.709  0.00  0.00    +0.000 A 
ENDROOT
BRANCH   1  17
ATOM     12  S   UNL     1     -15.284  56.398  51.140  0.00  0.00    +0.000 S 
ATOM     13  O   UNL     1     -15.213  56.481  52.584  0.00  0.00    +0.000 OA
ATOM     14  O   UNL     1     -16.554  56.143  50.483  0.00  0.00    +0.000 OA
ATOM     15  N   UNL     1     -14.250  55.258  50.649  0.00  0.00    +0.000 N 
ATOM     16  C   UNL     1     -14.725  57.942  50.533  0.00  0.00    +0.000 A 
ATOM     17  C   UNL     1     -13.131  55.558  50.055  0.00  0.00    +0.000 C 
ATOM     18  C   UNL     1     -13.490  57.983  49.907  0.00  0.00    +0.000 A 
ATOM     19  C   UNL     1     -15.525  59.075  50.691  0.00  0.00    +0.000 A 
ATOM     20  N   UNL     1     -12.713  56.837  49.761  0.00  0.00    +0.000 N 
ATOM     21  C   UNL     1     -13.020  59.226  49.470  0.00  0.00    +0.000 A 
ATOM     22  C   UNL     1     -15.059  60.299  50.225  0.00  0.00    +0.000 A 
ATOM     23  C   UNL     1     -13.804  60.376  49.622  0.00  0.00    +0.000 A 
ATOM     24  H   UNL     1     -14.472  54.312  50.804  0.00  0.00    +0.000 HD
ATOM     25  H   UNL     1     -11.795  56.950  49.422  0.00  0.00    +0.000 HD
ENDBRANCH   1  17
BRANCH   3  26
ATOM     26  O   UNL     1     -12.698  53.195  51.737  0.00  0.00    +0.000 OA
ATOM     27  H   UNL     1     -13.365  52.545  51.836  0.00  0.00    +0.000 HD
ENDBRANCH   3  26
BRANCH   5  28
ATOM     28  N   UNL     1      -9.631  53.542  46.987  0.00  0.00    +0.000 N 
ATOM     29  H   UNL     1      -9.690  52.830  46.310  0.00  0.00    +0.000 HD
BRANCH  28  30
ATOM     30  C   UNL     1      -8.703  54.687  46.814  0.00  0.00    +0.000 C 
ATOM     31  C   UNL     1      -8.068  54.569  45.417  0.00  0.00    +0.000 C 
BRANCH  30  32
ATOM     32  C   UNL     1      -7.616  54.765  47.880  0.00  0.00    +0.000 A 
ATOM     33  C   UNL     1      -7.794  55.500  49.064  0.00  0.00    +0.000 A 
ATOM     34  C   UNL     1      -6.405  54.075  47.703  0.00  0.00    +0.000 A 
ATOM     35  C   UNL     1      -6.792  55.547  50.035  0.00  0.00    +0.000 A 
ATOM     36  C   UNL     1      -5.398  54.131  48.669  0.00  0.00    +0.000 A 
ATOM     37  C   UNL     1      -5.592  54.867  49.835  0.00  0.00    +0.000 A 
ENDBRANCH  30  32
ENDBRANCH  28  30
ENDBRANCH   5  28
TORSDOF 5
ENDMDL
MODEL 3
REMARK VINA RESULT:      -9.3      1.581      2.102
REMARK  Name = 
REMARK  6 active torsions:
REMARK  status: ('A' for Active; 'I' for Inactive)
REMARK    1  A    between atoms: C_6  and  C_10
REMARK    2  A    between atoms: C_14  and  O_18
REMARK    3  A    between atoms: N_17  and  N_20
REMARK    4  A    between atoms: N_20  and  C_23
REMARK    5  A    between atoms: C_23  and  C_26
REMARK    6  A    between atoms: C_23  and  C_27
REMARK                            x       y       z     vdW  Elec       q    Type
REMARK                         _______ _______ _______ _____ _____    ______ ____
ROOT
ATOM      1  C   UNL     1      -9.698  54.198  50.156  0.00  0.00    +0.000 A 
ATOM      2  C   UNL     1     -10.713  55.301  50.174  0.00  0.00    +0.000 A 
ATOM      3  C   UNL     1      -9.570  53.438  49.053  0.00  0.00    +0.000 A 
ATOM      4  O   UNL     1     -11.019  55.757  51.281  0.00  0.00    +0.000 OA
ATOM      5  N   UNL     1     -11.215  55.748  48.941  0.00  0.00    +0.000 N 
ATOM      6  C   UNL     1     -10.321  53.751  47.833  0.00  0.00    +0.000 A 
ATOM      7  C   UNL     1     -11.095  54.922  47.767  0.00  0.00    +0.000 A 
ATOM      8  C   UNL     1     -10.228  52.904  46.713  0.00  0.00    +0.000 A 
ATOM      9  C   UNL     1     -11.751  55.217  46.558  0.00  0.00    +0.000 A 
ATOM     10  C   UNL     1     -10.879  53.214  45.524  0.00  0.00    +0.000 A 
ATOM     11  C   UNL     1     -11.635  54.375  45.445  0.00  0.00    +0.000 A 
ENDROOT
BRANCH   1  17
ATOM     12  S   UNL     1      -6.902  54.689  52.885  0.00  0.00    +0.000 S 
ATOM     13  O   UNL     1      -7.251  55.754  53.803  0.00  0.00    +0.000 OA
ATOM     14  O   UNL     1      -5.541  54.560  52.396  0.00  0.00    +0.000 OA
ATOM     15  N   UNL     1      -7.870  54.798  51.596  0.00  0.00    +0.000 N 
ATOM     16  C   UNL     1      -7.265  53.190  53.715  0.00  0.00    +0.000 A 
ATOM     17  C   UNL     1      -8.837  53.951  51.391  0.00  0.00    +0.000 C 
ATOM     18  C   UNL     1      -8.351  52.452  53.275  0.00  0.00    +0.000 A 
ATOM     19  C   UNL     1      -6.462  52.783  54.783  0.00  0.00    +0.000 A 
ATOM     20  N   UNL     1      -9.133  52.881  52.207  0.00  0.00    +0.000 N 
ATOM     21  C   UNL     1      -8.671  51.283  53.972  0.00  0.00    +0.000 A 
ATOM     22  C   UNL     1      -6.774  51.603  55.447  0.00  0.00    +0.000 A 
ATOM     23  C   UNL     1      -7.883  50.857  55.048  0.00  0.00    +0.000 A 
ATOM     24  H   UNL     1      -7.724  55.525  50.949  0.00  0.00    +0.000 HD
ATOM     25  H   UNL     1      -9.961  52.382  52.021  0.00  0.00    +0.000 HD
ENDBRANCH   1  17
BRANCH   3  26
ATOM     26  O   UNL     1      -8.729  52.346  48.939  0.00  0.00    +0.000 OA
ATOM     27  H   UNL     1      -7.873  52.450  48.573  0.00  0.00    +0.000 HD
ENDBRANCH   3  26
BRANCH   5  28
ATOM     28  N   UNL     1     -12.087  56.907  48.857  0.00  0.00    +0.000 N 
ATOM     29  H   UNL     1     -11.723  57.804  48.677  0.00  0.00    +0.000 HD
BRANCH  28  30
ATOM     30  C   UNL     1     -13.543  56.698  49.053  0.00  0.00    +0.000 C 
ATOM     31  C   UNL     1     -14.269  57.273  47.824  0.00  0.00    +0.000 C 
BRANCH  30  32
ATOM     32  C   UNL     1     -14.089  57.328  50.328  0.00  0.00    +0.000 A 
ATOM     33  C   UNL     1     -14.408  56.555  51.457  0.00  0.00    +0.000 A 
ATOM     34  C   UNL     1     -14.268  58.720  50.406  0.00  0.00    +0.000 A 
ATOM     35  C   UNL     1     -14.894  57.154  52.621  0.00  0.00    +0.000 A 
ATOM     36  C   UNL     1     -14.764  59.317  51.566  0.00  0.00    +0.000 A 
ATOM     37  C   UNL     1     -15.077  58.534  52.673  0.00  0.00    +0.000 A 
ENDBRANCH  30  32
ENDBRANCH  28  30
ENDBRANCH   5  28
TORSDOF 5
ENDMDL
MODEL 4
REMARK VINA RESULT:      -9.3      2.866      7.678
REMARK  Name = 
REMARK  6 active torsions:
REMARK  status: ('A' for Active; 'I' for Inactive)
REMARK    1  A    between atoms: C_6  and  C_10
REMARK    2  A    between atoms: C_14  and  O_18
REMARK    3  A    between atoms: N_17  and  N_20
REMARK    4  A    between atoms: N_20  and  C_23
REMARK    5  A    between atoms: C_23  and  C_26
REMARK    6  A    between atoms: C_23  and  C_27
REMARK                            x       y       z     vdW  Elec       q    Type
REMARK                         _______ _______ _______ _____ _____    ______ ____
ROOT
ATOM      1  C   UNL     1     -11.251  54.424  50.538  0.00  0.00    +0.000 A 
ATOM      2  C   UNL     1      -9.933  54.656  49.864  0.00  0.00    +0.000 A 
ATOM      3  C   UNL     1     -11.494  53.234  51.118  0.00  0.00    +0.000 A 
ATOM      4  O   UNL     1      -9.868  55.614  49.085  0.00  0.00    +0.000 OA
ATOM      5  N   UNL     1      -8.873  53.792  50.185  0.00  0.00    +0.000 N 
ATOM      6  C   UNL     1     -10.446  52.212  51.205  0.00  0.00    +0.000 A 
ATOM      7  C   UNL     1      -9.139  52.511  50.786  0.00  0.00    +0.000 A 
ATOM      8  C   UNL     1     -10.739  50.949  51.751  0.00  0.00    +0.000 A 
ATOM      9  C   UNL     1      -8.149  51.524  50.942  0.00  0.00    +0.000 A 
ATOM     10  C   UNL     1      -9.747  49.987  51.904  0.00  0.00    +0.000 A 
ATOM     11  C   UNL     1      -8.450  50.277  51.505  0.00  0.00    +0.000 A 
ENDROOT
BRANCH   1  17
ATOM     12  S   UNL     1     -13.747  57.173  49.227  0.00  0.00    +0.000 S 
ATOM     13  O   UNL     1     -14.935  56.571  48.660  0.00  0.00    +0.000 OA
ATOM     14  O   UNL     1     -13.118  58.308  48.574  0.00  0.00    +0.000 OA
ATOM     15  N   UNL     1     -12.624  56.022  49.381  0.00  0.00    +0.000 N 
ATOM     16  C   UNL     1     -14.193  57.720  50.829  0.00  0.00    +0.000 A 
ATOM     17  C   UNL     1     -12.297  55.535  50.543  0.00  0.00    +0.000 C 
ATOM     18  C   UNL     1     -13.679  57.032  51.915  0.00  0.00    +0.000 A 
ATOM     19  C   UNL     1     -15.041  58.821  50.970  0.00  0.00    +0.000 A 
ATOM     20  N   UNL     1     -12.834  55.939  51.747  0.00  0.00    +0.000 N 
ATOM     21  C   UNL     1     -14.078  57.437  53.193  0.00  0.00    +0.000 A 
ATOM     22  C   UNL     1     -15.405  59.231  52.247  0.00  0.00    +0.000 A 
ATOM     23  C   UNL     1     -14.931  58.534  53.358  0.00  0.00    +0.000 A 
ATOM     24  H   UNL     1     -12.175  55.681  48.575  0.00  0.00    +0.000 HD
ATOM     25  H   UNL     1     -12.602  55.415  52.548  0.00  0.00    +0.000 HD
ENDBRANCH   1  17
BRANCH   3  26
ATOM     26  O   UNL     1     -12.694  52.870  51.701  0.00  0.00    +0.000 OA
ATOM     27  H   UNL     1     -12.698  52.334  52.470  0.00  0.00    +0.000 HD
ENDBRANCH   3  26
BRANCH   5  28
ATOM     28  N   UNL     1      -7.527  54.036  49.693  0.00  0.00    +0.000 N 
ATOM     29  H   UNL     1      -7.160  53.516  48.941  0.00  0.00    +0.000 HD
BRANCH  28  30
ATOM     30  C   UNL     1      -6.724  55.091  50.358  0.00  0.00    +0.000 C 
ATOM     31  C   UNL     1      -5.321  55.082  49.726  0.00  0.00    +0.000 C 
BRANCH  30  32
ATOM     32  C   UNL     1      -6.620  54.924  51.869  0.00  0.00    +0.000 A 
ATOM     33  C   UNL     1      -7.426  55.661  52.752  0.00  0.00    +0.000 A 
ATOM     34  C   UNL     1      -5.714  53.999  52.415  0.00  0.00    +0.000 A 
ATOM     35  C   UNL     1      -7.325  55.483  54.133  0.00  0.00    +0.000 A 
ATOM     36  C   UNL     1      -5.605  53.829  53.797  0.00  0.00    +0.000 A 
ATOM     37  C   UNL     1      -6.411  54.571  54.655  0.00  0.00    +0.000 A 
ENDBRANCH  30  32
ENDBRANCH  28  30
ENDBRANCH   5  28
TORSDOF 5
ENDMDL
MODEL 5
REMARK VINA RESULT:      -9.2      1.532      1.836
REMARK  Name = 
REMARK  6 active torsions:
REMARK  status: ('A' for Active; 'I' for Inactive)
REMARK    1  A    between atoms: C_6  and  C_10
REMARK    2  A    between atoms: C_14  and  O_18
REMARK    3  A    between atoms: N_17  and  N_20
REMARK    4  A    between atoms: N_20  and  C_23
REMARK    5  A    between atoms: C_23  and  C_26
REMARK    6  A    between atoms: C_23  and  C_27
REMARK                            x       y       z     vdW  Elec       q    Type
REMARK                         _______ _______ _______ _____ _____    ______ ____
ROOT
ATOM      1  C   UNL     1      -9.874  53.777  49.873  0.00  0.00    +0.000 A 
ATOM      2  C   UNL     1     -10.796  54.958  49.910  0.00  0.00    +0.000 A 
ATOM      3  C   UNL     1      -9.811  53.026  48.758  0.00  0.00    +0.000 A 
ATOM      4  O   UNL     1     -11.063  55.421  51.025  0.00  0.00    +0.000 OA
ATOM      5  N   UNL     1     -11.262  55.463  48.685  0.00  0.00    +0.000 N 
ATOM      6  C   UNL     1     -10.535  53.418  47.545  0.00  0.00    +0.000 A 
ATOM      7  C   UNL     1     -11.211  54.648  47.499  0.00  0.00    +0.000 A 
ATOM      8  C   UNL     1     -10.513  52.583  46.412  0.00  0.00    +0.000 A 
ATOM      9  C   UNL     1     -11.843  55.014  46.296  0.00  0.00    +0.000 A 
ATOM     10  C   UNL     1     -11.138  52.963  45.230  0.00  0.00    +0.000 A 
ATOM     11  C   UNL     1     -11.798  54.183  45.170  0.00  0.00    +0.000 A 
ENDROOT
BRANCH   1  17
ATOM     12  S   UNL     1      -8.429  51.780  52.942  0.00  0.00    +0.000 S 
ATOM     13  O   UNL     1      -7.528  50.733  52.506  0.00  0.00    +0.000 OA
ATOM     14  O   UNL     1      -9.380  51.529  54.011  0.00  0.00    +0.000 OA
ATOM     15  N   UNL     1      -9.268  52.289  51.659  0.00  0.00    +0.000 N 
ATOM     16  C   UNL     1      -7.416  53.097  53.492  0.00  0.00    +0.000 A 
ATOM     17  C   UNL     1      -9.035  53.442  51.102  0.00  0.00    +0.000 C 
ATOM     18  C   UNL     1      -7.364  54.243  52.714  0.00  0.00    +0.000 A 
ATOM     19  C   UNL     1      -6.699  52.965  54.683  0.00  0.00    +0.000 A 
ATOM     20  N   UNL     1      -8.091  54.349  51.533  0.00  0.00    +0.000 N 
ATOM     21  C   UNL     1      -6.514  55.274  53.126  0.00  0.00    +0.000 A 
ATOM     22  C   UNL     1      -5.881  54.010  55.096  0.00  0.00    +0.000 A 
ATOM     23  C   UNL     1      -5.782  55.160  54.314  0.00  0.00    +0.000 A 
ATOM     24  H   UNL     1      -9.974  51.712  51.290  0.00  0.00    +0.000 HD
ATOM     25  H   UNL     1      -7.918  55.132  50.961  0.00  0.00    +0.000 HD
ENDBRANCH   1  17
BRANCH   3  26
ATOM     26  O   UNL     1      -9.062  51.871  48.626  0.00  0.00    +0.000 OA
ATOM     27  H   UNL     1      -9.232  51.281  47.919  0.00  0.00    +0.000 HD
ENDBRANCH   3  26
BRANCH   5  28
ATOM     28  N   UNL     1     -12.037  56.691  48.621  0.00  0.00    +0.000 N 
ATOM     29  H   UNL     1     -11.598  57.561  48.479  0.00  0.00    +0.000 HD
BRANCH  28  30
ATOM     30  C   UNL     1     -13.509  56.594  48.778  0.00  0.00    +0.000 C 
ATOM     31  C   UNL     1     -14.157  57.287  47.566  0.00  0.00    +0.000 C 
BRANCH  30  32
ATOM     32  C   UNL     1     -14.032  57.203  50.073  0.00  0.00    +0.000 A 
ATOM     33  C   UNL     1     -14.180  58.591  50.230  0.00  0.00    +0.000 A 
ATOM     34  C   UNL     1     -14.400  56.372  51.144  0.00  0.00    +0.000 A 
ATOM     35  C   UNL     1     -14.675  59.128  51.421  0.00  0.00    +0.000 A 
ATOM     36  C   UNL     1     -14.883  56.910  52.339  0.00  0.00    +0.000 A 
ATOM     37  C   UNL     1     -15.021  58.288  52.476  0.00  0.00    +0.000 A 
ENDBRANCH  30  32
ENDBRANCH  28  30
ENDBRANCH   5  28
TORSDOF 5
ENDMDL
MODEL 6
REMARK VINA RESULT:      -9.2      2.068      5.655
REMARK  Name = 
REMARK  6 active torsions:
REMARK  status: ('A' for Active; 'I' for Inactive)
REMARK    1  A    between atoms: C_6  and  C_10
REMARK    2  A    between atoms: C_14  and  O_18
REMARK    3  A    between atoms: N_17  and  N_20
REMARK    4  A    between atoms: N_20  and  C_23
REMARK    5  A    between atoms: C_23  and  C_26
REMARK    6  A    between atoms: C_23  and  C_27
REMARK                            x       y       z     vdW  Elec       q    Type
REMARK                         _______ _______ _______ _____ _____    ______ ____
ROOT
ATOM      1  C   UNL     1     -10.363  55.283  50.911  0.00  0.00    +0.000 A 
ATOM      2  C   UNL     1     -10.036  55.347  49.450  0.00  0.00    +0.000 A 
ATOM      3  C   UNL     1     -11.546  55.759  51.343  0.00  0.00    +0.000 A 
ATOM      4  O   UNL     1      -8.849  55.202  49.139  0.00  0.00    +0.000 OA
ATOM      5  N   UNL     1     -11.097  55.537  48.550  0.00  0.00    +0.000 N 
ATOM      6  C   UNL     1     -12.561  56.224  50.393  0.00  0.00    +0.000 A 
ATOM      7  C   UNL     1     -12.354  56.066  49.013  0.00  0.00    +0.000 A 
ATOM      8  C   UNL     1     -13.763  56.784  50.866  0.00  0.00    +0.000 A 
ATOM      9  C   UNL     1     -13.378  56.470  48.137  0.00  0.00    +0.000 A 
ATOM     10  C   UNL     1     -14.767  57.172  49.986  0.00  0.00    +0.000 A 
ATOM     11  C   UNL     1     -14.577  57.009  48.621  0.00  0.00    +0.000 A 
ENDROOT
BRANCH   1  17
ATOM     12  S   UNL     1      -7.018  54.780  52.926  0.00  0.00    +0.000 S 
ATOM     13  O   UNL     1      -6.891  55.764  53.980  0.00  0.00    +0.000 OA
ATOM     14  O   UNL     1      -5.866  54.420  52.118  0.00  0.00    +0.000 OA
ATOM     15  N   UNL     1      -8.181  55.269  51.917  0.00  0.00    +0.000 N 
ATOM     16  C   UNL     1      -7.551  53.302  53.699  0.00  0.00    +0.000 A 
ATOM     17  C   UNL     1      -9.347  54.691  51.883  0.00  0.00    +0.000 C 
ATOM     18  C   UNL     1      -8.853  52.886  53.473  0.00  0.00    +0.000 A 
ATOM     19  C   UNL     1      -6.664  52.589  54.508  0.00  0.00    +0.000 A 
ATOM     20  N   UNL     1      -9.715  53.614  52.660  0.00  0.00    +0.000 N 
ATOM     21  C   UNL     1      -9.293  51.734  54.133  0.00  0.00    +0.000 A 
ATOM     22  C   UNL     1      -7.106  51.430  55.134  0.00  0.00    +0.000 A 
ATOM     23  C   UNL     1      -8.423  51.007  54.954  0.00  0.00    +0.000 A 
ATOM     24  H   UNL     1      -8.003  56.025  51.312  0.00  0.00    +0.000 HD
ATOM     25  H   UNL     1     -10.661  53.339  52.638  0.00  0.00    +0.000 HD
ENDBRANCH   1  17
BRANCH   3  26
ATOM     26  O   UNL     1     -11.933  55.829  52.669  0.00  0.00    +0.000 OA
ATOM     27  H   UNL     1     -11.668  56.557  53.196  0.00  0.00    +0.000 HD
ENDBRANCH   3  26
BRANCH   5  28
ATOM     28  N   UNL     1     -10.890  55.463  47.114  0.00  0.00    +0.000 N 
ATOM     29  H   UNL     1     -10.416  56.179  46.631  0.00  0.00    +0.000 HD
BRANCH  28  30
ATOM     30  C   UNL     1     -11.413  54.274  46.396  0.00  0.00    +0.000 C 
ATOM     31  C   UNL     1     -11.682  53.176  47.439  0.00  0.00    +0.000 C 
BRANCH  30  32
ATOM     32  C   UNL     1     -10.479  53.751  45.311  0.00  0.00    +0.000 A 
ATOM     33  C   UNL     1     -10.953  52.979  44.237  0.00  0.00    +0.000 A 
ATOM     34  C   UNL     1      -9.108  54.052  45.356  0.00  0.00    +0.000 A 
ATOM     35  C   UNL     1     -10.083  52.521  43.245  0.00  0.00    +0.000 A 
ATOM     36  C   UNL     1      -8.236  53.584  44.370  0.00  0.00    +0.000 A 
ATOM     37  C   UNL     1      -8.725  52.820  43.315  0.00  0.00    +0.000 A 
ENDBRANCH  30  32
ENDBRANCH  28  30
ENDBRANCH   5  28
TORSDOF 5
ENDMDL
MODEL 7
REMARK VINA RESULT:      -9.1      3.031      8.562
REMARK  Name = 
REMARK  6 active torsions:
REMARK  status: ('A' for Active; 'I' for Inactive)
REMARK    1  A    between atoms: C_6  and  C_10
REMARK    2  A    between atoms: C_14  and  O_18
REMARK    3  A    between atoms: N_17  and  N_20
REMARK    4  A    between atoms: N_20  and  C_23
REMARK    5  A    between atoms: C_23  and  C_26
REMARK    6  A    between atoms: C_23  and  C_27
REMARK                            x       y       z     vdW  Elec       q    Type
REMARK                         _______ _______ _______ _____ _____    ______ ____
ROOT
ATOM      1  C   UNL     1      -9.960  54.460  52.289  0.00  0.00    +0.000 A 
ATOM      2  C   UNL     1      -8.561  54.955  52.084  0.00  0.00    +0.000 A 
ATOM      3  C   UNL     1     -10.166  53.356  53.031  0.00  0.00    +0.000 A 
ATOM      4  O   UNL     1      -8.384  55.757  51.160  0.00  0.00    +0.000 OA
ATOM      5  N   UNL     1      -7.569  54.496  52.966  0.00  0.00    +0.000 N 
ATOM      6  C   UNL     1      -9.058  52.708  53.738  0.00  0.00    +0.000 A 
ATOM      7  C   UNL     1      -7.785  53.304  53.743  0.00  0.00    +0.000 A 
ATOM      8  C   UNL     1      -9.280  51.515  54.451  0.00  0.00    +0.000 A 
ATOM      9  C   UNL     1      -6.763  52.682  54.483  0.00  0.00    +0.000 A 
ATOM     10  C   UNL     1      -8.260  50.917  55.183  0.00  0.00    +0.000 A 
ATOM     11  C   UNL     1      -7.003  51.505  55.204  0.00  0.00    +0.000 A 
ENDROOT
BRANCH   1  17
ATOM     12  S   UNL     1     -12.347  55.922  49.519  0.00  0.00    +0.000 S 
ATOM     13  O   UNL     1     -13.192  54.888  48.960  0.00  0.00    +0.000 OA
ATOM     14  O   UNL     1     -11.741  56.919  48.655  0.00  0.00    +0.000 OA
ATOM     15  N   UNL     1     -11.154  55.207  50.342  0.00  0.00    +0.000 N 
ATOM     16  C   UNL     1     -13.342  56.806  50.656  0.00  0.00    +0.000 A 
ATOM     17  C   UNL     1     -11.123  55.208  51.643  0.00  0.00    +0.000 C 
ATOM     18  C   UNL     1     -13.080  56.646  52.007  0.00  0.00    +0.000 A 
ATOM     19  C   UNL     1     -14.359  57.637  50.181  0.00  0.00    +0.000 A 
ATOM     20  N   UNL     1     -12.059  55.813  52.453  0.00  0.00    +0.000 N 
ATOM     21  C   UNL     1     -13.910  57.311  52.916  0.00  0.00    +0.000 A 
ATOM     22  C   UNL     1     -15.156  58.314  51.095  0.00  0.00    +0.000 A 
ATOM     23  C   UNL     1     -14.938  58.145  52.462  0.00  0.00    +0.000 A 
ATOM     24  H   UNL     1     -10.431  54.761  49.845  0.00  0.00    +0.000 HD
ATOM     25  H   UNL     1     -12.001  55.643  53.422  0.00  0.00    +0.000 HD
ENDBRANCH   1  17
BRANCH   3  26
ATOM     26  O   UNL     1     -11.397  52.756  53.229  0.00  0.00    +0.000 OA
ATOM     27  H   UNL     1     -11.735  52.657  54.097  0.00  0.00    +0.000 HD
ENDBRANCH   3  26
BRANCH   5  28
ATOM     28  N   UNL     1      -6.221  55.038  52.932  0.00  0.00    +0.000 N 
ATOM     29  H   UNL     1      -6.056  55.999  53.072  0.00  0.00    +0.000 HD
BRANCH  28  30
ATOM     30  C   UNL     1      -5.099  54.100  52.680  0.00  0.00    +0.000 C 
ATOM     31  C   UNL     1      -3.825  54.719  53.280  0.00  0.00    +0.000 C 
BRANCH  30  32
ATOM     32  C   UNL     1      -4.885  53.779  51.206  0.00  0.00    +0.000 A 
ATOM     33  C   UNL     1      -4.379  52.538  50.785  0.00  0.00    +0.000 A 
ATOM     34  C   UNL     1      -5.213  54.729  50.224  0.00  0.00    +0.000 A 
ATOM     35  C   UNL     1      -4.203  52.259  49.428  0.00  0.00    +0.000 A 
ATOM     36  C   UNL     1      -5.026  54.454  48.867  0.00  0.00    +0.000 A 
ATOM     37  C   UNL     1      -4.521  53.219  48.471  0.00  0.00    +0.000 A 
ENDBRANCH  30  32
ENDBRANCH  28  30
ENDBRANCH   5  28
TORSDOF 5
ENDMDL
MODEL 8
REMARK VINA RESULT:      -9.1      2.550      7.332
REMARK  Name = 
REMARK  6 active torsions:
REMARK  status: ('A' for Active; 'I' for Inactive)
REMARK    1  A    between atoms: C_6  and  C_10
REMARK    2  A    between atoms: C_14  and  O_18
REMARK    3  A    between atoms: N_17  and  N_20
REMARK    4  A    between atoms: N_20  and  C_23
REMARK    5  A    between atoms: C_23  and  C_26
REMARK    6  A    between atoms: C_23  and  C_27
REMARK                            x       y       z     vdW  Elec       q    Type
REMARK                         _______ _______ _______ _____ _____    ______ ____
ROOT
ATOM      1  C   UNL     1     -11.366  55.840  48.966  0.00  0.00    +0.000 A 
ATOM      2  C   UNL     1     -10.315  55.227  49.839  0.00  0.00    +0.000 A 
ATOM      3  C   UNL     1     -11.418  55.506  47.663  0.00  0.00    +0.000 A 
ATOM      4  O   UNL     1     -10.097  55.782  50.922  0.00  0.00    +0.000 OA
ATOM      5  N   UNL     1      -9.680  54.061  49.379  0.00  0.00    +0.000 N 
ATOM      6  C   UNL     1     -10.543  54.463  47.119  0.00  0.00    +0.000 A 
ATOM      7  C   UNL     1      -9.721  53.718  47.981  0.00  0.00    +0.000 A 
ATOM      8  C   UNL     1     -10.562  54.177  45.741  0.00  0.00    +0.000 A 
ATOM      9  C   UNL     1      -8.941  52.686  47.428  0.00  0.00    +0.000 A 
ATOM     10  C   UNL     1      -9.789  53.149  45.212  0.00  0.00    +0.000 A 
ATOM     11  C   UNL     1      -8.984  52.399  46.057  0.00  0.00    +0.000 A 
ENDROOT
BRANCH   1  17
ATOM     12  S   UNL     1     -13.509  59.111  49.426  0.00  0.00    +0.000 S 
ATOM     13  O   UNL     1     -14.625  59.138  48.503  0.00  0.00    +0.000 OA
ATOM     14  O   UNL     1     -12.739  60.316  49.679  0.00  0.00    +0.000 OA
ATOM     15  N   UNL     1     -12.476  57.972  48.933  0.00  0.00    +0.000 N 
ATOM     16  C   UNL     1     -14.167  58.621  50.973  0.00  0.00    +0.000 A 
ATOM     17  C   UNL     1     -12.350  56.841  49.565  0.00  0.00    +0.000 C 
ATOM     18  C   UNL     1     -13.854  57.354  51.438  0.00  0.00    +0.000 A 
ATOM     19  C   UNL     1     -14.976  59.505  51.689  0.00  0.00    +0.000 A 
ATOM     20  N   UNL     1     -13.043  56.493  50.705  0.00  0.00    +0.000 N 
ATOM     21  C   UNL     1     -14.423  56.944  52.648  0.00  0.00    +0.000 A 
ATOM     22  C   UNL     1     -15.510  59.095  52.905  0.00  0.00    +0.000 A 
ATOM     23  C   UNL     1     -15.240  57.812  53.380  0.00  0.00    +0.000 A 
ATOM     24  H   UNL     1     -11.926  58.138  48.135  0.00  0.00    +0.000 HD
ATOM     25  H   UNL     1     -12.959  55.565  51.024  0.00  0.00    +0.000 HD
ENDBRANCH   1  17
BRANCH   3  26
ATOM     26  O   UNL     1     -12.287  56.059  46.740  0.00  0.00    +0.000 OA
ATOM     27  H   UNL     1     -12.864  55.506  46.251  0.00  0.00    +0.000 HD
ENDBRANCH   3  26
BRANCH   5  28
ATOM     28  N   UNL     1      -8.759  53.320  50.224  0.00  0.00    +0.000 N 
ATOM     29  H   UNL     1      -9.016  52.455  50.618  0.00  0.00    +0.000 HD
BRANCH  28  30
ATOM     30  C   UNL     1      -7.420  53.907  50.476  0.00  0.00    +0.000 C 
ATOM     31  C   UNL     1      -6.369  52.945  49.896  0.00  0.00    +0.000 C 
BRANCH  30  32
ATOM     32  C   UNL     1      -7.132  54.175  51.948  0.00  0.00    +0.000 A 
ATOM     33  C   UNL     1      -6.873  53.131  52.852  0.00  0.00    +0.000 A 
ATOM     34  C   UNL     1      -7.100  55.493  52.431  0.00  0.00    +0.000 A 
ATOM     35  C   UNL     1      -6.597  53.398  54.195  0.00  0.00    +0.000 A 
ATOM     36  C   UNL     1      -6.836  55.760  53.776  0.00  0.00    +0.000 A 
ATOM     37  C   UNL     1      -6.584  54.712  54.657  0.00  0.00    +0.000 A 
ENDBRANCH  30  32
ENDBRANCH  28  30
ENDBRANCH   5  28
TORSDOF 5
ENDMDL
MODEL 9
REMARK VINA RESULT:      -9.0      2.263      5.124
REMARK  Name = 
REMARK  6 active torsions:
REMARK  status: ('A' for Active; 'I' for Inactive)
REMARK    1  A    between atoms: C_6  and  C_10
REMARK    2  A    between atoms: C_14  and  O_18
REMARK    3  A    between atoms: N_17  and  N_20
REMARK    4  A    between atoms: N_20  and  C_23
REMARK    5  A    between atoms: C_23  and  C_26
REMARK    6  A    between atoms: C_23  and  C_27
REMARK                            x       y       z     vdW  Elec       q    Type
REMARK                         _______ _______ _______ _____ _____    ______ ____
ROOT
ATOM      1  C   UNL     1      -9.324  55.131  50.387  0.00  0.00    +0.000 A 
ATOM      2  C   UNL     1      -8.724  55.195  49.016  0.00  0.00    +0.000 A 
ATOM      3  C   UNL     1     -10.593  55.540  50.571  0.00  0.00    +0.000 A 
ATOM      4  O   UNL     1      -7.493  55.120  48.943  0.00  0.00    +0.000 OA
ATOM      5  N   UNL     1      -9.600  55.307  47.923  0.00  0.00    +0.000 N 
ATOM      6  C   UNL     1     -11.430  55.928  49.432  0.00  0.00    +0.000 A 
ATOM      7  C   UNL     1     -10.951  55.764  48.122  0.00  0.00    +0.000 A 
ATOM      8  C   UNL     1     -12.731  56.420  49.650  0.00  0.00    +0.000 A 
ATOM      9  C   UNL     1     -11.808  56.092  47.055  0.00  0.00    +0.000 A 
ATOM     10  C   UNL     1     -13.567  56.733  48.584  0.00  0.00    +0.000 A 
ATOM     11  C   UNL     1     -13.107  56.562  47.286  0.00  0.00    +0.000 A 
ENDROOT
BRANCH   1  17
ATOM     12  S   UNL     1      -6.365  54.810  52.965  0.00  0.00    +0.000 S 
ATOM     13  O   UNL     1      -6.426  55.857  53.963  0.00  0.00    +0.000 OA
ATOM     14  O   UNL     1      -5.090  54.424  52.386  0.00  0.00    +0.000 OA
ATOM     15  N   UNL     1      -7.344  55.218  51.746  0.00  0.00    +0.000 N 
ATOM     16  C   UNL     1      -7.009  53.371  53.726  0.00  0.00    +0.000 A 
ATOM     17  C   UNL     1      -8.482  54.617  51.551  0.00  0.00    +0.000 C 
ATOM     18  C   UNL     1      -8.251  52.919  53.310  0.00  0.00    +0.000 A 
ATOM     19  C   UNL     1      -6.267  52.724  54.716  0.00  0.00    +0.000 A 
ATOM     20  N   UNL     1      -8.968  53.581  52.319  0.00  0.00    +0.000 N 
ATOM     21  C   UNL     1      -8.787  51.800  53.956  0.00  0.00    +0.000 A 
ATOM     22  C   UNL     1      -6.799  51.596  55.328  0.00  0.00    +0.000 A 
ATOM     23  C   UNL     1      -8.063  51.139  54.954  0.00  0.00    +0.000 A 
ATOM     24  H   UNL     1      -7.072  55.939  51.135  0.00  0.00    +0.000 HD
ATOM     25  H   UNL     1      -9.894  53.288  52.155  0.00  0.00    +0.000 HD
ENDBRANCH   1  17
BRANCH   3  26
ATOM     26  O   UNL     1     -11.233  55.604  51.796  0.00  0.00    +0.000 OA
ATOM     27  H   UNL     1     -11.767  56.344  52.006  0.00  0.00    +0.000 HD
ENDBRANCH   3  26
BRANCH   5  28
ATOM     28  N   UNL     1      -9.115  55.226  46.556  0.00  0.00    +0.000 N 
ATOM     29  H   UNL     1      -8.980  56.038  46.016  0.00  0.00    +0.000 HD
BRANCH  28  30
ATOM     30  C   UNL     1      -8.827  53.881  45.999  0.00  0.00    +0.000 C 
ATOM     31  C   UNL     1      -8.286  54.070  44.571  0.00  0.00    +0.000 C 
BRANCH  30  32
ATOM     32  C   UNL     1     -10.034  52.950  45.985  0.00  0.00    +0.000 A 
ATOM     33  C   UNL     1     -10.167  51.898  46.905  0.00  0.00    +0.000 A 
ATOM     34  C   UNL     1     -11.062  53.144  45.047  0.00  0.00    +0.000 A 
ATOM     35  C   UNL     1     -11.288  51.065  46.885  0.00  0.00    +0.000 A 
ATOM     36  C   UNL     1     -12.177  52.305  45.018  0.00  0.00    +0.000 A 
ATOM     37  C   UNL     1     -12.290  51.266  45.938  0.00  0.00    +0.000 A 
ENDBRANCH  30  32
ENDBRANCH  28  30
ENDBRANCH   5  28
TORSDOF 5
ENDMDL
