MODEL 1
REMARK VINA RESULT:      -8.0      0.000      0.000
REMARK  Name = 
REMARK  9 active torsions:
REMARK  status: ('A' for Active; 'I' for Inactive)
REMARK    1  A    between atoms: C_6  and  C_10
REMARK    2  A    between atoms: C_14  and  O_18
REMARK    3  A    between atoms: N_17  and  N_20
REMARK    4  A    between atoms: N_20  and  C_23
REMARK    5  A    between atoms: C_23  and  C_26
REMARK    6  A    between atoms: C_23  and  C_27
REMARK    7  A    between atoms: C_26  and  C_29
REMARK    8  A    between atoms: C_27  and  C_30
REMARK    9  A    between atoms: C_29  and  C_31
REMARK                            x       y       z     vdW  Elec       q    Type
REMARK                         _______ _______ _______ _____ _____    ______ ____
ROOT
ATOM      1  C   UNL     1      -9.004  54.696  50.312  0.00  0.00    +0.000 A 
ATOM      2  C   UNL     1     -10.415  54.678  50.813  0.00  0.00    +0.000 A 
ATOM      3  C   UNL     1      -8.784  54.655  48.983  0.00  0.00    +0.000 A 
ATOM      4  O   UNL     1     -10.608  54.353  51.990  0.00  0.00    +0.000 OA
ATOM      5  N   UNL     1     -11.404  55.127  49.920  0.00  0.00    +0.000 N 
ATOM      6  C   UNL     1      -9.901  54.706  48.035  0.00  0.00    +0.000 A 
ATOM      7  C   UNL     1     -11.193  55.003  48.499  0.00  0.00    +0.000 A 
ATOM      8  C   UNL     1      -9.666  54.529  46.658  0.00  0.00    +0.000 A 
ATOM      9  C   UNL     1     -12.226  55.122  47.551  0.00  0.00    +0.000 A 
ATOM     10  C   UNL     1     -10.698  54.655  45.737  0.00  0.00    +0.000 A 
ATOM     11  C   UNL     1     -11.977  54.955  46.183  0.00  0.00    +0.000 A 
ENDROOT
BRANCH   1  17
ATOM     12  S   UNL     1      -7.006  55.828  53.490  0.00  0.00    +0.000 S 
ATOM     13  O   UNL     1      -7.561  55.176  54.662  0.00  0.00    +0.000 OA
ATOM     14  O   UNL     1      -6.626  57.224  53.543  0.00  0.00    +0.000 OA
ATOM     15  N   UNL     1      -8.060  55.654  52.287  0.00  0.00    +0.000 N 
ATOM     16  C   UNL     1      -5.559  54.938  53.075  0.00  0.00    +0.000 A 
ATOM     17  C   UNL     1      -7.854  54.838  51.295  0.00  0.00    +0.000 C 
ATOM     18  C   UNL     1      -5.579  54.156  51.929  0.00  0.00    +0.000 A 
ATOM     19  C   UNL     1      -4.444  55.035  53.909  0.00  0.00    +0.000 A 
ATOM     20  N   UNL     1      -6.706  54.086  51.116  0.00  0.00    +0.000 N 
ATOM     21  C   UNL     1      -4.432  53.411  51.635  0.00  0.00    +0.000 A 
ATOM     22  C   UNL     1      -3.303  54.308  53.590  0.00  0.00    +0.000 A 
ATOM     23  C   UNL     1      -3.300  53.490  52.460  0.00  0.00    +0.000 A 
ATOM     24  H   UNL     1      -8.889  56.184  52.302  0.00  0.00    +0.000 HD
ATOM     25  H   UNL     1      -6.685  53.457  50.359  0.00  0.00    +0.000 HD
ENDBRANCH   1  17
BRANCH   3  26
ATOM     26  O   UNL     1      -7.537  54.634  48.385  0.00  0.00    +0.000 OA
ATOM     27  H   UNL     1      -7.123  55.437  48.138  0.00  0.00    +0.000 HD
ENDBRANCH   3  26
BRANCH   5  28
ATOM     28  N   UNL     1     -12.721  55.375  50.420  0.00  0.00    +0.000 N 
ATOM     29  H   UNL     1     -13.370  54.645  50.545  0.00  0.00    +0.000 HD
BRANCH  28  30
ATOM     30  C   UNL     1     -13.063  56.784  50.739  0.00  0.00    +0.000 C 
BRANCH  30  31
ATOM     31  C   UNL     1     -13.478  56.789  52.234  0.00  0.00    +0.000 C 
ATOM     32  C   UNL     1     -14.959  57.065  52.465  0.00  0.00    +0.000 C 
ENDBRANCH  30  31
BRANCH  30  33
ATOM     33  C   UNL     1     -14.207  57.370  49.862  0.00  0.00    +0.000 C 
BRANCH  33  34
ATOM     34  C   UNL     1     -13.777  58.616  49.061  0.00  0.00    +0.000 C 
ATOM     35  C   UNL     1     -13.942  59.917  49.832  0.00  0.00    +0.000 C 
ENDBRANCH  33  34
ENDBRANCH  30  33
ENDBRANCH  28  30
ENDBRANCH   5  28
TORSDOF 7
ENDMDL
MODEL 2
REMARK VINA RESULT:      -7.9      2.333      4.780
REMARK  Name = 
REMARK  9 active torsions:
REMARK  status: ('A' for Active; 'I' for Inactive)
REMARK    1  A    between atoms: C_6  and  C_10
REMARK    2  A    between atoms: C_14  and  O_18
REMARK    3  A    between atoms: N_17  and  N_20
REMARK    4  A    between atoms: N_20  and  C_23
REMARK    5  A    between atoms: C_23  and  C_26
REMARK    6  A    between atoms: C_23  and  C_27
REMARK    7  A    between atoms: C_26  and  C_29
REMARK    8  A    between atoms: C_27  and  C_30
REMARK    9  A    between atoms: C_29  and  C_31
REMARK                            x       y       z     vdW  Elec       q    Type
REMARK                         _______ _______ _______ _____ _____    ______ ____
ROOT
ATOM      1  C   UNL     1      -9.911  55.335  50.387  0.00  0.00    +0.000 A 
ATOM      2  C   UNL     1      -9.421  55.418  48.974  0.00  0.00    +0.000 A 
ATOM      3  C   UNL     1     -11.157  55.761  50.671  0.00  0.00    +0.000 A 
ATOM      4  O   UNL     1      -8.202  55.378  48.780  0.00  0.00    +0.000 OA
ATOM      5  N   UNL     1     -10.405  55.442  47.970  0.00  0.00    +0.000 N 
ATOM      6  C   UNL     1     -12.064  56.195  49.603  0.00  0.00    +0.000 A 
ATOM      7  C   UNL     1     -11.711  55.977  48.261  0.00  0.00    +0.000 A 
ATOM      8  C   UNL     1     -13.312  56.762  49.925  0.00  0.00    +0.000 A 
ATOM      9  C   UNL     1     -12.641  56.333  47.267  0.00  0.00    +0.000 A 
ATOM     10  C   UNL     1     -14.218  57.103  48.929  0.00  0.00    +0.000 A 
ATOM     11  C   UNL     1     -13.884  56.886  47.600  0.00  0.00    +0.000 A 
ENDROOT
BRANCH   1  17
ATOM     12  S   UNL     1      -6.930  54.875  52.892  0.00  0.00    +0.000 S 
ATOM     13  O   UNL     1      -7.045  55.855  53.957  0.00  0.00    +0.000 OA
ATOM     14  O   UNL     1      -5.639  54.585  52.304  0.00  0.00    +0.000 OA
ATOM     15  N   UNL     1      -7.918  55.325  51.704  0.00  0.00    +0.000 N 
ATOM     16  C   UNL     1      -7.525  53.368  53.549  0.00  0.00    +0.000 A 
ATOM     17  C   UNL     1      -9.034  54.705  51.456  0.00  0.00    +0.000 C 
ATOM     18  C   UNL     1      -8.742  52.889  53.087  0.00  0.00    +0.000 A 
ATOM     19  C   UNL     1      -6.766  52.706  54.516  0.00  0.00    +0.000 A 
ATOM     20  N   UNL     1      -9.471  53.571  52.117  0.00  0.00    +0.000 N 
ATOM     21  C   UNL     1      -9.230  51.707  53.656  0.00  0.00    +0.000 A 
ATOM     22  C   UNL     1      -7.252  51.521  55.054  0.00  0.00    +0.000 A 
ATOM     23  C   UNL     1      -8.487  51.027  54.631  0.00  0.00    +0.000 A 
ATOM     24  H   UNL     1      -7.668  56.097  51.146  0.00  0.00    +0.000 HD
ATOM     25  H   UNL     1     -10.361  53.221  51.884  0.00  0.00    +0.000 HD
ENDBRANCH   1  17
BRANCH   3  26
ATOM     26  O   UNL     1     -11.725  55.771  51.932  0.00  0.00    +0.000 OA
ATOM     27  H   UNL     1     -12.653  55.686  52.028  0.00  0.00    +0.000 HD
ENDBRANCH   3  26
BRANCH   5  28
ATOM     28  N   UNL     1     -10.003  55.263  46.609  0.00  0.00    +0.000 N 
ATOM     29  H   UNL     1      -9.701  56.020  46.056  0.00  0.00    +0.000 HD
BRANCH  28  30
ATOM     30  C   UNL     1     -10.063  53.881  46.068  0.00  0.00    +0.000 C 
BRANCH  30  31
ATOM     31  C   UNL     1      -8.766  53.696  45.237  0.00  0.00    +0.000 C 
ATOM     32  C   UNL     1      -7.786  54.857  45.353  0.00  0.00    +0.000 C 
ENDBRANCH  30  31
BRANCH  30  33
ATOM     33  C   UNL     1     -11.313  53.603  45.185  0.00  0.00    +0.000 C 
BRANCH  33  34
ATOM     34  C   UNL     1     -12.163  52.422  45.695  0.00  0.00    +0.000 C 
ATOM     35  C   UNL     1     -12.207  52.319  47.212  0.00  0.00    +0.000 C 
ENDBRANCH  33  34
ENDBRANCH  30  33
ENDBRANCH  28  30
ENDBRANCH   5  28
TORSDOF 7
ENDMDL
MODEL 3
REMARK VINA RESULT:      -7.9      2.266      4.839
REMARK  Name = 
REMARK  9 active torsions:
REMARK  status: ('A' for Active; 'I' for Inactive)
REMARK    1  A    between atoms: C_6  and  C_10
REMARK    2  A    between atoms: C_14  and  O_18
REMARK    3  A    between atoms: N_17  and  N_20
REMARK    4  A    between atoms: N_20  and  C_23
REMARK    5  A    between atoms: C_23  and  C_26
REMARK    6  A    between atoms: C_23  and  C_27
REMARK    7  A    between atoms: C_26  and  C_29
REMARK    8  A    between atoms: C_27  and  C_30
REMARK    9  A    between atoms: C_29  and  C_31
REMARK                            x       y       z     vdW  Elec       q    Type
REMARK                         _______ _______ _______ _____ _____    ______ ____
ROOT
ATOM      1  C   UNL     1     -10.348  55.267  50.594  0.00  0.00    +0.000 A 
ATOM      2  C   UNL     1      -9.811  55.414  49.204  0.00  0.00    +0.000 A 
ATOM      3  C   UNL     1     -11.586  55.724  50.867  0.00  0.00    +0.000 A 
ATOM      4  O   UNL     1      -8.588  55.338  49.044  0.00  0.00    +0.000 OA
ATOM      5  N   UNL     1     -10.762  55.535  48.174  0.00  0.00    +0.000 N 
ATOM      6  C   UNL     1     -12.442  56.254  49.800  0.00  0.00    +0.000 A 
ATOM      7  C   UNL     1     -12.056  56.102  48.459  0.00  0.00    +0.000 A 
ATOM      8  C   UNL     1     -13.678  56.849  50.118  0.00  0.00    +0.000 A 
ATOM      9  C   UNL     1     -12.939  56.551  47.460  0.00  0.00    +0.000 A 
ATOM     10  C   UNL     1     -14.539  57.283  49.118  0.00  0.00    +0.000 A 
ATOM     11  C   UNL     1     -14.171  57.131  47.789  0.00  0.00    +0.000 A 
ENDROOT
BRANCH   1  17
ATOM     12  S   UNL     1      -9.187  52.421  53.029  0.00  0.00    +0.000 S 
ATOM     13  O   UNL     1      -8.651  51.317  52.252  0.00  0.00    +0.000 OA
ATOM     14  O   UNL     1     -10.042  52.166  54.168  0.00  0.00    +0.000 OA
ATOM     15  N   UNL     1      -9.990  53.384  52.020  0.00  0.00    +0.000 N 
ATOM     16  C   UNL     1      -7.806  53.306  53.635  0.00  0.00    +0.000 A 
ATOM     17  C   UNL     1      -9.529  54.542  51.649  0.00  0.00    +0.000 C 
ATOM     18  C   UNL     1      -7.543  54.556  53.096  0.00  0.00    +0.000 A 
ATOM     19  C   UNL     1      -7.015  52.725  54.628  0.00  0.00    +0.000 A 
ATOM     20  N   UNL     1      -8.355  55.110  52.111  0.00  0.00    +0.000 N 
ATOM     21  C   UNL     1      -6.407  55.232  53.556  0.00  0.00    +0.000 A 
ATOM     22  C   UNL     1      -5.904  53.420  55.092  0.00  0.00    +0.000 A 
ATOM     23  C   UNL     1      -5.595  54.667  54.550  0.00  0.00    +0.000 A 
ATOM     24  H   UNL     1     -10.862  53.086  51.673  0.00  0.00    +0.000 HD
ATOM     25  H   UNL     1      -8.074  55.966  51.715  0.00  0.00    +0.000 HD
ENDBRANCH   1  17
BRANCH   3  26
ATOM     26  O   UNL     1     -12.193  55.682  52.109  0.00  0.00    +0.000 OA
ATOM     27  H   UNL     1     -12.091  56.398  52.704  0.00  0.00    +0.000 HD
ENDBRANCH   3  26
BRANCH   5  28
ATOM     28  N   UNL     1     -10.323  55.419  46.817  0.00  0.00    +0.000 N 
ATOM     29  H   UNL     1      -9.979  56.196  46.320  0.00  0.00    +0.000 HD
BRANCH  28  30
ATOM     30  C   UNL     1     -10.414  54.074  46.195  0.00  0.00    +0.000 C 
BRANCH  30  31
ATOM     31  C   UNL     1      -9.076  53.868  45.437  0.00  0.00    +0.000 C 
ATOM     32  C   UNL     1      -8.063  54.985  45.655  0.00  0.00    +0.000 C 
ENDBRANCH  30  31
BRANCH  30  33
ATOM     33  C   UNL     1     -11.615  53.910  45.220  0.00  0.00    +0.000 C 
BRANCH  33  34
ATOM     34  C   UNL     1     -11.974  52.436  44.946  0.00  0.00    +0.000 C 
ATOM     35  C   UNL     1     -12.431  51.683  46.187  0.00  0.00    +0.000 C 
ENDBRANCH  33  34
ENDBRANCH  30  33
ENDBRANCH  28  30
ENDBRANCH   5  28
TORSDOF 7
ENDMDL
MODEL 4
REMARK VINA RESULT:      -7.7      2.749      8.183
REMARK  Name = 
REMARK  9 active torsions:
REMARK  status: ('A' for Active; 'I' for Inactive)
REMARK    1  A    between atoms: C_6  and  C_10
REMARK    2  A    between atoms: C_14  and  O_18
REMARK    3  A    between atoms: N_17  and  N_20
REMARK    4  A    between atoms: N_20  and  C_23
REMARK    5  A    between atoms: C_23  and  C_26
REMARK    6  A    between atoms: C_23  and  C_27
REMARK    7  A    between atoms: C_26  and  C_29
REMARK    8  A    between atoms: C_27  and  C_30
REMARK    9  A    between atoms: C_29  and  C_31
REMARK                            x       y       z     vdW  Elec       q    Type
REMARK                         _______ _______ _______ _____ _____    ______ ____
ROOT
ATOM      1  C   UNL     1      -9.959  54.359  52.123  0.00  0.00    +0.000 A 
ATOM      2  C   UNL     1      -8.546  54.747  51.815  0.00  0.00    +0.000 A 
ATOM      3  C   UNL     1     -10.184  53.335  52.969  0.00  0.00    +0.000 A 
ATOM      4  O   UNL     1      -8.336  55.414  50.796  0.00  0.00    +0.000 OA
ATOM      5  N   UNL     1      -7.576  54.394  52.771  0.00  0.00    +0.000 N 
ATOM      6  C   UNL     1      -9.073  52.679  53.667  0.00  0.00    +0.000 A 
ATOM      7  C   UNL     1      -7.790  53.246  53.615  0.00  0.00    +0.000 A 
ATOM      8  C   UNL     1      -9.309  51.528  54.442  0.00  0.00    +0.000 A 
ATOM      9  C   UNL     1      -6.766  52.635  54.362  0.00  0.00    +0.000 A 
ATOM     10  C   UNL     1      -8.286  50.941  55.176  0.00  0.00    +0.000 A 
ATOM     11  C   UNL     1      -7.016  51.496  55.139  0.00  0.00    +0.000 A 
ENDROOT
BRANCH   1  17
ATOM     12  S   UNL     1     -12.415  55.874  49.469  0.00  0.00    +0.000 S 
ATOM     13  O   UNL     1     -13.259  54.817  48.940  0.00  0.00    +0.000 OA
ATOM     14  O   UNL     1     -11.862  56.878  48.585  0.00  0.00    +0.000 OA
ATOM     15  N   UNL     1     -11.191  55.179  50.247  0.00  0.00    +0.000 N 
ATOM     16  C   UNL     1     -13.386  56.731  50.644  0.00  0.00    +0.000 A 
ATOM     17  C   UNL     1     -11.108  55.168  51.545  0.00  0.00    +0.000 C 
ATOM     18  C   UNL     1     -13.069  56.583  51.986  0.00  0.00    +0.000 A 
ATOM     19  C   UNL     1     -14.447  57.521  50.197  0.00  0.00    +0.000 A 
ATOM     20  N   UNL     1     -12.001  55.791  52.399  0.00  0.00    +0.000 N 
ATOM     21  C   UNL     1     -13.884  57.235  52.919  0.00  0.00    +0.000 A 
ATOM     22  C   UNL     1     -15.231  58.183  51.134  0.00  0.00    +0.000 A 
ATOM     23  C   UNL     1     -14.956  58.032  52.493  0.00  0.00    +0.000 A 
ATOM     24  H   UNL     1     -10.478  54.748  49.722  0.00  0.00    +0.000 HD
ATOM     25  H   UNL     1     -11.873  55.666  53.367  0.00  0.00    +0.000 HD
ENDBRANCH   1  17
BRANCH   3  26
ATOM     26  O   UNL     1     -11.433  52.852  53.317  0.00  0.00    +0.000 OA
ATOM     27  H   UNL     1     -12.180  53.068  52.796  0.00  0.00    +0.000 HD
ENDBRANCH   3  26
BRANCH   5  28
ATOM     28  N   UNL     1      -6.265  54.956  52.660  0.00  0.00    +0.000 N 
ATOM     29  H   UNL     1      -6.044  55.830  53.056  0.00  0.00    +0.000 HD
BRANCH  28  30
ATOM     30  C   UNL     1      -5.255  54.161  51.917  0.00  0.00    +0.000 C 
BRANCH  30  31
ATOM     31  C   UNL     1      -3.927  54.325  52.702  0.00  0.00    +0.000 C 
ATOM     32  C   UNL     1      -4.079  55.061  54.028  0.00  0.00    +0.000 C 
ENDBRANCH  30  31
BRANCH  30  33
ATOM     33  C   UNL     1      -5.065  54.605  50.439  0.00  0.00    +0.000 C 
BRANCH  33  34
ATOM     34  C   UNL     1      -5.515  53.536  49.423  0.00  0.00    +0.000 C 
ATOM     35  C   UNL     1      -6.209  54.117  48.200  0.00  0.00    +0.000 C 
ENDBRANCH  33  34
ENDBRANCH  30  33
ENDBRANCH  28  30
ENDBRANCH   5  28
TORSDOF 7
ENDMDL
MODEL 5
REMARK VINA RESULT:      -7.7      3.560      7.712
REMARK  Name = 
REMARK  9 active torsions:
REMARK  status: ('A' for Active; 'I' for Inactive)
REMARK    1  A    between atoms: C_6  and  C_10
REMARK    2  A    between atoms: C_14  and  O_18
REMARK    3  A    between atoms: N_17  and  N_20
REMARK    4  A    between atoms: N_20  and  C_23
REMARK    5  A    between atoms: C_23  and  C_26
REMARK    6  A    between atoms: C_23  and  C_27
REMARK    7  A    between atoms: C_26  and  C_29
REMARK    8  A    between atoms: C_27  and  C_30
REMARK    9  A    between atoms: C_29  and  C_31
REMARK                            x       y       z     vdW  Elec       q    Type
REMARK                         _______ _______ _______ _____ _____    ______ ____
ROOT
ATOM      1  C   UNL     1     -11.588  54.139  51.137  0.00  0.00    +0.000 A 
ATOM      2  C   UNL     1     -10.634  54.015  52.284  0.00  0.00    +0.000 A 
ATOM      3  C   UNL     1     -11.736  53.096  50.296  0.00  0.00    +0.000 A 
ATOM      4  O   UNL     1     -10.232  55.053  52.819  0.00  0.00    +0.000 OA
ATOM      5  N   UNL     1     -10.343  52.709  52.719  0.00  0.00    +0.000 N 
ATOM      6  C   UNL     1     -11.062  51.820  50.557  0.00  0.00    +0.000 A 
ATOM      7  C   UNL     1     -10.424  51.611  51.790  0.00  0.00    +0.000 A 
ATOM      8  C   UNL     1     -11.118  50.786  49.603  0.00  0.00    +0.000 A 
ATOM      9  C   UNL     1      -9.858  50.347  52.036  0.00  0.00    +0.000 A 
ATOM     10  C   UNL     1     -10.556  49.543  49.865  0.00  0.00    +0.000 A 
ATOM     11  C   UNL     1      -9.929  49.322  51.083  0.00  0.00    +0.000 A 
ENDROOT
BRANCH   1  17
ATOM     12  S   UNL     1     -13.434  57.135  49.409  0.00  0.00    +0.000 S 
ATOM     13  O   UNL     1     -14.557  56.627  48.642  0.00  0.00    +0.000 OA
ATOM     14  O   UNL     1     -12.591  58.178  48.865  0.00  0.00    +0.000 OA
ATOM     15  N   UNL     1     -12.490  55.887  49.781  0.00  0.00    +0.000 N 
ATOM     16  C   UNL     1     -14.106  57.767  50.895  0.00  0.00    +0.000 A 
ATOM     17  C   UNL     1     -12.428  55.396  50.984  0.00  0.00    +0.000 C 
ATOM     18  C   UNL     1     -13.862  57.071  52.070  0.00  0.00    +0.000 A 
ATOM     19  C   UNL     1     -14.866  58.937  50.850  0.00  0.00    +0.000 A 
ATOM     20  N   UNL     1     -13.094  55.910  52.082  0.00  0.00    +0.000 N 
ATOM     21  C   UNL     1     -14.445  57.560  53.244  0.00  0.00    +0.000 A 
ATOM     22  C   UNL     1     -15.418  59.424  52.028  0.00  0.00    +0.000 A 
ATOM     23  C   UNL     1     -15.216  58.732  53.222  0.00  0.00    +0.000 A 
ATOM     24  H   UNL     1     -11.940  55.481  49.073  0.00  0.00    +0.000 HD
ATOM     25  H   UNL     1     -13.019  55.421  52.933  0.00  0.00    +0.000 HD
ENDBRANCH   1  17
BRANCH   3  26
ATOM     26  O   UNL     1     -12.556  53.084  49.182  0.00  0.00    +0.000 OA
ATOM     27  H   UNL     1     -12.394  53.676  48.475  0.00  0.00    +0.000 HD
ENDBRANCH   3  26
BRANCH   5  28
ATOM     28  N   UNL     1      -9.650  52.537  53.959  0.00  0.00    +0.000 N 
ATOM     29  H   UNL     1     -10.112  52.622  54.824  0.00  0.00    +0.000 HD
BRANCH  28  30
ATOM     30  C   UNL     1      -8.200  52.225  53.879  0.00  0.00    +0.000 C 
BRANCH  30  31
ATOM     31  C   UNL     1      -7.899  51.302  55.089  0.00  0.00    +0.000 C 
ATOM     32  C   UNL     1      -9.129  50.600  55.653  0.00  0.00    +0.000 C 
ENDBRANCH  30  31
BRANCH  30  33
ATOM     33  C   UNL     1      -7.282  53.480  53.919  0.00  0.00    +0.000 C 
BRANCH  33  34
ATOM     34  C   UNL     1      -6.890  53.986  52.516  0.00  0.00    +0.000 C 
ATOM     35  C   UNL     1      -6.914  52.899  51.451  0.00  0.00    +0.000 C 
ENDBRANCH  33  34
ENDBRANCH  30  33
ENDBRANCH  28  30
ENDBRANCH   5  28
TORSDOF 7
ENDMDL
MODEL 6
REMARK VINA RESULT:      -7.5      3.139      7.027
REMARK  Name = 
REMARK  9 active torsions:
REMARK  status: ('A' for Active; 'I' for Inactive)
REMARK    1  A    between atoms: C_6  and  C_10
REMARK    2  A    between atoms: C_14  and  O_18
REMARK    3  A    between atoms: N_17  and  N_20
REMARK    4  A    between atoms: N_20  and  C_23
REMARK    5  A    between atoms: C_23  and  C_26
REMARK    6  A    between atoms: C_23  and  C_27
REMARK    7  A    between atoms: C_26  and  C_29
REMARK    8  A    between atoms: C_27  and  C_30
REMARK    9  A    between atoms: C_29  and  C_31
REMARK                            x       y       z     vdW  Elec       q    Type
REMARK                         _______ _______ _______ _____ _____    ______ ____
ROOT
ATOM      1  C   UNL     1     -11.484  56.137  48.575  0.00  0.00    +0.000 A 
ATOM      2  C   UNL     1     -10.193  55.664  49.168  0.00  0.00    +0.000 A 
ATOM      3  C   UNL     1     -11.861  55.663  47.372  0.00  0.00    +0.000 A 
ATOM      4  O   UNL     1      -9.681  56.347  50.061  0.00  0.00    +0.000 OA
ATOM      5  N   UNL     1      -9.715  54.421  48.718  0.00  0.00    +0.000 N 
ATOM      6  C   UNL     1     -11.083  54.617  46.700  0.00  0.00    +0.000 A 
ATOM      7  C   UNL     1     -10.057  53.959  47.397  0.00  0.00    +0.000 A 
ATOM      8  C   UNL     1     -11.412  54.226  45.388  0.00  0.00    +0.000 A 
ATOM      9  C   UNL     1      -9.386  52.906  46.748  0.00  0.00    +0.000 A 
ATOM     10  C   UNL     1     -10.741  53.182  44.765  0.00  0.00    +0.000 A 
ATOM     11  C   UNL     1      -9.730  52.520  45.446  0.00  0.00    +0.000 A 
ENDROOT
BRANCH   1  17
ATOM     12  S   UNL     1     -13.570  59.333  49.476  0.00  0.00    +0.000 S 
ATOM     13  O   UNL     1     -14.727  59.410  48.602  0.00  0.00    +0.000 OA
ATOM     14  O   UNL     1     -12.811  60.525  49.789  0.00  0.00    +0.000 OA
ATOM     15  N   UNL     1     -12.553  58.257  48.846  0.00  0.00    +0.000 N 
ATOM     16  C   UNL     1     -14.150  58.702  50.999  0.00  0.00    +0.000 A 
ATOM     17  C   UNL     1     -12.380  57.077  49.365  0.00  0.00    +0.000 C 
ATOM     18  C   UNL     1     -13.791  57.408  51.350  0.00  0.00    +0.000 A 
ATOM     19  C   UNL     1     -14.956  59.510  51.803  0.00  0.00    +0.000 A 
ATOM     20  N   UNL     1     -12.980  56.630  50.528  0.00  0.00    +0.000 N 
ATOM     21  C   UNL     1     -14.302  56.898  52.549  0.00  0.00    +0.000 A 
ATOM     22  C   UNL     1     -15.435  58.998  53.003  0.00  0.00    +0.000 A 
ATOM     23  C   UNL     1     -15.116  57.690  53.370  0.00  0.00    +0.000 A 
ATOM     24  H   UNL     1     -12.043  58.501  48.040  0.00  0.00    +0.000 HD
ATOM     25  H   UNL     1     -12.822  55.696  50.795  0.00  0.00    +0.000 HD
ENDBRANCH   1  17
BRANCH   3  26
ATOM     26  O   UNL     1     -13.008  56.036  46.695  0.00  0.00    +0.000 OA
ATOM     27  H   UNL     1     -13.509  56.769  46.991  0.00  0.00    +0.000 HD
ENDBRANCH   3  26
BRANCH   5  28
ATOM     28  N   UNL     1      -8.636  53.802  49.426  0.00  0.00    +0.000 N 
ATOM     29  H   UNL     1      -7.741  53.714  49.026  0.00  0.00    +0.000 HD
BRANCH  28  30
ATOM     30  C   UNL     1      -8.932  53.297  50.791  0.00  0.00    +0.000 C 
BRANCH  30  31
ATOM     31  C   UNL     1      -7.645  52.568  51.259  0.00  0.00    +0.000 C 
ATOM     32  C   UNL     1      -7.612  52.270  52.753  0.00  0.00    +0.000 C 
ENDBRANCH  30  31
BRANCH  30  33
ATOM     33  C   UNL     1     -10.151  52.333  50.857  0.00  0.00    +0.000 C 
BRANCH  33  34
ATOM     34  C   UNL     1     -11.352  52.929  51.620  0.00  0.00    +0.000 C 
ATOM     35  C   UNL     1     -10.984  54.118  52.494  0.00  0.00    +0.000 C 
ENDBRANCH  33  34
ENDBRANCH  30  33
ENDBRANCH  28  30
ENDBRANCH   5  28
TORSDOF 7
ENDMDL
MODEL 7
REMARK VINA RESULT:      -7.5      3.222      7.507
REMARK  Name = 
REMARK  9 active torsions:
REMARK  status: ('A' for Active; 'I' for Inactive)
REMARK    1  A    between atoms: C_6  and  C_10
REMARK    2  A    between atoms: C_14  and  O_18
REMARK    3  A    between atoms: N_17  and  N_20
REMARK    4  A    between atoms: N_20  and  C_23
REMARK    5  A    between atoms: C_23  and  C_26
REMARK    6  A    between atoms: C_23  and  C_27
REMARK    7  A    between atoms: C_26  and  C_29
REMARK    8  A    between atoms: C_27  and  C_30
REMARK    9  A    between atoms: C_29  and  C_31
REMARK                            x       y       z     vdW  Elec       q    Type
REMARK                         _______ _______ _______ _____ _____    ______ ____
ROOT
ATOM      1  C   UNL     1     -11.628  54.712  50.572  0.00  0.00    +0.000 A 
ATOM      2  C   UNL     1     -11.582  54.034  49.238  0.00  0.00    +0.000 A 
ATOM      3  C   UNL     1     -10.764  54.325  51.531  0.00  0.00    +0.000 A 
ATOM      4  O   UNL     1     -12.574  54.122  48.507  0.00  0.00    +0.000 OA
ATOM      5  N   UNL     1     -10.364  53.424  48.886  0.00  0.00    +0.000 N 
ATOM      6  C   UNL     1      -9.719  53.336  51.245  0.00  0.00    +0.000 A 
ATOM      7  C   UNL     1      -9.484  52.938  49.919  0.00  0.00    +0.000 A 
ATOM      8  C   UNL     1      -8.911  52.843  52.287  0.00  0.00    +0.000 A 
ATOM      9  C   UNL     1      -8.421  52.049  49.673  0.00  0.00    +0.000 A 
ATOM     10  C   UNL     1      -7.864  51.969  52.025  0.00  0.00    +0.000 A 
ATOM     11  C   UNL     1      -7.617  51.575  50.717  0.00  0.00    +0.000 A 
ENDROOT
BRANCH   1  17
ATOM     12  S   UNL     1     -14.292  56.983  52.338  0.00  0.00    +0.000 S 
ATOM     13  O   UNL     1     -13.686  57.621  53.493  0.00  0.00    +0.000 OA
ATOM     14  O   UNL     1     -15.634  56.449  52.420  0.00  0.00    +0.000 OA
ATOM     15  N   UNL     1     -13.318  55.790  51.872  0.00  0.00    +0.000 N 
ATOM     16  C   UNL     1     -14.315  58.189  51.072  0.00  0.00    +0.000 A 
ATOM     17  C   UNL     1     -12.586  55.869  50.799  0.00  0.00    +0.000 C 
ATOM     18  C   UNL     1     -13.452  58.026  49.998  0.00  0.00    +0.000 A 
ATOM     19  C   UNL     1     -15.188  59.272  51.187  0.00  0.00    +0.000 A 
ATOM     20  N   UNL     1     -12.598  56.930  49.911  0.00  0.00    +0.000 N 
ATOM     21  C   UNL     1     -13.447  59.023  49.016  0.00  0.00    +0.000 A 
ATOM     22  C   UNL     1     -15.189  60.241  50.190  0.00  0.00    +0.000 A 
ATOM     23  C   UNL     1     -14.313  60.121  49.112  0.00  0.00    +0.000 A 
ATOM     24  H   UNL     1     -13.277  54.971  52.416  0.00  0.00    +0.000 HD
ATOM     25  H   UNL     1     -11.957  56.909  49.164  0.00  0.00    +0.000 HD
ENDBRANCH   1  17
BRANCH   3  26
ATOM     26  O   UNL     1     -10.717  54.841  52.813  0.00  0.00    +0.000 OA
ATOM     27  H   UNL     1     -11.246  55.579  53.040  0.00  0.00    +0.000 HD
ENDBRANCH   3  26
BRANCH   5  28
ATOM     28  N   UNL     1     -10.177  52.990  47.536  0.00  0.00    +0.000 N 
ATOM     29  H   UNL     1     -10.091  52.036  47.309  0.00  0.00    +0.000 HD
BRANCH  28  30
ATOM     30  C   UNL     1     -10.118  54.046  46.493  0.00  0.00    +0.000 C 
BRANCH  30  31
ATOM     31  C   UNL     1      -9.819  53.308  45.162  0.00  0.00    +0.000 C 
ATOM     32  C   UNL     1     -11.050  53.073  44.295  0.00  0.00    +0.000 C 
ENDBRANCH  30  31
BRANCH  30  33
ATOM     33  C   UNL     1      -9.039  55.134  46.759  0.00  0.00    +0.000 C 
BRANCH  33  34
ATOM     34  C   UNL     1      -7.606  54.567  46.803  0.00  0.00    +0.000 C 
ATOM     35  C   UNL     1      -6.886  54.840  48.115  0.00  0.00    +0.000 C 
ENDBRANCH  33  34
ENDBRANCH  30  33
ENDBRANCH  28  30
ENDBRANCH   5  28
TORSDOF 7
ENDMDL
MODEL 8
REMARK VINA RESULT:      -7.4      2.636      7.239
REMARK  Name = 
REMARK  9 active torsions:
REMARK  status: ('A' for Active; 'I' for Inactive)
REMARK    1  A    between atoms: C_6  and  C_10
REMARK    2  A    between atoms: C_14  and  O_18
REMARK    3  A    between atoms: N_17  and  N_20
REMARK    4  A    between atoms: N_20  and  C_23
REMARK    5  A    between atoms: C_23  and  C_26
REMARK    6  A    between atoms: C_23  and  C_27
REMARK    7  A    between atoms: C_26  and  C_29
REMARK    8  A    between atoms: C_27  and  C_30
REMARK    9  A    between atoms: C_29  and  C_31
REMARK                            x       y       z     vdW  Elec       q    Type
REMARK                         _______ _______ _______ _____ _____    ______ ____
ROOT
ATOM      1  C   UNL     1     -10.581  55.938  48.437  0.00  0.00    +0.000 A 
ATOM      2  C   UNL     1      -9.165  56.252  48.805  0.00  0.00    +0.000 A 
ATOM      3  C   UNL     1     -10.818  55.135  47.380  0.00  0.00    +0.000 A 
ATOM      4  O   UNL     1      -8.955  57.243  49.513  0.00  0.00    +0.000 OA
ATOM      5  N   UNL     1      -8.189  55.329  48.387  0.00  0.00    +0.000 N 
ATOM      6  C   UNL     1      -9.712  54.486  46.668  0.00  0.00    +0.000 A 
ATOM      7  C   UNL     1      -8.416  54.534  47.207  0.00  0.00    +0.000 A 
ATOM      8  C   UNL     1      -9.963  53.760  45.489  0.00  0.00    +0.000 A 
ATOM      9  C   UNL     1      -7.396  53.833  46.539  0.00  0.00    +0.000 A 
ATOM     10  C   UNL     1      -8.943  53.070  44.845  0.00  0.00    +0.000 A 
ATOM     11  C   UNL     1      -7.660  53.104  45.372  0.00  0.00    +0.000 A 
ENDROOT
BRANCH   1  17
ATOM     12  S   UNL     1     -13.233  56.093  51.320  0.00  0.00    +0.000 S 
ATOM     13  O   UNL     1     -12.552  56.299  52.586  0.00  0.00    +0.000 OA
ATOM     14  O   UNL     1     -14.334  55.157  51.228  0.00  0.00    +0.000 OA
ATOM     15  N   UNL     1     -12.128  55.656  50.236  0.00  0.00    +0.000 N 
ATOM     16  C   UNL     1     -13.868  57.652  50.849  0.00  0.00    +0.000 A 
ATOM     17  C   UNL     1     -11.720  56.459  49.297  0.00  0.00    +0.000 C 
ATOM     18  C   UNL     1     -13.276  58.301  49.775  0.00  0.00    +0.000 A 
ATOM     19  C   UNL     1     -14.935  58.193  51.568  0.00  0.00    +0.000 A 
ATOM     20  N   UNL     1     -12.216  57.731  49.075  0.00  0.00    +0.000 N 
ATOM     21  C   UNL     1     -13.762  59.570  49.439  0.00  0.00    +0.000 A 
ATOM     22  C   UNL     1     -15.423  59.443  51.206  0.00  0.00    +0.000 A 
ATOM     23  C   UNL     1     -14.831  60.134  50.149  0.00  0.00    +0.000 A 
ATOM     24  H   UNL     1     -11.749  54.749  50.283  0.00  0.00    +0.000 HD
ATOM     25  H   UNL     1     -11.790  58.272  48.372  0.00  0.00    +0.000 HD
ENDBRANCH   1  17
BRANCH   3  26
ATOM     26  O   UNL     1     -12.072  54.789  46.911  0.00  0.00    +0.000 OA
ATOM     27  H   UNL     1     -12.402  55.178  46.127  0.00  0.00    +0.000 HD
ENDBRANCH   3  26
BRANCH   5  28
ATOM     28  N   UNL     1      -6.866  55.437  48.923  0.00  0.00    +0.000 N 
ATOM     29  H   UNL     1      -6.152  55.913  48.440  0.00  0.00    +0.000 HD
BRANCH  28  30
ATOM     30  C   UNL     1      -6.622  54.796  50.240  0.00  0.00    +0.000 C 
BRANCH  30  31
ATOM     31  C   UNL     1      -5.098  54.510  50.293  0.00  0.00    +0.000 C 
ATOM     32  C   UNL     1      -4.701  53.164  49.700  0.00  0.00    +0.000 C 
ENDBRANCH  30  31
BRANCH  30  33
ATOM     33  C   UNL     1      -7.425  53.482  50.460  0.00  0.00    +0.000 C 
BRANCH  33  34
ATOM     34  C   UNL     1      -8.556  53.632  51.498  0.00  0.00    +0.000 C 
ATOM     35  C   UNL     1      -8.541  54.971  52.220  0.00  0.00    +0.000 C 
ENDBRANCH  33  34
ENDBRANCH  30  33
ENDBRANCH  28  30
ENDBRANCH   5  28
TORSDOF 7
ENDMDL
MODEL 9
REMARK VINA RESULT:      -7.4      3.075      7.487
REMARK  Name = 
REMARK  9 active torsions:
REMARK  status: ('A' for Active; 'I' for Inactive)
REMARK    1  A    between atoms: C_6  and  C_10
REMARK    2  A    between atoms: C_14  and  O_18
REMARK    3  A    between atoms: N_17  and  N_20
REMARK    4  A    between atoms: N_20  and  C_23
REMARK    5  A    between atoms: C_23  and  C_26
REMARK    6  A    between atoms: C_23  and  C_27
REMARK    7  A    between atoms: C_26  and  C_29
REMARK    8  A    between atoms: C_27  and  C_30
REMARK    9  A    between atoms: C_29  and  C_31
REMARK                            x       y       z     vdW  Elec       q    Type
REMARK                         _______ _______ _______ _____ _____    ______ ____
ROOT
ATOM      1  C   UNL     1     -11.332  54.420  50.773  0.00  0.00    +0.000 A 
ATOM      2  C   UNL     1     -11.388  53.419  49.661  0.00  0.00    +0.000 A 
ATOM      3  C   UNL     1     -10.391  54.283  51.727  0.00  0.00    +0.000 A 
ATOM      4  O   UNL     1     -12.437  53.328  49.014  0.00  0.00    +0.000 OA
ATOM      5  N   UNL     1     -10.197  52.724  49.383  0.00  0.00    +0.000 N 
ATOM      6  C   UNL     1      -9.365  53.240  51.625  0.00  0.00    +0.000 A 
ATOM      7  C   UNL     1      -9.233  52.510  50.433  0.00  0.00    +0.000 A 
ATOM      8  C   UNL     1      -8.471  53.024  52.691  0.00  0.00    +0.000 A 
ATOM      9  C   UNL     1      -8.186  51.575  50.342  0.00  0.00    +0.000 A 
ATOM     10  C   UNL     1      -7.441  52.098  52.582  0.00  0.00    +0.000 A 
ATOM     11  C   UNL     1      -7.297  51.376  51.406  0.00  0.00    +0.000 A 
ENDROOT
BRANCH   1  17
ATOM     12  S   UNL     1     -13.532  57.359  49.396  0.00  0.00    +0.000 S 
ATOM     13  O   UNL     1     -14.664  56.810  48.669  0.00  0.00    +0.000 OA
ATOM     14  O   UNL     1     -12.817  58.504  48.874  0.00  0.00    +0.000 OA
ATOM     15  N   UNL     1     -12.467  56.173  49.611  0.00  0.00    +0.000 N 
ATOM     16  C   UNL     1     -14.143  57.830  50.965  0.00  0.00    +0.000 A 
ATOM     17  C   UNL     1     -12.279  55.609  50.768  0.00  0.00    +0.000 C 
ATOM     18  C   UNL     1     -13.760  57.079  52.067  0.00  0.00    +0.000 A 
ATOM     19  C   UNL     1     -14.996  58.931  51.056  0.00  0.00    +0.000 A 
ATOM     20  N   UNL     1     -12.902  55.989  51.943  0.00  0.00    +0.000 N 
ATOM     21  C   UNL     1     -14.294  57.437  53.310  0.00  0.00    +0.000 A 
ATOM     22  C   UNL     1     -15.499  59.289  52.301  0.00  0.00    +0.000 A 
ATOM     23  C   UNL     1     -15.156  58.537  53.425  0.00  0.00    +0.000 A 
ATOM     24  H   UNL     1     -11.939  55.864  48.840  0.00  0.00    +0.000 HD
ATOM     25  H   UNL     1     -12.727  55.452  52.749  0.00  0.00    +0.000 HD
ENDBRANCH   1  17
BRANCH   3  26
ATOM     26  O   UNL     1     -10.245  55.113  52.824  0.00  0.00    +0.000 OA
ATOM     27  H   UNL     1     -10.339  54.766  53.689  0.00  0.00    +0.000 HD
ENDBRANCH   3  26
BRANCH   5  28
ATOM     28  N   UNL     1     -10.116  51.952  48.181  0.00  0.00    +0.000 N 
ATOM     29  H   UNL     1     -10.095  50.968  48.201  0.00  0.00    +0.000 HD
BRANCH  28  30
ATOM     30  C   UNL     1     -10.063  52.706  46.903  0.00  0.00    +0.000 C 
BRANCH  30  31
ATOM     31  C   UNL     1      -9.877  51.640  45.791  0.00  0.00    +0.000 C 
ATOM     32  C   UNL     1     -10.612  51.961  44.496  0.00  0.00    +0.000 C 
ENDBRANCH  30  31
BRANCH  30  33
ATOM     33  C   UNL     1      -8.917  53.757  46.837  0.00  0.00    +0.000 C 
BRANCH  33  34
ATOM     34  C   UNL     1      -9.432  55.210  46.804  0.00  0.00    +0.000 C 
ATOM     35  C   UNL     1     -10.918  55.319  46.500  0.00  0.00    +0.000 C 
ENDBRANCH  33  34
ENDBRANCH  30  33
ENDBRANCH  28  30
ENDBRANCH   5  28
TORSDOF 7
ENDMDL
