MODEL 1
REMARK VINA RESULT:      -9.7      0.000      0.000
REMARK  Name = 
REMARK  6 active torsions:
REMARK  status: ('A' for Active; 'I' for Inactive)
REMARK    1  A    between atoms: C_6  and  C_10
REMARK    2  A    between atoms: C_14  and  O_18
REMARK    3  A    between atoms: N_17  and  N_20
REMARK    4  A    between atoms: N_20  and  C_23
REMARK    5  A    between atoms: C_23  and  C_26
REMARK    6  A    between atoms: C_28  and  C_31
REMARK                            x       y       z     vdW  Elec       q    Type
REMARK                         _______ _______ _______ _____ _____    ______ ____
ROOT
ATOM      1  C   UNL     1      -9.070  54.702  50.114  0.00  0.00    +0.000 A 
ATOM      2  C   UNL     1     -10.446  55.230  50.366  0.00  0.00    +0.000 A 
ATOM      3  C   UNL     1      -8.726  54.248  48.898  0.00  0.00    +0.000 A 
ATOM      4  O   UNL     1     -10.675  55.659  51.502  0.00  0.00    +0.000 OA
ATOM      5  N   UNL     1     -11.363  55.215  49.310  0.00  0.00    +0.000 N 
ATOM      6  C   UNL     1      -9.683  54.298  47.784  0.00  0.00    +0.000 A 
ATOM      7  C   UNL     1     -10.984  54.783  47.999  0.00  0.00    +0.000 A 
ATOM      8  C   UNL     1      -9.305  53.882  46.495  0.00  0.00    +0.000 A 
ATOM      9  C   UNL     1     -11.875  54.845  46.913  0.00  0.00    +0.000 A 
ATOM     10  C   UNL     1     -10.197  53.957  45.427  0.00  0.00    +0.000 A 
ATOM     11  C   UNL     1     -11.482  54.440  45.636  0.00  0.00    +0.000 A 
ENDROOT
BRANCH   1  17
ATOM     12  S   UNL     1      -7.192  55.861  53.367  0.00  0.00    +0.000 S 
ATOM     13  O   UNL     1      -7.849  55.403  54.575  0.00  0.00    +0.000 OA
ATOM     14  O   UNL     1      -6.651  57.204  53.291  0.00  0.00    +0.000 OA
ATOM     15  N   UNL     1      -8.235  55.677  52.140  0.00  0.00    +0.000 N 
ATOM     16  C   UNL     1      -5.835  54.776  53.109  0.00  0.00    +0.000 A 
ATOM     17  C   UNL     1      -8.059  54.749  51.247  0.00  0.00    +0.000 C 
ATOM     18  C   UNL     1      -5.914  53.883  52.055  0.00  0.00    +0.000 A 
ATOM     19  C   UNL     1      -4.717  54.841  53.946  0.00  0.00    +0.000 A 
ATOM     20  N   UNL     1      -7.039  53.821  51.239  0.00  0.00    +0.000 N 
ATOM     21  C   UNL     1      -4.866  52.973  51.880  0.00  0.00    +0.000 A 
ATOM     22  C   UNL     1      -3.664  53.954  53.739  0.00  0.00    +0.000 A 
ATOM     23  C   UNL     1      -3.744  53.012  52.714  0.00  0.00    +0.000 A 
ATOM     24  H   UNL     1      -9.013  56.276  52.071  0.00  0.00    +0.000 HD
ATOM     25  H   UNL     1      -7.111  53.065  50.613  0.00  0.00    +0.000 HD
ENDBRANCH   1  17
BRANCH   3  26
ATOM     26  O   UNL     1      -7.477  53.748  48.577  0.00  0.00    +0.000 OA
ATOM     27  H   UNL     1      -7.354  53.266  47.783  0.00  0.00    +0.000 HD
ENDBRANCH   3  26
BRANCH   5  28
ATOM     28  N   UNL     1     -12.729  55.646  49.474  0.00  0.00    +0.000 N 
ATOM     29  H   UNL     1     -13.455  54.998  49.626  0.00  0.00    +0.000 HD
BRANCH  28  30
ATOM     30  C   UNL     1     -12.994  57.086  49.405  0.00  0.00    +0.000 C 
BRANCH  30  31
ATOM     31  C   UNL     1     -13.795  57.565  50.597  0.00  0.00    +0.000 A 
ATOM     32  C   UNL     1     -14.119  58.923  50.795  0.00  0.00    +0.000 A 
ATOM     33  C   UNL     1     -14.199  56.617  51.557  0.00  0.00    +0.000 A 
ATOM     34  C   UNL     1     -14.849  59.290  51.938  0.00  0.00    +0.000 A 
ATOM     35  C   UNL     1     -13.715  60.018  49.845  0.00  0.00    +0.000 C 
ATOM     36  C   UNL     1     -14.921  56.999  52.686  0.00  0.00    +0.000 A 
ATOM     37  C   UNL     1     -15.246  58.336  52.876  0.00  0.00    +0.000 A 
ENDBRANCH  30  31
ENDBRANCH  28  30
ENDBRANCH   5  28
TORSDOF 5
ENDMDL
MODEL 2
REMARK VINA RESULT:      -9.6      1.782      1.877
REMARK  Name = 
REMARK  6 active torsions:
REMARK  status: ('A' for Active; 'I' for Inactive)
REMARK    1  A    between atoms: C_6  and  C_10
REMARK    2  A    between atoms: C_14  and  O_18
REMARK    3  A    between atoms: N_17  and  N_20
REMARK    4  A    between atoms: N_20  and  C_23
REMARK    5  A    between atoms: C_23  and  C_26
REMARK    6  A    between atoms: C_28  and  C_31
REMARK                            x       y       z     vdW  Elec       q    Type
REMARK                         _______ _______ _______ _____ _____    ______ ____
ROOT
ATOM      1  C   UNL     1      -9.640  54.141  50.189  0.00  0.00    +0.000 A 
ATOM      2  C   UNL     1     -10.942  54.857  50.357  0.00  0.00    +0.000 A 
ATOM      3  C   UNL     1      -9.247  53.719  48.976  0.00  0.00    +0.000 A 
ATOM      4  O   UNL     1     -11.219  55.241  51.498  0.00  0.00    +0.000 OA
ATOM      5  N   UNL     1     -11.740  55.053  49.225  0.00  0.00    +0.000 N 
ATOM      6  C   UNL     1     -10.068  53.988  47.787  0.00  0.00    +0.000 A 
ATOM      7  C   UNL     1     -11.298  54.653  47.923  0.00  0.00    +0.000 A 
ATOM      8  C   UNL     1      -9.627  53.604  46.509  0.00  0.00    +0.000 A 
ATOM      9  C   UNL     1     -12.057  54.923  46.770  0.00  0.00    +0.000 A 
ATOM     10  C   UNL     1     -10.386  53.886  45.374  0.00  0.00    +0.000 A 
ATOM     11  C   UNL     1     -11.601  54.546  45.505  0.00  0.00    +0.000 A 
ENDROOT
BRANCH   1  17
ATOM     12  S   UNL     1      -6.661  54.590  52.713  0.00  0.00    +0.000 S 
ATOM     13  O   UNL     1      -6.841  55.741  53.577  0.00  0.00    +0.000 OA
ATOM     14  O   UNL     1      -5.359  54.292  52.150  0.00  0.00    +0.000 OA
ATOM     15  N   UNL     1      -7.712  54.730  51.486  0.00  0.00    +0.000 N 
ATOM     16  C   UNL     1      -7.108  53.187  53.670  0.00  0.00    +0.000 A 
ATOM     17  C   UNL     1      -8.754  53.957  51.408  0.00  0.00    +0.000 C 
ATOM     18  C   UNL     1      -8.288  52.537  53.350  0.00  0.00    +0.000 A 
ATOM     19  C   UNL     1      -6.278  52.753  54.706  0.00  0.00    +0.000 A 
ATOM     20  N   UNL     1      -9.111  52.990  52.324  0.00  0.00    +0.000 N 
ATOM     21  C   UNL     1      -8.683  51.457  54.146  0.00  0.00    +0.000 A 
ATOM     22  C   UNL     1      -6.665  51.653  55.469  0.00  0.00    +0.000 A 
ATOM     23  C   UNL     1      -7.873  51.013  55.196  0.00  0.00    +0.000 A 
ATOM     24  H   UNL     1      -7.558  55.409  50.791  0.00  0.00    +0.000 HD
ATOM     25  H   UNL     1     -10.009  52.593  52.246  0.00  0.00    +0.000 HD
ENDBRANCH   1  17
BRANCH   3  26
ATOM     26  O   UNL     1      -8.059  53.054  48.730  0.00  0.00    +0.000 OA
ATOM     27  H   UNL     1      -7.977  52.502  47.977  0.00  0.00    +0.000 HD
ENDBRANCH   3  26
BRANCH   5  28
ATOM     28  N   UNL     1     -13.037  55.677  49.299  0.00  0.00    +0.000 N 
ATOM     29  H   UNL     1     -13.863  55.142  49.300  0.00  0.00    +0.000 HD
BRANCH  28  30
ATOM     30  C   UNL     1     -13.077  57.141  49.374  0.00  0.00    +0.000 C 
BRANCH  30  31
ATOM     31  C   UNL     1     -13.852  57.618  50.584  0.00  0.00    +0.000 A 
ATOM     32  C   UNL     1     -14.115  58.982  50.825  0.00  0.00    +0.000 A 
ATOM     33  C   UNL     1     -14.294  56.659  51.517  0.00  0.00    +0.000 A 
ATOM     34  C   UNL     1     -14.825  59.346  51.981  0.00  0.00    +0.000 A 
ATOM     35  C   UNL     1     -13.667  60.087  49.906  0.00  0.00    +0.000 C 
ATOM     36  C   UNL     1     -14.995  57.039  52.660  0.00  0.00    +0.000 A 
ATOM     37  C   UNL     1     -15.260  58.383  52.892  0.00  0.00    +0.000 A 
ENDBRANCH  30  31
ENDBRANCH  28  30
ENDBRANCH   5  28
TORSDOF 5
ENDMDL
MODEL 3
REMARK VINA RESULT:      -9.6      2.551      7.089
REMARK  Name = 
REMARK  6 active torsions:
REMARK  status: ('A' for Active; 'I' for Inactive)
REMARK    1  A    between atoms: C_6  and  C_10
REMARK    2  A    between atoms: C_14  and  O_18
REMARK    3  A    between atoms: N_17  and  N_20
REMARK    4  A    between atoms: N_20  and  C_23
REMARK    5  A    between atoms: C_23  and  C_26
REMARK    6  A    between atoms: C_28  and  C_31
REMARK                            x       y       z     vdW  Elec       q    Type
REMARK                         _______ _______ _______ _____ _____    ______ ____
ROOT
ATOM      1  C   UNL     1     -11.686  55.833  48.809  0.00  0.00    +0.000 A 
ATOM      2  C   UNL     1     -10.736  55.094  49.697  0.00  0.00    +0.000 A 
ATOM      3  C   UNL     1     -11.749  55.554  47.497  0.00  0.00    +0.000 A 
ATOM      4  O   UNL     1     -10.759  55.386  50.897  0.00  0.00    +0.000 OA
ATOM      5  N   UNL     1      -9.907  54.126  49.118  0.00  0.00    +0.000 N 
ATOM      6  C   UNL     1     -10.916  54.492  46.917  0.00  0.00    +0.000 A 
ATOM      7  C   UNL     1     -10.012  53.789  47.731  0.00  0.00    +0.000 A 
ATOM      8  C   UNL     1     -11.028  54.156  45.557  0.00  0.00    +0.000 A 
ATOM      9  C   UNL     1      -9.242  52.759  47.161  0.00  0.00    +0.000 A 
ATOM     10  C   UNL     1     -10.264  53.126  45.008  0.00  0.00    +0.000 A 
ATOM     11  C   UNL     1      -9.372  52.428  45.811  0.00  0.00    +0.000 A 
ENDROOT
BRANCH   1  17
ATOM     12  S   UNL     1     -13.567  59.219  49.477  0.00  0.00    +0.000 S 
ATOM     13  O   UNL     1     -14.703  59.402  48.593  0.00  0.00    +0.000 OA
ATOM     14  O   UNL     1     -12.691  60.332  49.784  0.00  0.00    +0.000 OA
ATOM     15  N   UNL     1     -12.657  58.025  48.865  0.00  0.00    +0.000 N 
ATOM     16  C   UNL     1     -14.228  58.683  51.013  0.00  0.00    +0.000 A 
ATOM     17  C   UNL     1     -12.612  56.859  49.438  0.00  0.00    +0.000 C 
ATOM     18  C   UNL     1     -14.013  57.367  51.384  0.00  0.00    +0.000 A 
ATOM     19  C   UNL     1     -14.932  59.578  51.823  0.00  0.00    +0.000 A 
ATOM     20  N   UNL     1     -13.321  56.485  50.560  0.00  0.00    +0.000 N 
ATOM     21  C   UNL     1     -14.588  56.915  52.576  0.00  0.00    +0.000 A 
ATOM     22  C   UNL     1     -15.470  59.124  53.026  0.00  0.00    +0.000 A 
ATOM     23  C   UNL     1     -15.307  57.790  53.396  0.00  0.00    +0.000 A 
ATOM     24  H   UNL     1     -12.131  58.185  48.049  0.00  0.00    +0.000 HD
ATOM     25  H   UNL     1     -13.338  55.528  50.794  0.00  0.00    +0.000 HD
ENDBRANCH   1  17
BRANCH   3  26
ATOM     26  O   UNL     1     -12.600  56.185  46.607  0.00  0.00    +0.000 OA
ATOM     27  H   UNL     1     -13.060  56.959  46.866  0.00  0.00    +0.000 HD
ENDBRANCH   3  26
BRANCH   5  28
ATOM     28  N   UNL     1      -8.919  53.408  49.882  0.00  0.00    +0.000 N 
ATOM     29  H   UNL     1      -9.104  52.511  50.243  0.00  0.00    +0.000 HD
BRANCH  28  30
ATOM     30  C   UNL     1      -7.626  54.066  50.099  0.00  0.00    +0.000 C 
BRANCH  30  31
ATOM     31  C   UNL     1      -7.438  54.460  51.549  0.00  0.00    +0.000 A 
ATOM     32  C   UNL     1      -7.412  55.806  51.970  0.00  0.00    +0.000 A 
ATOM     33  C   UNL     1      -7.249  53.441  52.502  0.00  0.00    +0.000 A 
ATOM     34  C   UNL     1      -7.213  56.092  53.330  0.00  0.00    +0.000 A 
ATOM     35  C   UNL     1      -7.579  56.971  51.030  0.00  0.00    +0.000 C 
ATOM     36  C   UNL     1      -7.051  53.742  53.848  0.00  0.00    +0.000 A 
ATOM     37  C   UNL     1      -7.033  55.068  54.262  0.00  0.00    +0.000 A 
ENDBRANCH  30  31
ENDBRANCH  28  30
ENDBRANCH   5  28
TORSDOF 5
ENDMDL
MODEL 4
REMARK VINA RESULT:      -9.5      2.794      7.882
REMARK  Name = 
REMARK  6 active torsions:
REMARK  status: ('A' for Active; 'I' for Inactive)
REMARK    1  A    between atoms: C_6  and  C_10
REMARK    2  A    between atoms: C_14  and  O_18
REMARK    3  A    between atoms: N_17  and  N_20
REMARK    4  A    between atoms: N_20  and  C_23
REMARK    5  A    between atoms: C_23  and  C_26
REMARK    6  A    between atoms: C_28  and  C_31
REMARK                            x       y       z     vdW  Elec       q    Type
REMARK                         _______ _______ _______ _____ _____    ______ ____
ROOT
ATOM      1  C   UNL     1     -11.169  54.601  50.753  0.00  0.00    +0.000 A 
ATOM      2  C   UNL     1      -9.798  54.993  50.303  0.00  0.00    +0.000 A 
ATOM      3  C   UNL     1     -11.396  53.379  51.261  0.00  0.00    +0.000 A 
ATOM      4  O   UNL     1      -9.663  56.145  49.877  0.00  0.00    +0.000 OA
ATOM      5  N   UNL     1      -8.773  54.046  50.406  0.00  0.00    +0.000 N 
ATOM      6  C   UNL     1     -10.295  52.418  51.420  0.00  0.00    +0.000 A 
ATOM      7  C   UNL     1      -9.000  52.763  50.997  0.00  0.00    +0.000 A 
ATOM      8  C   UNL     1     -10.519  51.162  52.010  0.00  0.00    +0.000 A 
ATOM      9  C   UNL     1      -7.956  51.839  51.182  0.00  0.00    +0.000 A 
ATOM     10  C   UNL     1      -9.472  50.260  52.194  0.00  0.00    +0.000 A 
ATOM     11  C   UNL     1      -8.191  50.599  51.780  0.00  0.00    +0.000 A 
ENDROOT
BRANCH   1  17
ATOM     12  S   UNL     1     -13.691  57.237  49.290  0.00  0.00    +0.000 S 
ATOM     13  O   UNL     1     -14.849  56.612  48.681  0.00  0.00    +0.000 OA
ATOM     14  O   UNL     1     -13.056  58.376  48.659  0.00  0.00    +0.000 OA
ATOM     15  N   UNL     1     -12.564  56.089  49.493  0.00  0.00    +0.000 N 
ATOM     16  C   UNL     1     -14.213  57.788  50.874  0.00  0.00    +0.000 A 
ATOM     17  C   UNL     1     -12.278  55.636  50.677  0.00  0.00    +0.000 C 
ATOM     18  C   UNL     1     -13.731  57.114  51.983  0.00  0.00    +0.000 A 
ATOM     19  C   UNL     1     -15.075  58.882  50.986  0.00  0.00    +0.000 A 
ATOM     20  N   UNL     1     -12.884  56.019  51.855  0.00  0.00    +0.000 N 
ATOM     21  C   UNL     1     -14.190  57.507  53.245  0.00  0.00    +0.000 A 
ATOM     22  C   UNL     1     -15.497  59.287  52.251  0.00  0.00    +0.000 A 
ATOM     23  C   UNL     1     -15.063  58.591  53.379  0.00  0.00    +0.000 A 
ATOM     24  H   UNL     1     -12.090  55.731  48.708  0.00  0.00    +0.000 HD
ATOM     25  H   UNL     1     -12.704  55.480  52.660  0.00  0.00    +0.000 HD
ENDBRANCH   1  17
BRANCH   3  26
ATOM     26  O   UNL     1     -12.630  52.936  51.705  0.00  0.00    +0.000 OA
ATOM     27  H   UNL     1     -12.996  53.281  52.495  0.00  0.00    +0.000 HD
ENDBRANCH   3  26
BRANCH   5  28
ATOM     28  N   UNL     1      -7.434  54.311  49.941  0.00  0.00    +0.000 N 
ATOM     29  H   UNL     1      -7.041  53.801  49.197  0.00  0.00    +0.000 HD
BRANCH  28  30
ATOM     30  C   UNL     1      -6.682  55.371  50.622  0.00  0.00    +0.000 C 
BRANCH  30  31
ATOM     31  C   UNL     1      -6.412  55.021  52.070  0.00  0.00    +0.000 A 
ATOM     32  C   UNL     1      -5.313  54.230  52.464  0.00  0.00    +0.000 A 
ATOM     33  C   UNL     1      -7.314  55.479  53.050  0.00  0.00    +0.000 A 
ATOM     34  C   UNL     1      -5.141  53.933  53.826  0.00  0.00    +0.000 A 
ATOM     35  C   UNL     1      -4.305  53.670  51.496  0.00  0.00    +0.000 C 
ATOM     36  C   UNL     1      -7.129  55.173  54.396  0.00  0.00    +0.000 A 
ATOM     37  C   UNL     1      -6.042  54.399  54.784  0.00  0.00    +0.000 A 
ENDBRANCH  30  31
ENDBRANCH  28  30
ENDBRANCH   5  28
TORSDOF 5
ENDMDL
MODEL 5
REMARK VINA RESULT:      -9.3      3.760      7.868
REMARK  Name = 
REMARK  6 active torsions:
REMARK  status: ('A' for Active; 'I' for Inactive)
REMARK    1  A    between atoms: C_6  and  C_10
REMARK    2  A    between atoms: C_14  and  O_18
REMARK    3  A    between atoms: N_17  and  N_20
REMARK    4  A    between atoms: N_20  and  C_23
REMARK    5  A    between atoms: C_23  and  C_26
REMARK    6  A    between atoms: C_28  and  C_31
REMARK                            x       y       z     vdW  Elec       q    Type
REMARK                         _______ _______ _______ _____ _____    ______ ____
ROOT
ATOM      1  C   UNL     1     -12.520  54.278  49.708  0.00  0.00    +0.000 A 
ATOM      2  C   UNL     1     -11.992  54.229  48.309  0.00  0.00    +0.000 A 
ATOM      3  C   UNL     1     -12.240  53.293  50.576  0.00  0.00    +0.000 A 
ATOM      4  O   UNL     1     -12.267  55.188  47.580  0.00  0.00    +0.000 OA
ATOM      5  N   UNL     1     -11.222  53.123  47.932  0.00  0.00    +0.000 N 
ATOM      6  C   UNL     1     -11.379  52.170  50.182  0.00  0.00    +0.000 A 
ATOM      7  C   UNL     1     -10.878  52.100  48.871  0.00  0.00    +0.000 A 
ATOM      8  C   UNL     1     -11.033  51.171  51.108  0.00  0.00    +0.000 A 
ATOM      9  C   UNL     1     -10.035  51.029  48.521  0.00  0.00    +0.000 A 
ATOM     10  C   UNL     1     -10.189  50.121  50.749  0.00  0.00    +0.000 A 
ATOM     11  C   UNL     1      -9.690  50.051  49.456  0.00  0.00    +0.000 A 
ENDROOT
BRANCH   1  17
ATOM     12  S   UNL     1     -15.424  56.472  51.192  0.00  0.00    +0.000 S 
ATOM     13  O   UNL     1     -15.352  56.575  52.637  0.00  0.00    +0.000 OA
ATOM     14  O   UNL     1     -16.701  56.287  50.533  0.00  0.00    +0.000 OA
ATOM     15  N   UNL     1     -14.451  55.257  50.739  0.00  0.00    +0.000 N 
ATOM     16  C   UNL     1     -14.766  57.974  50.564  0.00  0.00    +0.000 A 
ATOM     17  C   UNL     1     -13.325  55.493  50.134  0.00  0.00    +0.000 C 
ATOM     18  C   UNL     1     -13.529  57.928  49.944  0.00  0.00    +0.000 A 
ATOM     19  C   UNL     1     -15.492  59.162  50.686  0.00  0.00    +0.000 A 
ATOM     20  N   UNL     1     -12.812  56.740  49.843  0.00  0.00    +0.000 N 
ATOM     21  C   UNL     1     -12.970  59.129  49.496  0.00  0.00    +0.000 A 
ATOM     22  C   UNL     1     -14.940  60.346  50.203  0.00  0.00    +0.000 A 
ATOM     23  C   UNL     1     -13.674  60.331  49.619  0.00  0.00    +0.000 A 
ATOM     24  H   UNL     1     -14.716  54.328  50.924  0.00  0.00    +0.000 HD
ATOM     25  H   UNL     1     -11.876  56.793  49.542  0.00  0.00    +0.000 HD
ENDBRANCH   1  17
BRANCH   3  26
ATOM     26  O   UNL     1     -12.682  53.261  51.887  0.00  0.00    +0.000 OA
ATOM     27  H   UNL     1     -12.065  53.212  52.590  0.00  0.00    +0.000 HD
ENDBRANCH   3  26
BRANCH   5  28
ATOM     28  N   UNL     1     -10.723  52.959  46.589  0.00  0.00    +0.000 N 
ATOM     29  H   UNL     1     -11.019  52.211  46.022  0.00  0.00    +0.000 HD
BRANCH  28  30
ATOM     30  C   UNL     1      -9.757  53.949  46.104  0.00  0.00    +0.000 C 
BRANCH  30  31
ATOM     31  C   UNL     1      -8.423  53.820  46.810  0.00  0.00    +0.000 A 
ATOM     32  C   UNL     1      -8.010  54.716  47.817  0.00  0.00    +0.000 A 
ATOM     33  C   UNL     1      -7.554  52.783  46.417  0.00  0.00    +0.000 A 
ATOM     34  C   UNL     1      -6.749  54.540  48.411  0.00  0.00    +0.000 A 
ATOM     35  C   UNL     1      -8.850  55.870  48.294  0.00  0.00    +0.000 C 
ATOM     36  C   UNL     1      -6.306  52.625  47.015  0.00  0.00    +0.000 A 
ATOM     37  C   UNL     1      -5.904  53.504  48.012  0.00  0.00    +0.000 A 
ENDBRANCH  30  31
ENDBRANCH  28  30
ENDBRANCH   5  28
TORSDOF 5
ENDMDL
MODEL 6
REMARK VINA RESULT:      -9.1      2.889      8.043
REMARK  Name = 
REMARK  6 active torsions:
REMARK  status: ('A' for Active; 'I' for Inactive)
REMARK    1  A    between atoms: C_6  and  C_10
REMARK    2  A    between atoms: C_14  and  O_18
REMARK    3  A    between atoms: N_17  and  N_20
REMARK    4  A    between atoms: N_20  and  C_23
REMARK    5  A    between atoms: C_23  and  C_26
REMARK    6  A    between atoms: C_28  and  C_31
REMARK                            x       y       z     vdW  Elec       q    Type
REMARK                         _______ _______ _______ _____ _____    ______ ____
ROOT
ATOM      1  C   UNL     1     -10.603  55.786  48.373  0.00  0.00    +0.000 A 
ATOM      2  C   UNL     1      -9.157  55.868  48.750  0.00  0.00    +0.000 A 
ATOM      3  C   UNL     1     -10.979  55.161  47.246  0.00  0.00    +0.000 A 
ATOM      4  O   UNL     1      -8.895  56.432  49.817  0.00  0.00    +0.000 OA
ATOM      5  N   UNL     1      -8.217  55.296  47.886  0.00  0.00    +0.000 N 
ATOM      6  C   UNL     1      -9.983  54.512  46.383  0.00  0.00    +0.000 A 
ATOM      7  C   UNL     1      -8.619  54.582  46.713  0.00  0.00    +0.000 A 
ATOM      8  C   UNL     1     -10.381  53.803  45.236  0.00  0.00    +0.000 A 
ATOM      9  C   UNL     1      -7.684  53.933  45.886  0.00  0.00    +0.000 A 
ATOM     10  C   UNL     1      -9.444  53.157  44.431  0.00  0.00    +0.000 A 
ATOM     11  C   UNL     1      -8.096  53.222  44.757  0.00  0.00    +0.000 A 
ENDROOT
BRANCH   1  17
ATOM     12  S   UNL     1     -13.169  56.096  51.335  0.00  0.00    +0.000 S 
ATOM     13  O   UNL     1     -12.516  56.345  52.605  0.00  0.00    +0.000 OA
ATOM     14  O   UNL     1     -14.283  55.172  51.251  0.00  0.00    +0.000 OA
ATOM     15  N   UNL     1     -12.034  55.601  50.289  0.00  0.00    +0.000 N 
ATOM     16  C   UNL     1     -13.785  57.648  50.791  0.00  0.00    +0.000 A 
ATOM     17  C   UNL     1     -11.631  56.374  49.324  0.00  0.00    +0.000 C 
ATOM     18  C   UNL     1     -13.160  58.249  49.713  0.00  0.00    +0.000 A 
ATOM     19  C   UNL     1     -14.881  58.231  51.434  0.00  0.00    +0.000 A 
ATOM     20  N   UNL     1     -12.061  57.663  49.092  0.00  0.00    +0.000 N 
ATOM     21  C   UNL     1     -13.604  59.514  49.313  0.00  0.00    +0.000 A 
ATOM     22  C   UNL     1     -15.337  59.474  51.003  0.00  0.00    +0.000 A 
ATOM     23  C   UNL     1     -14.690  60.120  49.950  0.00  0.00    +0.000 A 
ATOM     24  H   UNL     1     -11.644  54.702  50.385  0.00  0.00    +0.000 HD
ATOM     25  H   UNL     1     -11.558  58.205  48.442  0.00  0.00    +0.000 HD
ENDBRANCH   1  17
BRANCH   3  26
ATOM     26  O   UNL     1     -12.291  55.035  46.825  0.00  0.00    +0.000 OA
ATOM     27  H   UNL     1     -12.867  54.436  47.258  0.00  0.00    +0.000 HD
ENDBRANCH   3  26
BRANCH   5  28
ATOM     28  N   UNL     1      -6.799  55.380  48.134  0.00  0.00    +0.000 N 
ATOM     29  H   UNL     1      -6.223  55.984  47.612  0.00  0.00    +0.000 HD
BRANCH  28  30
ATOM     30  C   UNL     1      -6.249  54.526  49.192  0.00  0.00    +0.000 C 
BRANCH  30  31
ATOM     31  C   UNL     1      -5.668  53.246  48.632  0.00  0.00    +0.000 A 
ATOM     32  C   UNL     1      -6.364  52.020  48.667  0.00  0.00    +0.000 A 
ATOM     33  C   UNL     1      -4.370  53.281  48.085  0.00  0.00    +0.000 A 
ATOM     34  C   UNL     1      -5.748  50.871  48.144  0.00  0.00    +0.000 A 
ATOM     35  C   UNL     1      -7.743  51.867  49.250  0.00  0.00    +0.000 C 
ATOM     36  C   UNL     1      -3.774  52.131  47.572  0.00  0.00    +0.000 A 
ATOM     37  C   UNL     1      -4.464  50.926  47.602  0.00  0.00    +0.000 A 
ENDBRANCH  30  31
ENDBRANCH  28  30
ENDBRANCH   5  28
TORSDOF 5
ENDMDL
MODEL 7
REMARK VINA RESULT:      -9.1      3.743      7.824
REMARK  Name = 
REMARK  6 active torsions:
REMARK  status: ('A' for Active; 'I' for Inactive)
REMARK    1  A    between atoms: C_6  and  C_10
REMARK    2  A    between atoms: C_14  and  O_18
REMARK    3  A    between atoms: N_17  and  N_20
REMARK    4  A    between atoms: N_20  and  C_23
REMARK    5  A    between atoms: C_23  and  C_26
REMARK    6  A    between atoms: C_28  and  C_31
REMARK                            x       y       z     vdW  Elec       q    Type
REMARK                         _______ _______ _______ _____ _____    ______ ____
ROOT
ATOM      1  C   UNL     1     -12.293  54.461  50.408  0.00  0.00    +0.000 A 
ATOM      2  C   UNL     1     -12.330  54.015  48.981  0.00  0.00    +0.000 A 
ATOM      3  C   UNL     1     -11.590  53.769  51.320  0.00  0.00    +0.000 A 
ATOM      4  O   UNL     1     -12.972  54.722  48.197  0.00  0.00    +0.000 OA
ATOM      5  N   UNL     1     -11.634  52.853  48.634  0.00  0.00    +0.000 N 
ATOM      6  C   UNL     1     -10.814  52.586  50.926  0.00  0.00    +0.000 A 
ATOM      7  C   UNL     1     -10.840  52.145  49.591  0.00  0.00    +0.000 A 
ATOM      8  C   UNL     1     -10.027  51.898  51.866  0.00  0.00    +0.000 A 
ATOM      9  C   UNL     1     -10.070  51.025  49.230  0.00  0.00    +0.000 A 
ATOM     10  C   UNL     1      -9.262  50.794  51.491  0.00  0.00    +0.000 A 
ATOM     11  C   UNL     1      -9.284  50.358  50.172  0.00  0.00    +0.000 A 
ENDROOT
BRANCH   1  17
ATOM     12  S   UNL     1     -14.625  56.982  52.322  0.00  0.00    +0.000 S 
ATOM     13  O   UNL     1     -13.992  57.524  53.508  0.00  0.00    +0.000 OA
ATOM     14  O   UNL     1     -16.021  56.593  52.347  0.00  0.00    +0.000 OA
ATOM     15  N   UNL     1     -13.760  55.694  51.850  0.00  0.00    +0.000 N 
ATOM     16  C   UNL     1     -14.489  58.223  51.087  0.00  0.00    +0.000 A 
ATOM     17  C   UNL     1     -13.017  55.742  50.784  0.00  0.00    +0.000 C 
ATOM     18  C   UNL     1     -13.613  57.999  50.039  0.00  0.00    +0.000 A 
ATOM     19  C   UNL     1     -15.261  59.385  51.174  0.00  0.00    +0.000 A 
ATOM     20  N   UNL     1     -12.842  56.843  49.973  0.00  0.00    +0.000 N 
ATOM     21  C   UNL     1     -13.453  59.009  49.084  0.00  0.00    +0.000 A 
ATOM     22  C   UNL     1     -15.118  60.368  50.198  0.00  0.00    +0.000 A 
ATOM     23  C   UNL     1     -14.206  60.184  49.160  0.00  0.00    +0.000 A 
ATOM     24  H   UNL     1     -13.797  54.865  52.379  0.00  0.00    +0.000 HD
ATOM     25  H   UNL     1     -12.124  56.808  49.300  0.00  0.00    +0.000 HD
ENDBRANCH   1  17
BRANCH   3  26
ATOM     26  O   UNL     1     -11.498  54.112  52.657  0.00  0.00    +0.000 OA
ATOM     27  H   UNL     1     -12.178  53.865  53.253  0.00  0.00    +0.000 HD
ENDBRANCH   3  26
BRANCH   5  28
ATOM     28  N   UNL     1     -11.662  52.313  47.298  0.00  0.00    +0.000 N 
ATOM     29  H   UNL     1     -11.639  51.342  47.138  0.00  0.00    +0.000 HD
BRANCH  28  30
ATOM     30  C   UNL     1     -11.726  53.267  46.186  0.00  0.00    +0.000 C 
BRANCH  30  31
ATOM     31  C   UNL     1     -10.349  53.758  45.792  0.00  0.00    +0.000 A 
ATOM     32  C   UNL     1      -9.665  53.265  44.662  0.00  0.00    +0.000 A 
ATOM     33  C   UNL     1      -9.721  54.720  46.607  0.00  0.00    +0.000 A 
ATOM     34  C   UNL     1      -8.382  53.756  44.373  0.00  0.00    +0.000 A 
ATOM     35  C   UNL     1     -10.236  52.220  43.739  0.00  0.00    +0.000 C 
ATOM     36  C   UNL     1      -8.446  55.195  46.307  0.00  0.00    +0.000 A 
ATOM     37  C   UNL     1      -7.777  54.712  45.189  0.00  0.00    +0.000 A 
ENDBRANCH  30  31
ENDBRANCH  28  30
ENDBRANCH   5  28
TORSDOF 5
ENDMDL
MODEL 8
REMARK VINA RESULT:      -9.0      1.523      2.130
REMARK  Name = 
REMARK  6 active torsions:
REMARK  status: ('A' for Active; 'I' for Inactive)
REMARK    1  A    between atoms: C_6  and  C_10
REMARK    2  A    between atoms: C_14  and  O_18
REMARK    3  A    between atoms: N_17  and  N_20
REMARK    4  A    between atoms: N_20  and  C_23
REMARK    5  A    between atoms: C_23  and  C_26
REMARK    6  A    between atoms: C_28  and  C_31
REMARK                            x       y       z     vdW  Elec       q    Type
REMARK                         _______ _______ _______ _____ _____    ______ ____
ROOT
ATOM      1  C   UNL     1      -8.942  53.768  49.731  0.00  0.00    +0.000 A 
ATOM      2  C   UNL     1      -9.783  54.984  49.958  0.00  0.00    +0.000 A 
ATOM      3  C   UNL     1      -9.032  53.084  48.580  0.00  0.00    +0.000 A 
ATOM      4  O   UNL     1      -9.620  55.578  51.030  0.00  0.00    +0.000 OA
ATOM      5  N   UNL     1     -10.674  55.369  48.950  0.00  0.00    +0.000 N 
ATOM      6  C   UNL     1      -9.927  53.538  47.507  0.00  0.00    +0.000 A 
ATOM      7  C   UNL     1     -10.732  54.673  47.701  0.00  0.00    +0.000 A 
ATOM      8  C   UNL     1      -9.975  52.859  46.277  0.00  0.00    +0.000 A 
ATOM      9  C   UNL     1     -11.563  55.106  46.652  0.00  0.00    +0.000 A 
ATOM     10  C   UNL     1     -10.798  53.304  45.244  0.00  0.00    +0.000 A 
ATOM     11  C   UNL     1     -11.592  54.428  45.432  0.00  0.00    +0.000 A 
ENDROOT
BRANCH   1  17
ATOM     12  S   UNL     1      -7.487  52.397  53.115  0.00  0.00    +0.000 S 
ATOM     13  O   UNL     1      -7.402  50.949  53.131  0.00  0.00    +0.000 OA
ATOM     14  O   UNL     1      -7.938  53.118  54.288  0.00  0.00    +0.000 OA
ATOM     15  N   UNL     1      -8.443  52.818  51.876  0.00  0.00    +0.000 N 
ATOM     16  C   UNL     1      -5.862  52.976  52.785  0.00  0.00    +0.000 A 
ATOM     17  C   UNL     1      -7.948  53.367  50.806  0.00  0.00    +0.000 C 
ATOM     18  C   UNL     1      -5.617  53.537  51.544  0.00  0.00    +0.000 A 
ATOM     19  C   UNL     1      -4.870  52.875  53.764  0.00  0.00    +0.000 A 
ATOM     20  N   UNL     1      -6.612  53.619  50.575  0.00  0.00    +0.000 N 
ATOM     21  C   UNL     1      -4.311  53.944  51.250  0.00  0.00    +0.000 A 
ATOM     22  C   UNL     1      -3.582  53.317  53.472  0.00  0.00    +0.000 A 
ATOM     23  C   UNL     1      -3.301  53.841  52.210  0.00  0.00    +0.000 A 
ATOM     24  H   UNL     1      -9.412  52.656  51.933  0.00  0.00    +0.000 HD
ATOM     25  H   UNL     1      -6.344  53.875  49.662  0.00  0.00    +0.000 HD
ENDBRANCH   1  17
BRANCH   3  26
ATOM     26  O   UNL     1      -8.290  51.953  48.286  0.00  0.00    +0.000 OA
ATOM     27  H   UNL     1      -8.322  51.582  47.426  0.00  0.00    +0.000 HD
ENDBRANCH   3  26
BRANCH   5  28
ATOM     28  N   UNL     1     -11.568  56.490  49.104  0.00  0.00    +0.000 N 
ATOM     29  H   UNL     1     -11.421  57.332  48.616  0.00  0.00    +0.000 HD
BRANCH  28  30
ATOM     30  C   UNL     1     -12.703  56.325  50.017  0.00  0.00    +0.000 C 
BRANCH  30  31
ATOM     31  C   UNL     1     -13.473  57.617  50.190  0.00  0.00    +0.000 A 
ATOM     32  C   UNL     1     -14.202  57.913  51.360  0.00  0.00    +0.000 A 
ATOM     33  C   UNL     1     -13.483  58.539  49.125  0.00  0.00    +0.000 A 
ATOM     34  C   UNL     1     -14.906  59.125  51.437  0.00  0.00    +0.000 A 
ATOM     35  C   UNL     1     -14.277  56.987  52.545  0.00  0.00    +0.000 C 
ATOM     36  C   UNL     1     -14.189  59.736  49.218  0.00  0.00    +0.000 A 
ATOM     37  C   UNL     1     -14.901  60.029  50.374  0.00  0.00    +0.000 A 
ENDBRANCH  30  31
ENDBRANCH  28  30
ENDBRANCH   5  28
TORSDOF 5
ENDMDL
MODEL 9
REMARK VINA RESULT:      -9.0      3.000      7.204
REMARK  Name = 
REMARK  6 active torsions:
REMARK  status: ('A' for Active; 'I' for Inactive)
REMARK    1  A    between atoms: C_6  and  C_10
REMARK    2  A    between atoms: C_14  and  O_18
REMARK    3  A    between atoms: N_17  and  N_20
REMARK    4  A    between atoms: N_20  and  C_23
REMARK    5  A    between atoms: C_23  and  C_26
REMARK    6  A    between atoms: C_28  and  C_31
REMARK                            x       y       z     vdW  Elec       q    Type
REMARK                         _______ _______ _______ _____ _____    ______ ____
ROOT
ATOM      1  C   UNL     1     -11.758  54.805  48.630  0.00  0.00    +0.000 A 
ATOM      2  C   UNL     1     -10.998  53.803  49.440  0.00  0.00    +0.000 A 
ATOM      3  C   UNL     1     -11.655  54.817  47.291  0.00  0.00    +0.000 A 
ATOM      4  O   UNL     1     -11.170  53.836  50.663  0.00  0.00    +0.000 OA
ATOM      5  N   UNL     1     -10.166  52.902  48.766  0.00  0.00    +0.000 N 
ATOM      6  C   UNL     1     -10.826  53.824  46.595  0.00  0.00    +0.000 A 
ATOM      7  C   UNL     1     -10.097  52.878  47.337  0.00  0.00    +0.000 A 
ATOM      8  C   UNL     1     -10.767  53.795  45.191  0.00  0.00    +0.000 A 
ATOM      9  C   UNL     1      -9.329  51.920  46.650  0.00  0.00    +0.000 A 
ATOM     10  C   UNL     1     -10.008  52.834  44.524  0.00  0.00    +0.000 A 
ATOM     11  C   UNL     1      -9.290  51.897  45.254  0.00  0.00    +0.000 A 
ENDROOT
BRANCH   1  17
ATOM     12  S   UNL     1     -14.738  56.141  50.817  0.00  0.00    +0.000 S 
ATOM     13  O   UNL     1     -14.462  56.050  52.238  0.00  0.00    +0.000 OA
ATOM     14  O   UNL     1     -16.049  55.801  50.302  0.00  0.00    +0.000 OA
ATOM     15  N   UNL     1     -13.647  55.222  50.046  0.00  0.00    +0.000 N 
ATOM     16  C   UNL     1     -14.462  57.818  50.375  0.00  0.00    +0.000 A 
ATOM     17  C   UNL     1     -12.689  55.762  49.353  0.00  0.00    +0.000 C 
ATOM     18  C   UNL     1     -13.348  58.108  49.606  0.00  0.00    +0.000 A 
ATOM     19  C   UNL     1     -15.359  58.808  50.786  0.00  0.00    +0.000 A 
ATOM     20  N   UNL     1     -12.457  57.114  49.215  0.00  0.00    +0.000 N 
ATOM     21  C   UNL     1     -13.087  59.449  49.301  0.00  0.00    +0.000 A 
ATOM     22  C   UNL     1     -15.107  60.135  50.445  0.00  0.00    +0.000 A 
ATOM     23  C   UNL     1     -13.965  60.456  49.713  0.00  0.00    +0.000 A 
ATOM     24  H   UNL     1     -13.712  54.242  50.104  0.00  0.00    +0.000 HD
ATOM     25  H   UNL     1     -11.603  57.395  48.813  0.00  0.00    +0.000 HD
ENDBRANCH   1  17
BRANCH   3  26
ATOM     26  O   UNL     1     -12.324  55.704  46.466  0.00  0.00    +0.000 OA
ATOM     27  H   UNL     1     -11.871  56.122  45.761  0.00  0.00    +0.000 HD
ENDBRANCH   3  26
BRANCH   5  28
ATOM     28  N   UNL     1      -9.349  51.943  49.466  0.00  0.00    +0.000 N 
ATOM     29  H   UNL     1      -9.731  51.110  49.825  0.00  0.00    +0.000 HD
BRANCH  28  30
ATOM     30  C   UNL     1      -7.925  52.258  49.621  0.00  0.00    +0.000 C 
BRANCH  30  31
ATOM     31  C   UNL     1      -7.720  53.580  50.329  0.00  0.00    +0.000 A 
ATOM     32  C   UNL     1      -7.332  54.752  49.646  0.00  0.00    +0.000 A 
ATOM     33  C   UNL     1      -7.893  53.627  51.726  0.00  0.00    +0.000 A 
ATOM     34  C   UNL     1      -7.143  55.936  50.377  0.00  0.00    +0.000 A 
ATOM     35  C   UNL     1      -7.096  54.805  48.160  0.00  0.00    +0.000 C 
ATOM     36  C   UNL     1      -7.699  54.811  52.435  0.00  0.00    +0.000 A 
ATOM     37  C   UNL     1      -7.324  55.965  51.760  0.00  0.00    +0.000 A 
ENDBRANCH  30  31
ENDBRANCH  28  30
ENDBRANCH   5  28
TORSDOF 5
ENDMDL
