MODEL 1
REMARK VINA RESULT:      -9.2      0.000      0.000
REMARK  Name = 
REMARK  5 active torsions:
REMARK  status: ('A' for Active; 'I' for Inactive)
REMARK    1  A    between atoms: C_6  and  C_10
REMARK    2  A    between atoms: C_14  and  O_18
REMARK    3  A    between atoms: N_17  and  N_20
REMARK    4  A    between atoms: N_20  and  C_23
REMARK    5  A    between atoms: C_23  and  C_26
REMARK                            x       y       z     vdW  Elec       q    Type
REMARK                         _______ _______ _______ _____ _____    ______ ____
ROOT
ATOM      1  C   UNL     1      -9.138  54.363  49.897  0.00  0.00    +0.000 A 
ATOM      2  C   UNL     1     -10.196  55.414  49.993  0.00  0.00    +0.000 A 
ATOM      3  C   UNL     1      -9.027  53.611  48.789  0.00  0.00    +0.000 A 
ATOM      4  O   UNL     1     -10.264  56.057  51.045  0.00  0.00    +0.000 OA
ATOM      5  N   UNL     1     -11.024  55.619  48.887  0.00  0.00    +0.000 N 
ATOM      6  C   UNL     1      -9.912  53.837  47.637  0.00  0.00    +0.000 A 
ATOM      7  C   UNL     1     -10.898  54.837  47.700  0.00  0.00    +0.000 A 
ATOM      8  C   UNL     1      -9.775  53.074  46.464  0.00  0.00    +0.000 A 
ATOM      9  C   UNL     1     -11.733  55.044  46.588  0.00  0.00    +0.000 A 
ATOM     10  C   UNL     1     -10.599  53.299  45.363  0.00  0.00    +0.000 A 
ATOM     11  C   UNL     1     -11.579  54.283  45.426  0.00  0.00    +0.000 A 
ENDROOT
BRANCH   1  17
ATOM     12  S   UNL     1      -7.744  54.108  53.560  0.00  0.00    +0.000 S 
ATOM     13  O   UNL     1      -7.962  52.799  54.142  0.00  0.00    +0.000 OA
ATOM     14  O   UNL     1      -7.945  55.305  54.354  0.00  0.00    +0.000 OA
ATOM     15  N   UNL     1      -8.682  54.223  52.244  0.00  0.00    +0.000 N 
ATOM     16  C   UNL     1      -6.066  54.143  53.050  0.00  0.00    +0.000 A 
ATOM     17  C   UNL     1      -8.167  54.203  51.050  0.00  0.00    +0.000 C 
ATOM     18  C   UNL     1      -5.802  54.122  51.691  0.00  0.00    +0.000 A 
ATOM     19  C   UNL     1      -5.047  54.204  54.004  0.00  0.00    +0.000 A 
ATOM     20  N   UNL     1      -6.828  54.055  50.752  0.00  0.00    +0.000 N 
ATOM     21  C   UNL     1      -4.466  54.084  51.279  0.00  0.00    +0.000 A 
ATOM     22  C   UNL     1      -3.721  54.204  53.578  0.00  0.00    +0.000 A 
ATOM     23  C   UNL     1      -3.431  54.132  52.216  0.00  0.00    +0.000 A 
ATOM     24  H   UNL     1      -9.657  54.310  52.350  0.00  0.00    +0.000 HD
ATOM     25  H   UNL     1      -6.583  53.892  49.814  0.00  0.00    +0.000 HD
ENDBRANCH   1  17
BRANCH   3  26
ATOM     26  O   UNL     1      -8.087  52.609  48.616  0.00  0.00    +0.000 OA
ATOM     27  H   UNL     1      -7.432  52.692  47.952  0.00  0.00    +0.000 HD
ENDBRANCH   3  26
BRANCH   5  28
ATOM     28  N   UNL     1     -12.115  56.549  48.955  0.00  0.00    +0.000 N 
ATOM     29  H   UNL     1     -12.060  57.454  48.570  0.00  0.00    +0.000 HD
BRANCH  28  30
ATOM     30  C   UNL     1     -13.316  56.061  49.639  0.00  0.00    +0.000 C 
BRANCH  30  31
ATOM     31  C   UNL     1     -13.803  57.066  50.657  0.00  0.00    +0.000 A 
ATOM     32  C   UNL     1     -13.679  56.804  52.031  0.00  0.00    +0.000 A 
ATOM     33  C   UNL     1     -14.403  58.261  50.242  0.00  0.00    +0.000 A 
ATOM     34  C   UNL     1     -14.142  57.726  52.971  0.00  0.00    +0.000 A 
ATOM     35  C   UNL     1     -14.863  59.182  51.185  0.00  0.00    +0.000 A 
ATOM     36  C   UNL     1     -14.735  58.913  52.547  0.00  0.00    +0.000 A 
ENDBRANCH  30  31
ENDBRANCH  28  30
ENDBRANCH   5  28
TORSDOF 5
ENDMDL
MODEL 2
REMARK VINA RESULT:      -8.9      1.588      2.295
REMARK  Name = 
REMARK  5 active torsions:
REMARK  status: ('A' for Active; 'I' for Inactive)
REMARK    1  A    between atoms: C_6  and  C_10
REMARK    2  A    between atoms: C_14  and  O_18
REMARK    3  A    between atoms: N_17  and  N_20
REMARK    4  A    between atoms: N_20  and  C_23
REMARK    5  A    between atoms: C_23  and  C_26
REMARK                            x       y       z     vdW  Elec       q    Type
REMARK                         _______ _______ _______ _____ _____    ______ ____
ROOT
ATOM      1  C   UNL     1      -9.645  54.293  50.141  0.00  0.00    +0.000 A 
ATOM      2  C   UNL     1     -10.657  55.391  50.168  0.00  0.00    +0.000 A 
ATOM      3  C   UNL     1      -9.465  53.562  49.028  0.00  0.00    +0.000 A 
ATOM      4  O   UNL     1     -10.794  56.012  51.227  0.00  0.00    +0.000 OA
ATOM      5  N   UNL     1     -11.368  55.662  48.997  0.00  0.00    +0.000 N 
ATOM      6  C   UNL     1     -10.228  53.857  47.807  0.00  0.00    +0.000 A 
ATOM      7  C   UNL     1     -11.169  54.902  47.805  0.00  0.00    +0.000 A 
ATOM      8  C   UNL     1     -10.017  53.115  46.631  0.00  0.00    +0.000 A 
ATOM      9  C   UNL     1     -11.885  55.174  46.627  0.00  0.00    +0.000 A 
ATOM     10  C   UNL     1     -10.724  53.405  45.465  0.00  0.00    +0.000 A 
ATOM     11  C   UNL     1     -11.659  54.433  45.464  0.00  0.00    +0.000 A 
ENDROOT
BRANCH   1  17
ATOM     12  S   UNL     1      -6.775  54.692  52.793  0.00  0.00    +0.000 S 
ATOM     13  O   UNL     1      -7.023  55.785  53.712  0.00  0.00    +0.000 OA
ATOM     14  O   UNL     1      -5.444  54.470  52.262  0.00  0.00    +0.000 OA
ATOM     15  N   UNL     1      -7.786  54.865  51.540  0.00  0.00    +0.000 N 
ATOM     16  C   UNL     1      -7.203  53.224  53.653  0.00  0.00    +0.000 A 
ATOM     17  C   UNL     1      -8.794  54.060  51.375  0.00  0.00    +0.000 C 
ATOM     18  C   UNL     1      -8.345  52.550  53.252  0.00  0.00    +0.000 A 
ATOM     19  C   UNL     1      -6.394  52.762  54.694  0.00  0.00    +0.000 A 
ATOM     20  N   UNL     1      -9.144  53.025  52.216  0.00  0.00    +0.000 N 
ATOM     21  C   UNL     1      -8.728  51.414  53.975  0.00  0.00    +0.000 A 
ATOM     22  C   UNL     1      -6.768  51.610  55.380  0.00  0.00    +0.000 A 
ATOM     23  C   UNL     1      -7.940  50.942  55.028  0.00  0.00    +0.000 A 
ATOM     24  H   UNL     1      -7.635  55.591  50.892  0.00  0.00    +0.000 HD
ATOM     25  H   UNL     1     -10.017  52.594  52.074  0.00  0.00    +0.000 HD
ENDBRANCH   1  17
BRANCH   3  26
ATOM     26  O   UNL     1      -8.560  52.521  48.916  0.00  0.00    +0.000 OA
ATOM     27  H   UNL     1      -8.617  51.928  48.193  0.00  0.00    +0.000 HD
ENDBRANCH   3  26
BRANCH   5  28
ATOM     28  N   UNL     1     -12.417  56.641  48.990  0.00  0.00    +0.000 N 
ATOM     29  H   UNL     1     -12.292  57.543  48.615  0.00  0.00    +0.000 HD
BRANCH  28  30
ATOM     30  C   UNL     1     -13.688  56.207  49.580  0.00  0.00    +0.000 C 
BRANCH  30  31
ATOM     31  C   UNL     1     -14.144  57.174  50.647  0.00  0.00    +0.000 A 
ATOM     32  C   UNL     1     -14.566  58.468  50.302  0.00  0.00    +0.000 A 
ATOM     33  C   UNL     1     -14.134  56.797  51.996  0.00  0.00    +0.000 A 
ATOM     34  C   UNL     1     -14.974  59.366  51.290  0.00  0.00    +0.000 A 
ATOM     35  C   UNL     1     -14.545  57.697  52.981  0.00  0.00    +0.000 A 
ATOM     36  C   UNL     1     -14.961  58.979  52.628  0.00  0.00    +0.000 A 
ENDBRANCH  30  31
ENDBRANCH  28  30
ENDBRANCH   5  28
TORSDOF 5
ENDMDL
MODEL 3
REMARK VINA RESULT:      -8.9      3.164      8.574
REMARK  Name = 
REMARK  5 active torsions:
REMARK  status: ('A' for Active; 'I' for Inactive)
REMARK    1  A    between atoms: C_6  and  C_10
REMARK    2  A    between atoms: C_14  and  O_18
REMARK    3  A    between atoms: N_17  and  N_20
REMARK    4  A    between atoms: N_20  and  C_23
REMARK    5  A    between atoms: C_23  and  C_26
REMARK                            x       y       z     vdW  Elec       q    Type
REMARK                         _______ _______ _______ _____ _____    ______ ____
ROOT
ATOM      1  C   UNL     1     -10.110  54.558  52.220  0.00  0.00    +0.000 A 
ATOM      2  C   UNL     1      -8.747  55.137  52.023  0.00  0.00    +0.000 A 
ATOM      3  C   UNL     1     -10.277  53.449  52.959  0.00  0.00    +0.000 A 
ATOM      4  O   UNL     1      -8.653  56.144  51.314  0.00  0.00    +0.000 OA
ATOM      5  N   UNL     1      -7.670  54.521  52.667  0.00  0.00    +0.000 N 
ATOM      6  C   UNL     1      -9.131  52.811  53.623  0.00  0.00    +0.000 A 
ATOM      7  C   UNL     1      -7.844  53.354  53.469  0.00  0.00    +0.000 A 
ATOM      8  C   UNL     1      -9.309  51.670  54.425  0.00  0.00    +0.000 A 
ATOM      9  C   UNL     1      -6.760  52.735  54.115  0.00  0.00    +0.000 A 
ATOM     10  C   UNL     1      -8.228  51.074  55.072  0.00  0.00    +0.000 A 
ATOM     11  C   UNL     1      -6.953  51.606  54.915  0.00  0.00    +0.000 A 
ENDROOT
BRANCH   1  17
ATOM     12  S   UNL     1     -12.578  56.036  49.545  0.00  0.00    +0.000 S 
ATOM     13  O   UNL     1     -13.476  55.032  49.010  0.00  0.00    +0.000 OA
ATOM     14  O   UNL     1     -11.977  57.022  48.667  0.00  0.00    +0.000 OA
ATOM     15  N   UNL     1     -11.380  55.264  50.315  0.00  0.00    +0.000 N 
ATOM     16  C   UNL     1     -13.505  56.942  50.727  0.00  0.00    +0.000 A 
ATOM     17  C   UNL     1     -11.299  55.279  51.613  0.00  0.00    +0.000 C 
ATOM     18  C   UNL     1     -13.191  56.769  52.065  0.00  0.00    +0.000 A 
ATOM     19  C   UNL     1     -14.510  57.815  50.306  0.00  0.00    +0.000 A 
ATOM     20  N   UNL     1     -12.189  55.891  52.469  0.00  0.00    +0.000 N 
ATOM     21  C   UNL     1     -13.969  57.439  53.016  0.00  0.00    +0.000 A 
ATOM     22  C   UNL     1     -15.252  58.504  51.262  0.00  0.00    +0.000 A 
ATOM     23  C   UNL     1     -14.988  58.307  52.617  0.00  0.00    +0.000 A 
ATOM     24  H   UNL     1     -10.703  54.776  49.792  0.00  0.00    +0.000 HD
ATOM     25  H   UNL     1     -12.111  55.694  53.430  0.00  0.00    +0.000 HD
ENDBRANCH   1  17
BRANCH   3  26
ATOM     26  O   UNL     1     -11.499  52.838  53.185  0.00  0.00    +0.000 OA
ATOM     27  H   UNL     1     -11.533  51.928  53.402  0.00  0.00    +0.000 HD
ENDBRANCH   3  26
BRANCH   5  28
ATOM     28  N   UNL     1      -6.328  54.977  52.440  0.00  0.00    +0.000 N 
ATOM     29  H   UNL     1      -5.811  55.452  53.130  0.00  0.00    +0.000 HD
BRANCH  28  30
ATOM     30  C   UNL     1      -5.781  54.686  51.111  0.00  0.00    +0.000 C 
BRANCH  30  31
ATOM     31  C   UNL     1      -5.138  53.320  51.079  0.00  0.00    +0.000 A 
ATOM     32  C   UNL     1      -5.799  52.237  50.476  0.00  0.00    +0.000 A 
ATOM     33  C   UNL     1      -3.885  53.111  51.668  0.00  0.00    +0.000 A 
ATOM     34  C   UNL     1      -5.211  50.971  50.459  0.00  0.00    +0.000 A 
ATOM     35  C   UNL     1      -3.300  51.844  51.648  0.00  0.00    +0.000 A 
ATOM     36  C   UNL     1      -3.963  50.776  51.047  0.00  0.00    +0.000 A 
ENDBRANCH  30  31
ENDBRANCH  28  30
ENDBRANCH   5  28
TORSDOF 5
ENDMDL
MODEL 4
REMARK VINA RESULT:      -8.9      2.920      7.678
REMARK  Name = 
REMARK  5 active torsions:
REMARK  status: ('A' for Active; 'I' for Inactive)
REMARK    1  A    between atoms: C_6  and  C_10
REMARK    2  A    between atoms: C_14  and  O_18
REMARK    3  A    between atoms: N_17  and  N_20
REMARK    4  A    between atoms: N_20  and  C_23
REMARK    5  A    between atoms: C_23  and  C_26
REMARK                            x       y       z     vdW  Elec       q    Type
REMARK                         _______ _______ _______ _____ _____    ______ ____
ROOT
ATOM      1  C   UNL     1     -11.172  54.585  50.759  0.00  0.00    +0.000 A 
ATOM      2  C   UNL     1      -9.794  54.946  50.308  0.00  0.00    +0.000 A 
ATOM      3  C   UNL     1     -11.427  53.359  51.249  0.00  0.00    +0.000 A 
ATOM      4  O   UNL     1      -9.627  56.079  49.845  0.00  0.00    +0.000 OA
ATOM      5  N   UNL     1      -8.781  53.996  50.456  0.00  0.00    +0.000 N 
ATOM      6  C   UNL     1     -10.349  52.370  51.391  0.00  0.00    +0.000 A 
ATOM      7  C   UNL     1      -9.041  52.699  50.993  0.00  0.00    +0.000 A 
ATOM      8  C   UNL     1     -10.606  51.099  51.934  0.00  0.00    +0.000 A 
ATOM      9  C   UNL     1      -8.021  51.744  51.141  0.00  0.00    +0.000 A 
ATOM     10  C   UNL     1      -9.583  50.166  52.089  0.00  0.00    +0.000 A 
ATOM     11  C   UNL     1      -8.291  50.488  51.690  0.00  0.00    +0.000 A 
ENDROOT
BRANCH   1  17
ATOM     12  S   UNL     1     -13.611  57.318  49.342  0.00  0.00    +0.000 S 
ATOM     13  O   UNL     1     -14.758  56.739  48.672  0.00  0.00    +0.000 OA
ATOM     14  O   UNL     1     -12.940  58.474  48.778  0.00  0.00    +0.000 OA
ATOM     15  N   UNL     1     -12.507  56.148  49.529  0.00  0.00    +0.000 N 
ATOM     16  C   UNL     1     -14.170  57.812  50.930  0.00  0.00    +0.000 A 
ATOM     17  C   UNL     1     -12.256  55.644  50.701  0.00  0.00    +0.000 C 
ATOM     18  C   UNL     1     -13.728  57.088  52.025  0.00  0.00    +0.000 A 
ATOM     19  C   UNL     1     -15.022  58.911  51.060  0.00  0.00    +0.000 A 
ATOM     20  N   UNL     1     -12.883  55.991  51.879  0.00  0.00    +0.000 N 
ATOM     21  C   UNL     1     -14.222  57.436  53.287  0.00  0.00    +0.000 A 
ATOM     22  C   UNL     1     -15.476  59.269  52.328  0.00  0.00    +0.000 A 
ATOM     23  C   UNL     1     -15.084  58.524  53.439  0.00  0.00    +0.000 A 
ATOM     24  H   UNL     1     -12.018  55.813  48.742  0.00  0.00    +0.000 HD
ATOM     25  H   UNL     1     -12.723  55.426  52.668  0.00  0.00    +0.000 HD
ENDBRANCH   1  17
BRANCH   3  26
ATOM     26  O   UNL     1     -12.672  52.934  51.679  0.00  0.00    +0.000 OA
ATOM     27  H   UNL     1     -13.059  53.317  52.441  0.00  0.00    +0.000 HD
ENDBRANCH   3  26
BRANCH   5  28
ATOM     28  N   UNL     1      -7.461  54.254  49.956  0.00  0.00    +0.000 N 
ATOM     29  H   UNL     1      -7.078  53.754  49.199  0.00  0.00    +0.000 HD
BRANCH  28  30
ATOM     30  C   UNL     1      -6.720  55.312  50.650  0.00  0.00    +0.000 C 
BRANCH  30  31
ATOM     31  C   UNL     1      -6.500  54.953  52.101  0.00  0.00    +0.000 A 
ATOM     32  C   UNL     1      -7.303  55.521  53.104  0.00  0.00    +0.000 A 
ATOM     33  C   UNL     1      -5.481  54.066  52.465  0.00  0.00    +0.000 A 
ATOM     34  C   UNL     1      -7.091  55.200  54.445  0.00  0.00    +0.000 A 
ATOM     35  C   UNL     1      -5.272  53.746  53.808  0.00  0.00    +0.000 A 
ATOM     36  C   UNL     1      -6.075  54.314  54.796  0.00  0.00    +0.000 A 
ENDBRANCH  30  31
ENDBRANCH  28  30
ENDBRANCH   5  28
TORSDOF 5
ENDMDL
MODEL 5
REMARK VINA RESULT:      -8.8      2.531      7.384
REMARK  Name = 
REMARK  5 active torsions:
REMARK  status: ('A' for Active; 'I' for Inactive)
REMARK    1  A    between atoms: C_6  and  C_10
REMARK    2  A    between atoms: C_14  and  O_18
REMARK    3  A    between atoms: N_17  and  N_20
REMARK    4  A    between atoms: N_20  and  C_23
REMARK    5  A    between atoms: C_23  and  C_26
REMARK                            x       y       z     vdW  Elec       q    Type
REMARK                         _______ _______ _______ _____ _____    ______ ____
ROOT
ATOM      1  C   UNL     1     -11.381  56.001  48.912  0.00  0.00    +0.000 A 
ATOM      2  C   UNL     1     -10.324  55.435  49.803  0.00  0.00    +0.000 A 
ATOM      3  C   UNL     1     -11.454  55.629  47.623  0.00  0.00    +0.000 A 
ATOM      4  O   UNL     1     -10.291  55.834  50.972  0.00  0.00    +0.000 OA
ATOM      5  N   UNL     1      -9.454  54.480  49.270  0.00  0.00    +0.000 N 
ATOM      6  C   UNL     1     -10.527  54.627  47.078  0.00  0.00    +0.000 A 
ATOM      7  C   UNL     1      -9.539  54.066  47.906  0.00  0.00    +0.000 A 
ATOM      8  C   UNL     1     -10.623  54.211  45.738  0.00  0.00    +0.000 A 
ATOM      9  C   UNL     1      -8.664  53.106  47.371  0.00  0.00    +0.000 A 
ATOM     10  C   UNL     1      -9.758  53.248  45.224  0.00  0.00    +0.000 A 
ATOM     11  C   UNL     1      -8.777  52.696  46.040  0.00  0.00    +0.000 A 
ENDROOT
BRANCH   1  17
ATOM     12  S   UNL     1     -13.554  59.226  49.464  0.00  0.00    +0.000 S 
ATOM     13  O   UNL     1     -14.685  59.290  48.559  0.00  0.00    +0.000 OA
ATOM     14  O   UNL     1     -12.781  60.418  49.754  0.00  0.00    +0.000 OA
ATOM     15  N   UNL     1     -12.536  58.100  48.900  0.00  0.00    +0.000 N 
ATOM     16  C   UNL     1     -14.191  58.678  51.004  0.00  0.00    +0.000 A 
ATOM     17  C   UNL     1     -12.395  56.959  49.508  0.00  0.00    +0.000 C 
ATOM     18  C   UNL     1     -13.866  57.396  51.418  0.00  0.00    +0.000 A 
ATOM     19  C   UNL     1     -14.984  59.530  51.776  0.00  0.00    +0.000 A 
ATOM     20  N   UNL     1     -13.079  56.556  50.635  0.00  0.00    +0.000 N 
ATOM     21  C   UNL     1     -14.423  56.929  52.614  0.00  0.00    +0.000 A 
ATOM     22  C   UNL     1     -15.501  59.064  52.983  0.00  0.00    +0.000 A 
ATOM     23  C   UNL     1     -15.229  57.760  53.396  0.00  0.00    +0.000 A 
ATOM     24  H   UNL     1     -12.016  58.282  48.084  0.00  0.00    +0.000 HD
ATOM     25  H   UNL     1     -13.006  55.613  50.904  0.00  0.00    +0.000 HD
ENDBRANCH   1  17
BRANCH   3  26
ATOM     26  O   UNL     1     -12.391  56.109  46.724  0.00  0.00    +0.000 OA
ATOM     27  H   UNL     1     -12.305  56.974  46.376  0.00  0.00    +0.000 HD
ENDBRANCH   3  26
BRANCH   5  28
ATOM     28  N   UNL     1      -8.363  53.971  50.050  0.00  0.00    +0.000 N 
ATOM     29  H   UNL     1      -8.409  53.105  50.516  0.00  0.00    +0.000 HD
BRANCH  28  30
ATOM     30  C   UNL     1      -7.175  54.830  50.107  0.00  0.00    +0.000 C 
BRANCH  30  31
ATOM     31  C   UNL     1      -6.606  54.871  51.506  0.00  0.00    +0.000 A 
ATOM     32  C   UNL     1      -7.325  55.479  52.549  0.00  0.00    +0.000 A 
ATOM     33  C   UNL     1      -5.348  54.321  51.776  0.00  0.00    +0.000 A 
ATOM     34  C   UNL     1      -6.793  55.530  53.838  0.00  0.00    +0.000 A 
ATOM     35  C   UNL     1      -4.820  54.371  53.067  0.00  0.00    +0.000 A 
ATOM     36  C   UNL     1      -5.540  54.977  54.095  0.00  0.00    +0.000 A 
ENDBRANCH  30  31
ENDBRANCH  28  30
ENDBRANCH   5  28
TORSDOF 5
ENDMDL
MODEL 6
REMARK VINA RESULT:      -8.8      2.097      5.634
REMARK  Name = 
REMARK  5 active torsions:
REMARK  status: ('A' for Active; 'I' for Inactive)
REMARK    1  A    between atoms: C_6  and  C_10
REMARK    2  A    between atoms: C_14  and  O_18
REMARK    3  A    between atoms: N_17  and  N_20
REMARK    4  A    between atoms: N_20  and  C_23
REMARK    5  A    between atoms: C_23  and  C_26
REMARK                            x       y       z     vdW  Elec       q    Type
REMARK                         _______ _______ _______ _____ _____    ______ ____
ROOT
ATOM      1  C   UNL     1     -10.422  55.195  50.940  0.00  0.00    +0.000 A 
ATOM      2  C   UNL     1     -10.124  55.093  49.479  0.00  0.00    +0.000 A 
ATOM      3  C   UNL     1     -11.590  55.710  51.360  0.00  0.00    +0.000 A 
ATOM      4  O   UNL     1      -9.024  54.633  49.154  0.00  0.00    +0.000 OA
ATOM      5  N   UNL     1     -11.108  55.501  48.575  0.00  0.00    +0.000 N 
ATOM      6  C   UNL     1     -12.611  56.139  50.394  0.00  0.00    +0.000 A 
ATOM      7  C   UNL     1     -12.358  56.030  49.015  0.00  0.00    +0.000 A 
ATOM      8  C   UNL     1     -13.847  56.647  50.832  0.00  0.00    +0.000 A 
ATOM      9  C   UNL     1     -13.347  56.441  48.105  0.00  0.00    +0.000 A 
ATOM     10  C   UNL     1     -14.824  57.037  49.919  0.00  0.00    +0.000 A 
ATOM     11  C   UNL     1     -14.574  56.936  48.556  0.00  0.00    +0.000 A 
ENDROOT
BRANCH   1  17
ATOM     12  S   UNL     1      -7.058  54.735  52.913  0.00  0.00    +0.000 S 
ATOM     13  O   UNL     1      -6.893  55.725  53.960  0.00  0.00    +0.000 OA
ATOM     14  O   UNL     1      -5.931  54.355  52.082  0.00  0.00    +0.000 OA
ATOM     15  N   UNL     1      -8.244  55.245  51.936  0.00  0.00    +0.000 N 
ATOM     16  C   UNL     1      -7.587  53.265  53.710  0.00  0.00    +0.000 A 
ATOM     17  C   UNL     1      -9.404  54.657  51.927  0.00  0.00    +0.000 C 
ATOM     18  C   UNL     1      -8.897  52.859  53.513  0.00  0.00    +0.000 A 
ATOM     19  C   UNL     1      -6.694  52.537  54.500  0.00  0.00    +0.000 A 
ATOM     20  N   UNL     1      -9.777  53.598  52.728  0.00  0.00    +0.000 N 
ATOM     21  C   UNL     1      -9.345  51.723  54.197  0.00  0.00    +0.000 A 
ATOM     22  C   UNL     1      -7.144  51.387  55.145  0.00  0.00    +0.000 A 
ATOM     23  C   UNL     1      -8.472  50.987  55.002  0.00  0.00    +0.000 A 
ATOM     24  H   UNL     1      -8.085  56.012  51.340  0.00  0.00    +0.000 HD
ATOM     25  H   UNL     1     -10.729  53.349  52.744  0.00  0.00    +0.000 HD
ENDBRANCH   1  17
BRANCH   3  26
ATOM     26  O   UNL     1     -11.946  55.852  52.690  0.00  0.00    +0.000 OA
ATOM     27  H   UNL     1     -12.320  56.657  52.991  0.00  0.00    +0.000 HD
ENDBRANCH   3  26
BRANCH   5  28
ATOM     28  N   UNL     1     -10.843  55.512  47.165  0.00  0.00    +0.000 N 
ATOM     29  H   UNL     1     -10.281  56.201  46.741  0.00  0.00    +0.000 HD
BRANCH  28  30
ATOM     30  C   UNL     1     -11.468  54.430  46.398  0.00  0.00    +0.000 C 
BRANCH  30  31
ATOM     31  C   UNL     1     -10.502  53.859  45.386  0.00  0.00    +0.000 A 
ATOM     32  C   UNL     1      -9.125  54.110  45.497  0.00  0.00    +0.000 A 
ATOM     33  C   UNL     1     -10.970  53.089  44.314  0.00  0.00    +0.000 A 
ATOM     34  C   UNL     1      -8.234  53.594  44.554  0.00  0.00    +0.000 A 
ATOM     35  C   UNL     1     -10.077  52.574  43.375  0.00  0.00    +0.000 A 
ATOM     36  C   UNL     1      -8.711  52.828  43.493  0.00  0.00    +0.000 A 
ENDBRANCH  30  31
ENDBRANCH  28  30
ENDBRANCH   5  28
TORSDOF 5
ENDMDL
MODEL 7
REMARK VINA RESULT:      -8.6      3.188      8.164
REMARK  Name = 
REMARK  5 active torsions:
REMARK  status: ('A' for Active; 'I' for Inactive)
REMARK    1  A    between atoms: C_6  and  C_10
REMARK    2  A    between atoms: C_14  and  O_18
REMARK    3  A    between atoms: N_17  and  N_20
REMARK    4  A    between atoms: N_20  and  C_23
REMARK    5  A    between atoms: C_23  and  C_26
REMARK                            x       y       z     vdW  Elec       q    Type
REMARK                         _______ _______ _______ _____ _____    ______ ____
ROOT
ATOM      1  C   UNL     1     -11.339  53.945  51.611  0.00  0.00    +0.000 A 
ATOM      2  C   UNL     1     -10.367  54.132  52.730  0.00  0.00    +0.000 A 
ATOM      3  C   UNL     1     -11.477  52.744  51.024  0.00  0.00    +0.000 A 
ATOM      4  O   UNL     1     -10.267  55.264  53.214  0.00  0.00    +0.000 OA
ATOM      5  N   UNL     1      -9.650  53.018  53.174  0.00  0.00    +0.000 N 
ATOM      6  C   UNL     1     -10.709  51.585  51.500  0.00  0.00    +0.000 A 
ATOM      7  C   UNL     1      -9.806  51.735  52.568  0.00  0.00    +0.000 A 
ATOM      8  C   UNL     1     -10.876  50.319  50.910  0.00  0.00    +0.000 A 
ATOM      9  C   UNL     1      -9.083  50.615  53.014  0.00  0.00    +0.000 A 
ATOM     10  C   UNL     1     -10.164  49.214  51.372  0.00  0.00    +0.000 A 
ATOM     11  C   UNL     1      -9.266  49.362  52.422  0.00  0.00    +0.000 A 
ENDROOT
BRANCH   1  17
ATOM     12  S   UNL     1     -12.919  56.778  49.397  0.00  0.00    +0.000 S 
ATOM     13  O   UNL     1     -13.957  56.276  48.518  0.00  0.00    +0.000 OA
ATOM     14  O   UNL     1     -11.962  57.756  48.915  0.00  0.00    +0.000 OA
ATOM     15  N   UNL     1     -12.088  55.504  49.954  0.00  0.00    +0.000 N 
ATOM     16  C   UNL     1     -13.745  57.536  50.746  0.00  0.00    +0.000 A 
ATOM     17  C   UNL     1     -12.198  55.122  51.192  0.00  0.00    +0.000 C 
ATOM     18  C   UNL     1     -13.689  56.903  51.977  0.00  0.00    +0.000 A 
ATOM     19  C   UNL     1     -14.419  58.746  50.563  0.00  0.00    +0.000 A 
ATOM     20  N   UNL     1     -13.018  55.694  52.143  0.00  0.00    +0.000 N 
ATOM     21  C   UNL     1     -14.399  57.468  53.041  0.00  0.00    +0.000 A 
ATOM     22  C   UNL     1     -15.091  59.316  51.641  0.00  0.00    +0.000 A 
ATOM     23  C   UNL     1     -15.090  58.671  52.877  0.00  0.00    +0.000 A 
ATOM     24  H   UNL     1     -11.490  55.012  49.346  0.00  0.00    +0.000 HD
ATOM     25  H   UNL     1     -13.136  55.216  52.994  0.00  0.00    +0.000 HD
ENDBRANCH   1  17
BRANCH   3  26
ATOM     26  O   UNL     1     -12.342  52.482  49.976  0.00  0.00    +0.000 OA
ATOM     27  H   UNL     1     -13.089  51.934  50.113  0.00  0.00    +0.000 HD
ENDBRANCH   3  26
BRANCH   5  28
ATOM     28  N   UNL     1      -8.637  53.156  54.181  0.00  0.00    +0.000 N 
ATOM     29  H   UNL     1      -8.745  52.792  55.089  0.00  0.00    +0.000 HD
BRANCH  28  30
ATOM     30  C   UNL     1      -7.430  53.878  53.765  0.00  0.00    +0.000 C 
BRANCH  30  31
ATOM     31  C   UNL     1      -6.420  52.935  53.156  0.00  0.00    +0.000 A 
ATOM     32  C   UNL     1      -5.590  52.154  53.977  0.00  0.00    +0.000 A 
ATOM     33  C   UNL     1      -6.285  52.842  51.765  0.00  0.00    +0.000 A 
ATOM     34  C   UNL     1      -4.647  51.293  53.414  0.00  0.00    +0.000 A 
ATOM     35  C   UNL     1      -5.343  51.979  51.206  0.00  0.00    +0.000 A 
ATOM     36  C   UNL     1      -4.524  51.208  52.029  0.00  0.00    +0.000 A 
ENDBRANCH  30  31
ENDBRANCH  28  30
ENDBRANCH   5  28
TORSDOF 5
ENDMDL
MODEL 8
REMARK VINA RESULT:      -8.6      1.868      5.435
REMARK  Name = 
REMARK  5 active torsions:
REMARK  status: ('A' for Active; 'I' for Inactive)
REMARK    1  A    between atoms: C_6  and  C_10
REMARK    2  A    between atoms: C_14  and  O_18
REMARK    3  A    between atoms: N_17  and  N_20
REMARK    4  A    between atoms: N_20  and  C_23
REMARK    5  A    between atoms: C_23  and  C_26
REMARK                            x       y       z     vdW  Elec       q    Type
REMARK                         _______ _______ _______ _____ _____    ______ ____
ROOT
ATOM      1  C   UNL     1     -10.574  54.959  50.689  0.00  0.00    +0.000 A 
ATOM      2  C   UNL     1     -10.309  54.880  49.221  0.00  0.00    +0.000 A 
ATOM      3  C   UNL     1     -11.637  55.637  51.152  0.00  0.00    +0.000 A 
ATOM      4  O   UNL     1      -9.303  54.262  48.857  0.00  0.00    +0.000 OA
ATOM      5  N   UNL     1     -11.220  55.487  48.353  0.00  0.00    +0.000 N 
ATOM      6  C   UNL     1     -12.581  56.275  50.224  0.00  0.00    +0.000 A 
ATOM      7  C   UNL     1     -12.362  56.193  48.838  0.00  0.00    +0.000 A 
ATOM      8  C   UNL     1     -13.713  56.957  50.705  0.00  0.00    +0.000 A 
ATOM      9  C   UNL     1     -13.278  56.803  47.964  0.00  0.00    +0.000 A 
ATOM     10  C   UNL     1     -14.621  57.546  49.827  0.00  0.00    +0.000 A 
ATOM     11  C   UNL     1     -14.402  57.471  48.456  0.00  0.00    +0.000 A 
ENDROOT
BRANCH   1  17
ATOM     12  S   UNL     1      -9.209  52.205  53.134  0.00  0.00    +0.000 S 
ATOM     13  O   UNL     1      -8.696  51.047  52.429  0.00  0.00    +0.000 OA
ATOM     14  O   UNL     1     -10.001  52.036  54.338  0.00  0.00    +0.000 OA
ATOM     15  N   UNL     1     -10.082  53.073  52.083  0.00  0.00    +0.000 N 
ATOM     16  C   UNL     1      -7.808  53.149  53.607  0.00  0.00    +0.000 A 
ATOM     17  C   UNL     1      -9.650  54.215  51.634  0.00  0.00    +0.000 C 
ATOM     18  C   UNL     1      -7.591  54.353  52.956  0.00  0.00    +0.000 A 
ATOM     19  C   UNL     1      -6.963  52.689  54.619  0.00  0.00    +0.000 A 
ATOM     20  N   UNL     1      -8.439  54.796  51.945  0.00  0.00    +0.000 N 
ATOM     21  C   UNL     1      -6.441  55.080  53.282  0.00  0.00    +0.000 A 
ATOM     22  C   UNL     1      -5.842  53.442  54.960  0.00  0.00    +0.000 A 
ATOM     23  C   UNL     1      -5.575  54.631  54.283  0.00  0.00    +0.000 A 
ATOM     24  H   UNL     1     -10.955  52.733  51.780  0.00  0.00    +0.000 HD
ATOM     25  H   UNL     1      -8.156  55.577  51.417  0.00  0.00    +0.000 HD
ENDBRANCH   1  17
BRANCH   3  26
ATOM     26  O   UNL     1     -11.953  55.772  52.493  0.00  0.00    +0.000 OA
ATOM     27  H   UNL     1     -12.712  56.259  52.748  0.00  0.00    +0.000 HD
ENDBRANCH   3  26
BRANCH   5  28
ATOM     28  N   UNL     1     -10.969  55.523  46.940  0.00  0.00    +0.000 N 
ATOM     29  H   UNL     1     -10.422  56.226  46.521  0.00  0.00    +0.000 HD
BRANCH  28  30
ATOM     30  C   UNL     1     -11.583  54.441  46.164  0.00  0.00    +0.000 C 
BRANCH  30  31
ATOM     31  C   UNL     1     -10.576  53.806  45.235  0.00  0.00    +0.000 A 
ATOM     32  C   UNL     1      -9.206  54.082  45.374  0.00  0.00    +0.000 A 
ATOM     33  C   UNL     1     -10.997  52.949  44.210  0.00  0.00    +0.000 A 
ATOM     34  C   UNL     1      -8.276  53.506  44.507  0.00  0.00    +0.000 A 
ATOM     35  C   UNL     1     -10.065  52.374  43.346  0.00  0.00    +0.000 A 
ATOM     36  C   UNL     1      -8.708  52.654  43.492  0.00  0.00    +0.000 A 
ENDBRANCH  30  31
ENDBRANCH  28  30
ENDBRANCH   5  28
TORSDOF 5
ENDMDL
MODEL 9
REMARK VINA RESULT:      -8.6      2.492      7.006
REMARK  Name = 
REMARK  5 active torsions:
REMARK  status: ('A' for Active; 'I' for Inactive)
REMARK    1  A    between atoms: C_6  and  C_10
REMARK    2  A    between atoms: C_14  and  O_18
REMARK    3  A    between atoms: N_17  and  N_20
REMARK    4  A    between atoms: N_20  and  C_23
REMARK    5  A    between atoms: C_23  and  C_26
REMARK                            x       y       z     vdW  Elec       q    Type
REMARK                         _______ _______ _______ _____ _____    ______ ____
ROOT
ATOM      1  C   UNL     1     -10.679  55.607  48.144  0.00  0.00    +0.000 A 
ATOM      2  C   UNL     1      -9.213  55.661  48.426  0.00  0.00    +0.000 A 
ATOM      3  C   UNL     1     -11.135  54.993  47.039  0.00  0.00    +0.000 A 
ATOM      4  O   UNL     1      -8.852  56.260  49.445  0.00  0.00    +0.000 OA
ATOM      5  N   UNL     1      -8.346  55.019  47.539  0.00  0.00    +0.000 N 
ATOM      6  C   UNL     1     -10.206  54.328  46.114  0.00  0.00    +0.000 A 
ATOM      7  C   UNL     1      -8.825  54.348  46.374  0.00  0.00    +0.000 A 
ATOM      8  C   UNL     1     -10.685  53.656  44.974  0.00  0.00    +0.000 A 
ATOM      9  C   UNL     1      -7.952  53.703  45.483  0.00  0.00    +0.000 A 
ATOM     10  C   UNL     1      -9.809  53.007  44.106  0.00  0.00    +0.000 A 
ATOM     11  C   UNL     1      -8.442  53.032  44.359  0.00  0.00    +0.000 A 
ENDROOT
BRANCH   1  17
ATOM     12  S   UNL     1     -13.031  55.958  51.270  0.00  0.00    +0.000 S 
ATOM     13  O   UNL     1     -12.290  56.193  52.493  0.00  0.00    +0.000 OA
ATOM     14  O   UNL     1     -14.163  55.051  51.263  0.00  0.00    +0.000 OA
ATOM     15  N   UNL     1     -11.980  55.446  50.149  0.00  0.00    +0.000 N 
ATOM     16  C   UNL     1     -13.659  57.518  50.771  0.00  0.00    +0.000 A 
ATOM     17  C   UNL     1     -11.636  56.210  49.154  0.00  0.00    +0.000 C 
ATOM     18  C   UNL     1     -13.104  58.109  49.648  0.00  0.00    +0.000 A 
ATOM     19  C   UNL     1     -14.696  58.117  51.490  0.00  0.00    +0.000 A 
ATOM     20  N   UNL     1     -12.066  57.503  48.944  0.00  0.00    +0.000 N 
ATOM     21  C   UNL     1     -13.554  59.382  49.282  0.00  0.00    +0.000 A 
ATOM     22  C   UNL     1     -15.161  59.368  51.092  0.00  0.00    +0.000 A 
ATOM     23  C   UNL     1     -14.582  60.005  49.995  0.00  0.00    +0.000 A 
ATOM     24  H   UNL     1     -11.595  54.542  50.222  0.00  0.00    +0.000 HD
ATOM     25  H   UNL     1     -11.611  58.031  48.251  0.00  0.00    +0.000 HD
ENDBRANCH   1  17
BRANCH   3  26
ATOM     26  O   UNL     1     -12.472  54.903  46.691  0.00  0.00    +0.000 OA
ATOM     27  H   UNL     1     -12.999  55.677  46.656  0.00  0.00    +0.000 HD
ENDBRANCH   3  26
BRANCH   5  28
ATOM     28  N   UNL     1      -6.924  55.117  47.710  0.00  0.00    +0.000 N 
ATOM     29  H   UNL     1      -6.424  55.938  47.497  0.00  0.00    +0.000 HD
BRANCH  28  30
ATOM     30  C   UNL     1      -6.266  53.910  48.221  0.00  0.00    +0.000 C 
BRANCH  30  31
ATOM     31  C   UNL     1      -6.456  53.785  49.714  0.00  0.00    +0.000 A 
ATOM     32  C   UNL     1      -7.355  52.843  50.241  0.00  0.00    +0.000 A 
ATOM     33  C   UNL     1      -5.752  54.618  50.591  0.00  0.00    +0.000 A 
ATOM     34  C   UNL     1      -7.541  52.736  51.620  0.00  0.00    +0.000 A 
ATOM     35  C   UNL     1      -5.939  54.508  51.970  0.00  0.00    +0.000 A 
ATOM     36  C   UNL     1      -6.834  53.570  52.483  0.00  0.00    +0.000 A 
ENDBRANCH  30  31
ENDBRANCH  28  30
ENDBRANCH   5  28
TORSDOF 5
ENDMDL
