MODEL 1
REMARK VINA RESULT:      -8.8      0.000      0.000
REMARK  Name = 
REMARK  5 active torsions:
REMARK  status: ('A' for Active; 'I' for Inactive)
REMARK    1  A    between atoms: C_6  and  C_10
REMARK    2  A    between atoms: C_14  and  O_18
REMARK    3  A    between atoms: N_17  and  N_20
REMARK    4  A    between atoms: N_20  and  C_23
REMARK    5  A    between atoms: C_23  and  C_26
REMARK                            x       y       z     vdW  Elec       q    Type
REMARK                         _______ _______ _______ _____ _____    ______ ____
ROOT
ATOM      1  C   UNL     1      -9.089  54.325  49.910  0.00  0.00    +0.000 A 
ATOM      2  C   UNL     1     -10.130  55.393  49.989  0.00  0.00    +0.000 A 
ATOM      3  C   UNL     1      -8.987  53.559  48.810  0.00  0.00    +0.000 A 
ATOM      4  O   UNL     1     -10.194  56.049  51.033  0.00  0.00    +0.000 OA
ATOM      5  N   UNL     1     -10.953  55.599  48.878  0.00  0.00    +0.000 N 
ATOM      6  C   UNL     1      -9.867  53.784  47.654  0.00  0.00    +0.000 A 
ATOM      7  C   UNL     1     -10.840  54.797  47.702  0.00  0.00    +0.000 A 
ATOM      8  C   UNL     1      -9.738  53.005  46.491  0.00  0.00    +0.000 A 
ATOM      9  C   UNL     1     -11.670  55.000  46.587  0.00  0.00    +0.000 A 
ATOM     10  C   UNL     1     -10.557  53.228  45.385  0.00  0.00    +0.000 A 
ATOM     11  C   UNL     1     -11.525  54.224  45.434  0.00  0.00    +0.000 A 
ENDROOT
BRANCH   1  17
ATOM     12  S   UNL     1      -7.700  54.081  53.575  0.00  0.00    +0.000 S 
ATOM     13  O   UNL     1      -7.938  52.781  54.168  0.00  0.00    +0.000 OA
ATOM     14  O   UNL     1      -7.890  55.290  54.363  0.00  0.00    +0.000 OA
ATOM     15  N   UNL     1      -8.639  54.196  52.258  0.00  0.00    +0.000 N 
ATOM     16  C   UNL     1      -6.023  54.091  53.068  0.00  0.00    +0.000 A 
ATOM     17  C   UNL     1      -8.122  54.169  51.067  0.00  0.00    +0.000 C 
ATOM     18  C   UNL     1      -5.759  54.069  51.712  0.00  0.00    +0.000 A 
ATOM     19  C   UNL     1      -5.002  54.130  54.024  0.00  0.00    +0.000 A 
ATOM     20  N   UNL     1      -6.784  54.015  50.772  0.00  0.00    +0.000 N 
ATOM     21  C   UNL     1      -4.420  54.014  51.297  0.00  0.00    +0.000 A 
ATOM     22  C   UNL     1      -3.678  54.111  53.598  0.00  0.00    +0.000 A 
ATOM     23  C   UNL     1      -3.384  54.043  52.236  0.00  0.00    +0.000 A 
ATOM     24  H   UNL     1      -9.614  54.288  52.363  0.00  0.00    +0.000 HD
ATOM     25  H   UNL     1      -6.536  53.855  49.832  0.00  0.00    +0.000 HD
ENDBRANCH   1  17
BRANCH   3  26
ATOM     26  O   UNL     1      -8.059  52.544  48.651  0.00  0.00    +0.000 OA
ATOM     27  H   UNL     1      -7.858  52.224  47.795  0.00  0.00    +0.000 HD
ENDBRANCH   3  26
BRANCH   5  28
ATOM     28  N   UNL     1     -12.030  56.549  48.936  0.00  0.00    +0.000 N 
ATOM     29  H   UNL     1     -11.962  57.449  48.543  0.00  0.00    +0.000 HD
BRANCH  28  30
ATOM     30  C   UNL     1     -13.241  56.080  49.626  0.00  0.00    +0.000 C 
BRANCH  30  31
ATOM     31  C   UNL     1     -13.692  57.060  50.676  0.00  0.00    +0.000 A 
ATOM     32  C   UNL     1     -14.190  58.313  50.318  0.00  0.00    +0.000 A 
ATOM     33  C   UNL     1     -13.648  56.752  52.036  0.00  0.00    +0.000 A 
ATOM     34  N   UNL     1     -14.609  59.245  51.201  0.00  0.00    +0.000 NA
ATOM     35  C   UNL     1     -14.073  57.694  52.970  0.00  0.00    +0.000 A 
ATOM     36  C   UNL     1     -14.535  58.915  52.508  0.00  0.00    +0.000 A 
ENDBRANCH  30  31
ENDBRANCH  28  30
ENDBRANCH   5  28
TORSDOF 5
ENDMDL
MODEL 2
REMARK VINA RESULT:      -8.8      2.641      7.336
REMARK  Name = 
REMARK  5 active torsions:
REMARK  status: ('A' for Active; 'I' for Inactive)
REMARK    1  A    between atoms: C_6  and  C_10
REMARK    2  A    between atoms: C_14  and  O_18
REMARK    3  A    between atoms: N_17  and  N_20
REMARK    4  A    between atoms: N_20  and  C_23
REMARK    5  A    between atoms: C_23  and  C_26
REMARK                            x       y       z     vdW  Elec       q    Type
REMARK                         _______ _______ _______ _____ _____    ______ ____
ROOT
ATOM      1  C   UNL     1     -11.442  56.054  48.813  0.00  0.00    +0.000 A 
ATOM      2  C   UNL     1     -10.357  55.487  49.669  0.00  0.00    +0.000 A 
ATOM      3  C   UNL     1     -11.557  55.676  47.528  0.00  0.00    +0.000 A 
ATOM      4  O   UNL     1     -10.284  55.889  50.834  0.00  0.00    +0.000 OA
ATOM      5  N   UNL     1      -9.506  54.528  49.112  0.00  0.00    +0.000 N 
ATOM      6  C   UNL     1     -10.648  54.673  46.955  0.00  0.00    +0.000 A 
ATOM      7  C   UNL     1      -9.633  54.114  47.751  0.00  0.00    +0.000 A 
ATOM      8  C   UNL     1     -10.789  54.253  45.621  0.00  0.00    +0.000 A 
ATOM      9  C   UNL     1      -8.775  53.154  47.189  0.00  0.00    +0.000 A 
ATOM     10  C   UNL     1      -9.942  53.287  45.081  0.00  0.00    +0.000 A 
ATOM     11  C   UNL     1      -8.933  52.739  45.863  0.00  0.00    +0.000 A 
ENDROOT
BRANCH   1  17
ATOM     12  S   UNL     1     -13.580  59.285  49.457  0.00  0.00    +0.000 S 
ATOM     13  O   UNL     1     -14.717  59.379  48.563  0.00  0.00    +0.000 OA
ATOM     14  O   UNL     1     -12.790  60.467  49.760  0.00  0.00    +0.000 OA
ATOM     15  N   UNL     1     -12.578  58.161  48.853  0.00  0.00    +0.000 N 
ATOM     16  C   UNL     1     -14.205  58.711  50.989  0.00  0.00    +0.000 A 
ATOM     17  C   UNL     1     -12.435  57.011  49.441  0.00  0.00    +0.000 C 
ATOM     18  C   UNL     1     -13.879  57.425  51.379  0.00  0.00    +0.000 A 
ATOM     19  C   UNL     1     -14.997  59.549  51.781  0.00  0.00    +0.000 A 
ATOM     20  N   UNL     1     -13.102  56.596  50.574  0.00  0.00    +0.000 N 
ATOM     21  C   UNL     1     -14.424  56.935  52.574  0.00  0.00    +0.000 A 
ATOM     22  C   UNL     1     -15.503  59.063  52.982  0.00  0.00    +0.000 A 
ATOM     23  C   UNL     1     -15.227  57.753  53.376  0.00  0.00    +0.000 A 
ATOM     24  H   UNL     1     -12.070  58.354  48.032  0.00  0.00    +0.000 HD
ATOM     25  H   UNL     1     -13.024  55.649  50.832  0.00  0.00    +0.000 HD
ENDBRANCH   1  17
BRANCH   3  26
ATOM     26  O   UNL     1     -12.525  56.152  46.660  0.00  0.00    +0.000 OA
ATOM     27  H   UNL     1     -12.383  56.950  46.192  0.00  0.00    +0.000 HD
ENDBRANCH   3  26
BRANCH   5  28
ATOM     28  N   UNL     1      -8.391  54.021  49.862  0.00  0.00    +0.000 N 
ATOM     29  H   UNL     1      -8.397  53.130  50.280  0.00  0.00    +0.000 HD
BRANCH  28  30
ATOM     30  C   UNL     1      -7.239  54.930  49.961  0.00  0.00    +0.000 C 
BRANCH  30  31
ATOM     31  C   UNL     1      -6.755  55.055  51.380  0.00  0.00    +0.000 A 
ATOM     32  C   UNL     1      -5.669  54.306  51.835  0.00  0.00    +0.000 A 
ATOM     33  C   UNL     1      -7.355  55.930  52.288  0.00  0.00    +0.000 A 
ATOM     34  N   UNL     1      -5.181  54.361  53.093  0.00  0.00    +0.000 NA
ATOM     35  C   UNL     1      -6.874  56.007  53.592  0.00  0.00    +0.000 A 
ATOM     36  C   UNL     1      -5.800  55.207  53.945  0.00  0.00    +0.000 A 
ENDBRANCH  30  31
ENDBRANCH  28  30
ENDBRANCH   5  28
TORSDOF 5
ENDMDL
MODEL 3
REMARK VINA RESULT:      -8.7      3.258      8.553
REMARK  Name = 
REMARK  5 active torsions:
REMARK  status: ('A' for Active; 'I' for Inactive)
REMARK    1  A    between atoms: C_6  and  C_10
REMARK    2  A    between atoms: C_14  and  O_18
REMARK    3  A    between atoms: N_17  and  N_20
REMARK    4  A    between atoms: N_20  and  C_23
REMARK    5  A    between atoms: C_23  and  C_26
REMARK                            x       y       z     vdW  Elec       q    Type
REMARK                         _______ _______ _______ _____ _____    ______ ____
ROOT
ATOM      1  C   UNL     1     -10.130  54.547  52.228  0.00  0.00    +0.000 A 
ATOM      2  C   UNL     1      -8.759  55.112  52.051  0.00  0.00    +0.000 A 
ATOM      3  C   UNL     1     -10.315  53.438  52.965  0.00  0.00    +0.000 A 
ATOM      4  O   UNL     1      -8.645  56.117  51.343  0.00  0.00    +0.000 OA
ATOM      5  N   UNL     1      -7.695  54.487  52.708  0.00  0.00    +0.000 N 
ATOM      6  C   UNL     1      -9.184  52.789  53.643  0.00  0.00    +0.000 A 
ATOM      7  C   UNL     1      -7.888  53.318  53.504  0.00  0.00    +0.000 A 
ATOM      8  C   UNL     1      -9.382  51.650  54.442  0.00  0.00    +0.000 A 
ATOM      9  C   UNL     1      -6.819  52.687  54.161  0.00  0.00    +0.000 A 
ATOM     10  C   UNL     1      -8.315  51.043  55.102  0.00  0.00    +0.000 A 
ATOM     11  C   UNL     1      -7.033  51.559  54.960  0.00  0.00    +0.000 A 
ENDROOT
BRANCH   1  17
ATOM     12  S   UNL     1     -12.541  56.081  49.533  0.00  0.00    +0.000 S 
ATOM     13  O   UNL     1     -13.418  55.086  48.951  0.00  0.00    +0.000 OA
ATOM     14  O   UNL     1     -11.921  57.092  48.691  0.00  0.00    +0.000 OA
ATOM     15  N   UNL     1     -11.356  55.291  50.310  0.00  0.00    +0.000 N 
ATOM     16  C   UNL     1     -13.499  56.952  50.713  0.00  0.00    +0.000 A 
ATOM     17  C   UNL     1     -11.302  55.282  51.609  0.00  0.00    +0.000 C 
ATOM     18  C   UNL     1     -13.210  56.757  52.050  0.00  0.00    +0.000 A 
ATOM     19  C   UNL     1     -14.512  57.819  50.290  0.00  0.00    +0.000 A 
ATOM     20  N   UNL     1     -12.210  55.879  52.458  0.00  0.00    +0.000 N 
ATOM     21  C   UNL     1     -14.011  57.402  53.003  0.00  0.00    +0.000 A 
ATOM     22  C   UNL     1     -15.277  58.481  51.245  0.00  0.00    +0.000 A 
ATOM     23  C   UNL     1     -15.035  58.267  52.602  0.00  0.00    +0.000 A 
ATOM     24  H   UNL     1     -10.670  54.812  49.792  0.00  0.00    +0.000 HD
ATOM     25  H   UNL     1     -12.145  55.671  53.418  0.00  0.00    +0.000 HD
ENDBRANCH   1  17
BRANCH   3  26
ATOM     26  O   UNL     1     -11.546  52.841  53.179  0.00  0.00    +0.000 OA
ATOM     27  H   UNL     1     -12.092  52.621  52.451  0.00  0.00    +0.000 HD
ENDBRANCH   3  26
BRANCH   5  28
ATOM     28  N   UNL     1      -6.346  54.934  52.497  0.00  0.00    +0.000 N 
ATOM     29  H   UNL     1      -5.815  55.363  53.207  0.00  0.00    +0.000 HD
BRANCH  28  30
ATOM     30  C   UNL     1      -5.816  54.705  51.145  0.00  0.00    +0.000 C 
BRANCH  30  31
ATOM     31  C   UNL     1      -5.083  53.394  51.055  0.00  0.00    +0.000 A 
ATOM     32  C   UNL     1      -5.514  52.392  50.186  0.00  0.00    +0.000 A 
ATOM     33  C   UNL     1      -3.941  53.135  51.815  0.00  0.00    +0.000 A 
ATOM     34  N   UNL     1      -4.912  51.190  50.052  0.00  0.00    +0.000 NA
ATOM     35  C   UNL     1      -3.300  51.905  51.699  0.00  0.00    +0.000 A 
ATOM     36  C   UNL     1      -3.821  50.972  50.818  0.00  0.00    +0.000 A 
ENDBRANCH  30  31
ENDBRANCH  28  30
ENDBRANCH   5  28
TORSDOF 5
ENDMDL
MODEL 4
REMARK VINA RESULT:      -8.7      3.012      7.639
REMARK  Name = 
REMARK  5 active torsions:
REMARK  status: ('A' for Active; 'I' for Inactive)
REMARK    1  A    between atoms: C_6  and  C_10
REMARK    2  A    between atoms: C_14  and  O_18
REMARK    3  A    between atoms: N_17  and  N_20
REMARK    4  A    between atoms: N_20  and  C_23
REMARK    5  A    between atoms: C_23  and  C_26
REMARK                            x       y       z     vdW  Elec       q    Type
REMARK                         _______ _______ _______ _____ _____    ______ ____
ROOT
ATOM      1  C   UNL     1     -11.163  54.568  50.754  0.00  0.00    +0.000 A 
ATOM      2  C   UNL     1      -9.778  54.933  50.331  0.00  0.00    +0.000 A 
ATOM      3  C   UNL     1     -11.425  53.338  51.228  0.00  0.00    +0.000 A 
ATOM      4  O   UNL     1      -9.602  56.069  49.879  0.00  0.00    +0.000 OA
ATOM      5  N   UNL     1      -8.766  53.982  50.487  0.00  0.00    +0.000 N 
ATOM      6  C   UNL     1     -10.349  52.346  51.378  0.00  0.00    +0.000 A 
ATOM      7  C   UNL     1      -9.035  52.678  51.003  0.00  0.00    +0.000 A 
ATOM      8  C   UNL     1     -10.615  51.071  51.905  0.00  0.00    +0.000 A 
ATOM      9  C   UNL     1      -8.019  51.720  51.155  0.00  0.00    +0.000 A 
ATOM     10  C   UNL     1      -9.595  50.136  52.067  0.00  0.00    +0.000 A 
ATOM     11  C   UNL     1      -8.297  50.459  51.690  0.00  0.00    +0.000 A 
ENDROOT
BRANCH   1  17
ATOM     12  S   UNL     1     -13.617  57.282  49.326  0.00  0.00    +0.000 S 
ATOM     13  O   UNL     1     -14.766  56.693  48.669  0.00  0.00    +0.000 OA
ATOM     14  O   UNL     1     -12.949  58.433  48.738  0.00  0.00    +0.000 OA
ATOM     15  N   UNL     1     -12.510  56.112  49.513  0.00  0.00    +0.000 N 
ATOM     16  C   UNL     1     -14.164  57.794  50.909  0.00  0.00    +0.000 A 
ATOM     17  C   UNL     1     -12.244  55.630  50.691  0.00  0.00    +0.000 C 
ATOM     18  C   UNL     1     -13.703  57.095  52.008  0.00  0.00    +0.000 A 
ATOM     19  C   UNL     1     -15.030  58.885  51.032  0.00  0.00    +0.000 A 
ATOM     20  N   UNL     1     -12.853  56.001  51.871  0.00  0.00    +0.000 N 
ATOM     21  C   UNL     1     -14.182  57.457  53.275  0.00  0.00    +0.000 A 
ATOM     22  C   UNL     1     -15.471  59.258  52.298  0.00  0.00    +0.000 A 
ATOM     23  C   UNL     1     -15.057  58.540  53.420  0.00  0.00    +0.000 A 
ATOM     24  H   UNL     1     -12.034  55.762  48.726  0.00  0.00    +0.000 HD
ATOM     25  H   UNL     1     -12.675  55.454  52.671  0.00  0.00    +0.000 HD
ENDBRANCH   1  17
BRANCH   3  26
ATOM     26  O   UNL     1     -12.676  52.910  51.638  0.00  0.00    +0.000 OA
ATOM     27  H   UNL     1     -13.070  53.280  52.402  0.00  0.00    +0.000 HD
ENDBRANCH   3  26
BRANCH   5  28
ATOM     28  N   UNL     1      -7.437  54.248  50.010  0.00  0.00    +0.000 N 
ATOM     29  H   UNL     1      -7.035  53.752  49.261  0.00  0.00    +0.000 HD
BRANCH  28  30
ATOM     30  C   UNL     1      -6.720  55.317  50.723  0.00  0.00    +0.000 C 
BRANCH  30  31
ATOM     31  C   UNL     1      -6.490  54.958  52.166  0.00  0.00    +0.000 A 
ATOM     32  C   UNL     1      -7.276  55.516  53.175  0.00  0.00    +0.000 A 
ATOM     33  C   UNL     1      -5.504  54.049  52.551  0.00  0.00    +0.000 A 
ATOM     34  N   UNL     1      -7.128  55.247  54.491  0.00  0.00    +0.000 NA
ATOM     35  C   UNL     1      -5.327  53.753  53.900  0.00  0.00    +0.000 A 
ATOM     36  C   UNL     1      -6.152  54.375  54.823  0.00  0.00    +0.000 A 
ENDBRANCH  30  31
ENDBRANCH  28  30
ENDBRANCH   5  28
TORSDOF 5
ENDMDL
MODEL 5
REMARK VINA RESULT:      -8.7      3.744      7.667
REMARK  Name = 
REMARK  5 active torsions:
REMARK  status: ('A' for Active; 'I' for Inactive)
REMARK    1  A    between atoms: C_6  and  C_10
REMARK    2  A    between atoms: C_14  and  O_18
REMARK    3  A    between atoms: N_17  and  N_20
REMARK    4  A    between atoms: N_20  and  C_23
REMARK    5  A    between atoms: C_23  and  C_26
REMARK                            x       y       z     vdW  Elec       q    Type
REMARK                         _______ _______ _______ _____ _____    ______ ____
ROOT
ATOM      1  C   UNL     1     -12.513  54.294  49.547  0.00  0.00    +0.000 A 
ATOM      2  C   UNL     1     -12.011  54.262  48.141  0.00  0.00    +0.000 A 
ATOM      3  C   UNL     1     -12.214  53.294  50.395  0.00  0.00    +0.000 A 
ATOM      4  O   UNL     1     -12.337  55.195  47.400  0.00  0.00    +0.000 OA
ATOM      5  N   UNL     1     -11.191  53.199  47.754  0.00  0.00    +0.000 N 
ATOM      6  C   UNL     1     -11.358  52.178  49.969  0.00  0.00    +0.000 A 
ATOM      7  C   UNL     1     -10.860  52.141  48.654  0.00  0.00    +0.000 A 
ATOM      8  C   UNL     1     -11.018  51.150  50.865  0.00  0.00    +0.000 A 
ATOM      9  C   UNL     1     -10.041  51.069  48.264  0.00  0.00    +0.000 A 
ATOM     10  C   UNL     1     -10.190  50.101  50.470  0.00  0.00    +0.000 A 
ATOM     11  C   UNL     1      -9.703  50.058  49.169  0.00  0.00    +0.000 A 
ENDROOT
BRANCH   1  17
ATOM     12  S   UNL     1     -15.362  56.457  51.167  0.00  0.00    +0.000 S 
ATOM     13  O   UNL     1     -15.241  56.535  52.609  0.00  0.00    +0.000 OA
ATOM     14  O   UNL     1     -16.668  56.274  50.552  0.00  0.00    +0.000 OA
ATOM     15  N   UNL     1     -14.404  55.250  50.662  0.00  0.00    +0.000 N 
ATOM     16  C   UNL     1     -14.737  57.968  50.539  0.00  0.00    +0.000 A 
ATOM     17  C   UNL     1     -13.310  55.499  50.006  0.00  0.00    +0.000 C 
ATOM     18  C   UNL     1     -13.535  57.936  49.857  0.00  0.00    +0.000 A 
ATOM     19  C   UNL     1     -15.455  59.154  50.724  0.00  0.00    +0.000 A 
ATOM     20  N   UNL     1     -12.823  56.751  49.694  0.00  0.00    +0.000 N 
ATOM     21  C   UNL     1     -12.996  59.148  49.404  0.00  0.00    +0.000 A 
ATOM     22  C   UNL     1     -14.927  60.346  50.238  0.00  0.00    +0.000 A 
ATOM     23  C   UNL     1     -13.693  60.347  49.586  0.00  0.00    +0.000 A 
ATOM     24  H   UNL     1     -14.654  54.318  50.855  0.00  0.00    +0.000 HD
ATOM     25  H   UNL     1     -11.910  56.811  49.331  0.00  0.00    +0.000 HD
ENDBRANCH   1  17
BRANCH   3  26
ATOM     26  O   UNL     1     -12.640  53.236  51.712  0.00  0.00    +0.000 OA
ATOM     27  H   UNL     1     -12.707  52.409  52.145  0.00  0.00    +0.000 HD
ENDBRANCH   3  26
BRANCH   5  28
ATOM     28  N   UNL     1     -10.759  53.072  46.390  0.00  0.00    +0.000 N 
ATOM     29  H   UNL     1     -11.045  52.328  45.811  0.00  0.00    +0.000 HD
BRANCH  28  30
ATOM     30  C   UNL     1      -9.856  54.133  45.919  0.00  0.00    +0.000 C 
BRANCH  30  31
ATOM     31  C   UNL     1      -8.540  54.102  46.650  0.00  0.00    +0.000 A 
ATOM     32  C   UNL     1      -7.568  53.153  46.333  0.00  0.00    +0.000 A 
ATOM     33  C   UNL     1      -8.234  55.023  47.653  0.00  0.00    +0.000 A 
ATOM     34  N   UNL     1      -6.368  53.060  46.946  0.00  0.00    +0.000 NA
ATOM     35  C   UNL     1      -7.004  54.951  48.303  0.00  0.00    +0.000 A 
ATOM     36  C   UNL     1      -6.116  53.959  47.922  0.00  0.00    +0.000 A 
ENDBRANCH  30  31
ENDBRANCH  28  30
ENDBRANCH   5  28
TORSDOF 5
ENDMDL
MODEL 6
REMARK VINA RESULT:      -8.7      2.314      5.654
REMARK  Name = 
REMARK  5 active torsions:
REMARK  status: ('A' for Active; 'I' for Inactive)
REMARK    1  A    between atoms: C_6  and  C_10
REMARK    2  A    between atoms: C_14  and  O_18
REMARK    3  A    between atoms: N_17  and  N_20
REMARK    4  A    between atoms: N_20  and  C_23
REMARK    5  A    between atoms: C_23  and  C_26
REMARK                            x       y       z     vdW  Elec       q    Type
REMARK                         _______ _______ _______ _____ _____    ______ ____
ROOT
ATOM      1  C   UNL     1     -10.410  55.174  50.920  0.00  0.00    +0.000 A 
ATOM      2  C   UNL     1     -10.102  55.065  49.463  0.00  0.00    +0.000 A 
ATOM      3  C   UNL     1     -11.576  55.703  51.328  0.00  0.00    +0.000 A 
ATOM      4  O   UNL     1      -9.005  54.593  49.148  0.00  0.00    +0.000 OA
ATOM      5  N   UNL     1     -11.072  55.482  48.548  0.00  0.00    +0.000 N 
ATOM      6  C   UNL     1     -12.583  56.145  50.352  0.00  0.00    +0.000 A 
ATOM      7  C   UNL     1     -12.319  56.033  48.975  0.00  0.00    +0.000 A 
ATOM      8  C   UNL     1     -13.816  56.668  50.777  0.00  0.00    +0.000 A 
ATOM      9  C   UNL     1     -13.292  56.457  48.056  0.00  0.00    +0.000 A 
ATOM     10  C   UNL     1     -14.781  57.069  49.855  0.00  0.00    +0.000 A 
ATOM     11  C   UNL     1     -14.518  56.966  48.494  0.00  0.00    +0.000 A 
ENDROOT
BRANCH   1  17
ATOM     12  S   UNL     1      -7.079  54.675  52.940  0.00  0.00    +0.000 S 
ATOM     13  O   UNL     1      -6.916  55.664  53.986  0.00  0.00    +0.000 OA
ATOM     14  O   UNL     1      -5.942  54.283  52.121  0.00  0.00    +0.000 OA
ATOM     15  N   UNL     1      -8.247  55.203  51.946  0.00  0.00    +0.000 N 
ATOM     16  C   UNL     1      -7.635  53.213  53.730  0.00  0.00    +0.000 A 
ATOM     17  C   UNL     1      -9.409  54.623  51.916  0.00  0.00    +0.000 C 
ATOM     18  C   UNL     1      -8.940  52.816  53.506  0.00  0.00    +0.000 A 
ATOM     19  C   UNL     1      -6.766  52.483  54.546  0.00  0.00    +0.000 A 
ATOM     20  N   UNL     1      -9.800  53.560  52.703  0.00  0.00    +0.000 N 
ATOM     21  C   UNL     1      -9.414  51.682  54.181  0.00  0.00    +0.000 A 
ATOM     22  C   UNL     1      -7.237  51.339  55.182  0.00  0.00    +0.000 A 
ATOM     23  C   UNL     1      -8.564  50.942  55.010  0.00  0.00    +0.000 A 
ATOM     24  H   UNL     1      -8.072  55.973  51.358  0.00  0.00    +0.000 HD
ATOM     25  H   UNL     1     -10.753  53.310  52.697  0.00  0.00    +0.000 HD
ENDBRANCH   1  17
BRANCH   3  26
ATOM     26  O   UNL     1     -11.944  55.850  52.655  0.00  0.00    +0.000 OA
ATOM     27  H   UNL     1     -12.742  56.288  52.874  0.00  0.00    +0.000 HD
ENDBRANCH   3  26
BRANCH   5  28
ATOM     28  N   UNL     1     -10.791  55.485  47.139  0.00  0.00    +0.000 N 
ATOM     29  H   UNL     1     -10.212  56.161  46.718  0.00  0.00    +0.000 HD
BRANCH  28  30
ATOM     30  C   UNL     1     -11.430  54.406  46.371  0.00  0.00    +0.000 C 
BRANCH  30  31
ATOM     31  C   UNL     1     -10.485  53.813  45.361  0.00  0.00    +0.000 A 
ATOM     32  C   UNL     1      -9.106  53.976  45.491  0.00  0.00    +0.000 A 
ATOM     33  C   UNL     1     -10.944  53.068  44.273  0.00  0.00    +0.000 A 
ATOM     34  N   UNL     1      -8.197  53.478  44.624  0.00  0.00    +0.000 NA
ATOM     35  C   UNL     1     -10.029  52.543  43.363  0.00  0.00    +0.000 A 
ATOM     36  C   UNL     1      -8.681  52.777  43.577  0.00  0.00    +0.000 A 
ENDBRANCH  30  31
ENDBRANCH  28  30
ENDBRANCH   5  28
TORSDOF 5
ENDMDL
MODEL 7
REMARK VINA RESULT:      -8.5      3.085      7.204
REMARK  Name = 
REMARK  5 active torsions:
REMARK  status: ('A' for Active; 'I' for Inactive)
REMARK    1  A    between atoms: C_6  and  C_10
REMARK    2  A    between atoms: C_14  and  O_18
REMARK    3  A    between atoms: N_17  and  N_20
REMARK    4  A    between atoms: N_20  and  C_23
REMARK    5  A    between atoms: C_23  and  C_26
REMARK                            x       y       z     vdW  Elec       q    Type
REMARK                         _______ _______ _______ _____ _____    ______ ____
ROOT
ATOM      1  C   UNL     1     -11.236  54.646  48.402  0.00  0.00    +0.000 A 
ATOM      2  C   UNL     1     -10.982  54.177  49.796  0.00  0.00    +0.000 A 
ATOM      3  C   UNL     1     -12.155  55.597  48.164  0.00  0.00    +0.000 A 
ATOM      4  O   UNL     1     -10.144  53.283  49.952  0.00  0.00    +0.000 OA
ATOM      5  N   UNL     1     -11.688  54.785  50.838  0.00  0.00    +0.000 N 
ATOM      6  C   UNL     1     -12.895  56.221  49.271  0.00  0.00    +0.000 A 
ATOM      7  C   UNL     1     -12.655  55.806  50.593  0.00  0.00    +0.000 A 
ATOM      8  C   UNL     1     -13.831  57.239  49.026  0.00  0.00    +0.000 A 
ATOM      9  C   UNL     1     -13.369  56.414  51.639  0.00  0.00    +0.000 A 
ATOM     10  C   UNL     1     -14.520  57.847  50.074  0.00  0.00    +0.000 A 
ATOM     11  C   UNL     1     -14.291  57.433  51.381  0.00  0.00    +0.000 A 
ENDROOT
BRANCH   1  17
ATOM     12  S   UNL     1      -8.175  53.948  46.041  0.00  0.00    +0.000 S 
ATOM     13  O   UNL     1      -7.217  53.040  46.637  0.00  0.00    +0.000 OA
ATOM     14  O   UNL     1      -7.716  55.116  45.305  0.00  0.00    +0.000 OA
ATOM     15  N   UNL     1      -9.159  54.463  47.223  0.00  0.00    +0.000 N 
ATOM     16  C   UNL     1      -9.113  52.997  44.907  0.00  0.00    +0.000 A 
ATOM     17  C   UNL     1     -10.396  54.069  47.279  0.00  0.00    +0.000 C 
ATOM     18  C   UNL     1     -10.433  52.735  45.222  0.00  0.00    +0.000 A 
ATOM     19  C   UNL     1      -8.526  52.539  43.723  0.00  0.00    +0.000 A 
ATOM     20  N   UNL     1     -11.001  53.184  46.411  0.00  0.00    +0.000 N 
ATOM     21  C   UNL     1     -11.175  51.923  44.352  0.00  0.00    +0.000 A 
ATOM     22  C   UNL     1      -9.283  51.765  42.850  0.00  0.00    +0.000 A 
ATOM     23  C   UNL     1     -10.605  51.447  43.166  0.00  0.00    +0.000 A 
ATOM     24  H   UNL     1      -8.815  55.083  47.906  0.00  0.00    +0.000 HD
ATOM     25  H   UNL     1     -11.895  52.846  46.649  0.00  0.00    +0.000 HD
ENDBRANCH   1  17
BRANCH   3  26
ATOM     26  O   UNL     1     -12.461  56.089  46.906  0.00  0.00    +0.000 OA
ATOM     27  H   UNL     1     -12.782  56.963  46.810  0.00  0.00    +0.000 HD
ENDBRANCH   3  26
BRANCH   5  28
ATOM     28  N   UNL     1     -11.550  54.308  52.187  0.00  0.00    +0.000 N 
ATOM     29  H   UNL     1     -12.191  53.682  52.594  0.00  0.00    +0.000 HD
BRANCH  28  30
ATOM     30  C   UNL     1     -10.382  54.824  52.916  0.00  0.00    +0.000 C 
BRANCH  30  31
ATOM     31  C   UNL     1      -9.528  53.706  53.452  0.00  0.00    +0.000 A 
ATOM     32  C   UNL     1      -8.147  53.858  53.577  0.00  0.00    +0.000 A 
ATOM     33  C   UNL     1     -10.079  52.491  53.860  0.00  0.00    +0.000 A 
ATOM     34  N   UNL     1      -7.316  52.901  54.045  0.00  0.00    +0.000 NA
ATOM     35  C   UNL     1      -9.247  51.485  54.346  0.00  0.00    +0.000 A 
ATOM     36  C   UNL     1      -7.887  51.733  54.414  0.00  0.00    +0.000 A 
ENDBRANCH  30  31
ENDBRANCH  28  30
ENDBRANCH   5  28
TORSDOF 5
ENDMDL
MODEL 8
REMARK VINA RESULT:      -8.5      2.190      5.448
REMARK  Name = 
REMARK  5 active torsions:
REMARK  status: ('A' for Active; 'I' for Inactive)
REMARK    1  A    between atoms: C_6  and  C_10
REMARK    2  A    between atoms: C_14  and  O_18
REMARK    3  A    between atoms: N_17  and  N_20
REMARK    4  A    between atoms: N_20  and  C_23
REMARK    5  A    between atoms: C_23  and  C_26
REMARK                            x       y       z     vdW  Elec       q    Type
REMARK                         _______ _______ _______ _____ _____    ______ ____
ROOT
ATOM      1  C   UNL     1     -10.520  54.951  50.613  0.00  0.00    +0.000 A 
ATOM      2  C   UNL     1     -10.229  54.896  49.149  0.00  0.00    +0.000 A 
ATOM      3  C   UNL     1     -11.620  55.580  51.062  0.00  0.00    +0.000 A 
ATOM      4  O   UNL     1      -9.192  54.327  48.796  0.00  0.00    +0.000 OA
ATOM      5  N   UNL     1     -11.151  55.470  48.269  0.00  0.00    +0.000 N 
ATOM      6  C   UNL     1     -12.575  56.186  50.122  0.00  0.00    +0.000 A 
ATOM      7  C   UNL     1     -12.328  56.127  48.739  0.00  0.00    +0.000 A 
ATOM      8  C   UNL     1     -13.742  56.814  50.589  0.00  0.00    +0.000 A 
ATOM      9  C   UNL     1     -13.252  56.708  47.855  0.00  0.00    +0.000 A 
ATOM     10  C   UNL     1     -14.660  57.371  49.700  0.00  0.00    +0.000 A 
ATOM     11  C   UNL     1     -14.414  57.321  48.333  0.00  0.00    +0.000 A 
ENDROOT
BRANCH   1  17
ATOM     12  S   UNL     1      -9.013  52.176  52.948  0.00  0.00    +0.000 S 
ATOM     13  O   UNL     1      -8.348  51.129  52.200  0.00  0.00    +0.000 OA
ATOM     14  O   UNL     1      -9.853  51.840  54.087  0.00  0.00    +0.000 OA
ATOM     15  N   UNL     1      -9.915  53.026  51.902  0.00  0.00    +0.000 N 
ATOM     16  C   UNL     1      -7.747  53.216  53.568  0.00  0.00    +0.000 A 
ATOM     17  C   UNL     1      -9.582  54.236  51.565  0.00  0.00    +0.000 C 
ATOM     18  C   UNL     1      -7.627  54.481  53.025  0.00  0.00    +0.000 A 
ATOM     19  C   UNL     1      -6.904  52.762  54.587  0.00  0.00    +0.000 A 
ATOM     20  N   UNL     1      -8.463  54.915  52.000  0.00  0.00    +0.000 N 
ATOM     21  C   UNL     1      -6.579  55.299  53.470  0.00  0.00    +0.000 A 
ATOM     22  C   UNL     1      -5.889  53.597  55.047  0.00  0.00    +0.000 A 
ATOM     23  C   UNL     1      -5.718  54.862  54.483  0.00  0.00    +0.000 A 
ATOM     24  H   UNL     1     -10.725  52.620  51.517  0.00  0.00    +0.000 HD
ATOM     25  H   UNL     1      -8.241  55.765  51.554  0.00  0.00    +0.000 HD
ENDBRANCH   1  17
BRANCH   3  26
ATOM     26  O   UNL     1     -11.966  55.686  52.398  0.00  0.00    +0.000 OA
ATOM     27  H   UNL     1     -12.195  56.520  52.757  0.00  0.00    +0.000 HD
ENDBRANCH   3  26
BRANCH   5  28
ATOM     28  N   UNL     1     -10.874  55.526  46.860  0.00  0.00    +0.000 N 
ATOM     29  H   UNL     1     -10.281  56.205  46.464  0.00  0.00    +0.000 HD
BRANCH  28  30
ATOM     30  C   UNL     1     -11.542  54.495  46.050  0.00  0.00    +0.000 C 
BRANCH  30  31
ATOM     31  C   UNL     1     -10.561  53.755  45.182  0.00  0.00    +0.000 A 
ATOM     32  C   UNL     1      -9.187  53.907  45.366  0.00  0.00    +0.000 A 
ATOM     33  C   UNL     1     -10.981  52.880  44.178  0.00  0.00    +0.000 A 
ATOM     34  N   UNL     1      -8.246  53.280  44.625  0.00  0.00    +0.000 NA
ATOM     35  C   UNL     1     -10.034  52.221  43.399  0.00  0.00    +0.000 A 
ATOM     36  C   UNL     1      -8.693  52.455  43.654  0.00  0.00    +0.000 A 
ENDBRANCH  30  31
ENDBRANCH  28  30
ENDBRANCH   5  28
TORSDOF 5
ENDMDL
MODEL 9
REMARK VINA RESULT:      -8.4      3.046      7.787
REMARK  Name = 
REMARK  5 active torsions:
REMARK  status: ('A' for Active; 'I' for Inactive)
REMARK    1  A    between atoms: C_6  and  C_10
REMARK    2  A    between atoms: C_14  and  O_18
REMARK    3  A    between atoms: N_17  and  N_20
REMARK    4  A    between atoms: N_20  and  C_23
REMARK    5  A    between atoms: C_23  and  C_26
REMARK                            x       y       z     vdW  Elec       q    Type
REMARK                         _______ _______ _______ _____ _____    ______ ____
ROOT
ATOM      1  C   UNL     1     -10.622  55.733  48.338  0.00  0.00    +0.000 A 
ATOM      2  C   UNL     1      -9.178  55.809  48.709  0.00  0.00    +0.000 A 
ATOM      3  C   UNL     1     -10.999  55.105  47.211  0.00  0.00    +0.000 A 
ATOM      4  O   UNL     1      -8.888  56.420  49.742  0.00  0.00    +0.000 OA
ATOM      5  N   UNL     1      -8.247  55.173  47.883  0.00  0.00    +0.000 N 
ATOM      6  C   UNL     1     -10.006  54.448  46.348  0.00  0.00    +0.000 A 
ATOM      7  C   UNL     1      -8.643  54.492  46.692  0.00  0.00    +0.000 A 
ATOM      8  C   UNL     1     -10.404  53.762  45.188  0.00  0.00    +0.000 A 
ATOM      9  C   UNL     1      -7.708  53.857  45.858  0.00  0.00    +0.000 A 
ATOM     10  C   UNL     1      -9.467  53.121  44.378  0.00  0.00    +0.000 A 
ATOM     11  C   UNL     1      -8.119  53.170  44.712  0.00  0.00    +0.000 A 
ENDROOT
BRANCH   1  17
ATOM     12  S   UNL     1     -13.153  56.073  51.322  0.00  0.00    +0.000 S 
ATOM     13  O   UNL     1     -12.486  56.321  52.583  0.00  0.00    +0.000 OA
ATOM     14  O   UNL     1     -14.274  55.148  51.257  0.00  0.00    +0.000 OA
ATOM     15  N   UNL     1     -12.030  55.565  50.268  0.00  0.00    +0.000 N 
ATOM     16  C   UNL     1     -13.770  57.621  50.779  0.00  0.00    +0.000 A 
ATOM     17  C   UNL     1     -11.647  56.325  49.285  0.00  0.00    +0.000 C 
ATOM     18  C   UNL     1     -13.169  58.206  49.681  0.00  0.00    +0.000 A 
ATOM     19  C   UNL     1     -14.844  58.220  51.445  0.00  0.00    +0.000 A 
ATOM     20  N   UNL     1     -12.090  57.606  49.036  0.00  0.00    +0.000 N 
ATOM     21  C   UNL     1     -13.614  59.472  49.276  0.00  0.00    +0.000 A 
ATOM     22  C   UNL     1     -15.301  59.460  51.012  0.00  0.00    +0.000 A 
ATOM     23  C   UNL     1     -14.681  60.094  49.934  0.00  0.00    +0.000 A 
ATOM     24  H   UNL     1     -11.635  54.670  50.373  0.00  0.00    +0.000 HD
ATOM     25  H   UNL     1     -11.612  58.133  48.355  0.00  0.00    +0.000 HD
ENDBRANCH   1  17
BRANCH   3  26
ATOM     26  O   UNL     1     -12.312  54.990  46.785  0.00  0.00    +0.000 OA
ATOM     27  H   UNL     1     -12.850  55.752  46.717  0.00  0.00    +0.000 HD
ENDBRANCH   3  26
BRANCH   5  28
ATOM     28  N   UNL     1      -6.839  55.294  48.144  0.00  0.00    +0.000 N 
ATOM     29  H   UNL     1      -6.264  55.925  47.654  0.00  0.00    +0.000 HD
BRANCH  28  30
ATOM     30  C   UNL     1      -6.320  54.407  49.195  0.00  0.00    +0.000 C 
BRANCH  30  31
ATOM     31  C   UNL     1      -5.607  53.217  48.611  0.00  0.00    +0.000 A 
ATOM     32  C   UNL     1      -4.384  53.367  47.957  0.00  0.00    +0.000 A 
ATOM     33  C   UNL     1      -6.125  51.925  48.713  0.00  0.00    +0.000 A 
ATOM     34  N   UNL     1      -3.688  52.349  47.404  0.00  0.00    +0.000 NA
ATOM     35  C   UNL     1      -5.430  50.857  48.152  0.00  0.00    +0.000 A 
ATOM     36  C   UNL     1      -4.231  51.118  47.510  0.00  0.00    +0.000 A 
ENDBRANCH  30  31
ENDBRANCH  28  30
ENDBRANCH   5  28
TORSDOF 5
ENDMDL
