MODEL 1
REMARK VINA RESULT:      -8.0      0.000      0.000
REMARK  Name = 
REMARK  7 active torsions:
REMARK  status: ('A' for Active; 'I' for Inactive)
REMARK    1  A    between atoms: C_6  and  C_10
REMARK    2  A    between atoms: C_14  and  O_18
REMARK    3  A    between atoms: N_17  and  N_20
REMARK    4  A    between atoms: N_20  and  C_23
REMARK    5  A    between atoms: C_23  and  C_26
REMARK    6  A    between atoms: C_26  and  C_28
REMARK    7  A    between atoms: C_28  and  C_29
REMARK                            x       y       z     vdW  Elec       q    Type
REMARK                         _______ _______ _______ _____ _____    ______ ____
ROOT
ATOM      1  C   UNL     1     -10.129  54.567  52.192  0.00  0.00    +0.000 A 
ATOM      2  C   UNL     1      -8.760  55.131  52.014  0.00  0.00    +0.000 A 
ATOM      3  C   UNL     1     -10.323  53.459  52.926  0.00  0.00    +0.000 A 
ATOM      4  O   UNL     1      -8.664  56.153  51.327  0.00  0.00    +0.000 OA
ATOM      5  N   UNL     1      -7.693  54.494  52.656  0.00  0.00    +0.000 N 
ATOM      6  C   UNL     1      -9.190  52.797  53.586  0.00  0.00    +0.000 A 
ATOM      7  C   UNL     1      -7.891  53.315  53.439  0.00  0.00    +0.000 A 
ATOM      8  C   UNL     1      -9.400  51.665  54.391  0.00  0.00    +0.000 A 
ATOM      9  C   UNL     1      -6.825  52.673  54.089  0.00  0.00    +0.000 A 
ATOM     10  C   UNL     1      -8.339  51.059  55.060  0.00  0.00    +0.000 A 
ATOM     11  C   UNL     1      -7.052  51.561  54.906  0.00  0.00    +0.000 A 
ENDROOT
BRANCH   1  17
ATOM     12  S   UNL     1     -12.528  56.150  49.529  0.00  0.00    +0.000 S 
ATOM     13  O   UNL     1     -13.427  55.164  48.949  0.00  0.00    +0.000 OA
ATOM     14  O   UNL     1     -11.912  57.157  48.691  0.00  0.00    +0.000 OA
ATOM     15  N   UNL     1     -11.352  55.349  50.293  0.00  0.00    +0.000 N 
ATOM     16  C   UNL     1     -13.471  57.023  50.724  0.00  0.00    +0.000 A 
ATOM     17  C   UNL     1     -11.300  55.310  51.590  0.00  0.00    +0.000 C 
ATOM     18  C   UNL     1     -13.187  56.796  52.062  0.00  0.00    +0.000 A 
ATOM     19  C   UNL     1     -14.457  57.921  50.318  0.00  0.00    +0.000 A 
ATOM     20  N   UNL     1     -12.210  55.884  52.452  0.00  0.00    +0.000 N 
ATOM     21  C   UNL     1     -13.968  57.447  53.023  0.00  0.00    +0.000 A 
ATOM     22  C   UNL     1     -15.205  58.587  51.285  0.00  0.00    +0.000 A 
ATOM     23  C   UNL     1     -14.966  58.344  52.637  0.00  0.00    +0.000 A 
ATOM     24  H   UNL     1     -10.662  54.883  49.767  0.00  0.00    +0.000 HD
ATOM     25  H   UNL     1     -12.168  55.632  53.403  0.00  0.00    +0.000 HD
ENDBRANCH   1  17
BRANCH   3  26
ATOM     26  O   UNL     1     -11.560  52.885  53.163  0.00  0.00    +0.000 OA
ATOM     27  H   UNL     1     -11.942  52.933  54.018  0.00  0.00    +0.000 HD
ENDBRANCH   3  26
BRANCH   5  28
ATOM     28  N   UNL     1      -6.346  54.990  52.514  0.00  0.00    +0.000 N 
ATOM     29  H   UNL     1      -5.892  55.511  53.216  0.00  0.00    +0.000 HD
BRANCH  28  30
ATOM     30  C   UNL     1      -5.707  54.654  51.235  0.00  0.00    +0.000 C 
BRANCH  30  31
ATOM     31  C   UNL     1      -4.464  53.786  51.434  0.00  0.00    +0.000 C 
BRANCH  31  32
ATOM     32  C   UNL     1      -3.666  54.285  52.642  0.00  0.00    +0.000 C 
ATOM     33  C   UNL     1      -3.300  53.149  53.581  0.00  0.00    +0.000 C 
ENDBRANCH  31  32
ENDBRANCH  30  31
ENDBRANCH  28  30
ENDBRANCH   5  28
TORSDOF 6
ENDMDL
MODEL 2
REMARK VINA RESULT:      -7.9      1.945      2.623
REMARK  Name = 
REMARK  7 active torsions:
REMARK  status: ('A' for Active; 'I' for Inactive)
REMARK    1  A    between atoms: C_6  and  C_10
REMARK    2  A    between atoms: C_14  and  O_18
REMARK    3  A    between atoms: N_17  and  N_20
REMARK    4  A    between atoms: N_20  and  C_23
REMARK    5  A    between atoms: C_23  and  C_26
REMARK    6  A    between atoms: C_26  and  C_28
REMARK    7  A    between atoms: C_28  and  C_29
REMARK                            x       y       z     vdW  Elec       q    Type
REMARK                         _______ _______ _______ _____ _____    ______ ____
ROOT
ATOM      1  C   UNL     1     -11.354  53.980  51.562  0.00  0.00    +0.000 A 
ATOM      2  C   UNL     1     -10.404  54.157  52.697  0.00  0.00    +0.000 A 
ATOM      3  C   UNL     1     -11.486  52.787  50.960  0.00  0.00    +0.000 A 
ATOM      4  O   UNL     1     -10.342  55.283  53.201  0.00  0.00    +0.000 OA
ATOM      5  N   UNL     1      -9.680  53.043  53.135  0.00  0.00    +0.000 N 
ATOM      6  C   UNL     1     -10.711  51.630  51.424  0.00  0.00    +0.000 A 
ATOM      7  C   UNL     1      -9.815  51.770  52.499  0.00  0.00    +0.000 A 
ATOM      8  C   UNL     1     -10.883  50.371  50.823  0.00  0.00    +0.000 A 
ATOM      9  C   UNL     1      -9.094  50.647  52.935  0.00  0.00    +0.000 A 
ATOM     10  C   UNL     1     -10.190  49.257  51.289  0.00  0.00    +0.000 A 
ATOM     11  C   UNL     1      -9.293  49.396  52.342  0.00  0.00    +0.000 A 
ENDROOT
BRANCH   1  17
ATOM     12  S   UNL     1     -12.929  56.829  49.380  0.00  0.00    +0.000 S 
ATOM     13  O   UNL     1     -13.964  56.327  48.492  0.00  0.00    +0.000 OA
ATOM     14  O   UNL     1     -11.980  57.817  48.911  0.00  0.00    +0.000 OA
ATOM     15  N   UNL     1     -12.094  55.558  49.927  0.00  0.00    +0.000 N 
ATOM     16  C   UNL     1     -13.766  57.565  50.736  0.00  0.00    +0.000 A 
ATOM     17  C   UNL     1     -12.218  55.152  51.154  0.00  0.00    +0.000 C 
ATOM     18  C   UNL     1     -13.718  56.912  51.957  0.00  0.00    +0.000 A 
ATOM     19  C   UNL     1     -14.438  58.775  50.569  0.00  0.00    +0.000 A 
ATOM     20  N   UNL     1     -13.057  55.695  52.103  0.00  0.00    +0.000 N 
ATOM     21  C   UNL     1     -14.426  57.463  53.031  0.00  0.00    +0.000 A 
ATOM     22  C   UNL     1     -15.111  59.331  51.653  0.00  0.00    +0.000 A 
ATOM     23  C   UNL     1     -15.112  58.670  52.882  0.00  0.00    +0.000 A 
ATOM     24  H   UNL     1     -11.482  55.082  49.319  0.00  0.00    +0.000 HD
ATOM     25  H   UNL     1     -13.198  55.191  52.937  0.00  0.00    +0.000 HD
ENDBRANCH   1  17
BRANCH   3  26
ATOM     26  O   UNL     1     -12.361  52.530  49.918  0.00  0.00    +0.000 OA
ATOM     27  H   UNL     1     -13.087  53.102  49.766  0.00  0.00    +0.000 HD
ENDBRANCH   3  26
BRANCH   5  28
ATOM     28  N   UNL     1      -8.741  53.155  54.224  0.00  0.00    +0.000 N 
ATOM     29  H   UNL     1      -8.995  53.019  55.166  0.00  0.00    +0.000 HD
BRANCH  28  30
ATOM     30  C   UNL     1      -7.371  53.490  53.812  0.00  0.00    +0.000 C 
BRANCH  30  31
ATOM     31  C   UNL     1      -6.849  54.731  54.538  0.00  0.00    +0.000 C 
BRANCH  31  32
ATOM     32  C   UNL     1      -6.973  55.958  53.629  0.00  0.00    +0.000 C 
ATOM     33  C   UNL     1      -6.946  55.573  52.161  0.00  0.00    +0.000 C 
ENDBRANCH  31  32
ENDBRANCH  30  31
ENDBRANCH  28  30
ENDBRANCH   5  28
TORSDOF 6
ENDMDL
MODEL 3
REMARK VINA RESULT:      -7.8      2.577      8.091
REMARK  Name = 
REMARK  7 active torsions:
REMARK  status: ('A' for Active; 'I' for Inactive)
REMARK    1  A    between atoms: C_6  and  C_10
REMARK    2  A    between atoms: C_14  and  O_18
REMARK    3  A    between atoms: N_17  and  N_20
REMARK    4  A    between atoms: N_20  and  C_23
REMARK    5  A    between atoms: C_23  and  C_26
REMARK    6  A    between atoms: C_26  and  C_28
REMARK    7  A    between atoms: C_28  and  C_29
REMARK                            x       y       z     vdW  Elec       q    Type
REMARK                         _______ _______ _______ _____ _____    ______ ____
ROOT
ATOM      1  C   UNL     1     -10.213  55.111  50.448  0.00  0.00    +0.000 A 
ATOM      2  C   UNL     1     -11.281  55.250  51.480  0.00  0.00    +0.000 A 
ATOM      3  C   UNL     1     -10.456  55.423  49.165  0.00  0.00    +0.000 A 
ATOM      4  O   UNL     1     -10.979  54.946  52.638  0.00  0.00    +0.000 OA
ATOM      5  N   UNL     1     -12.528  55.741  51.079  0.00  0.00    +0.000 N 
ATOM      6  C   UNL     1     -11.773  55.928  48.759  0.00  0.00    +0.000 A 
ATOM      7  C   UNL     1     -12.794  56.076  49.716  0.00  0.00    +0.000 A 
ATOM      8  C   UNL     1     -12.013  56.298  47.425  0.00  0.00    +0.000 A 
ATOM      9  C   UNL     1     -14.042  56.573  49.308  0.00  0.00    +0.000 A 
ATOM     10  C   UNL     1     -13.244  56.824  47.040  0.00  0.00    +0.000 A 
ATOM     11  C   UNL     1     -14.258  56.958  47.981  0.00  0.00    +0.000 A 
ENDROOT
BRANCH   1  17
ATOM     12  S   UNL     1      -6.820  53.157  50.601  0.00  0.00    +0.000 S 
ATOM     13  O   UNL     1      -5.869  53.636  49.611  0.00  0.00    +0.000 OA
ATOM     14  O   UNL     1      -6.957  51.738  50.854  0.00  0.00    +0.000 OA
ATOM     15  N   UNL     1      -8.275  53.734  50.201  0.00  0.00    +0.000 N 
ATOM     16  C   UNL     1      -6.338  53.877  52.126  0.00  0.00    +0.000 A 
ATOM     17  C   UNL     1      -8.832  54.682  50.892  0.00  0.00    +0.000 C 
ATOM     18  C   UNL     1      -7.143  54.876  52.652  0.00  0.00    +0.000 A 
ATOM     19  C   UNL     1      -5.188  53.434  52.778  0.00  0.00    +0.000 A 
ATOM     20  N   UNL     1      -8.279  55.320  51.982  0.00  0.00    +0.000 N 
ATOM     21  C   UNL     1      -6.739  55.493  53.841  0.00  0.00    +0.000 A 
ATOM     22  C   UNL     1      -4.815  54.034  53.977  0.00  0.00    +0.000 A 
ATOM     23  C   UNL     1      -5.586  55.070  54.504  0.00  0.00    +0.000 A 
ATOM     24  H   UNL     1      -8.747  53.362  49.421  0.00  0.00    +0.000 HD
ATOM     25  H   UNL     1      -8.715  56.141  52.306  0.00  0.00    +0.000 HD
ENDBRANCH   1  17
BRANCH   3  26
ATOM     26  O   UNL     1      -9.516  55.348  48.151  0.00  0.00    +0.000 OA
ATOM     27  H   UNL     1      -8.626  55.587  48.320  0.00  0.00    +0.000 HD
ENDBRANCH   3  26
BRANCH   5  28
ATOM     28  N   UNL     1     -13.602  55.890  52.031  0.00  0.00    +0.000 N 
ATOM     29  H   UNL     1     -14.263  55.182  52.206  0.00  0.00    +0.000 HD
BRANCH  28  30
ATOM     30  C   UNL     1     -13.626  57.188  52.719  0.00  0.00    +0.000 C 
BRANCH  30  31
ATOM     31  C   UNL     1     -15.055  57.696  52.918  0.00  0.00    +0.000 C 
BRANCH  31  32
ATOM     32  C   UNL     1     -15.130  59.189  52.583  0.00  0.00    +0.000 C 
ATOM     33  C   UNL     1     -14.876  59.445  51.108  0.00  0.00    +0.000 C 
ENDBRANCH  31  32
ENDBRANCH  30  31
ENDBRANCH  28  30
ENDBRANCH   5  28
TORSDOF 6
ENDMDL
MODEL 4
REMARK VINA RESULT:      -7.8      2.723      7.935
REMARK  Name = 
REMARK  7 active torsions:
REMARK  status: ('A' for Active; 'I' for Inactive)
REMARK    1  A    between atoms: C_6  and  C_10
REMARK    2  A    between atoms: C_14  and  O_18
REMARK    3  A    between atoms: N_17  and  N_20
REMARK    4  A    between atoms: N_20  and  C_23
REMARK    5  A    between atoms: C_23  and  C_26
REMARK    6  A    between atoms: C_26  and  C_28
REMARK    7  A    between atoms: C_28  and  C_29
REMARK                            x       y       z     vdW  Elec       q    Type
REMARK                         _______ _______ _______ _____ _____    ______ ____
ROOT
ATOM      1  C   UNL     1     -10.110  54.654  50.976  0.00  0.00    +0.000 A 
ATOM      2  C   UNL     1     -11.288  55.471  51.384  0.00  0.00    +0.000 A 
ATOM      3  C   UNL     1      -9.864  54.408  49.678  0.00  0.00    +0.000 A 
ATOM      4  O   UNL     1     -11.445  55.657  52.595  0.00  0.00    +0.000 OA
ATOM      5  N   UNL     1     -12.109  55.997  50.381  0.00  0.00    +0.000 N 
ATOM      6  C   UNL     1     -10.741  54.959  48.638  0.00  0.00    +0.000 A 
ATOM      7  C   UNL     1     -11.854  55.739  48.998  0.00  0.00    +0.000 A 
ATOM      8  C   UNL     1     -10.458  54.738  47.279  0.00  0.00    +0.000 A 
ATOM      9  C   UNL     1     -12.672  56.267  47.986  0.00  0.00    +0.000 A 
ATOM     10  C   UNL     1     -11.255  55.298  46.284  0.00  0.00    +0.000 A 
ATOM     11  C   UNL     1     -12.364  56.058  46.638  0.00  0.00    +0.000 A 
ENDROOT
BRANCH   1  17
ATOM     12  S   UNL     1      -6.862  54.269  53.134  0.00  0.00    +0.000 S 
ATOM     13  O   UNL     1      -6.732  55.331  54.119  0.00  0.00    +0.000 OA
ATOM     14  O   UNL     1      -5.703  53.814  52.395  0.00  0.00    +0.000 OA
ATOM     15  N   UNL     1      -7.984  54.728  52.066  0.00  0.00    +0.000 N 
ATOM     16  C   UNL     1      -7.464  52.870  54.004  0.00  0.00    +0.000 A 
ATOM     17  C   UNL     1      -9.158  54.173  52.048  0.00  0.00    +0.000 C 
ATOM     18  C   UNL     1      -8.775  52.482  53.776  0.00  0.00    +0.000 A 
ATOM     19  C   UNL     1      -6.629  52.178  54.880  0.00  0.00    +0.000 A 
ATOM     20  N   UNL     1      -9.602  53.194  52.910  0.00  0.00    +0.000 N 
ATOM     21  C   UNL     1      -9.281  51.400  54.504  0.00  0.00    +0.000 A 
ATOM     22  C   UNL     1      -7.135  51.082  55.574  0.00  0.00    +0.000 A 
ATOM     23  C   UNL     1      -8.464  50.699  55.392  0.00  0.00    +0.000 A 
ATOM     24  H   UNL     1      -7.775  55.440  51.418  0.00  0.00    +0.000 HD
ATOM     25  H   UNL     1     -10.564  52.985  52.916  0.00  0.00    +0.000 HD
ENDBRANCH   1  17
BRANCH   3  26
ATOM     26  O   UNL     1      -8.781  53.683  49.212  0.00  0.00    +0.000 OA
ATOM     27  H   UNL     1      -8.661  52.795  49.485  0.00  0.00    +0.000 HD
ENDBRANCH   3  26
BRANCH   5  28
ATOM     28  N   UNL     1     -13.268  56.789  50.716  0.00  0.00    +0.000 N 
ATOM     29  H   UNL     1     -13.271  57.773  50.677  0.00  0.00    +0.000 HD
BRANCH  28  30
ATOM     30  C   UNL     1     -14.442  56.005  51.120  0.00  0.00    +0.000 C 
BRANCH  30  31
ATOM     31  C   UNL     1     -15.204  56.675  52.264  0.00  0.00    +0.000 C 
BRANCH  31  32
ATOM     32  C   UNL     1     -14.363  57.812  52.855  0.00  0.00    +0.000 C 
ATOM     33  C   UNL     1     -15.050  59.157  52.697  0.00  0.00    +0.000 C 
ENDBRANCH  31  32
ENDBRANCH  30  31
ENDBRANCH  28  30
ENDBRANCH   5  28
TORSDOF 6
ENDMDL
MODEL 5
REMARK VINA RESULT:      -7.7      3.841      5.305
REMARK  Name = 
REMARK  7 active torsions:
REMARK  status: ('A' for Active; 'I' for Inactive)
REMARK    1  A    between atoms: C_6  and  C_10
REMARK    2  A    between atoms: C_14  and  O_18
REMARK    3  A    between atoms: N_17  and  N_20
REMARK    4  A    between atoms: N_20  and  C_23
REMARK    5  A    between atoms: C_23  and  C_26
REMARK    6  A    between atoms: C_26  and  C_28
REMARK    7  A    between atoms: C_28  and  C_29
REMARK                            x       y       z     vdW  Elec       q    Type
REMARK                         _______ _______ _______ _____ _____    ______ ____
ROOT
ATOM      1  C   UNL     1     -10.710  55.645  48.106  0.00  0.00    +0.000 A 
ATOM      2  C   UNL     1      -9.243  55.747  48.352  0.00  0.00    +0.000 A 
ATOM      3  C   UNL     1     -11.180  54.985  47.035  0.00  0.00    +0.000 A 
ATOM      4  O   UNL     1      -8.889  56.367  49.360  0.00  0.00    +0.000 OA
ATOM      5  N   UNL     1      -8.376  55.113  47.456  0.00  0.00    +0.000 N 
ATOM      6  C   UNL     1     -10.256  54.334  46.098  0.00  0.00    +0.000 A 
ATOM      7  C   UNL     1      -8.868  54.410  46.314  0.00  0.00    +0.000 A 
ATOM      8  C   UNL     1     -10.750  53.606  45.002  0.00  0.00    +0.000 A 
ATOM      9  C   UNL     1      -8.003  53.768  45.412  0.00  0.00    +0.000 A 
ATOM     10  C   UNL     1      -9.883  52.943  44.136  0.00  0.00    +0.000 A 
ATOM     11  C   UNL     1      -8.511  53.029  44.340  0.00  0.00    +0.000 A 
ENDROOT
BRANCH   1  17
ATOM     12  S   UNL     1     -13.075  55.942  51.216  0.00  0.00    +0.000 S 
ATOM     13  O   UNL     1     -12.330  56.131  52.452  0.00  0.00    +0.000 OA
ATOM     14  O   UNL     1     -14.221  55.059  51.183  0.00  0.00    +0.000 OA
ATOM     15  N   UNL     1     -12.030  55.445  50.088  0.00  0.00    +0.000 N 
ATOM     16  C   UNL     1     -13.670  57.528  50.760  0.00  0.00    +0.000 A 
ATOM     17  C   UNL     1     -11.656  56.234  49.127  0.00  0.00    +0.000 C 
ATOM     18  C   UNL     1     -13.089  58.145  49.663  0.00  0.00    +0.000 A 
ATOM     19  C   UNL     1     -14.703  58.123  51.483  0.00  0.00    +0.000 A 
ATOM     20  N   UNL     1     -12.047  57.546  48.961  0.00  0.00    +0.000 N 
ATOM     21  C   UNL     1     -13.521  59.432  49.323  0.00  0.00    +0.000 A 
ATOM     22  C   UNL     1     -15.146  59.390  51.114  0.00  0.00    +0.000 A 
ATOM     23  C   UNL     1     -14.548  60.048  50.039  0.00  0.00    +0.000 A 
ATOM     24  H   UNL     1     -11.671  54.529  50.129  0.00  0.00    +0.000 HD
ATOM     25  H   UNL     1     -11.557  58.094  48.306  0.00  0.00    +0.000 HD
ENDBRANCH   1  17
BRANCH   3  26
ATOM     26  O   UNL     1     -12.524  54.820  46.746  0.00  0.00    +0.000 OA
ATOM     27  H   UNL     1     -13.129  55.512  46.927  0.00  0.00    +0.000 HD
ENDBRANCH   3  26
BRANCH   5  28
ATOM     28  N   UNL     1      -6.946  55.184  47.638  0.00  0.00    +0.000 N 
ATOM     29  H   UNL     1      -6.366  55.766  47.096  0.00  0.00    +0.000 HD
BRANCH  28  30
ATOM     30  C   UNL     1      -6.426  54.314  48.702  0.00  0.00    +0.000 C 
BRANCH  30  31
ATOM     31  C   UNL     1      -5.520  55.079  49.667  0.00  0.00    +0.000 C 
BRANCH  31  32
ATOM     32  C   UNL     1      -5.533  54.404  51.042  0.00  0.00    +0.000 C 
ATOM     33  C   UNL     1      -4.205  53.736  51.352  0.00  0.00    +0.000 C 
ENDBRANCH  31  32
ENDBRANCH  30  31
ENDBRANCH  28  30
ENDBRANCH   5  28
TORSDOF 6
ENDMDL
MODEL 6
REMARK VINA RESULT:      -7.5      3.939      4.719
REMARK  Name = 
REMARK  7 active torsions:
REMARK  status: ('A' for Active; 'I' for Inactive)
REMARK    1  A    between atoms: C_6  and  C_10
REMARK    2  A    between atoms: C_14  and  O_18
REMARK    3  A    between atoms: N_17  and  N_20
REMARK    4  A    between atoms: N_20  and  C_23
REMARK    5  A    between atoms: C_23  and  C_26
REMARK    6  A    between atoms: C_26  and  C_28
REMARK    7  A    between atoms: C_28  and  C_29
REMARK                            x       y       z     vdW  Elec       q    Type
REMARK                         _______ _______ _______ _____ _____    ______ ____
ROOT
ATOM      1  C   UNL     1     -12.447  54.324  49.741  0.00  0.00    +0.000 A 
ATOM      2  C   UNL     1     -12.008  54.213  48.321  0.00  0.00    +0.000 A 
ATOM      3  C   UNL     1     -12.067  53.409  50.649  0.00  0.00    +0.000 A 
ATOM      4  O   UNL     1     -12.396  55.094  47.548  0.00  0.00    +0.000 OA
ATOM      5  N   UNL     1     -11.167  53.152  47.969  0.00  0.00    +0.000 N 
ATOM      6  C   UNL     1     -11.193  52.296  50.261  0.00  0.00    +0.000 A 
ATOM      7  C   UNL     1     -10.758  52.175  48.928  0.00  0.00    +0.000 A 
ATOM      8  C   UNL     1     -10.759  51.365  51.220  0.00  0.00    +0.000 A 
ATOM      9  C   UNL     1      -9.912  51.109  48.582  0.00  0.00    +0.000 A 
ATOM     10  C   UNL     1      -9.890  50.334  50.872  0.00  0.00    +0.000 A 
ATOM     11  C   UNL     1      -9.470  50.205  49.552  0.00  0.00    +0.000 A 
ENDROOT
BRANCH   1  17
ATOM     12  S   UNL     1     -15.379  56.475  51.202  0.00  0.00    +0.000 S 
ATOM     13  O   UNL     1     -15.304  56.587  52.650  0.00  0.00    +0.000 OA
ATOM     14  O   UNL     1     -16.655  56.268  50.551  0.00  0.00    +0.000 OA
ATOM     15  N   UNL     1     -14.391  55.278  50.753  0.00  0.00    +0.000 N 
ATOM     16  C   UNL     1     -14.746  57.983  50.565  0.00  0.00    +0.000 A 
ATOM     17  C   UNL     1     -13.267  55.526  50.152  0.00  0.00    +0.000 C 
ATOM     18  C   UNL     1     -13.506  57.954  49.946  0.00  0.00    +0.000 A 
ATOM     19  C   UNL     1     -15.491  59.156  50.675  0.00  0.00    +0.000 A 
ATOM     20  N   UNL     1     -12.767  56.777  49.859  0.00  0.00    +0.000 N 
ATOM     21  C   UNL     1     -12.970  59.160  49.482  0.00  0.00    +0.000 A 
ATOM     22  C   UNL     1     -14.961  60.344  50.180  0.00  0.00    +0.000 A 
ATOM     23  C   UNL     1     -13.696  60.347  49.591  0.00  0.00    +0.000 A 
ATOM     24  H   UNL     1     -14.645  54.344  50.939  0.00  0.00    +0.000 HD
ATOM     25  H   UNL     1     -11.828  56.843  49.569  0.00  0.00    +0.000 HD
ENDBRANCH   1  17
BRANCH   3  26
ATOM     26  O   UNL     1     -12.408  53.451  51.990  0.00  0.00    +0.000 OA
ATOM     27  H   UNL     1     -11.737  53.507  52.641  0.00  0.00    +0.000 HD
ENDBRANCH   3  26
BRANCH   5  28
ATOM     28  N   UNL     1     -10.715  52.989  46.608  0.00  0.00    +0.000 N 
ATOM     29  H   UNL     1     -11.291  52.633  45.893  0.00  0.00    +0.000 HD
BRANCH  28  30
ATOM     30  C   UNL     1      -9.323  53.400  46.378  0.00  0.00    +0.000 C 
BRANCH  30  31
ATOM     31  C   UNL     1      -9.139  54.906  46.567  0.00  0.00    +0.000 C 
BRANCH  31  32
ATOM     32  C   UNL     1      -8.203  55.172  47.750  0.00  0.00    +0.000 C 
ATOM     33  C   UNL     1      -8.898  55.956  48.849  0.00  0.00    +0.000 C 
ENDBRANCH  31  32
ENDBRANCH  30  31
ENDBRANCH  28  30
ENDBRANCH   5  28
TORSDOF 6
ENDMDL
MODEL 7
REMARK VINA RESULT:      -7.5      1.819      2.064
REMARK  Name = 
REMARK  7 active torsions:
REMARK  status: ('A' for Active; 'I' for Inactive)
REMARK    1  A    between atoms: C_6  and  C_10
REMARK    2  A    between atoms: C_14  and  O_18
REMARK    3  A    between atoms: N_17  and  N_20
REMARK    4  A    between atoms: N_20  and  C_23
REMARK    5  A    between atoms: C_23  and  C_26
REMARK    6  A    between atoms: C_26  and  C_28
REMARK    7  A    between atoms: C_28  and  C_29
REMARK                            x       y       z     vdW  Elec       q    Type
REMARK                         _______ _______ _______ _____ _____    ______ ____
ROOT
ATOM      1  C   UNL     1     -11.045  54.725  51.039  0.00  0.00    +0.000 A 
ATOM      2  C   UNL     1      -9.645  55.173  50.793  0.00  0.00    +0.000 A 
ATOM      3  C   UNL     1     -11.301  53.473  51.455  0.00  0.00    +0.000 A 
ATOM      4  O   UNL     1      -9.491  56.339  50.416  0.00  0.00    +0.000 OA
ATOM      5  N   UNL     1      -8.607  54.266  51.035  0.00  0.00    +0.000 N 
ATOM      6  C   UNL     1     -10.201  52.531  51.694  0.00  0.00    +0.000 A 
ATOM      7  C   UNL     1      -8.871  52.933  51.476  0.00  0.00    +0.000 A 
ATOM      8  C   UNL     1     -10.466  51.236  52.172  0.00  0.00    +0.000 A 
ATOM      9  C   UNL     1      -7.835  52.018  51.725  0.00  0.00    +0.000 A 
ATOM     10  C   UNL     1      -9.427  50.351  52.449  0.00  0.00    +0.000 A 
ATOM     11  C   UNL     1      -8.112  50.742  52.222  0.00  0.00    +0.000 A 
ENDROOT
BRANCH   1  17
ATOM     12  S   UNL     1     -13.505  57.292  49.392  0.00  0.00    +0.000 S 
ATOM     13  O   UNL     1     -14.602  56.631  48.702  0.00  0.00    +0.000 OA
ATOM     14  O   UNL     1     -12.860  58.444  48.799  0.00  0.00    +0.000 OA
ATOM     15  N   UNL     1     -12.370  56.179  49.682  0.00  0.00    +0.000 N 
ATOM     16  C   UNL     1     -14.155  57.835  50.928  0.00  0.00    +0.000 A 
ATOM     17  C   UNL     1     -12.163  55.731  50.883  0.00  0.00    +0.000 C 
ATOM     18  C   UNL     1     -13.742  57.174  52.075  0.00  0.00    +0.000 A 
ATOM     19  C   UNL     1     -15.044  58.908  50.973  0.00  0.00    +0.000 A 
ATOM     20  N   UNL     1     -12.866  56.093  52.013  0.00  0.00    +0.000 N 
ATOM     21  C   UNL     1     -14.294  57.565  53.299  0.00  0.00    +0.000 A 
ATOM     22  C   UNL     1     -15.561  59.309  52.201  0.00  0.00    +0.000 A 
ATOM     23  C   UNL     1     -15.192  58.631  53.364  0.00  0.00    +0.000 A 
ATOM     24  H   UNL     1     -11.826  55.835  48.937  0.00  0.00    +0.000 HD
ATOM     25  H   UNL     1     -12.741  55.554  52.827  0.00  0.00    +0.000 HD
ENDBRANCH   1  17
BRANCH   3  26
ATOM     26  O   UNL     1     -12.566  52.985  51.731  0.00  0.00    +0.000 OA
ATOM     27  H   UNL     1     -13.160  53.491  52.250  0.00  0.00    +0.000 HD
ENDBRANCH   3  26
BRANCH   5  28
ATOM     28  N   UNL     1      -7.233  54.640  50.807  0.00  0.00    +0.000 N 
ATOM     29  H   UNL     1      -6.847  54.736  49.906  0.00  0.00    +0.000 HD
BRANCH  28  30
ATOM     30  C   UNL     1      -6.455  54.867  52.033  0.00  0.00    +0.000 C 
BRANCH  30  31
ATOM     31  C   UNL     1      -7.099  55.931  52.923  0.00  0.00    +0.000 C 
BRANCH  31  32
ATOM     32  C   UNL     1      -7.433  55.332  54.293  0.00  0.00    +0.000 C 
ATOM     33  C   UNL     1      -6.373  54.344  54.746  0.00  0.00    +0.000 C 
ENDBRANCH  31  32
ENDBRANCH  30  31
ENDBRANCH  28  30
ENDBRANCH   5  28
TORSDOF 6
ENDMDL
MODEL 8
REMARK VINA RESULT:      -7.5      3.294      4.823
REMARK  Name = 
REMARK  7 active torsions:
REMARK  status: ('A' for Active; 'I' for Inactive)
REMARK    1  A    between atoms: C_6  and  C_10
REMARK    2  A    between atoms: C_14  and  O_18
REMARK    3  A    between atoms: N_17  and  N_20
REMARK    4  A    between atoms: N_20  and  C_23
REMARK    5  A    between atoms: C_23  and  C_26
REMARK    6  A    between atoms: C_26  and  C_28
REMARK    7  A    between atoms: C_28  and  C_29
REMARK                            x       y       z     vdW  Elec       q    Type
REMARK                         _______ _______ _______ _____ _____    ______ ____
ROOT
ATOM      1  C   UNL     1     -11.450  55.910  48.885  0.00  0.00    +0.000 A 
ATOM      2  C   UNL     1     -10.447  55.274  49.787  0.00  0.00    +0.000 A 
ATOM      3  C   UNL     1     -11.512  55.573  47.587  0.00  0.00    +0.000 A 
ATOM      4  O   UNL     1     -10.454  55.634  50.969  0.00  0.00    +0.000 OA
ATOM      5  N   UNL     1      -9.599  54.299  49.252  0.00  0.00    +0.000 N 
ATOM      6  C   UNL     1     -10.608  54.555  47.038  0.00  0.00    +0.000 A 
ATOM      7  C   UNL     1      -9.660  53.935  47.872  0.00  0.00    +0.000 A 
ATOM      8  C   UNL     1     -10.705  54.171  45.690  0.00  0.00    +0.000 A 
ATOM      9  C   UNL     1      -8.814  52.955  47.328  0.00  0.00    +0.000 A 
ATOM     10  C   UNL     1      -9.885  53.171  45.172  0.00  0.00    +0.000 A 
ATOM     11  C   UNL     1      -8.938  52.566  45.991  0.00  0.00    +0.000 A 
ENDROOT
BRANCH   1  17
ATOM     12  S   UNL     1     -13.526  59.184  49.455  0.00  0.00    +0.000 S 
ATOM     13  O   UNL     1     -14.654  59.281  48.542  0.00  0.00    +0.000 OA
ATOM     14  O   UNL     1     -12.728  60.354  49.756  0.00  0.00    +0.000 OA
ATOM     15  N   UNL     1     -12.537  58.039  48.890  0.00  0.00    +0.000 N 
ATOM     16  C   UNL     1     -14.186  58.639  50.986  0.00  0.00    +0.000 A 
ATOM     17  C   UNL     1     -12.440  56.886  49.480  0.00  0.00    +0.000 C 
ATOM     18  C   UNL     1     -13.906  57.342  51.386  0.00  0.00    +0.000 A 
ATOM     19  C   UNL     1     -14.952  59.505  51.766  0.00  0.00    +0.000 A 
ATOM     20  N   UNL     1     -13.153  56.484  50.589  0.00  0.00    +0.000 N 
ATOM     21  C   UNL     1     -14.471  56.881  52.580  0.00  0.00    +0.000 A 
ATOM     22  C   UNL     1     -15.482  59.044  52.968  0.00  0.00    +0.000 A 
ATOM     23  C   UNL     1     -15.248  57.729  53.371  0.00  0.00    +0.000 A 
ATOM     24  H   UNL     1     -11.998  58.217  48.085  0.00  0.00    +0.000 HD
ATOM     25  H   UNL     1     -13.129  55.530  50.833  0.00  0.00    +0.000 HD
ENDBRANCH   1  17
BRANCH   3  26
ATOM     26  O   UNL     1     -12.427  56.095  46.687  0.00  0.00    +0.000 OA
ATOM     27  H   UNL     1     -12.568  55.670  45.864  0.00  0.00    +0.000 HD
ENDBRANCH   3  26
BRANCH   5  28
ATOM     28  N   UNL     1      -8.605  53.654  50.075  0.00  0.00    +0.000 N 
ATOM     29  H   UNL     1      -8.708  52.736  50.417  0.00  0.00    +0.000 HD
BRANCH  28  30
ATOM     30  C   UNL     1      -7.426  54.482  50.363  0.00  0.00    +0.000 C 
BRANCH  30  31
ATOM     31  C   UNL     1      -7.023  54.400  51.836  0.00  0.00    +0.000 C 
BRANCH  31  32
ATOM     32  C   UNL     1      -7.385  55.707  52.550  0.00  0.00    +0.000 C 
ATOM     33  C   UNL     1      -7.503  55.511  54.051  0.00  0.00    +0.000 C 
ENDBRANCH  31  32
ENDBRANCH  30  31
ENDBRANCH  28  30
ENDBRANCH   5  28
TORSDOF 6
ENDMDL
MODEL 9
REMARK VINA RESULT:      -7.4      4.364      5.795
REMARK  Name = 
REMARK  7 active torsions:
REMARK  status: ('A' for Active; 'I' for Inactive)
REMARK    1  A    between atoms: C_6  and  C_10
REMARK    2  A    between atoms: C_14  and  O_18
REMARK    3  A    between atoms: N_17  and  N_20
REMARK    4  A    between atoms: N_20  and  C_23
REMARK    5  A    between atoms: C_23  and  C_26
REMARK    6  A    between atoms: C_26  and  C_28
REMARK    7  A    between atoms: C_28  and  C_29
REMARK                            x       y       z     vdW  Elec       q    Type
REMARK                         _______ _______ _______ _____ _____    ______ ____
ROOT
ATOM      1  C   UNL     1     -10.246  54.854  47.697  0.00  0.00    +0.000 A 
ATOM      2  C   UNL     1      -8.757  54.933  47.679  0.00  0.00    +0.000 A 
ATOM      3  C   UNL     1     -10.916  54.330  46.658  0.00  0.00    +0.000 A 
ATOM      4  O   UNL     1      -8.214  55.425  48.673  0.00  0.00    +0.000 OA
ATOM      5  N   UNL     1      -8.081  54.420  46.567  0.00  0.00    +0.000 N 
ATOM      6  C   UNL     1     -10.192  53.805  45.494  0.00  0.00    +0.000 A 
ATOM      7  C   UNL     1      -8.787  53.861  45.458  0.00  0.00    +0.000 A 
ATOM      8  C   UNL     1     -10.891  53.215  44.427  0.00  0.00    +0.000 A 
ATOM      9  C   UNL     1      -8.114  53.340  44.341  0.00  0.00    +0.000 A 
ATOM     10  C   UNL     1     -10.210  52.670  43.342  0.00  0.00    +0.000 A 
ATOM     11  C   UNL     1      -8.822  52.736  43.298  0.00  0.00    +0.000 A 
ENDROOT
BRANCH   1  17
ATOM     12  S   UNL     1     -11.628  54.902  51.363  0.00  0.00    +0.000 S 
ATOM     13  O   UNL     1     -10.634  55.374  52.315  0.00  0.00    +0.000 OA
ATOM     14  O   UNL     1     -12.483  53.782  51.696  0.00  0.00    +0.000 OA
ATOM     15  N   UNL     1     -10.858  54.551  49.987  0.00  0.00    +0.000 N 
ATOM     16  C   UNL     1     -12.699  56.260  51.067  0.00  0.00    +0.000 A 
ATOM     17  C   UNL     1     -10.978  55.308  48.939  0.00  0.00    +0.000 C 
ATOM     18  C   UNL     1     -12.625  56.885  49.832  0.00  0.00    +0.000 A 
ATOM     19  C   UNL     1     -13.598  56.670  52.051  0.00  0.00    +0.000 A 
ATOM     20  N   UNL     1     -11.710  56.474  48.866  0.00  0.00    +0.000 N 
ATOM     21  C   UNL     1     -13.438  58.001  49.605  0.00  0.00    +0.000 A 
ATOM     22  C   UNL     1     -14.425  57.761  51.801  0.00  0.00    +0.000 A 
ATOM     23  C   UNL     1     -14.338  58.432  50.580  0.00  0.00    +0.000 A 
ATOM     24  H   UNL     1     -10.289  53.748  49.941  0.00  0.00    +0.000 HD
ATOM     25  H   UNL     1     -11.577  57.054  48.081  0.00  0.00    +0.000 HD
ENDBRANCH   1  17
BRANCH   3  26
ATOM     26  O   UNL     1     -12.293  54.195  46.604  0.00  0.00    +0.000 OA
ATOM     27  H   UNL     1     -12.674  53.429  46.223  0.00  0.00    +0.000 HD
ENDBRANCH   3  26
BRANCH   5  28
ATOM     28  N   UNL     1      -6.641  54.475  46.491  0.00  0.00    +0.000 N 
ATOM     29  H   UNL     1      -6.158  55.197  46.027  0.00  0.00    +0.000 HD
BRANCH  28  30
ATOM     30  C   UNL     1      -5.955  53.362  47.162  0.00  0.00    +0.000 C 
BRANCH  30  31
ATOM     31  C   UNL     1      -4.986  53.860  48.235  0.00  0.00    +0.000 C 
BRANCH  31  32
ATOM     32  C   UNL     1      -5.451  53.387  49.617  0.00  0.00    +0.000 C 
ATOM     33  C   UNL     1      -4.892  54.261  50.725  0.00  0.00    +0.000 C 
ENDBRANCH  31  32
ENDBRANCH  30  31
ENDBRANCH  28  30
ENDBRANCH   5  28
TORSDOF 6
ENDMDL
