MODEL 1
REMARK VINA RESULT:      -9.7      0.000      0.000
REMARK  Name = 
REMARK  6 active torsions:
REMARK  status: ('A' for Active; 'I' for Inactive)
REMARK    1  A    between atoms: C_6  and  C_10
REMARK    2  A    between atoms: C_14  and  O_18
REMARK    3  A    between atoms: N_17  and  N_20
REMARK    4  A    between atoms: N_20  and  C_23
REMARK    5  A    between atoms: C_23  and  C_26
REMARK    6  A    between atoms: C_28  and  C_31
REMARK                            x       y       z     vdW  Elec       q    Type
REMARK                         _______ _______ _______ _____ _____    ______ ____
ROOT
ATOM      1  C   UNL     1      -9.064  54.705  50.111  0.00  0.00    +0.000 A 
ATOM      2  C   UNL     1     -10.442  55.226  50.364  0.00  0.00    +0.000 A 
ATOM      3  C   UNL     1      -8.719  54.251  48.894  0.00  0.00    +0.000 A 
ATOM      4  O   UNL     1     -10.668  55.657  51.500  0.00  0.00    +0.000 OA
ATOM      5  N   UNL     1     -11.363  55.200  49.311  0.00  0.00    +0.000 N 
ATOM      6  C   UNL     1      -9.679  54.292  47.782  0.00  0.00    +0.000 A 
ATOM      7  C   UNL     1     -10.983  54.768  48.001  0.00  0.00    +0.000 A 
ATOM      8  C   UNL     1      -9.301  53.878  46.493  0.00  0.00    +0.000 A 
ATOM      9  C   UNL     1     -11.878  54.824  46.916  0.00  0.00    +0.000 A 
ATOM     10  C   UNL     1     -10.195  53.947  45.427  0.00  0.00    +0.000 A 
ATOM     11  C   UNL     1     -11.484  54.422  45.639  0.00  0.00    +0.000 A 
ENDROOT
BRANCH   1  17
ATOM     12  S   UNL     1      -7.201  55.869  53.365  0.00  0.00    +0.000 S 
ATOM     13  O   UNL     1      -7.854  55.402  54.572  0.00  0.00    +0.000 OA
ATOM     14  O   UNL     1      -6.666  57.216  53.297  0.00  0.00    +0.000 OA
ATOM     15  N   UNL     1      -8.238  55.679  52.138  0.00  0.00    +0.000 N 
ATOM     16  C   UNL     1      -5.835  54.796  53.108  0.00  0.00    +0.000 A 
ATOM     17  C   UNL     1      -8.053  54.758  51.241  0.00  0.00    +0.000 C 
ATOM     18  C   UNL     1      -5.900  53.908  52.047  0.00  0.00    +0.000 A 
ATOM     19  C   UNL     1      -4.721  54.868  53.948  0.00  0.00    +0.000 A 
ATOM     20  N   UNL     1      -7.024  53.841  51.228  0.00  0.00    +0.000 N 
ATOM     21  C   UNL     1      -4.842  53.009  51.870  0.00  0.00    +0.000 A 
ATOM     22  C   UNL     1      -3.660  53.991  53.737  0.00  0.00    +0.000 A 
ATOM     23  C   UNL     1      -3.725  53.055  52.705  0.00  0.00    +0.000 A 
ATOM     24  H   UNL     1      -9.022  56.272  52.070  0.00  0.00    +0.000 HD
ATOM     25  H   UNL     1      -7.088  53.088  50.597  0.00  0.00    +0.000 HD
ENDBRANCH   1  17
BRANCH   3  26
ATOM     26  O   UNL     1      -7.467  53.760  48.571  0.00  0.00    +0.000 OA
ATOM     27  H   UNL     1      -7.383  52.920  48.162  0.00  0.00    +0.000 HD
ENDBRANCH   3  26
BRANCH   5  28
ATOM     28  N   UNL     1     -12.728  55.627  49.478  0.00  0.00    +0.000 N 
ATOM     29  H   UNL     1     -13.451  54.978  49.641  0.00  0.00    +0.000 HD
BRANCH  28  30
ATOM     30  C   UNL     1     -13.000  57.066  49.398  0.00  0.00    +0.000 C 
BRANCH  30  31
ATOM     31  C   UNL     1     -13.791  57.552  50.594  0.00  0.00    +0.000 A 
ATOM     32  C   UNL     1     -14.107  58.912  50.788  0.00  0.00    +0.000 A 
ATOM     33  C   UNL     1     -14.196  56.608  51.558  0.00  0.00    +0.000 A 
ATOM     34  C   UNL     1     -14.833  59.285  51.933  0.00  0.00    +0.000 A 
ATOM     35  C   UNL     1     -13.705  60.002  49.831  0.00  0.00    +0.000 C 
ATOM     36  C   UNL     1     -14.915  56.997  52.686  0.00  0.00    +0.000 A 
ATOM     37  C   UNL     1     -15.236  58.336  52.872  0.00  0.00    +0.000 A 
ENDBRANCH  30  31
ENDBRANCH  28  30
ENDBRANCH   5  28
TORSDOF 5
ENDMDL
MODEL 2
REMARK VINA RESULT:      -9.6      1.780      1.875
REMARK  Name = 
REMARK  6 active torsions:
REMARK  status: ('A' for Active; 'I' for Inactive)
REMARK    1  A    between atoms: C_6  and  C_10
REMARK    2  A    between atoms: C_14  and  O_18
REMARK    3  A    between atoms: N_17  and  N_20
REMARK    4  A    between atoms: N_20  and  C_23
REMARK    5  A    between atoms: C_23  and  C_26
REMARK    6  A    between atoms: C_28  and  C_31
REMARK                            x       y       z     vdW  Elec       q    Type
REMARK                         _______ _______ _______ _____ _____    ______ ____
ROOT
ATOM      1  C   UNL     1      -9.638  54.155  50.190  0.00  0.00    +0.000 A 
ATOM      2  C   UNL     1     -10.946  54.857  50.367  0.00  0.00    +0.000 A 
ATOM      3  C   UNL     1      -9.244  53.742  48.973  0.00  0.00    +0.000 A 
ATOM      4  O   UNL     1     -11.218  55.234  51.512  0.00  0.00    +0.000 OA
ATOM      5  N   UNL     1     -11.752  55.048  49.239  0.00  0.00    +0.000 N 
ATOM      6  C   UNL     1     -10.074  54.009  47.790  0.00  0.00    +0.000 A 
ATOM      7  C   UNL     1     -11.311  54.660  47.935  0.00  0.00    +0.000 A 
ATOM      8  C   UNL     1      -9.634  53.637  46.507  0.00  0.00    +0.000 A 
ATOM      9  C   UNL     1     -12.077  54.929  46.785  0.00  0.00    +0.000 A 
ATOM     10  C   UNL     1     -10.399  53.918  45.377  0.00  0.00    +0.000 A 
ATOM     11  C   UNL     1     -11.621  54.565  45.517  0.00  0.00    +0.000 A 
ENDROOT
BRANCH   1  17
ATOM     12  S   UNL     1      -6.657  54.618  52.701  0.00  0.00    +0.000 S 
ATOM     13  O   UNL     1      -6.836  55.767  53.566  0.00  0.00    +0.000 OA
ATOM     14  O   UNL     1      -5.352  54.321  52.140  0.00  0.00    +0.000 OA
ATOM     15  N   UNL     1      -7.709  54.750  51.480  0.00  0.00    +0.000 N 
ATOM     16  C   UNL     1      -7.095  53.215  53.664  0.00  0.00    +0.000 A 
ATOM     17  C   UNL     1      -8.747  53.972  51.404  0.00  0.00    +0.000 C 
ATOM     18  C   UNL     1      -8.271  52.556  53.347  0.00  0.00    +0.000 A 
ATOM     19  C   UNL     1      -6.260  52.789  54.699  0.00  0.00    +0.000 A 
ATOM     20  N   UNL     1      -9.098  53.004  52.320  0.00  0.00    +0.000 N 
ATOM     21  C   UNL     1      -8.658  51.473  54.144  0.00  0.00    +0.000 A 
ATOM     22  C   UNL     1      -6.641  51.688  55.462  0.00  0.00    +0.000 A 
ATOM     23  C   UNL     1      -7.844  51.036  55.192  0.00  0.00    +0.000 A 
ATOM     24  H   UNL     1      -7.560  55.429  50.783  0.00  0.00    +0.000 HD
ATOM     25  H   UNL     1      -9.993  52.601  52.243  0.00  0.00    +0.000 HD
ENDBRANCH   1  17
BRANCH   3  26
ATOM     26  O   UNL     1      -8.050  53.093  48.719  0.00  0.00    +0.000 OA
ATOM     27  H   UNL     1      -7.968  52.540  47.966  0.00  0.00    +0.000 HD
ENDBRANCH   3  26
BRANCH   5  28
ATOM     28  N   UNL     1     -13.052  55.663  49.323  0.00  0.00    +0.000 N 
ATOM     29  H   UNL     1     -13.874  55.121  49.340  0.00  0.00    +0.000 HD
BRANCH  28  30
ATOM     30  C   UNL     1     -13.103  57.128  49.384  0.00  0.00    +0.000 C 
BRANCH  30  31
ATOM     31  C   UNL     1     -13.872  57.609  50.596  0.00  0.00    +0.000 A 
ATOM     32  C   UNL     1     -14.113  58.976  50.843  0.00  0.00    +0.000 A 
ATOM     33  C   UNL     1     -14.334  56.652  51.520  0.00  0.00    +0.000 A 
ATOM     34  C   UNL     1     -14.823  59.343  52.000  0.00  0.00    +0.000 A 
ATOM     35  C   UNL     1     -13.646  60.079  49.932  0.00  0.00    +0.000 C 
ATOM     36  C   UNL     1     -15.036  57.035  52.661  0.00  0.00    +0.000 A 
ATOM     37  C   UNL     1     -15.283  58.381  52.899  0.00  0.00    +0.000 A 
ENDBRANCH  30  31
ENDBRANCH  28  30
ENDBRANCH   5  28
TORSDOF 5
ENDMDL
MODEL 3
REMARK VINA RESULT:      -9.6      2.557      7.079
REMARK  Name = 
REMARK  6 active torsions:
REMARK  status: ('A' for Active; 'I' for Inactive)
REMARK    1  A    between atoms: C_6  and  C_10
REMARK    2  A    between atoms: C_14  and  O_18
REMARK    3  A    between atoms: N_17  and  N_20
REMARK    4  A    between atoms: N_20  and  C_23
REMARK    5  A    between atoms: C_23  and  C_26
REMARK    6  A    between atoms: C_28  and  C_31
REMARK                            x       y       z     vdW  Elec       q    Type
REMARK                         _______ _______ _______ _____ _____    ______ ____
ROOT
ATOM      1  C   UNL     1     -11.689  55.831  48.828  0.00  0.00    +0.000 A 
ATOM      2  C   UNL     1     -10.742  55.088  49.716  0.00  0.00    +0.000 A 
ATOM      3  C   UNL     1     -11.751  55.555  47.515  0.00  0.00    +0.000 A 
ATOM      4  O   UNL     1     -10.771  55.378  50.916  0.00  0.00    +0.000 OA
ATOM      5  N   UNL     1      -9.911  54.123  49.136  0.00  0.00    +0.000 N 
ATOM      6  C   UNL     1     -10.918  54.492  46.934  0.00  0.00    +0.000 A 
ATOM      7  C   UNL     1     -10.015  53.788  47.749  0.00  0.00    +0.000 A 
ATOM      8  C   UNL     1     -11.029  54.157  45.574  0.00  0.00    +0.000 A 
ATOM      9  C   UNL     1      -9.246  52.757  47.178  0.00  0.00    +0.000 A 
ATOM     10  C   UNL     1     -10.268  53.127  45.025  0.00  0.00    +0.000 A 
ATOM     11  C   UNL     1      -9.376  52.426  45.828  0.00  0.00    +0.000 A 
ENDROOT
BRANCH   1  17
ATOM     12  S   UNL     1     -13.565  59.215  49.487  0.00  0.00    +0.000 S 
ATOM     13  O   UNL     1     -14.699  59.400  48.602  0.00  0.00    +0.000 OA
ATOM     14  O   UNL     1     -12.692  60.331  49.800  0.00  0.00    +0.000 OA
ATOM     15  N   UNL     1     -12.657  58.021  48.882  0.00  0.00    +0.000 N 
ATOM     16  C   UNL     1     -14.233  58.682  51.022  0.00  0.00    +0.000 A 
ATOM     17  C   UNL     1     -12.612  56.857  49.456  0.00  0.00    +0.000 C 
ATOM     18  C   UNL     1     -14.016  57.368  51.399  0.00  0.00    +0.000 A 
ATOM     19  C   UNL     1     -14.939  59.580  51.826  0.00  0.00    +0.000 A 
ATOM     20  N   UNL     1     -13.321  56.484  50.578  0.00  0.00    +0.000 N 
ATOM     21  C   UNL     1     -14.593  56.918  52.592  0.00  0.00    +0.000 A 
ATOM     22  C   UNL     1     -15.477  59.127  53.028  0.00  0.00    +0.000 A 
ATOM     23  C   UNL     1     -15.314  57.795  53.407  0.00  0.00    +0.000 A 
ATOM     24  H   UNL     1     -12.128  58.181  48.066  0.00  0.00    +0.000 HD
ATOM     25  H   UNL     1     -13.337  55.528  50.815  0.00  0.00    +0.000 HD
ENDBRANCH   1  17
BRANCH   3  26
ATOM     26  O   UNL     1     -12.601  56.186  46.624  0.00  0.00    +0.000 OA
ATOM     27  H   UNL     1     -13.040  56.976  46.875  0.00  0.00    +0.000 HD
ENDBRANCH   3  26
BRANCH   5  28
ATOM     28  N   UNL     1      -8.929  53.399  49.902  0.00  0.00    +0.000 N 
ATOM     29  H   UNL     1      -9.120  52.502  50.262  0.00  0.00    +0.000 HD
BRANCH  28  30
ATOM     30  C   UNL     1      -7.633  54.049  50.123  0.00  0.00    +0.000 C 
BRANCH  30  31
ATOM     31  C   UNL     1      -7.453  54.457  51.570  0.00  0.00    +0.000 A 
ATOM     32  C   UNL     1      -7.419  55.807  51.975  0.00  0.00    +0.000 A 
ATOM     33  C   UNL     1      -7.284  53.446  52.535  0.00  0.00    +0.000 A 
ATOM     34  C   UNL     1      -7.233  56.104  53.336  0.00  0.00    +0.000 A 
ATOM     35  C   UNL     1      -7.569  56.963  51.023  0.00  0.00    +0.000 C 
ATOM     36  C   UNL     1      -7.101  53.759  53.880  0.00  0.00    +0.000 A 
ATOM     37  C   UNL     1      -7.078  55.090  54.281  0.00  0.00    +0.000 A 
ENDBRANCH  30  31
ENDBRANCH  28  30
ENDBRANCH   5  28
TORSDOF 5
ENDMDL
MODEL 4
REMARK VINA RESULT:      -9.5      2.794      7.872
REMARK  Name = 
REMARK  6 active torsions:
REMARK  status: ('A' for Active; 'I' for Inactive)
REMARK    1  A    between atoms: C_6  and  C_10
REMARK    2  A    between atoms: C_14  and  O_18
REMARK    3  A    between atoms: N_17  and  N_20
REMARK    4  A    between atoms: N_20  and  C_23
REMARK    5  A    between atoms: C_23  and  C_26
REMARK    6  A    between atoms: C_28  and  C_31
REMARK                            x       y       z     vdW  Elec       q    Type
REMARK                         _______ _______ _______ _____ _____    ______ ____
ROOT
ATOM      1  C   UNL     1     -11.162  54.605  50.758  0.00  0.00    +0.000 A 
ATOM      2  C   UNL     1      -9.793  54.997  50.304  0.00  0.00    +0.000 A 
ATOM      3  C   UNL     1     -11.389  53.381  51.265  0.00  0.00    +0.000 A 
ATOM      4  O   UNL     1      -9.661  56.151  49.883  0.00  0.00    +0.000 OA
ATOM      5  N   UNL     1      -8.768  54.048  50.398  0.00  0.00    +0.000 N 
ATOM      6  C   UNL     1     -10.288  52.420  51.416  0.00  0.00    +0.000 A 
ATOM      7  C   UNL     1      -8.995  52.764  50.987  0.00  0.00    +0.000 A 
ATOM      8  C   UNL     1     -10.510  51.163  52.006  0.00  0.00    +0.000 A 
ATOM      9  C   UNL     1      -7.950  51.839  51.167  0.00  0.00    +0.000 A 
ATOM     10  C   UNL     1      -9.463  50.261  52.185  0.00  0.00    +0.000 A 
ATOM     11  C   UNL     1      -8.182  50.600  51.766  0.00  0.00    +0.000 A 
ENDROOT
BRANCH   1  17
ATOM     12  S   UNL     1     -13.684  57.239  49.304  0.00  0.00    +0.000 S 
ATOM     13  O   UNL     1     -14.839  56.617  48.688  0.00  0.00    +0.000 OA
ATOM     14  O   UNL     1     -13.053  58.388  48.681  0.00  0.00    +0.000 OA
ATOM     15  N   UNL     1     -12.556  56.097  49.505  0.00  0.00    +0.000 N 
ATOM     16  C   UNL     1     -14.213  57.782  50.888  0.00  0.00    +0.000 A 
ATOM     17  C   UNL     1     -12.270  55.639  50.686  0.00  0.00    +0.000 C 
ATOM     18  C   UNL     1     -13.730  57.108  51.997  0.00  0.00    +0.000 A 
ATOM     19  C   UNL     1     -15.080  58.871  51.001  0.00  0.00    +0.000 A 
ATOM     20  N   UNL     1     -12.877  56.015  51.866  0.00  0.00    +0.000 N 
ATOM     21  C   UNL     1     -14.191  57.495  53.260  0.00  0.00    +0.000 A 
ATOM     22  C   UNL     1     -15.503  59.267  52.267  0.00  0.00    +0.000 A 
ATOM     23  C   UNL     1     -15.067  58.574  53.396  0.00  0.00    +0.000 A 
ATOM     24  H   UNL     1     -12.079  55.743  48.719  0.00  0.00    +0.000 HD
ATOM     25  H   UNL     1     -12.695  55.475  52.668  0.00  0.00    +0.000 HD
ENDBRANCH   1  17
BRANCH   3  26
ATOM     26  O   UNL     1     -12.620  52.939  51.715  0.00  0.00    +0.000 OA
ATOM     27  H   UNL     1     -13.312  53.554  51.867  0.00  0.00    +0.000 HD
ENDBRANCH   3  26
BRANCH   5  28
ATOM     28  N   UNL     1      -7.432  54.317  49.932  0.00  0.00    +0.000 N 
ATOM     29  H   UNL     1      -7.039  53.810  49.184  0.00  0.00    +0.000 HD
BRANCH  28  30
ATOM     30  C   UNL     1      -6.680  55.375  50.614  0.00  0.00    +0.000 C 
BRANCH  30  31
ATOM     31  C   UNL     1      -6.410  55.024  52.062  0.00  0.00    +0.000 A 
ATOM     32  C   UNL     1      -5.309  54.237  52.456  0.00  0.00    +0.000 A 
ATOM     33  C   UNL     1      -7.314  55.481  53.042  0.00  0.00    +0.000 A 
ATOM     34  C   UNL     1      -5.136  53.942  53.819  0.00  0.00    +0.000 A 
ATOM     35  C   UNL     1      -4.298  53.683  51.488  0.00  0.00    +0.000 C 
ATOM     36  C   UNL     1      -7.126  55.179  54.389  0.00  0.00    +0.000 A 
ATOM     37  C   UNL     1      -6.034  54.412  54.777  0.00  0.00    +0.000 A 
ENDBRANCH  30  31
ENDBRANCH  28  30
ENDBRANCH   5  28
TORSDOF 5
ENDMDL
MODEL 5
REMARK VINA RESULT:      -9.5      2.876      8.667
REMARK  Name = 
REMARK  6 active torsions:
REMARK  status: ('A' for Active; 'I' for Inactive)
REMARK    1  A    between atoms: C_6  and  C_10
REMARK    2  A    between atoms: C_14  and  O_18
REMARK    3  A    between atoms: N_17  and  N_20
REMARK    4  A    between atoms: N_20  and  C_23
REMARK    5  A    between atoms: C_23  and  C_26
REMARK    6  A    between atoms: C_28  and  C_31
REMARK                            x       y       z     vdW  Elec       q    Type
REMARK                         _______ _______ _______ _____ _____    ______ ____
ROOT
ATOM      1  C   UNL     1     -10.122  54.575  52.167  0.00  0.00    +0.000 A 
ATOM      2  C   UNL     1      -8.763  55.170  51.985  0.00  0.00    +0.000 A 
ATOM      3  C   UNL     1     -10.287  53.458  52.895  0.00  0.00    +0.000 A 
ATOM      4  O   UNL     1      -8.702  56.216  51.330  0.00  0.00    +0.000 OA
ATOM      5  N   UNL     1      -7.672  54.517  52.570  0.00  0.00    +0.000 N 
ATOM      6  C   UNL     1      -9.139  52.822  53.556  0.00  0.00    +0.000 A 
ATOM      7  C   UNL     1      -7.851  53.359  53.392  0.00  0.00    +0.000 A 
ATOM      8  C   UNL     1      -9.318  51.691  54.372  0.00  0.00    +0.000 A 
ATOM      9  C   UNL     1      -6.770  52.750  54.056  0.00  0.00    +0.000 A 
ATOM     10  C   UNL     1      -8.239  51.104  55.031  0.00  0.00    +0.000 A 
ATOM     11  C   UNL     1      -6.965  51.635  54.873  0.00  0.00    +0.000 A 
ENDROOT
BRANCH   1  17
ATOM     12  S   UNL     1     -12.556  56.110  49.496  0.00  0.00    +0.000 S 
ATOM     13  O   UNL     1     -13.431  55.114  48.909  0.00  0.00    +0.000 OA
ATOM     14  O   UNL     1     -11.959  57.140  48.666  0.00  0.00    +0.000 OA
ATOM     15  N   UNL     1     -11.364  55.329  50.262  0.00  0.00    +0.000 N 
ATOM     16  C   UNL     1     -13.524  56.958  50.692  0.00  0.00    +0.000 A 
ATOM     17  C   UNL     1     -11.312  55.295  51.559  0.00  0.00    +0.000 C 
ATOM     18  C   UNL     1     -13.234  56.741  52.029  0.00  0.00    +0.000 A 
ATOM     19  C   UNL     1     -14.534  57.831  50.283  0.00  0.00    +0.000 A 
ATOM     20  N   UNL     1     -12.232  55.856  52.419  0.00  0.00    +0.000 N 
ATOM     21  C   UNL     1     -14.037  57.367  52.990  0.00  0.00    +0.000 A 
ATOM     22  C   UNL     1     -15.301  58.474  51.251  0.00  0.00    +0.000 A 
ATOM     23  C   UNL     1     -15.060  58.235  52.604  0.00  0.00    +0.000 A 
ATOM     24  H   UNL     1     -10.667  54.874  49.736  0.00  0.00    +0.000 HD
ATOM     25  H   UNL     1     -12.177  55.615  53.372  0.00  0.00    +0.000 HD
ENDBRANCH   1  17
BRANCH   3  26
ATOM     26  O   UNL     1     -11.507  52.846  53.120  0.00  0.00    +0.000 OA
ATOM     27  H   UNL     1     -11.625  52.298  53.871  0.00  0.00    +0.000 HD
ENDBRANCH   3  26
BRANCH   5  28
ATOM     28  N   UNL     1      -6.320  54.984  52.401  0.00  0.00    +0.000 N 
ATOM     29  H   UNL     1      -5.849  55.462  53.123  0.00  0.00    +0.000 HD
BRANCH  28  30
ATOM     30  C   UNL     1      -5.671  54.719  51.113  0.00  0.00    +0.000 C 
BRANCH  30  31
ATOM     31  C   UNL     1      -5.107  53.315  51.051  0.00  0.00    +0.000 A 
ATOM     32  C   UNL     1      -5.794  52.252  50.430  0.00  0.00    +0.000 A 
ATOM     33  C   UNL     1      -3.864  53.065  51.664  0.00  0.00    +0.000 A 
ATOM     34  C   UNL     1      -5.210  50.973  50.428  0.00  0.00    +0.000 A 
ATOM     35  C   UNL     1      -7.135  52.407  49.765  0.00  0.00    +0.000 C 
ATOM     36  C   UNL     1      -3.300  51.791  51.652  0.00  0.00    +0.000 A 
ATOM     37  C   UNL     1      -3.973  50.745  51.030  0.00  0.00    +0.000 A 
ENDBRANCH  30  31
ENDBRANCH  28  30
ENDBRANCH   5  28
TORSDOF 5
ENDMDL
MODEL 6
REMARK VINA RESULT:      -9.2      1.926      2.266
REMARK  Name = 
REMARK  6 active torsions:
REMARK  status: ('A' for Active; 'I' for Inactive)
REMARK    1  A    between atoms: C_6  and  C_10
REMARK    2  A    between atoms: C_14  and  O_18
REMARK    3  A    between atoms: N_17  and  N_20
REMARK    4  A    between atoms: N_20  and  C_23
REMARK    5  A    between atoms: C_23  and  C_26
REMARK    6  A    between atoms: C_28  and  C_31
REMARK                            x       y       z     vdW  Elec       q    Type
REMARK                         _______ _______ _______ _____ _____    ______ ____
ROOT
ATOM      1  C   UNL     1      -9.754  53.566  49.829  0.00  0.00    +0.000 A 
ATOM      2  C   UNL     1     -10.910  54.488  50.045  0.00  0.00    +0.000 A 
ATOM      3  C   UNL     1      -9.481  53.089  48.602  0.00  0.00    +0.000 A 
ATOM      4  O   UNL     1     -11.073  54.908  51.195  0.00  0.00    +0.000 OA
ATOM      5  N   UNL     1     -11.709  54.817  48.944  0.00  0.00    +0.000 N 
ATOM      6  C   UNL     1     -10.291  53.496  47.446  0.00  0.00    +0.000 A 
ATOM      7  C   UNL     1     -11.388  54.355  47.628  0.00  0.00    +0.000 A 
ATOM      8  C   UNL     1      -9.967  53.051  46.152  0.00  0.00    +0.000 A 
ATOM      9  C   UNL     1     -12.133  54.754  46.503  0.00  0.00    +0.000 A 
ATOM     10  C   UNL     1     -10.709  53.461  45.046  0.00  0.00    +0.000 A 
ATOM     11  C   UNL     1     -11.793  54.314  45.222  0.00  0.00    +0.000 A 
ENDROOT
BRANCH   1  17
ATOM     12  S   UNL     1      -8.098  51.555  52.766  0.00  0.00    +0.000 S 
ATOM     13  O   UNL     1      -7.051  50.664  52.305  0.00  0.00    +0.000 OA
ATOM     14  O   UNL     1      -9.029  51.121  53.792  0.00  0.00    +0.000 OA
ATOM     15  N   UNL     1      -8.955  52.019  51.475  0.00  0.00    +0.000 N 
ATOM     16  C   UNL     1      -7.280  52.963  53.425  0.00  0.00    +0.000 A 
ATOM     17  C   UNL     1      -8.867  53.230  51.013  0.00  0.00    +0.000 C 
ATOM     18  C   UNL     1      -7.366  54.150  52.718  0.00  0.00    +0.000 A 
ATOM     19  C   UNL     1      -6.586  52.866  54.634  0.00  0.00    +0.000 A 
ATOM     20  N   UNL     1      -8.050  54.224  51.508  0.00  0.00    +0.000 N 
ATOM     21  C   UNL     1      -6.669  55.262  53.205  0.00  0.00    +0.000 A 
ATOM     22  C   UNL     1      -5.927  53.991  55.123  0.00  0.00    +0.000 A 
ATOM     23  C   UNL     1      -5.959  55.185  54.405  0.00  0.00    +0.000 A 
ATOM     24  H   UNL     1      -9.554  51.374  51.034  0.00  0.00    +0.000 HD
ATOM     25  H   UNL     1      -7.944  55.042  50.969  0.00  0.00    +0.000 HD
ENDBRANCH   1  17
BRANCH   3  26
ATOM     26  O   UNL     1      -8.428  52.239  48.312  0.00  0.00    +0.000 OA
ATOM     27  H   UNL     1      -8.084  52.199  47.441  0.00  0.00    +0.000 HD
ENDBRANCH   3  26
BRANCH   5  28
ATOM     28  N   UNL     1     -12.876  55.651  49.067  0.00  0.00    +0.000 N 
ATOM     29  H   UNL     1     -13.782  55.286  48.938  0.00  0.00    +0.000 HD
BRANCH  28  30
ATOM     30  C   UNL     1     -12.663  57.065  49.394  0.00  0.00    +0.000 C 
BRANCH  30  31
ATOM     31  C   UNL     1     -13.584  57.525  50.505  0.00  0.00    +0.000 A 
ATOM     32  C   UNL     1     -13.970  58.872  50.657  0.00  0.00    +0.000 A 
ATOM     33  C   UNL     1     -14.044  56.570  51.433  0.00  0.00    +0.000 A 
ATOM     34  C   UNL     1     -14.816  59.222  51.723  0.00  0.00    +0.000 A 
ATOM     35  C   UNL     1     -13.520  59.973  49.733  0.00  0.00    +0.000 C 
ATOM     36  C   UNL     1     -14.882  56.935  52.485  0.00  0.00    +0.000 A 
ATOM     37  C   UNL     1     -15.271  58.262  52.627  0.00  0.00    +0.000 A 
ENDBRANCH  30  31
ENDBRANCH  28  30
ENDBRANCH   5  28
TORSDOF 5
ENDMDL
MODEL 7
REMARK VINA RESULT:      -9.2      1.999      5.469
REMARK  Name = 
REMARK  6 active torsions:
REMARK  status: ('A' for Active; 'I' for Inactive)
REMARK    1  A    between atoms: C_6  and  C_10
REMARK    2  A    between atoms: C_14  and  O_18
REMARK    3  A    between atoms: N_17  and  N_20
REMARK    4  A    between atoms: N_20  and  C_23
REMARK    5  A    between atoms: C_23  and  C_26
REMARK    6  A    between atoms: C_28  and  C_31
REMARK                            x       y       z     vdW  Elec       q    Type
REMARK                         _______ _______ _______ _____ _____    ______ ____
ROOT
ATOM      1  C   UNL     1     -10.088  54.092  51.092  0.00  0.00    +0.000 A 
ATOM      2  C   UNL     1     -10.550  53.788  49.703  0.00  0.00    +0.000 A 
ATOM      3  C   UNL     1     -10.799  54.913  51.883  0.00  0.00    +0.000 A 
ATOM      4  O   UNL     1      -9.857  52.997  49.053  0.00  0.00    +0.000 OA
ATOM      5  N   UNL     1     -11.723  54.399  49.247  0.00  0.00    +0.000 N 
ATOM      6  C   UNL     1     -12.063  55.496  51.411  0.00  0.00    +0.000 A 
ATOM      7  C   UNL     1     -12.511  55.230  50.105  0.00  0.00    +0.000 A 
ATOM      8  C   UNL     1     -12.842  56.302  52.259  0.00  0.00    +0.000 A 
ATOM      9  C   UNL     1     -13.737  55.776  49.682  0.00  0.00    +0.000 A 
ATOM     10  C   UNL     1     -14.059  56.829  51.829  0.00  0.00    +0.000 A 
ATOM     11  C   UNL     1     -14.506  56.565  50.540  0.00  0.00    +0.000 A 
ENDROOT
BRANCH   1  17
ATOM     12  S   UNL     1      -7.746  51.682  53.121  0.00  0.00    +0.000 S 
ATOM     13  O   UNL     1      -7.700  50.349  52.554  0.00  0.00    +0.000 OA
ATOM     14  O   UNL     1      -7.804  51.864  54.560  0.00  0.00    +0.000 OA
ATOM     15  N   UNL     1      -9.007  52.454  52.466  0.00  0.00    +0.000 N 
ATOM     16  C   UNL     1      -6.272  52.481  52.595  0.00  0.00    +0.000 A 
ATOM     17  C   UNL     1      -8.834  53.408  51.602  0.00  0.00    +0.000 C 
ATOM     18  C   UNL     1      -6.385  53.493  51.657  0.00  0.00    +0.000 A 
ATOM     19  C   UNL     1      -5.041  52.103  53.135  0.00  0.00    +0.000 A 
ATOM     20  N   UNL     1      -7.620  53.848  51.120  0.00  0.00    +0.000 N 
ATOM     21  C   UNL     1      -5.212  54.096  51.189  0.00  0.00    +0.000 A 
ATOM     22  C   UNL     1      -3.885  52.736  52.686  0.00  0.00    +0.000 A 
ATOM     23  C   UNL     1      -3.969  53.725  51.706  0.00  0.00    +0.000 A 
ATOM     24  H   UNL     1      -9.921  52.197  52.729  0.00  0.00    +0.000 HD
ATOM     25  H   UNL     1      -7.626  54.454  50.344  0.00  0.00    +0.000 HD
ENDBRANCH   1  17
BRANCH   3  26
ATOM     26  O   UNL     1     -10.450  55.242  53.181  0.00  0.00    +0.000 OA
ATOM     27  H   UNL     1      -9.548  55.246  53.437  0.00  0.00    +0.000 HD
ENDBRANCH   3  26
BRANCH   5  28
ATOM     28  N   UNL     1     -12.212  54.211  47.906  0.00  0.00    +0.000 N 
ATOM     29  H   UNL     1     -12.883  53.520  47.698  0.00  0.00    +0.000 HD
BRANCH  28  30
ATOM     30  C   UNL     1     -11.676  55.091  46.862  0.00  0.00    +0.000 C 
BRANCH  30  31
ATOM     31  C   UNL     1     -10.792  54.333  45.893  0.00  0.00    +0.000 A 
ATOM     32  C   UNL     1      -9.388  54.455  45.897  0.00  0.00    +0.000 A 
ATOM     33  C   UNL     1     -11.406  53.499  44.938  0.00  0.00    +0.000 A 
ATOM     34  C   UNL     1      -8.639  53.729  44.955  0.00  0.00    +0.000 A 
ATOM     35  C   UNL     1      -8.635  55.332  46.861  0.00  0.00    +0.000 C 
ATOM     36  C   UNL     1     -10.648  52.787  44.011  0.00  0.00    +0.000 A 
ATOM     37  C   UNL     1      -9.263  52.900  44.023  0.00  0.00    +0.000 A 
ENDBRANCH  30  31
ENDBRANCH  28  30
ENDBRANCH   5  28
TORSDOF 5
ENDMDL
MODEL 8
REMARK VINA RESULT:      -9.2      3.336      6.320
REMARK  Name = 
REMARK  6 active torsions:
REMARK  status: ('A' for Active; 'I' for Inactive)
REMARK    1  A    between atoms: C_6  and  C_10
REMARK    2  A    between atoms: C_14  and  O_18
REMARK    3  A    between atoms: N_17  and  N_20
REMARK    4  A    between atoms: N_20  and  C_23
REMARK    5  A    between atoms: C_23  and  C_26
REMARK    6  A    between atoms: C_28  and  C_31
REMARK                            x       y       z     vdW  Elec       q    Type
REMARK                         _______ _______ _______ _____ _____    ______ ____
ROOT
ATOM      1  C   UNL     1     -10.085  52.879  48.844  0.00  0.00    +0.000 A 
ATOM      2  C   UNL     1     -11.463  53.414  49.066  0.00  0.00    +0.000 A 
ATOM      3  C   UNL     1      -9.139  53.019  49.788  0.00  0.00    +0.000 A 
ATOM      4  O   UNL     1     -12.284  53.213  48.164  0.00  0.00    +0.000 OA
ATOM      5  N   UNL     1     -11.728  54.082  50.267  0.00  0.00    +0.000 N 
ATOM      6  C   UNL     1      -9.452  53.667  51.069  0.00  0.00    +0.000 A 
ATOM      7  C   UNL     1     -10.739  54.185  51.295  0.00  0.00    +0.000 A 
ATOM      8  C   UNL     1      -8.482  53.757  52.083  0.00  0.00    +0.000 A 
ATOM      9  C   UNL     1     -11.025  54.777  52.539  0.00  0.00    +0.000 A 
ATOM     10  C   UNL     1      -8.783  54.338  53.313  0.00  0.00    +0.000 A 
ATOM     11  C   UNL     1     -10.055  54.847  53.541  0.00  0.00    +0.000 A 
ENDROOT
BRANCH   1  17
ATOM     12  S   UNL     1      -9.302  49.935  46.369  0.00  0.00    +0.000 S 
ATOM     13  O   UNL     1     -10.486  49.173  46.024  0.00  0.00    +0.000 OA
ATOM     14  O   UNL     1      -8.045  49.257  46.626  0.00  0.00    +0.000 OA
ATOM     15  N   UNL     1      -9.657  50.841  47.661  0.00  0.00    +0.000 N 
ATOM     16  C   UNL     1      -9.001  51.003  45.007  0.00  0.00    +0.000 A 
ATOM     17  C   UNL     1      -9.801  52.127  47.557  0.00  0.00    +0.000 C 
ATOM     18  C   UNL     1      -9.230  52.357  45.185  0.00  0.00    +0.000 A 
ATOM     19  C   UNL     1      -8.530  50.482  43.800  0.00  0.00    +0.000 A 
ATOM     20  N   UNL     1      -9.714  52.857  46.392  0.00  0.00    +0.000 N 
ATOM     21  C   UNL     1      -9.049  53.209  44.089  0.00  0.00    +0.000 A 
ATOM     22  C   UNL     1      -8.321  51.347  42.729  0.00  0.00    +0.000 A 
ATOM     23  C   UNL     1      -8.590  52.708  42.870  0.00  0.00    +0.000 A 
ATOM     24  H   UNL     1      -9.764  50.409  48.540  0.00  0.00    +0.000 HD
ATOM     25  H   UNL     1     -10.012  53.795  46.413  0.00  0.00    +0.000 HD
ENDBRANCH   1  17
BRANCH   3  26
ATOM     26  O   UNL     1      -7.843  52.550  49.669  0.00  0.00    +0.000 OA
ATOM     27  H   UNL     1      -7.282  52.886  48.997  0.00  0.00    +0.000 HD
ENDBRANCH   3  26
BRANCH   5  28
ATOM     28  N   UNL     1     -13.009  54.680  50.543  0.00  0.00    +0.000 N 
ATOM     29  H   UNL     1     -13.624  54.290  51.207  0.00  0.00    +0.000 HD
BRANCH  28  30
ATOM     30  C   UNL     1     -13.362  55.894  49.800  0.00  0.00    +0.000 C 
BRANCH  30  31
ATOM     31  C   UNL     1     -13.910  56.969  50.714  0.00  0.00    +0.000 A 
ATOM     32  C   UNL     1     -14.121  58.294  50.282  0.00  0.00    +0.000 A 
ATOM     33  C   UNL     1     -14.190  56.631  52.053  0.00  0.00    +0.000 A 
ATOM     34  C   UNL     1     -14.620  59.237  51.197  0.00  0.00    +0.000 A 
ATOM     35  C   UNL     1     -13.836  58.764  48.880  0.00  0.00    +0.000 C 
ATOM     36  C   UNL     1     -14.684  57.580  52.946  0.00  0.00    +0.000 A 
ATOM     37  C   UNL     1     -14.902  58.883  52.516  0.00  0.00    +0.000 A 
ENDBRANCH  30  31
ENDBRANCH  28  30
ENDBRANCH   5  28
TORSDOF 5
ENDMDL
MODEL 9
REMARK VINA RESULT:      -9.1      2.125      7.608
REMARK  Name = 
REMARK  6 active torsions:
REMARK  status: ('A' for Active; 'I' for Inactive)
REMARK    1  A    between atoms: C_6  and  C_10
REMARK    2  A    between atoms: C_14  and  O_18
REMARK    3  A    between atoms: N_17  and  N_20
REMARK    4  A    between atoms: N_20  and  C_23
REMARK    5  A    between atoms: C_23  and  C_26
REMARK    6  A    between atoms: C_28  and  C_31
REMARK                            x       y       z     vdW  Elec       q    Type
REMARK                         _______ _______ _______ _____ _____    ______ ____
ROOT
ATOM      1  C   UNL     1     -10.829  55.714  49.190  0.00  0.00    +0.000 A 
ATOM      2  C   UNL     1      -9.717  55.186  50.038  0.00  0.00    +0.000 A 
ATOM      3  C   UNL     1     -10.864  55.456  47.872  0.00  0.00    +0.000 A 
ATOM      4  O   UNL     1      -9.778  55.440  51.246  0.00  0.00    +0.000 OA
ATOM      5  N   UNL     1      -8.708  54.442  49.418  0.00  0.00    +0.000 N 
ATOM      6  C   UNL     1      -9.830  54.618  47.248  0.00  0.00    +0.000 A 
ATOM      7  C   UNL     1      -8.771  54.119  48.025  0.00  0.00    +0.000 A 
ATOM      8  C   UNL     1      -9.900  54.292  45.882  0.00  0.00    +0.000 A 
ATOM      9  C   UNL     1      -7.807  53.297  47.413  0.00  0.00    +0.000 A 
ATOM     10  C   UNL     1      -8.942  53.469  45.292  0.00  0.00    +0.000 A 
ATOM     11  C   UNL     1      -7.896  52.971  46.059  0.00  0.00    +0.000 A 
ENDROOT
BRANCH   1  17
ATOM     12  S   UNL     1     -13.802  56.605  51.594  0.00  0.00    +0.000 S 
ATOM     13  O   UNL     1     -13.348  56.981  52.918  0.00  0.00    +0.000 OA
ATOM     14  O   UNL     1     -14.973  55.762  51.434  0.00  0.00    +0.000 OA
ATOM     15  N   UNL     1     -12.565  55.895  50.831  0.00  0.00    +0.000 N 
ATOM     16  C   UNL     1     -14.176  58.109  50.766  0.00  0.00    +0.000 A 
ATOM     17  C   UNL     1     -11.942  56.496  49.863  0.00  0.00    +0.000 C 
ATOM     18  C   UNL     1     -13.334  58.510  49.743  0.00  0.00    +0.000 A 
ATOM     19  C   UNL     1     -15.302  58.848  51.134  0.00  0.00    +0.000 A 
ATOM     20  N   UNL     1     -12.208  57.766  49.398  0.00  0.00    +0.000 N 
ATOM     21  C   UNL     1     -13.590  59.735  49.116  0.00  0.00    +0.000 A 
ATOM     22  C   UNL     1     -15.564  60.048  50.478  0.00  0.00    +0.000 A 
ATOM     23  C   UNL     1     -14.703  60.497  49.477  0.00  0.00    +0.000 A 
ATOM     24  H   UNL     1     -12.281  54.993  51.105  0.00  0.00    +0.000 HD
ATOM     25  H   UNL     1     -11.558  58.175  48.782  0.00  0.00    +0.000 HD
ENDBRANCH   1  17
BRANCH   3  26
ATOM     26  O   UNL     1     -11.857  55.897  47.016  0.00  0.00    +0.000 OA
ATOM     27  H   UNL     1     -12.649  56.259  47.364  0.00  0.00    +0.000 HD
ENDBRANCH   3  26
BRANCH   5  28
ATOM     28  N   UNL     1      -7.569  53.943  50.144  0.00  0.00    +0.000 N 
ATOM     29  H   UNL     1      -7.479  52.986  50.360  0.00  0.00    +0.000 HD
BRANCH  28  30
ATOM     30  C   UNL     1      -6.547  54.915  50.548  0.00  0.00    +0.000 C 
BRANCH  30  31
ATOM     31  C   UNL     1      -6.161  54.747  52.002  0.00  0.00    +0.000 A 
ATOM     32  C   UNL     1      -4.980  54.087  52.399  0.00  0.00    +0.000 A 
ATOM     33  C   UNL     1      -7.034  55.245  52.989  0.00  0.00    +0.000 A 
ATOM     34  C   UNL     1      -4.700  53.960  53.771  0.00  0.00    +0.000 A 
ATOM     35  C   UNL     1      -3.991  53.502  51.428  0.00  0.00    +0.000 C 
ATOM     36  C   UNL     1      -6.741  55.109  54.344  0.00  0.00    +0.000 A 
ATOM     37  C   UNL     1      -5.571  54.469  54.734  0.00  0.00    +0.000 A 
ENDBRANCH  30  31
ENDBRANCH  28  30
ENDBRANCH   5  28
TORSDOF 5
ENDMDL
