MODEL 1
REMARK VINA RESULT:      -9.6      0.000      0.000
REMARK  Name = 
REMARK  6 active torsions:
REMARK  status: ('A' for Active; 'I' for Inactive)
REMARK    1  A    between atoms: C_6  and  C_10
REMARK    2  A    between atoms: C_14  and  O_18
REMARK    3  A    between atoms: N_17  and  N_20
REMARK    4  A    between atoms: N_20  and  C_23
REMARK    5  A    between atoms: C_23  and  C_26
REMARK    6  A    between atoms: C_28  and  C_31
REMARK                            x       y       z     vdW  Elec       q    Type
REMARK                         _______ _______ _______ _____ _____    ______ ____
ROOT
ATOM      1  C   UNL     1      -9.104  54.671  50.131  0.00  0.00    +0.000 A 
ATOM      2  C   UNL     1     -10.476  55.195  50.385  0.00  0.00    +0.000 A 
ATOM      3  C   UNL     1      -8.745  54.234  48.914  0.00  0.00    +0.000 A 
ATOM      4  O   UNL     1     -10.695  55.646  51.514  0.00  0.00    +0.000 OA
ATOM      5  N   UNL     1     -11.399  55.157  49.335  0.00  0.00    +0.000 N 
ATOM      6  C   UNL     1      -9.702  54.272  47.804  0.00  0.00    +0.000 A 
ATOM      7  C   UNL     1     -11.012  54.734  48.022  0.00  0.00    +0.000 A 
ATOM      8  C   UNL     1      -9.309  53.884  46.511  0.00  0.00    +0.000 A 
ATOM      9  C   UNL     1     -11.899  54.798  46.935  0.00  0.00    +0.000 A 
ATOM     10  C   UNL     1     -10.191  53.979  45.439  0.00  0.00    +0.000 A 
ATOM     11  C   UNL     1     -11.486  54.437  45.649  0.00  0.00    +0.000 A 
ENDROOT
BRANCH   1  17
ATOM     12  S   UNL     1      -7.218  55.879  53.345  0.00  0.00    +0.000 S 
ATOM     13  O   UNL     1      -7.899  55.449  54.549  0.00  0.00    +0.000 OA
ATOM     14  O   UNL     1      -6.654  57.211  53.252  0.00  0.00    +0.000 OA
ATOM     15  N   UNL     1      -8.250  55.691  52.112  0.00  0.00    +0.000 N 
ATOM     16  C   UNL     1      -5.877  54.765  53.114  0.00  0.00    +0.000 A 
ATOM     17  C   UNL     1      -8.098  54.726  51.257  0.00  0.00    +0.000 C 
ATOM     18  C   UNL     1      -5.974  53.841  52.083  0.00  0.00    +0.000 A 
ATOM     19  C   UNL     1      -4.763  54.836  53.943  0.00  0.00    +0.000 A 
ATOM     20  N   UNL     1      -7.108  53.768  51.282  0.00  0.00    +0.000 N 
ATOM     21  C   UNL     1      -4.936  52.922  51.926  0.00  0.00    +0.000 A 
ATOM     22  C   UNL     1      -3.720  53.931  53.758  0.00  0.00    +0.000 A 
ATOM     23  C   UNL     1      -3.810  52.969  52.752  0.00  0.00    +0.000 A 
ATOM     24  H   UNL     1      -9.003  56.317  52.010  0.00  0.00    +0.000 HD
ATOM     25  H   UNL     1      -7.209  52.984  50.695  0.00  0.00    +0.000 HD
ENDBRANCH   1  17
BRANCH   3  26
ATOM     26  O   UNL     1      -7.478  53.782  48.589  0.00  0.00    +0.000 OA
ATOM     27  H   UNL     1      -6.828  53.689  49.257  0.00  0.00    +0.000 HD
ENDBRANCH   3  26
BRANCH   5  28
ATOM     28  N   UNL     1     -12.750  55.622  49.494  0.00  0.00    +0.000 N 
ATOM     29  H   UNL     1     -13.494  54.994  49.640  0.00  0.00    +0.000 HD
BRANCH  28  30
ATOM     30  C   UNL     1     -12.976  57.071  49.430  0.00  0.00    +0.000 C 
BRANCH  30  31
ATOM     31  C   UNL     1     -13.767  57.559  50.622  0.00  0.00    +0.000 A 
ATOM     32  C   UNL     1     -14.120  58.913  50.787  0.00  0.00    +0.000 A 
ATOM     33  C   UNL     1     -14.149  56.623  51.605  0.00  0.00    +0.000 A 
ATOM     34  C   UNL     1     -14.859  59.290  51.920  0.00  0.00    +0.000 A 
ATOM     35  C   UNL     1     -13.760  59.990  49.797  0.00  0.00    +0.000 C 
ATOM     36  C   UNL     1     -14.893  57.013  52.714  0.00  0.00    +0.000 A 
ATOM     37  C   UNL     1     -15.251  58.348  52.870  0.00  0.00    +0.000 A 
ENDBRANCH  30  31
ENDBRANCH  28  30
ENDBRANCH   5  28
TORSDOF 5
ENDMDL
MODEL 2
REMARK VINA RESULT:      -9.6      2.534      7.064
REMARK  Name = 
REMARK  6 active torsions:
REMARK  status: ('A' for Active; 'I' for Inactive)
REMARK    1  A    between atoms: C_6  and  C_10
REMARK    2  A    between atoms: C_14  and  O_18
REMARK    3  A    between atoms: N_17  and  N_20
REMARK    4  A    between atoms: N_20  and  C_23
REMARK    5  A    between atoms: C_23  and  C_26
REMARK    6  A    between atoms: C_28  and  C_31
REMARK                            x       y       z     vdW  Elec       q    Type
REMARK                         _______ _______ _______ _____ _____    ______ ____
ROOT
ATOM      1  C   UNL     1     -11.622  55.826  48.830  0.00  0.00    +0.000 A 
ATOM      2  C   UNL     1     -10.677  55.104  49.728  0.00  0.00    +0.000 A 
ATOM      3  C   UNL     1     -11.693  55.535  47.522  0.00  0.00    +0.000 A 
ATOM      4  O   UNL     1     -10.733  55.384  50.930  0.00  0.00    +0.000 OA
ATOM      5  N   UNL     1      -9.819  54.159  49.156  0.00  0.00    +0.000 N 
ATOM      6  C   UNL     1     -10.840  54.487  46.952  0.00  0.00    +0.000 A 
ATOM      7  C   UNL     1      -9.918  53.811  47.770  0.00  0.00    +0.000 A 
ATOM      8  C   UNL     1     -10.961  54.128  45.598  0.00  0.00    +0.000 A 
ATOM      9  C   UNL     1      -9.140  52.784  47.210  0.00  0.00    +0.000 A 
ATOM     10  C   UNL     1     -10.203  53.091  45.065  0.00  0.00    +0.000 A 
ATOM     11  C   UNL     1      -9.292  52.417  45.870  0.00  0.00    +0.000 A 
ENDROOT
BRANCH   1  17
ATOM     12  S   UNL     1     -13.538  59.182  49.469  0.00  0.00    +0.000 S 
ATOM     13  O   UNL     1     -14.659  59.331  48.565  0.00  0.00    +0.000 OA
ATOM     14  O   UNL     1     -12.688  60.315  49.782  0.00  0.00    +0.000 OA
ATOM     15  N   UNL     1     -12.595  58.004  48.883  0.00  0.00    +0.000 N 
ATOM     16  C   UNL     1     -14.209  58.640  51.001  0.00  0.00    +0.000 A 
ATOM     17  C   UNL     1     -12.563  56.835  49.446  0.00  0.00    +0.000 C 
ATOM     18  C   UNL     1     -13.988  57.321  51.372  0.00  0.00    +0.000 A 
ATOM     19  C   UNL     1     -14.923  59.525  51.800  0.00  0.00    +0.000 A 
ATOM     20  N   UNL     1     -13.294  56.444  50.547  0.00  0.00    +0.000 N 
ATOM     21  C   UNL     1     -14.561  56.870  52.562  0.00  0.00    +0.000 A 
ATOM     22  C   UNL     1     -15.466  59.070  53.000  0.00  0.00    +0.000 A 
ATOM     23  C   UNL     1     -15.289  57.739  53.378  0.00  0.00    +0.000 A 
ATOM     24  H   UNL     1     -12.040  58.177  48.088  0.00  0.00    +0.000 HD
ATOM     25  H   UNL     1     -13.327  55.483  50.762  0.00  0.00    +0.000 HD
ENDBRANCH   1  17
BRANCH   3  26
ATOM     26  O   UNL     1     -12.578  56.125  46.637  0.00  0.00    +0.000 OA
ATOM     27  H   UNL     1     -13.361  56.526  46.956  0.00  0.00    +0.000 HD
ENDBRANCH   3  26
BRANCH   5  28
ATOM     28  N   UNL     1      -8.862  53.429  49.941  0.00  0.00    +0.000 N 
ATOM     29  H   UNL     1      -9.074  52.543  50.314  0.00  0.00    +0.000 HD
BRANCH  28  30
ATOM     30  C   UNL     1      -7.554  54.057  50.163  0.00  0.00    +0.000 C 
BRANCH  30  31
ATOM     31  C   UNL     1      -7.368  54.447  51.612  0.00  0.00    +0.000 A 
ATOM     32  C   UNL     1      -7.358  55.793  52.032  0.00  0.00    +0.000 A 
ATOM     33  C   UNL     1      -7.186  53.426  52.566  0.00  0.00    +0.000 A 
ATOM     34  C   UNL     1      -7.183  56.077  53.396  0.00  0.00    +0.000 A 
ATOM     35  C   UNL     1      -7.542  56.955  51.093  0.00  0.00    +0.000 C 
ATOM     36  C   UNL     1      -7.028  53.727  53.915  0.00  0.00    +0.000 A 
ATOM     37  C   UNL     1      -7.029  55.053  54.330  0.00  0.00    +0.000 A 
ENDBRANCH  30  31
ENDBRANCH  28  30
ENDBRANCH   5  28
TORSDOF 5
ENDMDL
MODEL 3
REMARK VINA RESULT:      -9.6      1.793      1.888
REMARK  Name = 
REMARK  6 active torsions:
REMARK  status: ('A' for Active; 'I' for Inactive)
REMARK    1  A    between atoms: C_6  and  C_10
REMARK    2  A    between atoms: C_14  and  O_18
REMARK    3  A    between atoms: N_17  and  N_20
REMARK    4  A    between atoms: N_20  and  C_23
REMARK    5  A    between atoms: C_23  and  C_26
REMARK    6  A    between atoms: C_28  and  C_31
REMARK                            x       y       z     vdW  Elec       q    Type
REMARK                         _______ _______ _______ _____ _____    ______ ____
ROOT
ATOM      1  C   UNL     1      -9.688  54.085  50.214  0.00  0.00    +0.000 A 
ATOM      2  C   UNL     1     -10.983  54.802  50.386  0.00  0.00    +0.000 A 
ATOM      3  C   UNL     1      -9.276  53.682  49.003  0.00  0.00    +0.000 A 
ATOM      4  O   UNL     1     -11.247  55.203  51.524  0.00  0.00    +0.000 OA
ATOM      5  N   UNL     1     -11.787  54.987  49.256  0.00  0.00    +0.000 N 
ATOM      6  C   UNL     1     -10.095  53.950  47.817  0.00  0.00    +0.000 A 
ATOM      7  C   UNL     1     -11.335  54.599  47.953  0.00  0.00    +0.000 A 
ATOM      8  C   UNL     1      -9.634  53.596  46.537  0.00  0.00    +0.000 A 
ATOM      9  C   UNL     1     -12.084  54.881  46.798  0.00  0.00    +0.000 A 
ATOM     10  C   UNL     1     -10.375  53.905  45.401  0.00  0.00    +0.000 A 
ATOM     11  C   UNL     1     -11.600  54.548  45.530  0.00  0.00    +0.000 A 
ENDROOT
BRANCH   1  17
ATOM     12  S   UNL     1      -6.710  54.523  52.721  0.00  0.00    +0.000 S 
ATOM     13  O   UNL     1      -6.900  55.682  53.569  0.00  0.00    +0.000 OA
ATOM     14  O   UNL     1      -5.404  54.219  52.169  0.00  0.00    +0.000 OA
ATOM     15  N   UNL     1      -7.751  54.650  51.487  0.00  0.00    +0.000 N 
ATOM     16  C   UNL     1      -7.168  53.127  53.686  0.00  0.00    +0.000 A 
ATOM     17  C   UNL     1      -8.808  53.900  51.428  0.00  0.00    +0.000 C 
ATOM     18  C   UNL     1      -8.360  52.488  53.373  0.00  0.00    +0.000 A 
ATOM     19  C   UNL     1      -6.341  52.690  54.714  0.00  0.00    +0.000 A 
ATOM     20  N   UNL     1      -9.187  52.955  52.358  0.00  0.00    +0.000 N 
ATOM     21  C   UNL     1      -8.754  51.410  54.167  0.00  0.00    +0.000 A 
ATOM     22  C   UNL     1      -6.732  51.594  55.482  0.00  0.00    +0.000 A 
ATOM     23  C   UNL     1      -7.943  50.957  55.211  0.00  0.00    +0.000 A 
ATOM     24  H   UNL     1      -7.579  55.305  50.773  0.00  0.00    +0.000 HD
ATOM     25  H   UNL     1     -10.099  52.589  52.300  0.00  0.00    +0.000 HD
ENDBRANCH   1  17
BRANCH   3  26
ATOM     26  O   UNL     1      -8.066  53.057  48.758  0.00  0.00    +0.000 OA
ATOM     27  H   UNL     1      -7.354  53.163  49.356  0.00  0.00    +0.000 HD
ENDBRANCH   3  26
BRANCH   5  28
ATOM     28  N   UNL     1     -13.060  55.649  49.329  0.00  0.00    +0.000 N 
ATOM     29  H   UNL     1     -13.904  55.141  49.321  0.00  0.00    +0.000 HD
BRANCH  28  30
ATOM     30  C   UNL     1     -13.054  57.115  49.418  0.00  0.00    +0.000 C 
BRANCH  30  31
ATOM     31  C   UNL     1     -13.839  57.599  50.615  0.00  0.00    +0.000 A 
ATOM     32  C   UNL     1     -14.103  58.965  50.837  0.00  0.00    +0.000 A 
ATOM     33  C   UNL     1     -14.307  56.646  51.543  0.00  0.00    +0.000 A 
ATOM     34  C   UNL     1     -14.842  59.338  51.972  0.00  0.00    +0.000 A 
ATOM     35  C   UNL     1     -13.647  60.060  49.909  0.00  0.00    +0.000 C 
ATOM     36  C   UNL     1     -15.049  57.035  52.654  0.00  0.00    +0.000 A 
ATOM     37  C   UNL     1     -15.319  58.381  52.867  0.00  0.00    +0.000 A 
ENDBRANCH  30  31
ENDBRANCH  28  30
ENDBRANCH   5  28
TORSDOF 5
ENDMDL
MODEL 4
REMARK VINA RESULT:      -9.4      2.862      8.644
REMARK  Name = 
REMARK  6 active torsions:
REMARK  status: ('A' for Active; 'I' for Inactive)
REMARK    1  A    between atoms: C_6  and  C_10
REMARK    2  A    between atoms: C_14  and  O_18
REMARK    3  A    between atoms: N_17  and  N_20
REMARK    4  A    between atoms: N_20  and  C_23
REMARK    5  A    between atoms: C_23  and  C_26
REMARK    6  A    between atoms: C_28  and  C_31
REMARK                            x       y       z     vdW  Elec       q    Type
REMARK                         _______ _______ _______ _____ _____    ______ ____
ROOT
ATOM      1  C   UNL     1     -10.121  54.557  52.140  0.00  0.00    +0.000 A 
ATOM      2  C   UNL     1      -8.765  55.135  51.924  0.00  0.00    +0.000 A 
ATOM      3  C   UNL     1     -10.294  53.464  52.898  0.00  0.00    +0.000 A 
ATOM      4  O   UNL     1      -8.708  56.185  51.276  0.00  0.00    +0.000 OA
ATOM      5  N   UNL     1      -7.669  54.468  52.481  0.00  0.00    +0.000 N 
ATOM      6  C   UNL     1      -9.143  52.819  53.538  0.00  0.00    +0.000 A 
ATOM      7  C   UNL     1      -7.848  53.327  53.327  0.00  0.00    +0.000 A 
ATOM      8  C   UNL     1      -9.326  51.718  54.391  0.00  0.00    +0.000 A 
ATOM      9  C   UNL     1      -6.765  52.717  53.982  0.00  0.00    +0.000 A 
ATOM     10  C   UNL     1      -8.247  51.141  55.054  0.00  0.00    +0.000 A 
ATOM     11  C   UNL     1      -6.966  51.640  54.851  0.00  0.00    +0.000 A 
ENDROOT
BRANCH   1  17
ATOM     12  S   UNL     1     -12.589  56.088  49.511  0.00  0.00    +0.000 S 
ATOM     13  O   UNL     1     -13.490  55.083  48.986  0.00  0.00    +0.000 OA
ATOM     14  O   UNL     1     -12.000  57.082  48.634  0.00  0.00    +0.000 OA
ATOM     15  N   UNL     1     -11.382  55.311  50.260  0.00  0.00    +0.000 N 
ATOM     16  C   UNL     1     -13.500  56.984  50.719  0.00  0.00    +0.000 A 
ATOM     17  C   UNL     1     -11.309  55.285  51.555  0.00  0.00    +0.000 C 
ATOM     18  C   UNL     1     -13.181  56.776  52.054  0.00  0.00    +0.000 A 
ATOM     19  C   UNL     1     -14.492  57.873  50.324  0.00  0.00    +0.000 A 
ATOM     20  N   UNL     1     -12.204  55.862  52.431  0.00  0.00    +0.000 N 
ATOM     21  C   UNL     1     -13.934  57.445  53.019  0.00  0.00    +0.000 A 
ATOM     22  C   UNL     1     -15.218  58.557  51.297  0.00  0.00    +0.000 A 
ATOM     23  C   UNL     1     -14.942  58.338  52.647  0.00  0.00    +0.000 A 
ATOM     24  H   UNL     1     -10.693  54.853  49.724  0.00  0.00    +0.000 HD
ATOM     25  H   UNL     1     -12.146  55.613  53.382  0.00  0.00    +0.000 HD
ENDBRANCH   1  17
BRANCH   3  26
ATOM     26  O   UNL     1     -11.524  52.899  53.185  0.00  0.00    +0.000 OA
ATOM     27  H   UNL     1     -11.656  52.454  53.998  0.00  0.00    +0.000 HD
ENDBRANCH   3  26
BRANCH   5  28
ATOM     28  N   UNL     1      -6.323  54.941  52.308  0.00  0.00    +0.000 N 
ATOM     29  H   UNL     1      -5.853  55.425  53.026  0.00  0.00    +0.000 HD
BRANCH  28  30
ATOM     30  C   UNL     1      -5.675  54.675  51.018  0.00  0.00    +0.000 C 
BRANCH  30  31
ATOM     31  C   UNL     1      -5.118  53.271  50.960  0.00  0.00    +0.000 A 
ATOM     32  C   UNL     1      -5.812  52.212  50.339  0.00  0.00    +0.000 A 
ATOM     33  C   UNL     1      -3.869  53.017  51.561  0.00  0.00    +0.000 A 
ATOM     34  C   UNL     1      -5.229  50.935  50.323  0.00  0.00    +0.000 A 
ATOM     35  C   UNL     1      -7.151  52.379  49.670  0.00  0.00    +0.000 C 
ATOM     36  C   UNL     1      -3.301  51.746  51.522  0.00  0.00    +0.000 A 
ATOM     37  C   UNL     1      -3.981  50.706  50.900  0.00  0.00    +0.000 A 
ENDBRANCH  30  31
ENDBRANCH  28  30
ENDBRANCH   5  28
TORSDOF 5
ENDMDL
MODEL 5
REMARK VINA RESULT:      -9.4      1.314      1.840
REMARK  Name = 
REMARK  6 active torsions:
REMARK  status: ('A' for Active; 'I' for Inactive)
REMARK    1  A    between atoms: C_6  and  C_10
REMARK    2  A    between atoms: C_14  and  O_18
REMARK    3  A    between atoms: N_17  and  N_20
REMARK    4  A    between atoms: N_20  and  C_23
REMARK    5  A    between atoms: C_23  and  C_26
REMARK    6  A    between atoms: C_28  and  C_31
REMARK                            x       y       z     vdW  Elec       q    Type
REMARK                         _______ _______ _______ _____ _____    ______ ____
ROOT
ATOM      1  C   UNL     1      -9.280  54.087  49.598  0.00  0.00    +0.000 A 
ATOM      2  C   UNL     1     -10.260  55.205  49.497  0.00  0.00    +0.000 A 
ATOM      3  C   UNL     1      -9.122  53.213  48.593  0.00  0.00    +0.000 A 
ATOM      4  O   UNL     1     -10.285  56.006  50.437  0.00  0.00    +0.000 OA
ATOM      5  N   UNL     1     -11.057  55.279  48.350  0.00  0.00    +0.000 N 
ATOM      6  C   UNL     1      -9.911  53.349  47.365  0.00  0.00    +0.000 A 
ATOM      7  C   UNL     1     -10.864  54.377  47.254  0.00  0.00    +0.000 A 
ATOM      8  C   UNL     1      -9.698  52.480  46.281  0.00  0.00    +0.000 A 
ATOM      9  C   UNL     1     -11.581  54.512  46.053  0.00  0.00    +0.000 A 
ATOM     10  C   UNL     1     -10.395  52.643  45.088  0.00  0.00    +0.000 A 
ATOM     11  C   UNL     1     -11.337  53.659  44.973  0.00  0.00    +0.000 A 
ENDROOT
BRANCH   1  17
ATOM     12  S   UNL     1      -8.189  54.044  53.360  0.00  0.00    +0.000 S 
ATOM     13  O   UNL     1      -8.392  52.739  53.954  0.00  0.00    +0.000 OA
ATOM     14  O   UNL     1      -8.514  55.249  54.099  0.00  0.00    +0.000 OA
ATOM     15  N   UNL     1      -9.018  54.078  51.970  0.00  0.00    +0.000 N 
ATOM     16  C   UNL     1      -6.475  54.152  52.983  0.00  0.00    +0.000 A 
ATOM     17  C   UNL     1      -8.405  54.014  50.828  0.00  0.00    +0.000 C 
ATOM     18  C   UNL     1      -6.102  54.084  51.647  0.00  0.00    +0.000 A 
ATOM     19  C   UNL     1      -5.546  54.312  54.004  0.00  0.00    +0.000 A 
ATOM     20  N   UNL     1      -7.044  53.897  50.642  0.00  0.00    +0.000 N 
ATOM     21  C   UNL     1      -4.740  54.118  51.344  0.00  0.00    +0.000 A 
ATOM     22  C   UNL     1      -4.191  54.373  53.686  0.00  0.00    +0.000 A 
ATOM     23  C   UNL     1      -3.788  54.271  52.355  0.00  0.00    +0.000 A 
ATOM     24  H   UNL     1     -10.000  54.148  51.992  0.00  0.00    +0.000 HD
ATOM     25  H   UNL     1      -6.719  53.667  49.741  0.00  0.00    +0.000 HD
ENDBRANCH   1  17
BRANCH   3  26
ATOM     26  O   UNL     1      -8.199  52.182  48.593  0.00  0.00    +0.000 OA
ATOM     27  H   UNL     1      -8.489  51.294  48.664  0.00  0.00    +0.000 HD
ENDBRANCH   3  26
BRANCH   5  28
ATOM     28  N   UNL     1     -12.043  56.311  48.174  0.00  0.00    +0.000 N 
ATOM     29  H   UNL     1     -11.851  57.117  47.643  0.00  0.00    +0.000 HD
BRANCH  28  30
ATOM     30  C   UNL     1     -13.347  56.113  48.817  0.00  0.00    +0.000 C 
BRANCH  30  31
ATOM     31  C   UNL     1     -13.825  57.375  49.497  0.00  0.00    +0.000 A 
ATOM     32  C   UNL     1     -14.955  57.394  50.339  0.00  0.00    +0.000 A 
ATOM     33  C   UNL     1     -13.118  58.573  49.266  0.00  0.00    +0.000 A 
ATOM     34  C   UNL     1     -15.336  58.606  50.938  0.00  0.00    +0.000 A 
ATOM     35  C   UNL     1     -15.778  56.171  50.649  0.00  0.00    +0.000 C 
ATOM     36  C   UNL     1     -13.503  59.761  49.879  0.00  0.00    +0.000 A 
ATOM     37  C   UNL     1     -14.611  59.776  50.718  0.00  0.00    +0.000 A 
ENDBRANCH  30  31
ENDBRANCH  28  30
ENDBRANCH   5  28
TORSDOF 5
ENDMDL
MODEL 6
REMARK VINA RESULT:      -9.4      2.770      8.041
REMARK  Name = 
REMARK  6 active torsions:
REMARK  status: ('A' for Active; 'I' for Inactive)
REMARK    1  A    between atoms: C_6  and  C_10
REMARK    2  A    between atoms: C_14  and  O_18
REMARK    3  A    between atoms: N_17  and  N_20
REMARK    4  A    between atoms: N_20  and  C_23
REMARK    5  A    between atoms: C_23  and  C_26
REMARK    6  A    between atoms: C_28  and  C_31
REMARK                            x       y       z     vdW  Elec       q    Type
REMARK                         _______ _______ _______ _____ _____    ______ ____
ROOT
ATOM      1  C   UNL     1     -11.190  54.630  50.719  0.00  0.00    +0.000 A 
ATOM      2  C   UNL     1      -9.833  55.037  50.256  0.00  0.00    +0.000 A 
ATOM      3  C   UNL     1     -11.404  53.418  51.251  0.00  0.00    +0.000 A 
ATOM      4  O   UNL     1      -9.711  56.197  49.850  0.00  0.00    +0.000 OA
ATOM      5  N   UNL     1      -8.802  54.094  50.332  0.00  0.00    +0.000 N 
ATOM      6  C   UNL     1     -10.297  52.467  51.394  0.00  0.00    +0.000 A 
ATOM      7  C   UNL     1      -9.013  52.813  50.938  0.00  0.00    +0.000 A 
ATOM      8  C   UNL     1     -10.501  51.224  52.016  0.00  0.00    +0.000 A 
ATOM      9  C   UNL     1      -7.959  51.902  51.122  0.00  0.00    +0.000 A 
ATOM     10  C   UNL     1      -9.443  50.343  52.215  0.00  0.00    +0.000 A 
ATOM     11  C   UNL     1      -8.171  50.681  51.769  0.00  0.00    +0.000 A 
ENDROOT
BRANCH   1  17
ATOM     12  S   UNL     1     -13.734  57.237  49.280  0.00  0.00    +0.000 S 
ATOM     13  O   UNL     1     -14.885  56.583  48.691  0.00  0.00    +0.000 OA
ATOM     14  O   UNL     1     -13.127  58.384  48.633  0.00  0.00    +0.000 OA
ATOM     15  N   UNL     1     -12.586  56.113  49.476  0.00  0.00    +0.000 N 
ATOM     16  C   UNL     1     -14.244  57.789  50.870  0.00  0.00    +0.000 A 
ATOM     17  C   UNL     1     -12.301  55.651  50.656  0.00  0.00    +0.000 C 
ATOM     18  C   UNL     1     -13.748  57.113  51.977  0.00  0.00    +0.000 A 
ATOM     19  C   UNL     1     -15.104  58.874  50.988  0.00  0.00    +0.000 A 
ATOM     20  N   UNL     1     -12.910  56.013  51.838  0.00  0.00    +0.000 N 
ATOM     21  C   UNL     1     -14.188  57.514  53.240  0.00  0.00    +0.000 A 
ATOM     22  C   UNL     1     -15.512  59.282  52.256  0.00  0.00    +0.000 A 
ATOM     23  C   UNL     1     -15.058  58.597  53.382  0.00  0.00    +0.000 A 
ATOM     24  H   UNL     1     -12.097  55.777  48.691  0.00  0.00    +0.000 HD
ATOM     25  H   UNL     1     -12.740  55.458  52.634  0.00  0.00    +0.000 HD
ENDBRANCH   1  17
BRANCH   3  26
ATOM     26  O   UNL     1     -12.622  52.987  51.748  0.00  0.00    +0.000 OA
ATOM     27  H   UNL     1     -13.237  52.566  51.181  0.00  0.00    +0.000 HD
ENDBRANCH   3  26
BRANCH   5  28
ATOM     28  N   UNL     1      -7.467  54.390  49.890  0.00  0.00    +0.000 N 
ATOM     29  H   UNL     1      -7.086  53.962  49.090  0.00  0.00    +0.000 HD
BRANCH  28  30
ATOM     30  C   UNL     1      -6.695  55.357  50.680  0.00  0.00    +0.000 C 
BRANCH  30  31
ATOM     31  C   UNL     1      -5.848  54.665  51.724  0.00  0.00    +0.000 A 
ATOM     32  C   UNL     1      -6.249  54.566  53.072  0.00  0.00    +0.000 A 
ATOM     33  C   UNL     1      -4.611  54.116  51.331  0.00  0.00    +0.000 A 
ATOM     34  C   UNL     1      -5.409  53.906  53.983  0.00  0.00    +0.000 A 
ATOM     35  C   UNL     1      -7.549  55.119  53.592  0.00  0.00    +0.000 C 
ATOM     36  C   UNL     1      -3.798  53.454  52.247  0.00  0.00    +0.000 A 
ATOM     37  C   UNL     1      -4.200  53.346  53.573  0.00  0.00    +0.000 A 
ENDBRANCH  30  31
ENDBRANCH  28  30
ENDBRANCH   5  28
TORSDOF 5
ENDMDL
MODEL 7
REMARK VINA RESULT:      -9.2      3.695      7.833
REMARK  Name = 
REMARK  6 active torsions:
REMARK  status: ('A' for Active; 'I' for Inactive)
REMARK    1  A    between atoms: C_6  and  C_10
REMARK    2  A    between atoms: C_14  and  O_18
REMARK    3  A    between atoms: N_17  and  N_20
REMARK    4  A    between atoms: N_20  and  C_23
REMARK    5  A    between atoms: C_23  and  C_26
REMARK    6  A    between atoms: C_28  and  C_31
REMARK                            x       y       z     vdW  Elec       q    Type
REMARK                         _______ _______ _______ _____ _____    ______ ____
ROOT
ATOM      1  C   UNL     1     -12.414  54.335  49.815  0.00  0.00    +0.000 A 
ATOM      2  C   UNL     1     -11.957  54.224  48.401  0.00  0.00    +0.000 A 
ATOM      3  C   UNL     1     -12.039  53.435  50.736  0.00  0.00    +0.000 A 
ATOM      4  O   UNL     1     -12.288  55.138  47.639  0.00  0.00    +0.000 OA
ATOM      5  N   UNL     1     -11.178  53.118  48.047  0.00  0.00    +0.000 N 
ATOM      6  C   UNL     1     -11.159  52.322  50.365  0.00  0.00    +0.000 A 
ATOM      7  C   UNL     1     -10.737  52.176  49.032  0.00  0.00    +0.000 A 
ATOM      8  C   UNL     1     -10.704  51.418  51.340  0.00  0.00    +0.000 A 
ATOM      9  C   UNL     1      -9.862  51.125  48.708  0.00  0.00    +0.000 A 
ATOM     10  C   UNL     1      -9.817  50.398  51.009  0.00  0.00    +0.000 A 
ATOM     11  C   UNL     1      -9.395  50.251  49.694  0.00  0.00    +0.000 A 
ENDROOT
BRANCH   1  17
ATOM     12  S   UNL     1     -15.371  56.490  51.214  0.00  0.00    +0.000 S 
ATOM     13  O   UNL     1     -15.303  56.606  52.657  0.00  0.00    +0.000 OA
ATOM     14  O   UNL     1     -16.643  56.278  50.550  0.00  0.00    +0.000 OA
ATOM     15  N   UNL     1     -14.378  55.288  50.778  0.00  0.00    +0.000 N 
ATOM     16  C   UNL     1     -14.730  57.995  50.569  0.00  0.00    +0.000 A 
ATOM     17  C   UNL     1     -13.240  55.538  50.206  0.00  0.00    +0.000 C 
ATOM     18  C   UNL     1     -13.477  57.960  49.973  0.00  0.00    +0.000 A 
ATOM     19  C   UNL     1     -15.478  59.164  50.655  0.00  0.00    +0.000 A 
ATOM     20  N   UNL     1     -12.733  56.787  49.920  0.00  0.00    +0.000 N 
ATOM     21  C   UNL     1     -12.941  59.161  49.504  0.00  0.00    +0.000 A 
ATOM     22  C   UNL     1     -14.943  60.350  50.157  0.00  0.00    +0.000 A 
ATOM     23  C   UNL     1     -13.671  60.349  49.586  0.00  0.00    +0.000 A 
ATOM     24  H   UNL     1     -14.642  54.355  50.949  0.00  0.00    +0.000 HD
ATOM     25  H   UNL     1     -11.785  56.853  49.661  0.00  0.00    +0.000 HD
ENDBRANCH   1  17
BRANCH   3  26
ATOM     26  O   UNL     1     -12.380  53.499  52.075  0.00  0.00    +0.000 OA
ATOM     27  H   UNL     1     -13.213  53.842  52.330  0.00  0.00    +0.000 HD
ENDBRANCH   3  26
BRANCH   5  28
ATOM     28  N   UNL     1     -10.709  52.917  46.703  0.00  0.00    +0.000 N 
ATOM     29  H   UNL     1     -11.003  52.145  46.168  0.00  0.00    +0.000 HD
BRANCH  28  30
ATOM     30  C   UNL     1      -9.775  53.911  46.160  0.00  0.00    +0.000 C 
BRANCH  30  31
ATOM     31  C   UNL     1      -8.421  53.817  46.824  0.00  0.00    +0.000 A 
ATOM     32  C   UNL     1      -8.000  54.736  47.806  0.00  0.00    +0.000 A 
ATOM     33  C   UNL     1      -7.550  52.780  46.433  0.00  0.00    +0.000 A 
ATOM     34  C   UNL     1      -6.728  54.582  48.380  0.00  0.00    +0.000 A 
ATOM     35  C   UNL     1      -8.854  55.878  48.293  0.00  0.00    +0.000 C 
ATOM     36  C   UNL     1      -6.298  52.636  47.023  0.00  0.00    +0.000 A 
ATOM     37  C   UNL     1      -5.888  53.536  48.000  0.00  0.00    +0.000 A 
ENDBRANCH  30  31
ENDBRANCH  28  30
ENDBRANCH   5  28
TORSDOF 5
ENDMDL
MODEL 8
REMARK VINA RESULT:      -9.2      3.676      7.686
REMARK  Name = 
REMARK  6 active torsions:
REMARK  status: ('A' for Active; 'I' for Inactive)
REMARK    1  A    between atoms: C_6  and  C_10
REMARK    2  A    between atoms: C_14  and  O_18
REMARK    3  A    between atoms: N_17  and  N_20
REMARK    4  A    between atoms: N_20  and  C_23
REMARK    5  A    between atoms: C_23  and  C_26
REMARK    6  A    between atoms: C_28  and  C_31
REMARK                            x       y       z     vdW  Elec       q    Type
REMARK                         _______ _______ _______ _____ _____    ______ ____
ROOT
ATOM      1  C   UNL     1     -11.670  54.925  50.157  0.00  0.00    +0.000 A 
ATOM      2  C   UNL     1     -10.482  55.256  49.321  0.00  0.00    +0.000 A 
ATOM      3  C   UNL     1     -11.913  53.664  50.544  0.00  0.00    +0.000 A 
ATOM      4  O   UNL     1     -10.294  56.452  49.076  0.00  0.00    +0.000 OA
ATOM      5  N   UNL     1      -9.663  54.204  48.897  0.00  0.00    +0.000 N 
ATOM      6  C   UNL     1     -11.003  52.582  50.155  0.00  0.00    +0.000 A 
ATOM      7  C   UNL     1      -9.890  52.862  49.341  0.00  0.00    +0.000 A 
ATOM      8  C   UNL     1     -11.213  51.272  50.617  0.00  0.00    +0.000 A 
ATOM      9  C   UNL     1      -9.010  51.817  49.013  0.00  0.00    +0.000 A 
ATOM     10  C   UNL     1     -10.318  50.253  50.306  0.00  0.00    +0.000 A 
ATOM     11  C   UNL     1      -9.216  50.525  49.505  0.00  0.00    +0.000 A 
ENDROOT
BRANCH   1  17
ATOM     12  S   UNL     1     -14.193  56.981  52.337  0.00  0.00    +0.000 S 
ATOM     13  O   UNL     1     -13.537  57.580  53.481  0.00  0.00    +0.000 OA
ATOM     14  O   UNL     1     -15.507  56.382  52.470  0.00  0.00    +0.000 OA
ATOM     15  N   UNL     1     -13.194  55.856  51.740  0.00  0.00    +0.000 N 
ATOM     16  C   UNL     1     -14.361  58.259  51.141  0.00  0.00    +0.000 A 
ATOM     17  C   UNL     1     -12.547  56.059  50.633  0.00  0.00    +0.000 C 
ATOM     18  C   UNL     1     -13.544  58.205  50.019  0.00  0.00    +0.000 A 
ATOM     19  C   UNL     1     -15.295  59.271  51.330  0.00  0.00    +0.000 A 
ATOM     20  N   UNL     1     -12.598  57.200  49.861  0.00  0.00    +0.000 N 
ATOM     21  C   UNL     1     -13.637  59.244  49.091  0.00  0.00    +0.000 A 
ATOM     22  C   UNL     1     -15.397  60.287  50.381  0.00  0.00    +0.000 A 
ATOM     23  C   UNL     1     -14.563  60.275  49.264  0.00  0.00    +0.000 A 
ATOM     24  H   UNL     1     -13.077  55.006  52.223  0.00  0.00    +0.000 HD
ATOM     25  H   UNL     1     -11.922  57.309  49.153  0.00  0.00    +0.000 HD
ENDBRANCH   1  17
BRANCH   3  26
ATOM     26  O   UNL     1     -12.965  53.286  51.360  0.00  0.00    +0.000 OA
ATOM     27  H   UNL     1     -12.860  52.576  51.961  0.00  0.00    +0.000 HD
ENDBRANCH   3  26
BRANCH   5  28
ATOM     28  N   UNL     1      -8.507  54.427  48.072  0.00  0.00    +0.000 N 
ATOM     29  H   UNL     1      -7.602  54.195  48.384  0.00  0.00    +0.000 HD
BRANCH  28  30
ATOM     30  C   UNL     1      -8.729  55.013  46.744  0.00  0.00    +0.000 C 
BRANCH  30  31
ATOM     31  C   UNL     1      -9.306  53.999  45.783  0.00  0.00    +0.000 A 
ATOM     32  C   UNL     1     -10.677  53.968  45.456  0.00  0.00    +0.000 A 
ATOM     33  C   UNL     1      -8.439  53.047  45.209  0.00  0.00    +0.000 A 
ATOM     34  C   UNL     1     -11.138  52.998  44.552  0.00  0.00    +0.000 A 
ATOM     35  C   UNL     1     -11.684  54.939  46.015  0.00  0.00    +0.000 C 
ATOM     36  C   UNL     1      -8.913  52.101  44.305  0.00  0.00    +0.000 A 
ATOM     37  C   UNL     1     -10.263  52.079  43.974  0.00  0.00    +0.000 A 
ENDBRANCH  30  31
ENDBRANCH  28  30
ENDBRANCH   5  28
TORSDOF 5
ENDMDL
MODEL 9
REMARK VINA RESULT:      -9.2      1.862      2.187
REMARK  Name = 
REMARK  6 active torsions:
REMARK  status: ('A' for Active; 'I' for Inactive)
REMARK    1  A    between atoms: C_6  and  C_10
REMARK    2  A    between atoms: C_14  and  O_18
REMARK    3  A    between atoms: N_17  and  N_20
REMARK    4  A    between atoms: N_20  and  C_23
REMARK    5  A    between atoms: C_23  and  C_26
REMARK    6  A    between atoms: C_28  and  C_31
REMARK                            x       y       z     vdW  Elec       q    Type
REMARK                         _______ _______ _______ _____ _____    ______ ____
ROOT
ATOM      1  C   UNL     1      -9.810  53.614  49.878  0.00  0.00    +0.000 A 
ATOM      2  C   UNL     1     -10.986  54.504  50.091  0.00  0.00    +0.000 A 
ATOM      3  C   UNL     1      -9.491  53.171  48.653  0.00  0.00    +0.000 A 
ATOM      4  O   UNL     1     -11.160  54.925  51.239  0.00  0.00    +0.000 OA
ATOM      5  N   UNL     1     -11.785  54.814  48.985  0.00  0.00    +0.000 N 
ATOM      6  C   UNL     1     -10.295  53.566  47.492  0.00  0.00    +0.000 A 
ATOM      7  C   UNL     1     -11.426  54.382  47.668  0.00  0.00    +0.000 A 
ATOM      8  C   UNL     1      -9.923  53.165  46.197  0.00  0.00    +0.000 A 
ATOM      9  C   UNL     1     -12.159  54.780  46.537  0.00  0.00    +0.000 A 
ATOM     10  C   UNL     1     -10.642  53.589  45.084  0.00  0.00    +0.000 A 
ATOM     11  C   UNL     1     -11.760  54.398  45.253  0.00  0.00    +0.000 A 
ENDROOT
BRANCH   1  17
ATOM     12  S   UNL     1      -8.294  51.698  52.940  0.00  0.00    +0.000 S 
ATOM     13  O   UNL     1      -7.351  50.684  52.515  0.00  0.00    +0.000 OA
ATOM     14  O   UNL     1      -9.234  51.427  54.011  0.00  0.00    +0.000 OA
ATOM     15  N   UNL     1      -9.145  52.145  51.637  0.00  0.00    +0.000 N 
ATOM     16  C   UNL     1      -7.334  53.072  53.470  0.00  0.00    +0.000 A 
ATOM     17  C   UNL     1      -8.934  53.292  51.066  0.00  0.00    +0.000 C 
ATOM     18  C   UNL     1      -7.316  54.199  52.659  0.00  0.00    +0.000 A 
ATOM     19  C   UNL     1      -6.636  53.012  54.670  0.00  0.00    +0.000 A 
ATOM     20  N   UNL     1      -8.000  54.230  51.449  0.00  0.00    +0.000 N 
ATOM     21  C   UNL     1      -6.516  55.274  53.049  0.00  0.00    +0.000 A 
ATOM     22  C   UNL     1      -5.863  54.104  55.062  0.00  0.00    +0.000 A 
ATOM     23  C   UNL     1      -5.800  55.233  54.247  0.00  0.00    +0.000 A 
ATOM     24  H   UNL     1      -9.831  51.540  51.274  0.00  0.00    +0.000 HD
ATOM     25  H   UNL     1      -7.806  54.969  50.828  0.00  0.00    +0.000 HD
ENDBRANCH   1  17
BRANCH   3  26
ATOM     26  O   UNL     1      -8.389  52.384  48.369  0.00  0.00    +0.000 OA
ATOM     27  H   UNL     1      -7.533  52.764  48.352  0.00  0.00    +0.000 HD
ENDBRANCH   3  26
BRANCH   5  28
ATOM     28  N   UNL     1     -12.949  55.649  49.099  0.00  0.00    +0.000 N 
ATOM     29  H   UNL     1     -13.855  55.284  48.977  0.00  0.00    +0.000 HD
BRANCH  28  30
ATOM     30  C   UNL     1     -12.734  57.068  49.406  0.00  0.00    +0.000 C 
BRANCH  30  31
ATOM     31  C   UNL     1     -13.630  57.532  50.532  0.00  0.00    +0.000 A 
ATOM     32  C   UNL     1     -14.007  58.881  50.684  0.00  0.00    +0.000 A 
ATOM     33  C   UNL     1     -14.087  56.579  51.464  0.00  0.00    +0.000 A 
ATOM     34  C   UNL     1     -14.845  59.235  51.754  0.00  0.00    +0.000 A 
ATOM     35  C   UNL     1     -13.571  59.975  49.745  0.00  0.00    +0.000 C 
ATOM     36  C   UNL     1     -14.928  56.947  52.510  0.00  0.00    +0.000 A 
ATOM     37  C   UNL     1     -15.309  58.276  52.653  0.00  0.00    +0.000 A 
ENDBRANCH  30  31
ENDBRANCH  28  30
ENDBRANCH   5  28
TORSDOF 5
ENDMDL
