MODEL 1
REMARK VINA RESULT:      -8.2      0.000      0.000
REMARK  Name = 
REMARK  5 active torsions:
REMARK  status: ('A' for Active; 'I' for Inactive)
REMARK    1  A    between atoms: C_6  and  C_10
REMARK    2  A    between atoms: C_14  and  O_18
REMARK    3  A    between atoms: N_17  and  N_20
REMARK    4  A    between atoms: N_20  and  C_23
REMARK    5  A    between atoms: C_23  and  C_26
REMARK                            x       y       z     vdW  Elec       q    Type
REMARK                         _______ _______ _______ _____ _____    ______ ____
ROOT
ATOM      1  C   UNL     1     -11.296  53.839  51.565  0.00  0.00    +0.000 A 
ATOM      2  C   UNL     1     -10.369  53.992  52.723  0.00  0.00    +0.000 A 
ATOM      3  C   UNL     1     -11.431  52.656  50.945  0.00  0.00    +0.000 A 
ATOM      4  O   UNL     1     -10.306  55.107  53.249  0.00  0.00    +0.000 OA
ATOM      5  N   UNL     1      -9.662  52.865  53.155  0.00  0.00    +0.000 N 
ATOM      6  C   UNL     1     -10.681  51.483  51.412  0.00  0.00    +0.000 A 
ATOM      7  C   UNL     1      -9.802  51.601  52.504  0.00  0.00    +0.000 A 
ATOM      8  C   UNL     1     -10.859  50.235  50.792  0.00  0.00    +0.000 A 
ATOM      9  C   UNL     1      -9.105  50.464  52.941  0.00  0.00    +0.000 A 
ATOM     10  C   UNL     1     -10.184  49.107  51.255  0.00  0.00    +0.000 A 
ATOM     11  C   UNL     1      -9.305  49.222  52.324  0.00  0.00    +0.000 A 
ENDROOT
BRANCH   1  17
ATOM     12  S   UNL     1     -12.812  56.722  49.378  0.00  0.00    +0.000 S 
ATOM     13  O   UNL     1     -13.832  56.240  48.473  0.00  0.00    +0.000 OA
ATOM     14  O   UNL     1     -11.837  57.702  48.933  0.00  0.00    +0.000 OA
ATOM     15  N   UNL     1     -11.998  55.433  49.927  0.00  0.00    +0.000 N 
ATOM     16  C   UNL     1     -13.654  57.456  50.729  0.00  0.00    +0.000 A 
ATOM     17  C   UNL     1     -12.137  55.026  51.152  0.00  0.00    +0.000 C 
ATOM     18  C   UNL     1     -13.623  56.803  51.948  0.00  0.00    +0.000 A 
ATOM     19  C   UNL     1     -14.320  58.671  50.557  0.00  0.00    +0.000 A 
ATOM     20  N   UNL     1     -12.974  55.579  52.098  0.00  0.00    +0.000 N 
ATOM     21  C   UNL     1     -14.335  57.356  53.016  0.00  0.00    +0.000 A 
ATOM     22  C   UNL     1     -15.002  59.228  51.634  0.00  0.00    +0.000 A 
ATOM     23  C   UNL     1     -15.015  58.568  52.864  0.00  0.00    +0.000 A 
ATOM     24  H   UNL     1     -11.389  54.951  49.322  0.00  0.00    +0.000 HD
ATOM     25  H   UNL     1     -13.122  55.077  52.933  0.00  0.00    +0.000 HD
ENDBRANCH   1  17
BRANCH   3  26
ATOM     26  O   UNL     1     -12.286  52.424  49.881  0.00  0.00    +0.000 OA
ATOM     27  H   UNL     1     -12.069  52.743  49.027  0.00  0.00    +0.000 HD
ENDBRANCH   3  26
BRANCH   5  28
ATOM     28  N   UNL     1      -8.735  52.959  54.259  0.00  0.00    +0.000 N 
ATOM     29  H   UNL     1      -8.998  52.787  55.193  0.00  0.00    +0.000 HD
BRANCH  28  30
ATOM     30  C   UNL     1      -7.369  53.333  53.877  0.00  0.00    +0.000 C 
BRANCH  30  31
ATOM     31  C   UNL     1      -7.008  54.665  54.457  0.00  0.00    +0.000 C 
ATOM     32  C   UNL     1      -6.673  55.859  53.604  0.00  0.00    +0.000 C 
ATOM     33  C   UNL     1      -5.580  55.146  54.350  0.00  0.00    +0.000 C 
ENDBRANCH  30  31
ENDBRANCH  28  30
ENDBRANCH   5  28
TORSDOF 5
ENDMDL
MODEL 2
REMARK VINA RESULT:      -8.2      2.196      2.836
REMARK  Name = 
REMARK  5 active torsions:
REMARK  status: ('A' for Active; 'I' for Inactive)
REMARK    1  A    between atoms: C_6  and  C_10
REMARK    2  A    between atoms: C_14  and  O_18
REMARK    3  A    between atoms: N_17  and  N_20
REMARK    4  A    between atoms: N_20  and  C_23
REMARK    5  A    between atoms: C_23  and  C_26
REMARK                            x       y       z     vdW  Elec       q    Type
REMARK                         _______ _______ _______ _____ _____    ______ ____
ROOT
ATOM      1  C   UNL     1     -10.098  54.531  52.166  0.00  0.00    +0.000 A 
ATOM      2  C   UNL     1      -8.737  55.105  51.957  0.00  0.00    +0.000 A 
ATOM      3  C   UNL     1     -10.272  53.439  52.927  0.00  0.00    +0.000 A 
ATOM      4  O   UNL     1      -8.658  56.116  51.253  0.00  0.00    +0.000 OA
ATOM      5  N   UNL     1      -7.656  54.488  52.592  0.00  0.00    +0.000 N 
ATOM      6  C   UNL     1      -9.125  52.802  53.587  0.00  0.00    +0.000 A 
ATOM      7  C   UNL     1      -7.832  53.327  53.407  0.00  0.00    +0.000 A 
ATOM      8  C   UNL     1      -9.315  51.688  54.421  0.00  0.00    +0.000 A 
ATOM      9  C   UNL     1      -6.752  52.710  54.057  0.00  0.00    +0.000 A 
ATOM     10  C   UNL     1      -8.238  51.103  55.085  0.00  0.00    +0.000 A 
ATOM     11  C   UNL     1      -6.958  51.610  54.900  0.00  0.00    +0.000 A 
ENDROOT
BRANCH   1  17
ATOM     12  S   UNL     1     -12.569  56.014  49.504  0.00  0.00    +0.000 S 
ATOM     13  O   UNL     1     -13.462  55.009  48.971  0.00  0.00    +0.000 OA
ATOM     14  O   UNL     1     -11.969  57.005  48.628  0.00  0.00    +0.000 OA
ATOM     15  N   UNL     1     -11.367  55.242  50.269  0.00  0.00    +0.000 N 
ATOM     16  C   UNL     1     -13.489  56.913  50.694  0.00  0.00    +0.000 A 
ATOM     17  C   UNL     1     -11.285  55.248  51.565  0.00  0.00    +0.000 C 
ATOM     18  C   UNL     1     -13.172  56.739  52.030  0.00  0.00    +0.000 A 
ATOM     19  C   UNL     1     -14.500  57.783  50.281  0.00  0.00    +0.000 A 
ATOM     20  N   UNL     1     -12.176  55.850  52.429  0.00  0.00    +0.000 N 
ATOM     21  C   UNL     1     -13.934  57.415  52.987  0.00  0.00    +0.000 A 
ATOM     22  C   UNL     1     -15.234  58.472  51.241  0.00  0.00    +0.000 A 
ATOM     23  C   UNL     1     -14.956  58.284  52.595  0.00  0.00    +0.000 A 
ATOM     24  H   UNL     1     -10.689  54.760  49.743  0.00  0.00    +0.000 HD
ATOM     25  H   UNL     1     -12.104  55.637  53.387  0.00  0.00    +0.000 HD
ENDBRANCH   1  17
BRANCH   3  26
ATOM     26  O   UNL     1     -11.501  52.858  53.192  0.00  0.00    +0.000 OA
ATOM     27  H   UNL     1     -11.829  52.835  54.070  0.00  0.00    +0.000 HD
ENDBRANCH   3  26
BRANCH   5  28
ATOM     28  N   UNL     1      -6.313  54.989  52.408  0.00  0.00    +0.000 N 
ATOM     29  H   UNL     1      -5.953  55.748  52.922  0.00  0.00    +0.000 HD
BRANCH  28  30
ATOM     30  C   UNL     1      -5.530  54.274  51.394  0.00  0.00    +0.000 C 
BRANCH  30  31
ATOM     31  C   UNL     1      -5.544  55.024  50.098  0.00  0.00    +0.000 C 
ATOM     32  C   UNL     1      -6.305  54.547  48.890  0.00  0.00    +0.000 C 
ATOM     33  C   UNL     1      -4.806  54.449  48.913  0.00  0.00    +0.000 C 
ENDBRANCH  30  31
ENDBRANCH  28  30
ENDBRANCH   5  28
TORSDOF 5
ENDMDL
MODEL 3
REMARK VINA RESULT:      -8.1      3.957      4.887
REMARK  Name = 
REMARK  5 active torsions:
REMARK  status: ('A' for Active; 'I' for Inactive)
REMARK    1  A    between atoms: C_6  and  C_10
REMARK    2  A    between atoms: C_14  and  O_18
REMARK    3  A    between atoms: N_17  and  N_20
REMARK    4  A    between atoms: N_20  and  C_23
REMARK    5  A    between atoms: C_23  and  C_26
REMARK                            x       y       z     vdW  Elec       q    Type
REMARK                         _______ _______ _______ _____ _____    ______ ____
ROOT
ATOM      1  C   UNL     1     -10.674  55.653  48.156  0.00  0.00    +0.000 A 
ATOM      2  C   UNL     1      -9.213  55.751  48.435  0.00  0.00    +0.000 A 
ATOM      3  C   UNL     1     -11.125  54.995  47.076  0.00  0.00    +0.000 A 
ATOM      4  O   UNL     1      -8.876  56.363  49.454  0.00  0.00    +0.000 OA
ATOM      5  N   UNL     1      -8.329  55.123  47.553  0.00  0.00    +0.000 N 
ATOM      6  C   UNL     1     -10.183  54.340  46.160  0.00  0.00    +0.000 A 
ATOM      7  C   UNL     1      -8.799  54.417  46.403  0.00  0.00    +0.000 A 
ATOM      8  C   UNL     1     -10.657  53.612  45.055  0.00  0.00    +0.000 A 
ATOM      9  C   UNL     1      -7.917  53.774  45.519  0.00  0.00    +0.000 A 
ATOM     10  C   UNL     1      -9.772  52.953  44.204  0.00  0.00    +0.000 A 
ATOM     11  C   UNL     1      -8.405  53.037  44.433  0.00  0.00    +0.000 A 
ENDROOT
BRANCH   1  17
ATOM     12  S   UNL     1     -13.094  55.964  51.230  0.00  0.00    +0.000 S 
ATOM     13  O   UNL     1     -12.375  56.156  52.470  0.00  0.00    +0.000 OA
ATOM     14  O   UNL     1     -14.239  55.074  51.173  0.00  0.00    +0.000 OA
ATOM     15  N   UNL     1     -12.025  55.462  50.120  0.00  0.00    +0.000 N 
ATOM     16  C   UNL     1     -13.683  57.543  50.748  0.00  0.00    +0.000 A 
ATOM     17  C   UNL     1     -11.642  56.244  49.157  0.00  0.00    +0.000 C 
ATOM     18  C   UNL     1     -13.095  58.152  49.654  0.00  0.00    +0.000 A 
ATOM     19  C   UNL     1     -14.724  58.144  51.459  0.00  0.00    +0.000 A 
ATOM     20  N   UNL     1     -12.041  57.550  48.969  0.00  0.00    +0.000 N 
ATOM     21  C   UNL     1     -13.526  59.432  49.295  0.00  0.00    +0.000 A 
ATOM     22  C   UNL     1     -15.164  59.407  51.076  0.00  0.00    +0.000 A 
ATOM     23  C   UNL     1     -14.561  60.055  49.997  0.00  0.00    +0.000 A 
ATOM     24  H   UNL     1     -11.659  54.549  50.178  0.00  0.00    +0.000 HD
ATOM     25  H   UNL     1     -11.551  58.092  48.309  0.00  0.00    +0.000 HD
ENDBRANCH   1  17
BRANCH   3  26
ATOM     26  O   UNL     1     -12.463  54.835  46.758  0.00  0.00    +0.000 OA
ATOM     27  H   UNL     1     -12.741  54.090  46.264  0.00  0.00    +0.000 HD
ENDBRANCH   3  26
BRANCH   5  28
ATOM     28  N   UNL     1      -6.902  55.202  47.763  0.00  0.00    +0.000 N 
ATOM     29  H   UNL     1      -6.332  55.865  47.308  0.00  0.00    +0.000 HD
BRANCH  28  30
ATOM     30  C   UNL     1      -6.369  54.215  48.709  0.00  0.00    +0.000 C 
BRANCH  30  31
ATOM     31  C   UNL     1      -5.650  54.899  49.830  0.00  0.00    +0.000 C 
ATOM     32  C   UNL     1      -4.721  54.171  50.764  0.00  0.00    +0.000 C 
ATOM     33  C   UNL     1      -6.072  54.613  51.251  0.00  0.00    +0.000 C 
ENDBRANCH  30  31
ENDBRANCH  28  30
ENDBRANCH   5  28
TORSDOF 5
ENDMDL
MODEL 4
REMARK VINA RESULT:      -8.1      2.934      7.333
REMARK  Name = 
REMARK  5 active torsions:
REMARK  status: ('A' for Active; 'I' for Inactive)
REMARK    1  A    between atoms: C_6  and  C_10
REMARK    2  A    between atoms: C_14  and  O_18
REMARK    3  A    between atoms: N_17  and  N_20
REMARK    4  A    between atoms: N_20  and  C_23
REMARK    5  A    between atoms: C_23  and  C_26
REMARK                            x       y       z     vdW  Elec       q    Type
REMARK                         _______ _______ _______ _____ _____    ______ ____
ROOT
ATOM      1  C   UNL     1     -10.475  54.915  50.515  0.00  0.00    +0.000 A 
ATOM      2  C   UNL     1     -11.600  55.109  51.475  0.00  0.00    +0.000 A 
ATOM      3  C   UNL     1     -10.612  55.246  49.221  0.00  0.00    +0.000 A 
ATOM      4  O   UNL     1     -11.395  54.791  52.651  0.00  0.00    +0.000 OA
ATOM      5  N   UNL     1     -12.789  55.664  50.994  0.00  0.00    +0.000 N 
ATOM      6  C   UNL     1     -11.868  55.827  48.733  0.00  0.00    +0.000 A 
ATOM      7  C   UNL     1     -12.943  56.023  49.620  0.00  0.00    +0.000 A 
ATOM      8  C   UNL     1     -11.995  56.217  47.389  0.00  0.00    +0.000 A 
ATOM      9  C   UNL     1     -14.131  56.591  49.133  0.00  0.00    +0.000 A 
ATOM     10  C   UNL     1     -13.169  56.809  46.926  0.00  0.00    +0.000 A 
ATOM     11  C   UNL     1     -14.236  56.992  47.795  0.00  0.00    +0.000 A 
ENDROOT
BRANCH   1  17
ATOM     12  S   UNL     1      -7.254  52.715  50.939  0.00  0.00    +0.000 S 
ATOM     13  O   UNL     1      -6.239  53.043  49.962  0.00  0.00    +0.000 OA
ATOM     14  O   UNL     1      -7.525  51.330  51.282  0.00  0.00    +0.000 OA
ATOM     15  N   UNL     1      -8.645  53.378  50.438  0.00  0.00    +0.000 N 
ATOM     16  C   UNL     1      -6.778  53.500  52.432  0.00  0.00    +0.000 A 
ATOM     17  C   UNL     1      -9.152  54.408  51.045  0.00  0.00    +0.000 C 
ATOM     18  C   UNL     1      -7.521  54.585  52.863  0.00  0.00    +0.000 A 
ATOM     19  C   UNL     1      -5.684  53.020  53.153  0.00  0.00    +0.000 A 
ATOM     20  N   UNL     1      -8.597  55.068  52.120  0.00  0.00    +0.000 N 
ATOM     21  C   UNL     1      -7.117  55.247  54.026  0.00  0.00    +0.000 A 
ATOM     22  C   UNL     1      -5.307  53.669  54.324  0.00  0.00    +0.000 A 
ATOM     23  C   UNL     1      -6.020  54.787  54.759  0.00  0.00    +0.000 A 
ATOM     24  H   UNL     1      -9.112  52.995  49.661  0.00  0.00    +0.000 HD
ATOM     25  H   UNL     1      -8.984  55.935  52.379  0.00  0.00    +0.000 HD
ENDBRANCH   1  17
BRANCH   3  26
ATOM     26  O   UNL     1      -9.612  55.121  48.272  0.00  0.00    +0.000 OA
ATOM     27  H   UNL     1      -9.126  55.876  48.002  0.00  0.00    +0.000 HD
ENDBRANCH   3  26
BRANCH   5  28
ATOM     28  N   UNL     1     -13.918  55.856  51.875  0.00  0.00    +0.000 N 
ATOM     29  H   UNL     1     -14.647  55.199  51.959  0.00  0.00    +0.000 HD
BRANCH  28  30
ATOM     30  C   UNL     1     -13.892  57.112  52.634  0.00  0.00    +0.000 C 
BRANCH  30  31
ATOM     31  C   UNL     1     -15.102  57.937  52.325  0.00  0.00    +0.000 C 
ATOM     32  C   UNL     1     -15.030  59.230  51.558  0.00  0.00    +0.000 C 
ATOM     33  C   UNL     1     -15.291  59.254  53.038  0.00  0.00    +0.000 C 
ENDBRANCH  30  31
ENDBRANCH  28  30
ENDBRANCH   5  28
TORSDOF 5
ENDMDL
MODEL 5
REMARK VINA RESULT:      -8.0      2.853      7.297
REMARK  Name = 
REMARK  5 active torsions:
REMARK  status: ('A' for Active; 'I' for Inactive)
REMARK    1  A    between atoms: C_6  and  C_10
REMARK    2  A    between atoms: C_14  and  O_18
REMARK    3  A    between atoms: N_17  and  N_20
REMARK    4  A    between atoms: N_20  and  C_23
REMARK    5  A    between atoms: C_23  and  C_26
REMARK                            x       y       z     vdW  Elec       q    Type
REMARK                         _______ _______ _______ _____ _____    ______ ____
ROOT
ATOM      1  C   UNL     1     -10.213  54.910  50.926  0.00  0.00    +0.000 A 
ATOM      2  C   UNL     1     -11.518  55.447  51.409  0.00  0.00    +0.000 A 
ATOM      3  C   UNL     1      -9.946  54.835  49.612  0.00  0.00    +0.000 A 
ATOM      4  O   UNL     1     -11.687  55.495  52.631  0.00  0.00    +0.000 OA
ATOM      5  N   UNL     1     -12.442  55.890  50.458  0.00  0.00    +0.000 N 
ATOM      6  C   UNL     1     -10.927  55.304  48.627  0.00  0.00    +0.000 A 
ATOM      7  C   UNL     1     -12.164  55.818  49.058  0.00  0.00    +0.000 A 
ATOM      8  C   UNL     1     -10.628  55.270  47.255  0.00  0.00    +0.000 A 
ATOM      9  C   UNL     1     -13.084  56.272  48.099  0.00  0.00    +0.000 A 
ATOM     10  C   UNL     1     -11.537  55.752  46.314  0.00  0.00    +0.000 A 
ATOM     11  C   UNL     1     -12.764  56.248  46.735  0.00  0.00    +0.000 A 
ENDROOT
BRANCH   1  17
ATOM     12  S   UNL     1      -6.868  54.884  52.977  0.00  0.00    +0.000 S 
ATOM     13  O   UNL     1      -6.843  55.918  53.988  0.00  0.00    +0.000 OA
ATOM     14  O   UNL     1      -5.688  54.606  52.178  0.00  0.00    +0.000 OA
ATOM     15  N   UNL     1      -8.081  55.229  51.958  0.00  0.00    +0.000 N 
ATOM     16  C   UNL     1      -7.257  53.389  53.805  0.00  0.00    +0.000 A 
ATOM     17  C   UNL     1      -9.169  54.521  51.948  0.00  0.00    +0.000 C 
ATOM     18  C   UNL     1      -8.506  52.834  53.595  0.00  0.00    +0.000 A 
ATOM     19  C   UNL     1      -6.311  52.790  54.639  0.00  0.00    +0.000 A 
ATOM     20  N   UNL     1      -9.448  53.456  52.778  0.00  0.00    +0.000 N 
ATOM     21  C   UNL     1      -8.841  51.669  54.291  0.00  0.00    +0.000 A 
ATOM     22  C   UNL     1      -6.644  51.615  55.306  0.00  0.00    +0.000 A 
ATOM     23  C   UNL     1      -7.912  51.056  55.137  0.00  0.00    +0.000 A 
ATOM     24  H   UNL     1      -7.991  55.988  51.338  0.00  0.00    +0.000 HD
ATOM     25  H   UNL     1     -10.371  53.113  52.793  0.00  0.00    +0.000 HD
ENDBRANCH   1  17
BRANCH   3  26
ATOM     26  O   UNL     1      -8.753  54.374  49.082  0.00  0.00    +0.000 OA
ATOM     27  H   UNL     1      -7.945  54.547  49.525  0.00  0.00    +0.000 HD
ENDBRANCH   3  26
BRANCH   5  28
ATOM     28  N   UNL     1     -13.729  56.401  50.868  0.00  0.00    +0.000 N 
ATOM     29  H   UNL     1     -14.510  55.821  51.018  0.00  0.00    +0.000 HD
BRANCH  28  30
ATOM     30  C   UNL     1     -13.779  57.858  51.043  0.00  0.00    +0.000 C 
BRANCH  30  31
ATOM     31  C   UNL     1     -14.056  58.205  52.473  0.00  0.00    +0.000 C 
ATOM     32  C   UNL     1     -15.285  57.731  53.201  0.00  0.00    +0.000 C 
ATOM     33  C   UNL     1     -15.172  59.171  52.787  0.00  0.00    +0.000 C 
ENDBRANCH  30  31
ENDBRANCH  28  30
ENDBRANCH   5  28
TORSDOF 5
ENDMDL
MODEL 6
REMARK VINA RESULT:      -7.9      3.409      7.627
REMARK  Name = 
REMARK  5 active torsions:
REMARK  status: ('A' for Active; 'I' for Inactive)
REMARK    1  A    between atoms: C_6  and  C_10
REMARK    2  A    between atoms: C_14  and  O_18
REMARK    3  A    between atoms: N_17  and  N_20
REMARK    4  A    between atoms: N_20  and  C_23
REMARK    5  A    between atoms: C_23  and  C_26
REMARK                            x       y       z     vdW  Elec       q    Type
REMARK                         _______ _______ _______ _____ _____    ______ ____
ROOT
ATOM      1  C   UNL     1     -10.194  55.243  50.740  0.00  0.00    +0.000 A 
ATOM      2  C   UNL     1      -9.772  55.142  49.313  0.00  0.00    +0.000 A 
ATOM      3  C   UNL     1     -11.402  55.731  51.065  0.00  0.00    +0.000 A 
ATOM      4  O   UNL     1      -8.651  54.672  49.092  0.00  0.00    +0.000 OA
ATOM      5  N   UNL     1     -10.675  55.549  48.327  0.00  0.00    +0.000 N 
ATOM      6  C   UNL     1     -12.338  56.155  50.017  0.00  0.00    +0.000 A 
ATOM      7  C   UNL     1     -11.964  56.067  48.664  0.00  0.00    +0.000 A 
ATOM      8  C   UNL     1     -13.619  56.621  50.356  0.00  0.00    +0.000 A 
ATOM      9  C   UNL     1     -12.879  56.466  47.677  0.00  0.00    +0.000 A 
ATOM     10  C   UNL     1     -14.530  56.986  49.366  0.00  0.00    +0.000 A 
ATOM     11  C   UNL     1     -14.160  56.913  48.030  0.00  0.00    +0.000 A 
ENDROOT
BRANCH   1  17
ATOM     12  S   UNL     1      -7.022  54.818  53.009  0.00  0.00    +0.000 S 
ATOM     13  O   UNL     1      -6.981  55.795  54.075  0.00  0.00    +0.000 OA
ATOM     14  O   UNL     1      -5.815  54.473  52.279  0.00  0.00    +0.000 OA
ATOM     15  N   UNL     1      -8.122  55.319  51.931  0.00  0.00    +0.000 N 
ATOM     16  C   UNL     1      -7.597  53.326  53.727  0.00  0.00    +0.000 A 
ATOM     17  C   UNL     1      -9.264  54.713  51.808  0.00  0.00    +0.000 C 
ATOM     18  C   UNL     1      -8.871  52.896  53.402  0.00  0.00    +0.000 A 
ATOM     19  C   UNL     1      -6.770  52.604  54.590  0.00  0.00    +0.000 A 
ATOM     20  N   UNL     1      -9.694  53.638  52.557  0.00  0.00    +0.000 N 
ATOM     21  C   UNL     1      -9.354  51.733  54.009  0.00  0.00    +0.000 A 
ATOM     22  C   UNL     1      -7.251  51.434  55.167  0.00  0.00    +0.000 A 
ATOM     23  C   UNL     1      -8.546  51.000  54.882  0.00  0.00    +0.000 A 
ATOM     24  H   UNL     1      -7.922  56.096  51.360  0.00  0.00    +0.000 HD
ATOM     25  H   UNL     1     -10.642  53.380  52.492  0.00  0.00    +0.000 HD
ENDBRANCH   1  17
BRANCH   3  26
ATOM     26  O   UNL     1     -11.881  55.835  52.360  0.00  0.00    +0.000 OA
ATOM     27  H   UNL     1     -11.293  55.751  53.085  0.00  0.00    +0.000 HD
ENDBRANCH   3  26
BRANCH   5  28
ATOM     28  N   UNL     1     -10.311  55.492  46.930  0.00  0.00    +0.000 N 
ATOM     29  H   UNL     1     -10.143  56.298  46.390  0.00  0.00    +0.000 HD
BRANCH  28  30
ATOM     30  C   UNL     1     -10.212  54.135  46.381  0.00  0.00    +0.000 C 
BRANCH  30  31
ATOM     31  C   UNL     1     -11.216  53.937  45.288  0.00  0.00    +0.000 C 
ATOM     32  C   UNL     1     -12.030  52.679  45.150  0.00  0.00    +0.000 C 
ATOM     33  C   UNL     1     -10.911  52.952  44.185  0.00  0.00    +0.000 C 
ENDBRANCH  30  31
ENDBRANCH  28  30
ENDBRANCH   5  28
TORSDOF 5
ENDMDL
MODEL 7
REMARK VINA RESULT:      -7.9      3.288      7.637
REMARK  Name = 
REMARK  5 active torsions:
REMARK  status: ('A' for Active; 'I' for Inactive)
REMARK    1  A    between atoms: C_6  and  C_10
REMARK    2  A    between atoms: C_14  and  O_18
REMARK    3  A    between atoms: N_17  and  N_20
REMARK    4  A    between atoms: N_20  and  C_23
REMARK    5  A    between atoms: C_23  and  C_26
REMARK                            x       y       z     vdW  Elec       q    Type
REMARK                         _______ _______ _______ _____ _____    ______ ____
ROOT
ATOM      1  C   UNL     1     -10.100  55.262  50.782  0.00  0.00    +0.000 A 
ATOM      2  C   UNL     1     -11.269  55.395  51.699  0.00  0.00    +0.000 A 
ATOM      3  C   UNL     1     -10.230  55.494  49.466  0.00  0.00    +0.000 A 
ATOM      4  O   UNL     1     -11.069  55.177  52.898  0.00  0.00    +0.000 OA
ATOM      5  N   UNL     1     -12.495  55.787  51.153  0.00  0.00    +0.000 N 
ATOM      6  C   UNL     1     -11.525  55.905  48.909  0.00  0.00    +0.000 A 
ATOM      7  C   UNL     1     -12.642  56.039  49.754  0.00  0.00    +0.000 A 
ATOM      8  C   UNL     1     -11.649  56.192  47.539  0.00  0.00    +0.000 A 
ATOM      9  C   UNL     1     -13.867  56.444  49.201  0.00  0.00    +0.000 A 
ATOM     10  C   UNL     1     -12.863  56.623  47.009  0.00  0.00    +0.000 A 
ATOM     11  C   UNL     1     -13.971  56.745  47.837  0.00  0.00    +0.000 A 
ENDROOT
BRANCH   1  17
ATOM     12  S   UNL     1      -7.065  55.203  53.269  0.00  0.00    +0.000 S 
ATOM     13  O   UNL     1      -7.283  54.292  54.371  0.00  0.00    +0.000 OA
ATOM     14  O   UNL     1      -6.463  56.504  53.497  0.00  0.00    +0.000 OA
ATOM     15  N   UNL     1      -8.495  55.443  52.546  0.00  0.00    +0.000 N 
ATOM     16  C   UNL     1      -6.012  54.373  52.140  0.00  0.00    +0.000 A 
ATOM     17  C   UNL     1      -8.749  54.936  51.378  0.00  0.00    +0.000 C 
ATOM     18  C   UNL     1      -6.551  53.948  50.939  0.00  0.00    +0.000 A 
ATOM     19  C   UNL     1      -4.670  54.169  52.462  0.00  0.00    +0.000 A 
ATOM     20  N   UNL     1      -7.900  54.137  50.641  0.00  0.00    +0.000 N 
ATOM     21  C   UNL     1      -5.730  53.241  50.056  0.00  0.00    +0.000 A 
ATOM     22  C   UNL     1      -3.854  53.489  51.564  0.00  0.00    +0.000 A 
ATOM     23  C   UNL     1      -4.385  53.019  50.361  0.00  0.00    +0.000 A 
ATOM     24  H   UNL     1      -9.183  55.982  53.000  0.00  0.00    +0.000 HD
ATOM     25  H   UNL     1      -8.269  53.673  49.856  0.00  0.00    +0.000 HD
ENDBRANCH   1  17
BRANCH   3  26
ATOM     26  O   UNL     1      -9.192  55.418  48.552  0.00  0.00    +0.000 OA
ATOM     27  H   UNL     1      -9.232  54.799  47.850  0.00  0.00    +0.000 HD
ENDBRANCH   3  26
BRANCH   5  28
ATOM     28  N   UNL     1     -13.665  55.912  51.990  0.00  0.00    +0.000 N 
ATOM     29  H   UNL     1     -14.343  55.202  52.069  0.00  0.00    +0.000 HD
BRANCH  28  30
ATOM     30  C   UNL     1     -13.762  57.184  52.715  0.00  0.00    +0.000 C 
BRANCH  30  31
ATOM     31  C   UNL     1     -15.008  57.917  52.323  0.00  0.00    +0.000 C 
ATOM     32  C   UNL     1     -14.985  59.165  51.481  0.00  0.00    +0.000 C 
ATOM     33  C   UNL     1     -15.293  59.261  52.949  0.00  0.00    +0.000 C 
ENDBRANCH  30  31
ENDBRANCH  28  30
ENDBRANCH   5  28
TORSDOF 5
ENDMDL
MODEL 8
REMARK VINA RESULT:      -7.8      3.193      4.942
REMARK  Name = 
REMARK  5 active torsions:
REMARK  status: ('A' for Active; 'I' for Inactive)
REMARK    1  A    between atoms: C_6  and  C_10
REMARK    2  A    between atoms: C_14  and  O_18
REMARK    3  A    between atoms: N_17  and  N_20
REMARK    4  A    between atoms: N_20  and  C_23
REMARK    5  A    between atoms: C_23  and  C_26
REMARK                            x       y       z     vdW  Elec       q    Type
REMARK                         _______ _______ _______ _____ _____    ______ ____
ROOT
ATOM      1  C   UNL     1     -12.335  54.178  49.969  0.00  0.00    +0.000 A 
ATOM      2  C   UNL     1     -11.985  53.912  48.544  0.00  0.00    +0.000 A 
ATOM      3  C   UNL     1     -11.881  53.380  50.949  0.00  0.00    +0.000 A 
ATOM      4  O   UNL     1     -12.431  54.696  47.701  0.00  0.00    +0.000 OA
ATOM      5  N   UNL     1     -11.156  52.823  48.261  0.00  0.00    +0.000 N 
ATOM      6  C   UNL     1     -11.011  52.240  50.634  0.00  0.00    +0.000 A 
ATOM      7  C   UNL     1     -10.664  51.969  49.297  0.00  0.00    +0.000 A 
ATOM      8  C   UNL     1     -10.497  51.433  51.663  0.00  0.00    +0.000 A 
ATOM      9  C   UNL     1      -9.821  50.881  49.020  0.00  0.00    +0.000 A 
ATOM     10  C   UNL     1      -9.637  50.374  51.377  0.00  0.00    +0.000 A 
ATOM     11  C   UNL     1      -9.303  50.096  50.058  0.00  0.00    +0.000 A 
ENDROOT
BRANCH   1  17
ATOM     12  S   UNL     1     -15.282  56.443  51.227  0.00  0.00    +0.000 S 
ATOM     13  O   UNL     1     -15.265  56.609  52.664  0.00  0.00    +0.000 OA
ATOM     14  O   UNL     1     -16.534  56.227  50.525  0.00  0.00    +0.000 OA
ATOM     15  N   UNL     1     -14.297  55.207  50.868  0.00  0.00    +0.000 N 
ATOM     16  C   UNL     1     -14.593  57.907  50.551  0.00  0.00    +0.000 A 
ATOM     17  C   UNL     1     -13.149  55.410  50.295  0.00  0.00    +0.000 C 
ATOM     18  C   UNL     1     -13.338  57.830  49.975  0.00  0.00    +0.000 A 
ATOM     19  C   UNL     1     -15.316  59.100  50.595  0.00  0.00    +0.000 A 
ATOM     20  N   UNL     1     -12.618  56.637  49.960  0.00  0.00    +0.000 N 
ATOM     21  C   UNL     1     -12.763  59.004  49.479  0.00  0.00    +0.000 A 
ATOM     22  C   UNL     1     -14.746  60.257  50.073  0.00  0.00    +0.000 A 
ATOM     23  C   UNL     1     -13.465  60.210  49.520  0.00  0.00    +0.000 A 
ATOM     24  H   UNL     1     -14.573  54.288  51.088  0.00  0.00    +0.000 HD
ATOM     25  H   UNL     1     -11.671  56.672  49.693  0.00  0.00    +0.000 HD
ENDBRANCH   1  17
BRANCH   3  26
ATOM     26  O   UNL     1     -12.137  53.570  52.296  0.00  0.00    +0.000 OA
ATOM     27  H   UNL     1     -12.531  54.368  52.589  0.00  0.00    +0.000 HD
ENDBRANCH   3  26
BRANCH   5  28
ATOM     28  N   UNL     1     -10.801  52.505  46.897  0.00  0.00    +0.000 N 
ATOM     29  H   UNL     1     -11.317  51.875  46.344  0.00  0.00    +0.000 HD
BRANCH  28  30
ATOM     30  C   UNL     1      -9.607  53.200  46.401  0.00  0.00    +0.000 C 
BRANCH  30  31
ATOM     31  C   UNL     1      -9.805  53.636  44.982  0.00  0.00    +0.000 C 
ATOM     32  C   UNL     1     -10.497  52.778  43.958  0.00  0.00    +0.000 C 
ATOM     33  C   UNL     1      -9.007  52.962  43.893  0.00  0.00    +0.000 C 
ENDBRANCH  30  31
ENDBRANCH  28  30
ENDBRANCH   5  28
TORSDOF 5
ENDMDL
MODEL 9
REMARK VINA RESULT:      -7.5      3.227      7.608
REMARK  Name = 
REMARK  5 active torsions:
REMARK  status: ('A' for Active; 'I' for Inactive)
REMARK    1  A    between atoms: C_6  and  C_10
REMARK    2  A    between atoms: C_14  and  O_18
REMARK    3  A    between atoms: N_17  and  N_20
REMARK    4  A    between atoms: N_20  and  C_23
REMARK    5  A    between atoms: C_23  and  C_26
REMARK                            x       y       z     vdW  Elec       q    Type
REMARK                         _______ _______ _______ _____ _____    ______ ____
ROOT
ATOM      1  C   UNL     1     -10.385  54.830  50.447  0.00  0.00    +0.000 A 
ATOM      2  C   UNL     1      -9.936  54.890  49.027  0.00  0.00    +0.000 A 
ATOM      3  C   UNL     1     -11.581  55.322  50.811  0.00  0.00    +0.000 A 
ATOM      4  O   UNL     1      -8.829  54.407  48.768  0.00  0.00    +0.000 OA
ATOM      5  N   UNL     1     -10.801  55.452  48.084  0.00  0.00    +0.000 N 
ATOM      6  C   UNL     1     -12.478  55.909  49.807  0.00  0.00    +0.000 A 
ATOM      7  C   UNL     1     -12.077  55.974  48.460  0.00  0.00    +0.000 A 
ATOM      8  C   UNL     1     -13.748  56.380  50.180  0.00  0.00    +0.000 A 
ATOM      9  C   UNL     1     -12.956  56.529  47.516  0.00  0.00    +0.000 A 
ATOM     10  C   UNL     1     -14.623  56.900  49.228  0.00  0.00    +0.000 A 
ATOM     11  C   UNL     1     -14.226  56.978  47.899  0.00  0.00    +0.000 A 
ENDROOT
BRANCH   1  17
ATOM     12  S   UNL     1      -9.082  52.171  53.021  0.00  0.00    +0.000 S 
ATOM     13  O   UNL     1      -8.490  51.025  52.366  0.00  0.00    +0.000 OA
ATOM     14  O   UNL     1      -9.944  51.994  54.176  0.00  0.00    +0.000 OA
ATOM     15  N   UNL     1      -9.920  52.991  51.903  0.00  0.00    +0.000 N 
ATOM     16  C   UNL     1      -7.752  53.178  53.558  0.00  0.00    +0.000 A 
ATOM     17  C   UNL     1      -9.499  54.136  51.457  0.00  0.00    +0.000 C 
ATOM     18  C   UNL     1      -7.538  54.378  52.904  0.00  0.00    +0.000 A 
ATOM     19  C   UNL     1      -6.953  52.764  54.626  0.00  0.00    +0.000 A 
ATOM     20  N   UNL     1      -8.329  54.766  51.825  0.00  0.00    +0.000 N 
ATOM     21  C   UNL     1      -6.449  55.162  53.294  0.00  0.00    +0.000 A 
ATOM     22  C   UNL     1      -5.888  53.565  55.025  0.00  0.00    +0.000 A 
ATOM     23  C   UNL     1      -5.632  54.763  54.355  0.00  0.00    +0.000 A 
ATOM     24  H   UNL     1     -10.762  52.616  51.556  0.00  0.00    +0.000 HD
ATOM     25  H   UNL     1      -8.035  55.540  51.291  0.00  0.00    +0.000 HD
ENDBRANCH   1  17
BRANCH   3  26
ATOM     26  O   UNL     1     -12.084  55.284  52.100  0.00  0.00    +0.000 OA
ATOM     27  H   UNL     1     -11.998  54.504  52.613  0.00  0.00    +0.000 HD
ENDBRANCH   3  26
BRANCH   5  28
ATOM     28  N   UNL     1     -10.410  55.554  46.697  0.00  0.00    +0.000 N 
ATOM     29  H   UNL     1     -10.257  56.417  46.249  0.00  0.00    +0.000 HD
BRANCH  28  30
ATOM     30  C   UNL     1     -10.259  54.266  46.010  0.00  0.00    +0.000 C 
BRANCH  30  31
ATOM     31  C   UNL     1     -11.599  53.699  45.659  0.00  0.00    +0.000 C 
ATOM     32  C   UNL     1     -12.156  52.462  46.311  0.00  0.00    +0.000 C 
ATOM     33  C   UNL     1     -11.665  52.400  44.892  0.00  0.00    +0.000 C 
ENDBRANCH  30  31
ENDBRANCH  28  30
ENDBRANCH   5  28
TORSDOF 5
ENDMDL
