MODEL 1
REMARK VINA RESULT:      -8.4      0.000      0.000
REMARK  Name = 
REMARK  5 active torsions:
REMARK  status: ('A' for Active; 'I' for Inactive)
REMARK    1  A    between atoms: C_6  and  C_10
REMARK    2  A    between atoms: C_14  and  O_18
REMARK    3  A    between atoms: N_17  and  N_20
REMARK    4  A    between atoms: N_20  and  C_23
REMARK    5  A    between atoms: C_23  and  C_26
REMARK                            x       y       z     vdW  Elec       q    Type
REMARK                         _______ _______ _______ _____ _____    ______ ____
ROOT
ATOM      1  C   UNL     1     -10.127  54.559  52.217  0.00  0.00    +0.000 A 
ATOM      2  C   UNL     1      -8.760  55.128  52.024  0.00  0.00    +0.000 A 
ATOM      3  C   UNL     1     -10.303  53.452  52.958  0.00  0.00    +0.000 A 
ATOM      4  O   UNL     1      -8.659  56.136  51.318  0.00  0.00    +0.000 OA
ATOM      5  N   UNL     1      -7.689  54.509  52.672  0.00  0.00    +0.000 N 
ATOM      6  C   UNL     1      -9.162  52.806  53.623  0.00  0.00    +0.000 A 
ATOM      7  C   UNL     1      -7.869  53.340  53.469  0.00  0.00    +0.000 A 
ATOM      8  C   UNL     1      -9.346  51.666  54.424  0.00  0.00    +0.000 A 
ATOM      9  C   UNL     1      -6.789  52.711  54.113  0.00  0.00    +0.000 A 
ATOM     10  C   UNL     1      -8.271  51.062  55.071  0.00  0.00    +0.000 A 
ATOM     11  C   UNL     1      -6.991  51.583  54.912  0.00  0.00    +0.000 A 
ENDROOT
BRANCH   1  17
ATOM     12  S   UNL     1     -12.569  56.075  49.537  0.00  0.00    +0.000 S 
ATOM     13  O   UNL     1     -13.462  55.082  48.977  0.00  0.00    +0.000 OA
ATOM     14  O   UNL     1     -11.956  57.075  48.683  0.00  0.00    +0.000 OA
ATOM     15  N   UNL     1     -11.381  55.287  50.309  0.00  0.00    +0.000 N 
ATOM     16  C   UNL     1     -13.507  56.960  50.724  0.00  0.00    +0.000 A 
ATOM     17  C   UNL     1     -11.308  55.289  51.608  0.00  0.00    +0.000 C 
ATOM     18  C   UNL     1     -13.203  56.777  52.063  0.00  0.00    +0.000 A 
ATOM     19  C   UNL     1     -14.519  57.829  50.309  0.00  0.00    +0.000 A 
ATOM     20  N   UNL     1     -12.203  55.896  52.464  0.00  0.00    +0.000 N 
ATOM     21  C   UNL     1     -13.990  57.432  53.016  0.00  0.00    +0.000 A 
ATOM     22  C   UNL     1     -15.270  58.506  51.268  0.00  0.00    +0.000 A 
ATOM     23  C   UNL     1     -15.013  58.300  52.622  0.00  0.00    +0.000 A 
ATOM     24  H   UNL     1     -10.704  54.799  49.787  0.00  0.00    +0.000 HD
ATOM     25  H   UNL     1     -12.129  55.692  53.424  0.00  0.00    +0.000 HD
ENDBRANCH   1  17
BRANCH   3  26
ATOM     26  O   UNL     1     -11.529  52.852  53.185  0.00  0.00    +0.000 OA
ATOM     27  H   UNL     1     -11.701  51.996  52.845  0.00  0.00    +0.000 HD
ENDBRANCH   3  26
BRANCH   5  28
ATOM     28  N   UNL     1      -6.344  54.972  52.457  0.00  0.00    +0.000 N 
ATOM     29  H   UNL     1      -5.828  55.440  53.151  0.00  0.00    +0.000 HD
BRANCH  28  30
ATOM     30  C   UNL     1      -5.800  54.692  51.120  0.00  0.00    +0.000 C 
BRANCH  30  31
ATOM     31  C   UNL     1      -5.006  53.418  51.129  0.00  0.00    +0.000 A 
ATOM     32  S   UNL     1      -5.621  52.017  50.350  0.00  0.00    +0.000 S 
ATOM     33  C   UNL     1      -3.755  53.189  51.668  0.00  0.00    +0.000 A 
ATOM     34  C   UNL     1      -4.217  51.116  50.725  0.00  0.00    +0.000 A 
ATOM     35  C   UNL     1      -3.300  51.859  51.433  0.00  0.00    +0.000 A 
ENDBRANCH  30  31
ENDBRANCH  28  30
ENDBRANCH   5  28
TORSDOF 5
ENDMDL
MODEL 2
REMARK VINA RESULT:      -8.4      3.300      4.909
REMARK  Name = 
REMARK  5 active torsions:
REMARK  status: ('A' for Active; 'I' for Inactive)
REMARK    1  A    between atoms: C_6  and  C_10
REMARK    2  A    between atoms: C_14  and  O_18
REMARK    3  A    between atoms: N_17  and  N_20
REMARK    4  A    between atoms: N_20  and  C_23
REMARK    5  A    between atoms: C_23  and  C_26
REMARK                            x       y       z     vdW  Elec       q    Type
REMARK                         _______ _______ _______ _____ _____    ______ ____
ROOT
ATOM      1  C   UNL     1     -11.481  56.041  48.814  0.00  0.00    +0.000 A 
ATOM      2  C   UNL     1     -10.411  55.459  49.677  0.00  0.00    +0.000 A 
ATOM      3  C   UNL     1     -11.590  55.675  47.526  0.00  0.00    +0.000 A 
ATOM      4  O   UNL     1     -10.349  55.847  50.847  0.00  0.00    +0.000 OA
ATOM      5  N   UNL     1      -9.565  54.496  49.121  0.00  0.00    +0.000 N 
ATOM      6  C   UNL     1     -10.683  54.668  46.955  0.00  0.00    +0.000 A 
ATOM      7  C   UNL     1      -9.681  54.093  47.758  0.00  0.00    +0.000 A 
ATOM      8  C   UNL     1     -10.814  54.259  45.617  0.00  0.00    +0.000 A 
ATOM      9  C   UNL     1      -8.824  53.131  47.196  0.00  0.00    +0.000 A 
ATOM     10  C   UNL     1      -9.969  53.292  45.077  0.00  0.00    +0.000 A 
ATOM     11  C   UNL     1      -8.972  52.730  45.866  0.00  0.00    +0.000 A 
ENDROOT
BRANCH   1  17
ATOM     12  S   UNL     1     -13.597  59.291  49.454  0.00  0.00    +0.000 S 
ATOM     13  O   UNL     1     -14.736  59.393  48.567  0.00  0.00    +0.000 OA
ATOM     14  O   UNL     1     -12.797  60.462  49.758  0.00  0.00    +0.000 OA
ATOM     15  N   UNL     1     -12.607  58.157  48.853  0.00  0.00    +0.000 N 
ATOM     16  C   UNL     1     -14.223  58.720  50.989  0.00  0.00    +0.000 A 
ATOM     17  C   UNL     1     -12.471  57.004  49.441  0.00  0.00    +0.000 C 
ATOM     18  C   UNL     1     -13.909  57.429  51.381  0.00  0.00    +0.000 A 
ATOM     19  C   UNL     1     -15.005  59.563  51.782  0.00  0.00    +0.000 A 
ATOM     20  N   UNL     1     -13.141  56.593  50.574  0.00  0.00    +0.000 N 
ATOM     21  C   UNL     1     -14.458  56.948  52.574  0.00  0.00    +0.000 A 
ATOM     22  C   UNL     1     -15.514  59.084  52.987  0.00  0.00    +0.000 A 
ATOM     23  C   UNL     1     -15.249  57.773  53.379  0.00  0.00    +0.000 A 
ATOM     24  H   UNL     1     -12.100  58.343  48.029  0.00  0.00    +0.000 HD
ATOM     25  H   UNL     1     -13.073  55.645  50.829  0.00  0.00    +0.000 HD
ENDBRANCH   1  17
BRANCH   3  26
ATOM     26  O   UNL     1     -12.544  56.165  46.654  0.00  0.00    +0.000 OA
ATOM     27  H   UNL     1     -12.391  56.141  45.730  0.00  0.00    +0.000 HD
ENDBRANCH   3  26
BRANCH   5  28
ATOM     28  N   UNL     1      -8.471  53.961  49.886  0.00  0.00    +0.000 N 
ATOM     29  H   UNL     1      -8.504  53.073  50.310  0.00  0.00    +0.000 HD
BRANCH  28  30
ATOM     30  C   UNL     1      -7.299  54.842  49.989  0.00  0.00    +0.000 C 
BRANCH  30  31
ATOM     31  C   UNL     1      -6.897  55.023  51.424  0.00  0.00    +0.000 A 
ATOM     32  S   UNL     1      -5.688  54.017  52.112  0.00  0.00    +0.000 S 
ATOM     33  C   UNL     1      -7.349  55.961  52.330  0.00  0.00    +0.000 A 
ATOM     34  C   UNL     1      -5.765  54.839  53.608  0.00  0.00    +0.000 A 
ATOM     35  C   UNL     1      -6.695  55.854  53.592  0.00  0.00    +0.000 A 
ENDBRANCH  30  31
ENDBRANCH  28  30
ENDBRANCH   5  28
TORSDOF 5
ENDMDL
MODEL 3
REMARK VINA RESULT:      -8.3      3.139      8.381
REMARK  Name = 
REMARK  5 active torsions:
REMARK  status: ('A' for Active; 'I' for Inactive)
REMARK    1  A    between atoms: C_6  and  C_10
REMARK    2  A    between atoms: C_14  and  O_18
REMARK    3  A    between atoms: N_17  and  N_20
REMARK    4  A    between atoms: N_20  and  C_23
REMARK    5  A    between atoms: C_23  and  C_26
REMARK                            x       y       z     vdW  Elec       q    Type
REMARK                         _______ _______ _______ _____ _____    ______ ____
ROOT
ATOM      1  C   UNL     1      -9.096  54.347  49.907  0.00  0.00    +0.000 A 
ATOM      2  C   UNL     1     -10.141  55.408  50.008  0.00  0.00    +0.000 A 
ATOM      3  C   UNL     1      -8.993  53.599  48.796  0.00  0.00    +0.000 A 
ATOM      4  O   UNL     1     -10.199  56.051  51.061  0.00  0.00    +0.000 OA
ATOM      5  N   UNL     1     -10.969  55.628  48.904  0.00  0.00    +0.000 N 
ATOM      6  C   UNL     1      -9.880  53.837  47.648  0.00  0.00    +0.000 A 
ATOM      7  C   UNL     1     -10.859  54.845  47.717  0.00  0.00    +0.000 A 
ATOM      8  C   UNL     1      -9.754  53.077  46.472  0.00  0.00    +0.000 A 
ATOM      9  C   UNL     1     -11.697  55.060  46.610  0.00  0.00    +0.000 A 
ATOM     10  C   UNL     1     -10.581  53.311  45.376  0.00  0.00    +0.000 A 
ATOM     11  C   UNL     1     -11.555  54.301  45.446  0.00  0.00    +0.000 A 
ENDROOT
BRANCH   1  17
ATOM     12  S   UNL     1      -7.696  54.067  53.569  0.00  0.00    +0.000 S 
ATOM     13  O   UNL     1      -7.923  52.760  54.149  0.00  0.00    +0.000 OA
ATOM     14  O   UNL     1      -7.885  55.266  54.364  0.00  0.00    +0.000 OA
ATOM     15  N   UNL     1      -8.636  54.190  52.254  0.00  0.00    +0.000 N 
ATOM     16  C   UNL     1      -6.020  54.087  53.053  0.00  0.00    +0.000 A 
ATOM     17  C   UNL     1      -8.124  54.178  51.059  0.00  0.00    +0.000 C 
ATOM     18  C   UNL     1      -5.757  54.079  51.693  0.00  0.00    +0.000 A 
ATOM     19  C   UNL     1      -4.996  54.122  54.003  0.00  0.00    +0.000 A 
ATOM     20  N   UNL     1      -6.786  54.028  50.756  0.00  0.00    +0.000 N 
ATOM     21  C   UNL     1      -4.422  54.031  51.277  0.00  0.00    +0.000 A 
ATOM     22  C   UNL     1      -3.671  54.114  53.574  0.00  0.00    +0.000 A 
ATOM     23  C   UNL     1      -3.383  54.058  52.212  0.00  0.00    +0.000 A 
ATOM     24  H   UNL     1      -9.611  54.275  52.362  0.00  0.00    +0.000 HD
ATOM     25  H   UNL     1      -6.543  53.874  49.815  0.00  0.00    +0.000 HD
ENDBRANCH   1  17
BRANCH   3  26
ATOM     26  O   UNL     1      -8.060  52.593  48.617  0.00  0.00    +0.000 OA
ATOM     27  H   UNL     1      -7.541  52.302  49.341  0.00  0.00    +0.000 HD
ENDBRANCH   3  26
BRANCH   5  28
ATOM     28  N   UNL     1     -12.041  56.584  48.979  0.00  0.00    +0.000 N 
ATOM     29  H   UNL     1     -11.962  57.497  48.619  0.00  0.00    +0.000 HD
BRANCH  28  30
ATOM     30  C   UNL     1     -13.263  56.094  49.633  0.00  0.00    +0.000 C 
BRANCH  30  31
ATOM     31  C   UNL     1     -13.635  56.979  50.787  0.00  0.00    +0.000 A 
ATOM     32  S   UNL     1     -14.227  58.564  50.500  0.00  0.00    +0.000 S 
ATOM     33  C   UNL     1     -13.612  56.684  52.136  0.00  0.00    +0.000 A 
ATOM     34  C   UNL     1     -14.459  58.848  52.170  0.00  0.00    +0.000 A 
ATOM     35  C   UNL     1     -14.089  57.765  52.934  0.00  0.00    +0.000 A 
ENDBRANCH  30  31
ENDBRANCH  28  30
ENDBRANCH   5  28
TORSDOF 5
ENDMDL
MODEL 4
REMARK VINA RESULT:      -8.2      3.772      5.237
REMARK  Name = 
REMARK  5 active torsions:
REMARK  status: ('A' for Active; 'I' for Inactive)
REMARK    1  A    between atoms: C_6  and  C_10
REMARK    2  A    between atoms: C_14  and  O_18
REMARK    3  A    between atoms: N_17  and  N_20
REMARK    4  A    between atoms: N_20  and  C_23
REMARK    5  A    between atoms: C_23  and  C_26
REMARK                            x       y       z     vdW  Elec       q    Type
REMARK                         _______ _______ _______ _____ _____    ______ ____
ROOT
ATOM      1  C   UNL     1     -10.685  55.576  48.100  0.00  0.00    +0.000 A 
ATOM      2  C   UNL     1      -9.217  55.623  48.368  0.00  0.00    +0.000 A 
ATOM      3  C   UNL     1     -11.154  54.971  46.996  0.00  0.00    +0.000 A 
ATOM      4  O   UNL     1      -8.844  56.208  49.389  0.00  0.00    +0.000 OA
ATOM      5  N   UNL     1      -8.360  54.983  47.470  0.00  0.00    +0.000 N 
ATOM      6  C   UNL     1     -10.236  54.312  46.055  0.00  0.00    +0.000 A 
ATOM      7  C   UNL     1      -8.851  54.329  46.301  0.00  0.00    +0.000 A 
ATOM      8  C   UNL     1     -10.726  53.651  44.915  0.00  0.00    +0.000 A 
ATOM      9  C   UNL     1      -7.988  53.692  45.393  0.00  0.00    +0.000 A 
ATOM     10  C   UNL     1      -9.861  53.010  44.031  0.00  0.00    +0.000 A 
ATOM     11  C   UNL     1      -8.491  53.033  44.269  0.00  0.00    +0.000 A 
ENDROOT
BRANCH   1  17
ATOM     12  S   UNL     1     -12.984  55.917  51.269  0.00  0.00    +0.000 S 
ATOM     13  O   UNL     1     -12.226  56.154  52.479  0.00  0.00    +0.000 OA
ATOM     14  O   UNL     1     -14.113  55.006  51.276  0.00  0.00    +0.000 OA
ATOM     15  N   UNL     1     -11.946  55.411  50.131  0.00  0.00    +0.000 N 
ATOM     16  C   UNL     1     -13.622  57.476  50.780  0.00  0.00    +0.000 A 
ATOM     17  C   UNL     1     -11.627  56.173  49.126  0.00  0.00    +0.000 C 
ATOM     18  C   UNL     1     -13.097  58.068  49.643  0.00  0.00    +0.000 A 
ATOM     19  C   UNL     1     -14.639  58.080  51.524  0.00  0.00    +0.000 A 
ATOM     20  N   UNL     1     -12.072  57.463  48.919  0.00  0.00    +0.000 N 
ATOM     21  C   UNL     1     -13.558  59.339  49.285  0.00  0.00    +0.000 A 
ATOM     22  C   UNL     1     -15.116  59.329  51.134  0.00  0.00    +0.000 A 
ATOM     23  C   UNL     1     -14.569  59.964  50.021  0.00  0.00    +0.000 A 
ATOM     24  H   UNL     1     -11.551  54.512  50.201  0.00  0.00    +0.000 HD
ATOM     25  H   UNL     1     -11.636  57.990  48.212  0.00  0.00    +0.000 HD
ENDBRANCH   1  17
BRANCH   3  26
ATOM     26  O   UNL     1     -12.494  54.885  46.664  0.00  0.00    +0.000 OA
ATOM     27  H   UNL     1     -12.747  54.658  45.790  0.00  0.00    +0.000 HD
ENDBRANCH   3  26
BRANCH   5  28
ATOM     28  N   UNL     1      -6.934  55.064  47.642  0.00  0.00    +0.000 N 
ATOM     29  H   UNL     1      -6.419  55.873  47.420  0.00  0.00    +0.000 HD
BRANCH  28  30
ATOM     30  C   UNL     1      -6.304  53.848  48.175  0.00  0.00    +0.000 C 
BRANCH  30  31
ATOM     31  C   UNL     1      -6.259  53.890  49.675  0.00  0.00    +0.000 A 
ATOM     32  S   UNL     1      -7.361  52.951  50.595  0.00  0.00    +0.000 S 
ATOM     33  C   UNL     1      -5.383  54.583  50.488  0.00  0.00    +0.000 A 
ATOM     34  C   UNL     1      -6.664  53.462  52.070  0.00  0.00    +0.000 A 
ATOM     35  C   UNL     1      -5.618  54.334  51.871  0.00  0.00    +0.000 A 
ENDBRANCH  30  31
ENDBRANCH  28  30
ENDBRANCH   5  28
TORSDOF 5
ENDMDL
MODEL 5
REMARK VINA RESULT:      -8.1      3.846      5.211
REMARK  Name = 
REMARK  5 active torsions:
REMARK  status: ('A' for Active; 'I' for Inactive)
REMARK    1  A    between atoms: C_6  and  C_10
REMARK    2  A    between atoms: C_14  and  O_18
REMARK    3  A    between atoms: N_17  and  N_20
REMARK    4  A    between atoms: N_20  and  C_23
REMARK    5  A    between atoms: C_23  and  C_26
REMARK                            x       y       z     vdW  Elec       q    Type
REMARK                         _______ _______ _______ _____ _____    ______ ____
ROOT
ATOM      1  C   UNL     1     -10.674  55.620  48.161  0.00  0.00    +0.000 A 
ATOM      2  C   UNL     1      -9.211  55.697  48.451  0.00  0.00    +0.000 A 
ATOM      3  C   UNL     1     -11.117  54.987  47.062  0.00  0.00    +0.000 A 
ATOM      4  O   UNL     1      -8.864  56.307  49.466  0.00  0.00    +0.000 OA
ATOM      5  N   UNL     1      -8.330  55.056  47.576  0.00  0.00    +0.000 N 
ATOM      6  C   UNL     1     -10.174  54.328  46.147  0.00  0.00    +0.000 A 
ATOM      7  C   UNL     1      -8.793  54.373  46.413  0.00  0.00    +0.000 A 
ATOM      8  C   UNL     1     -10.635  53.638  45.012  0.00  0.00    +0.000 A 
ATOM      9  C   UNL     1      -7.906  53.736  45.529  0.00  0.00    +0.000 A 
ATOM     10  C   UNL     1      -9.747  52.997  44.152  0.00  0.00    +0.000 A 
ATOM     11  C   UNL     1      -8.381  53.048  44.409  0.00  0.00    +0.000 A 
ENDROOT
BRANCH   1  17
ATOM     12  S   UNL     1     -13.050  55.966  51.273  0.00  0.00    +0.000 S 
ATOM     13  O   UNL     1     -12.322  56.207  52.501  0.00  0.00    +0.000 OA
ATOM     14  O   UNL     1     -14.178  55.054  51.256  0.00  0.00    +0.000 OA
ATOM     15  N   UNL     1     -11.984  55.459  50.162  0.00  0.00    +0.000 N 
ATOM     16  C   UNL     1     -13.678  57.523  50.765  0.00  0.00    +0.000 A 
ATOM     17  C   UNL     1     -11.642  56.219  49.164  0.00  0.00    +0.000 C 
ATOM     18  C   UNL     1     -13.126  58.112  49.640  0.00  0.00    +0.000 A 
ATOM     19  C   UNL     1     -14.713  58.127  51.483  0.00  0.00    +0.000 A 
ATOM     20  N   UNL     1     -12.084  57.507  48.942  0.00  0.00    +0.000 N 
ATOM     21  C   UNL     1     -13.580  59.382  49.267  0.00  0.00    +0.000 A 
ATOM     22  C   UNL     1     -15.182  59.375  51.078  0.00  0.00    +0.000 A 
ATOM     23  C   UNL     1     -14.609  60.008  49.977  0.00  0.00    +0.000 A 
ATOM     24  H   UNL     1     -11.590  54.561  50.244  0.00  0.00    +0.000 HD
ATOM     25  H   UNL     1     -11.631  58.033  48.245  0.00  0.00    +0.000 HD
ENDBRANCH   1  17
BRANCH   3  26
ATOM     26  O   UNL     1     -12.450  54.872  46.712  0.00  0.00    +0.000 OA
ATOM     27  H   UNL     1     -12.989  55.636  46.662  0.00  0.00    +0.000 HD
ENDBRANCH   3  26
BRANCH   5  28
ATOM     28  N   UNL     1      -6.909  55.166  47.767  0.00  0.00    +0.000 N 
ATOM     29  H   UNL     1      -6.339  55.725  47.192  0.00  0.00    +0.000 HD
BRANCH  28  30
ATOM     30  C   UNL     1      -6.372  54.380  48.887  0.00  0.00    +0.000 C 
BRANCH  30  31
ATOM     31  C   UNL     1      -5.542  53.237  48.380  0.00  0.00    +0.000 A 
ATOM     32  S   UNL     1      -6.245  51.684  48.180  0.00  0.00    +0.000 S 
ATOM     33  C   UNL     1      -4.219  53.247  47.984  0.00  0.00    +0.000 A 
ATOM     34  C   UNL     1      -4.792  51.035  47.559  0.00  0.00    +0.000 A 
ATOM     35  C   UNL     1      -3.786  51.974  47.509  0.00  0.00    +0.000 A 
ENDBRANCH  30  31
ENDBRANCH  28  30
ENDBRANCH   5  28
TORSDOF 5
ENDMDL
MODEL 6
REMARK VINA RESULT:      -8.1      2.873      8.285
REMARK  Name = 
REMARK  5 active torsions:
REMARK  status: ('A' for Active; 'I' for Inactive)
REMARK    1  A    between atoms: C_6  and  C_10
REMARK    2  A    between atoms: C_14  and  O_18
REMARK    3  A    between atoms: N_17  and  N_20
REMARK    4  A    between atoms: N_20  and  C_23
REMARK    5  A    between atoms: C_23  and  C_26
REMARK                            x       y       z     vdW  Elec       q    Type
REMARK                         _______ _______ _______ _____ _____    ______ ____
ROOT
ATOM      1  C   UNL     1      -9.730  54.211  50.389  0.00  0.00    +0.000 A 
ATOM      2  C   UNL     1     -11.037  54.899  50.612  0.00  0.00    +0.000 A 
ATOM      3  C   UNL     1      -9.346  53.869  49.148  0.00  0.00    +0.000 A 
ATOM      4  O   UNL     1     -11.344  55.171  51.777  0.00  0.00    +0.000 OA
ATOM      5  N   UNL     1     -11.816  55.215  49.497  0.00  0.00    +0.000 N 
ATOM      6  C   UNL     1     -10.184  54.200  47.987  0.00  0.00    +0.000 A 
ATOM      7  C   UNL     1     -11.409  54.866  48.175  0.00  0.00    +0.000 A 
ATOM      8  C   UNL     1      -9.770  53.873  46.684  0.00  0.00    +0.000 A 
ATOM      9  C   UNL     1     -12.197  55.177  47.053  0.00  0.00    +0.000 A 
ATOM     10  C   UNL     1     -10.553  54.201  45.579  0.00  0.00    +0.000 A 
ATOM     11  C   UNL     1     -11.768  54.850  45.765  0.00  0.00    +0.000 A 
ENDROOT
BRANCH   1  17
ATOM     12  S   UNL     1      -6.711  54.517  52.886  0.00  0.00    +0.000 S 
ATOM     13  O   UNL     1      -6.848  55.645  53.784  0.00  0.00    +0.000 OA
ATOM     14  O   UNL     1      -5.424  54.203  52.294  0.00  0.00    +0.000 OA
ATOM     15  N   UNL     1      -7.776  54.718  51.681  0.00  0.00    +0.000 N 
ATOM     16  C   UNL     1      -7.180  53.101  53.808  0.00  0.00    +0.000 A 
ATOM     17  C   UNL     1      -8.831  53.962  51.585  0.00  0.00    +0.000 C 
ATOM     18  C   UNL     1      -8.370  52.474  53.479  0.00  0.00    +0.000 A 
ATOM     19  C   UNL     1      -6.355  52.628  54.832  0.00  0.00    +0.000 A 
ATOM     20  N   UNL     1      -9.192  52.965  52.467  0.00  0.00    +0.000 N 
ATOM     21  C   UNL     1      -8.779  51.382  54.251  0.00  0.00    +0.000 A 
ATOM     22  C   UNL     1      -6.755  51.515  55.568  0.00  0.00    +0.000 A 
ATOM     23  C   UNL     1      -7.972  50.898  55.286  0.00  0.00    +0.000 A 
ATOM     24  H   UNL     1      -7.623  55.423  51.011  0.00  0.00    +0.000 HD
ATOM     25  H   UNL     1     -10.090  52.574  52.374  0.00  0.00    +0.000 HD
ENDBRANCH   1  17
BRANCH   3  26
ATOM     26  O   UNL     1      -8.158  53.226  48.849  0.00  0.00    +0.000 OA
ATOM     27  H   UNL     1      -7.569  53.598  48.223  0.00  0.00    +0.000 HD
ENDBRANCH   3  26
BRANCH   5  28
ATOM     28  N   UNL     1     -13.116  55.807  49.663  0.00  0.00    +0.000 N 
ATOM     29  H   UNL     1     -13.939  55.271  49.717  0.00  0.00    +0.000 HD
BRANCH  28  30
ATOM     30  C   UNL     1     -13.122  57.275  49.745  0.00  0.00    +0.000 C 
BRANCH  30  31
ATOM     31  C   UNL     1     -13.845  57.733  50.977  0.00  0.00    +0.000 A 
ATOM     32  S   UNL     1     -14.423  59.345  51.087  0.00  0.00    +0.000 S 
ATOM     33  C   UNL     1     -14.178  56.999  52.099  0.00  0.00    +0.000 A 
ATOM     34  C   UNL     1     -15.120  59.058  52.621  0.00  0.00    +0.000 A 
ATOM     35  C   UNL     1     -14.915  57.766  53.048  0.00  0.00    +0.000 A 
ENDBRANCH  30  31
ENDBRANCH  28  30
ENDBRANCH   5  28
TORSDOF 5
ENDMDL
MODEL 7
REMARK VINA RESULT:      -8.0      4.008      7.528
REMARK  Name = 
REMARK  5 active torsions:
REMARK  status: ('A' for Active; 'I' for Inactive)
REMARK    1  A    between atoms: C_6  and  C_10
REMARK    2  A    between atoms: C_14  and  O_18
REMARK    3  A    between atoms: N_17  and  N_20
REMARK    4  A    between atoms: N_20  and  C_23
REMARK    5  A    between atoms: C_23  and  C_26
REMARK                            x       y       z     vdW  Elec       q    Type
REMARK                         _______ _______ _______ _____ _____    ______ ____
ROOT
ATOM      1  C   UNL     1     -10.336  54.828  50.267  0.00  0.00    +0.000 A 
ATOM      2  C   UNL     1     -10.136  54.645  48.798  0.00  0.00    +0.000 A 
ATOM      3  C   UNL     1     -11.356  55.572  50.726  0.00  0.00    +0.000 A 
ATOM      4  O   UNL     1      -9.170  53.966  48.436  0.00  0.00    +0.000 OA
ATOM      5  N   UNL     1     -11.061  55.226  47.928  0.00  0.00    +0.000 N 
ATOM      6  C   UNL     1     -12.314  56.185  49.794  0.00  0.00    +0.000 A 
ATOM      7  C   UNL     1     -12.153  56.008  48.408  0.00  0.00    +0.000 A 
ATOM      8  C   UNL     1     -13.401  56.938  50.272  0.00  0.00    +0.000 A 
ATOM      9  C   UNL     1     -13.079  56.599  47.531  0.00  0.00    +0.000 A 
ATOM     10  C   UNL     1     -14.321  57.506  49.393  0.00  0.00    +0.000 A 
ATOM     11  C   UNL     1     -14.158  57.339  48.022  0.00  0.00    +0.000 A 
ENDROOT
BRANCH   1  17
ATOM     12  S   UNL     1      -8.636  51.946  52.329  0.00  0.00    +0.000 S 
ATOM     13  O   UNL     1      -7.706  51.171  51.534  0.00  0.00    +0.000 OA
ATOM     14  O   UNL     1      -9.528  51.288  53.264  0.00  0.00    +0.000 OA
ATOM     15  N   UNL     1      -9.543  52.820  51.309  0.00  0.00    +0.000 N 
ATOM     16  C   UNL     1      -7.661  53.048  53.283  0.00  0.00    +0.000 A 
ATOM     17  C   UNL     1      -9.399  54.110  51.219  0.00  0.00    +0.000 C 
ATOM     18  C   UNL     1      -7.706  54.396  52.970  0.00  0.00    +0.000 A 
ATOM     19  C   UNL     1      -6.877  52.560  54.332  0.00  0.00    +0.000 A 
ATOM     20  N   UNL     1      -8.479  54.869  51.912  0.00  0.00    +0.000 N 
ATOM     21  C   UNL     1      -6.883  55.271  53.687  0.00  0.00    +0.000 A 
ATOM     22  C   UNL     1      -6.091  53.447  55.064  0.00  0.00    +0.000 A 
ATOM     23  C   UNL     1      -6.085  54.801  54.735  0.00  0.00    +0.000 A 
ATOM     24  H   UNL     1     -10.214  52.368  50.749  0.00  0.00    +0.000 HD
ATOM     25  H   UNL     1      -8.360  55.807  51.640  0.00  0.00    +0.000 HD
ENDBRANCH   1  17
BRANCH   3  26
ATOM     26  O   UNL     1     -11.614  55.800  52.065  0.00  0.00    +0.000 OA
ATOM     27  H   UNL     1     -11.852  55.087  52.625  0.00  0.00    +0.000 HD
ENDBRANCH   3  26
BRANCH   5  28
ATOM     28  N   UNL     1     -10.870  55.144  46.505  0.00  0.00    +0.000 N 
ATOM     29  H   UNL     1     -10.380  55.829  45.996  0.00  0.00    +0.000 HD
BRANCH  28  30
ATOM     30  C   UNL     1     -11.465  53.960  45.867  0.00  0.00    +0.000 C 
BRANCH  30  31
ATOM     31  C   UNL     1     -10.533  53.391  44.837  0.00  0.00    +0.000 A 
ATOM     32  S   UNL     1      -8.849  53.704  44.934  0.00  0.00    +0.000 S 
ATOM     33  C   UNL     1     -10.834  52.565  43.771  0.00  0.00    +0.000 A 
ATOM     34  C   UNL     1      -8.525  52.733  43.565  0.00  0.00    +0.000 A 
ATOM     35  C   UNL     1      -9.673  52.186  43.037  0.00  0.00    +0.000 A 
ENDBRANCH  30  31
ENDBRANCH  28  30
ENDBRANCH   5  28
TORSDOF 5
ENDMDL
MODEL 8
REMARK VINA RESULT:      -7.9      3.451      4.924
REMARK  Name = 
REMARK  5 active torsions:
REMARK  status: ('A' for Active; 'I' for Inactive)
REMARK    1  A    between atoms: C_6  and  C_10
REMARK    2  A    between atoms: C_14  and  O_18
REMARK    3  A    between atoms: N_17  and  N_20
REMARK    4  A    between atoms: N_20  and  C_23
REMARK    5  A    between atoms: C_23  and  C_26
REMARK                            x       y       z     vdW  Elec       q    Type
REMARK                         _______ _______ _______ _____ _____    ______ ____
ROOT
ATOM      1  C   UNL     1     -11.704  56.016  48.631  0.00  0.00    +0.000 A 
ATOM      2  C   UNL     1     -10.572  55.419  49.400  0.00  0.00    +0.000 A 
ATOM      3  C   UNL     1     -11.930  55.647  47.359  0.00  0.00    +0.000 A 
ATOM      4  O   UNL     1     -10.403  55.811  50.558  0.00  0.00    +0.000 OA
ATOM      5  N   UNL     1      -9.795  54.439  48.778  0.00  0.00    +0.000 N 
ATOM      6  C   UNL     1     -11.094  54.622  46.716  0.00  0.00    +0.000 A 
ATOM      7  C   UNL     1     -10.036  54.033  47.432  0.00  0.00    +0.000 A 
ATOM      8  C   UNL     1     -11.347  54.211  45.396  0.00  0.00    +0.000 A 
ATOM      9  C   UNL     1      -9.248  53.054  46.803  0.00  0.00    +0.000 A 
ATOM     10  C   UNL     1     -10.569  53.227  44.790  0.00  0.00    +0.000 A 
ATOM     11  C   UNL     1      -9.517  52.651  45.493  0.00  0.00    +0.000 A 
ENDROOT
BRANCH   1  17
ATOM     12  S   UNL     1     -13.616  59.339  49.494  0.00  0.00    +0.000 S 
ATOM     13  O   UNL     1     -14.776  59.545  48.653  0.00  0.00    +0.000 OA
ATOM     14  O   UNL     1     -12.744  60.451  49.825  0.00  0.00    +0.000 OA
ATOM     15  N   UNL     1     -12.709  58.185  48.807  0.00  0.00    +0.000 N 
ATOM     16  C   UNL     1     -14.223  58.729  51.022  0.00  0.00    +0.000 A 
ATOM     17  C   UNL     1     -12.618  57.000  49.335  0.00  0.00    +0.000 C 
ATOM     18  C   UNL     1     -13.967  57.406  51.343  0.00  0.00    +0.000 A 
ATOM     19  C   UNL     1     -14.932  59.573  51.880  0.00  0.00    +0.000 A 
ATOM     20  N   UNL     1     -13.273  56.571  50.471  0.00  0.00    +0.000 N 
ATOM     21  C   UNL     1     -14.503  56.897  52.530  0.00  0.00    +0.000 A 
ATOM     22  C   UNL     1     -15.426  59.064  53.079  0.00  0.00    +0.000 A 
ATOM     23  C   UNL     1     -15.221  57.723  53.400  0.00  0.00    +0.000 A 
ATOM     24  H   UNL     1     -12.221  58.383  47.976  0.00  0.00    +0.000 HD
ATOM     25  H   UNL     1     -13.249  55.609  50.679  0.00  0.00    +0.000 HD
ENDBRANCH   1  17
BRANCH   3  26
ATOM     26  O   UNL     1     -12.948  56.152  46.570  0.00  0.00    +0.000 OA
ATOM     27  H   UNL     1     -13.091  57.077  46.525  0.00  0.00    +0.000 HD
ENDBRANCH   3  26
BRANCH   5  28
ATOM     28  N   UNL     1      -8.648  53.888  49.448  0.00  0.00    +0.000 N 
ATOM     29  H   UNL     1      -8.669  53.016  49.905  0.00  0.00    +0.000 HD
BRANCH  28  30
ATOM     30  C   UNL     1      -7.441  54.726  49.399  0.00  0.00    +0.000 C 
BRANCH  30  31
ATOM     31  C   UNL     1      -6.216  53.878  49.219  0.00  0.00    +0.000 A 
ATOM     32  S   UNL     1      -5.649  53.510  47.641  0.00  0.00    +0.000 S 
ATOM     33  C   UNL     1      -5.393  53.342  50.190  0.00  0.00    +0.000 A 
ATOM     34  C   UNL     1      -4.306  52.648  48.256  0.00  0.00    +0.000 A 
ATOM     35  C   UNL     1      -4.290  52.632  49.632  0.00  0.00    +0.000 A 
ENDBRANCH  30  31
ENDBRANCH  28  30
ENDBRANCH   5  28
TORSDOF 5
ENDMDL
MODEL 9
REMARK VINA RESULT:      -7.7      3.666      5.215
REMARK  Name = 
REMARK  5 active torsions:
REMARK  status: ('A' for Active; 'I' for Inactive)
REMARK    1  A    between atoms: C_6  and  C_10
REMARK    2  A    between atoms: C_14  and  O_18
REMARK    3  A    between atoms: N_17  and  N_20
REMARK    4  A    between atoms: N_20  and  C_23
REMARK    5  A    between atoms: C_23  and  C_26
REMARK                            x       y       z     vdW  Elec       q    Type
REMARK                         _______ _______ _______ _____ _____    ______ ____
ROOT
ATOM      1  C   UNL     1     -11.490  56.091  48.725  0.00  0.00    +0.000 A 
ATOM      2  C   UNL     1     -10.331  55.590  49.521  0.00  0.00    +0.000 A 
ATOM      3  C   UNL     1     -11.683  55.665  47.465  0.00  0.00    +0.000 A 
ATOM      4  O   UNL     1     -10.195  56.031  50.666  0.00  0.00    +0.000 OA
ATOM      5  N   UNL     1      -9.490  54.639  48.938  0.00  0.00    +0.000 N 
ATOM      6  C   UNL     1     -10.781  54.672  46.864  0.00  0.00    +0.000 A 
ATOM      7  C   UNL     1      -9.695  54.174  47.605  0.00  0.00    +0.000 A 
ATOM      8  C   UNL     1     -10.998  54.201  45.557  0.00  0.00    +0.000 A 
ATOM      9  C   UNL     1      -8.844  53.223  47.016  0.00  0.00    +0.000 A 
ATOM     10  C   UNL     1     -10.157  53.247  44.990  0.00  0.00    +0.000 A 
ATOM     11  C   UNL     1      -9.077  52.760  45.719  0.00  0.00    +0.000 A 
ENDROOT
BRANCH   1  17
ATOM     12  S   UNL     1     -13.586  59.329  49.479  0.00  0.00    +0.000 S 
ATOM     13  O   UNL     1     -14.736  59.458  48.609  0.00  0.00    +0.000 OA
ATOM     14  O   UNL     1     -12.778  60.489  49.805  0.00  0.00    +0.000 OA
ATOM     15  N   UNL     1     -12.607  58.208  48.835  0.00  0.00    +0.000 N 
ATOM     16  C   UNL     1     -14.195  58.718  51.005  0.00  0.00    +0.000 A 
ATOM     17  C   UNL     1     -12.468  57.040  49.389  0.00  0.00    +0.000 C 
ATOM     18  C   UNL     1     -13.880  57.416  51.359  0.00  0.00    +0.000 A 
ATOM     19  C   UNL     1     -14.965  59.542  51.831  0.00  0.00    +0.000 A 
ATOM     20  N   UNL     1     -13.126  56.600  50.519  0.00  0.00    +0.000 N 
ATOM     21  C   UNL     1     -14.416  56.904  52.545  0.00  0.00    +0.000 A 
ATOM     22  C   UNL     1     -15.460  59.031  53.029  0.00  0.00    +0.000 A 
ATOM     23  C   UNL     1     -15.195  57.709  53.382  0.00  0.00    +0.000 A 
ATOM     24  H   UNL     1     -12.111  58.415  48.011  0.00  0.00    +0.000 HD
ATOM     25  H   UNL     1     -13.058  55.645  50.747  0.00  0.00    +0.000 HD
ENDBRANCH   1  17
BRANCH   3  26
ATOM     26  O   UNL     1     -12.724  56.079  46.653  0.00  0.00    +0.000 OA
ATOM     27  H   UNL     1     -13.610  55.989  46.945  0.00  0.00    +0.000 HD
ENDBRANCH   3  26
BRANCH   5  28
ATOM     28  N   UNL     1      -8.317  54.183  49.634  0.00  0.00    +0.000 N 
ATOM     29  H   UNL     1      -7.406  54.346  49.299  0.00  0.00    +0.000 HD
BRANCH  28  30
ATOM     30  C   UNL     1      -8.581  53.453  50.882  0.00  0.00    +0.000 C 
BRANCH  30  31
ATOM     31  C   UNL     1      -9.144  52.093  50.590  0.00  0.00    +0.000 A 
ATOM     32  S   UNL     1     -10.740  51.698  51.084  0.00  0.00    +0.000 S 
ATOM     33  C   UNL     1      -8.555  51.049  49.904  0.00  0.00    +0.000 A 
ATOM     34  C   UNL     1     -10.643  50.145  50.376  0.00  0.00    +0.000 A 
ATOM     35  C   UNL     1      -9.421  49.925  49.781  0.00  0.00    +0.000 A 
ENDBRANCH  30  31
ENDBRANCH  28  30
ENDBRANCH   5  28
TORSDOF 5
ENDMDL
