MODEL 1
REMARK VINA RESULT:      -8.0      0.000      0.000
REMARK  Name = 
REMARK  9 active torsions:
REMARK  status: ('A' for Active; 'I' for Inactive)
REMARK    1  A    between atoms: C_6  and  C_10
REMARK    2  A    between atoms: C_14  and  O_18
REMARK    3  A    between atoms: N_17  and  N_20
REMARK    4  A    between atoms: N_20  and  C_23
REMARK    5  A    between atoms: C_23  and  C_26
REMARK    6  A    between atoms: C_23  and  C_27
REMARK    7  A    between atoms: C_26  and  C_29
REMARK    8  A    between atoms: C_27  and  C_30
REMARK    9  A    between atoms: C_29  and  C_31
REMARK                            x       y       z     vdW  Elec       q    Type
REMARK                         _______ _______ _______ _____ _____    ______ ____
ROOT
ATOM      1  C   UNL     1      -9.014  54.769  50.304  0.00  0.00    +0.000 A 
ATOM      2  C   UNL     1     -10.420  54.777  50.822  0.00  0.00    +0.000 A 
ATOM      3  C   UNL     1      -8.808  54.700  48.975  0.00  0.00    +0.000 A 
ATOM      4  O   UNL     1     -10.597  54.513  52.016  0.00  0.00    +0.000 OA
ATOM      5  N   UNL     1     -11.427  55.167  49.923  0.00  0.00    +0.000 N 
ATOM      6  C   UNL     1      -9.933  54.739  48.033  0.00  0.00    +0.000 A 
ATOM      7  C   UNL     1     -11.225  55.030  48.504  0.00  0.00    +0.000 A 
ATOM      8  C   UNL     1      -9.710  54.555  46.654  0.00  0.00    +0.000 A 
ATOM      9  C   UNL     1     -12.264  55.138  47.563  0.00  0.00    +0.000 A 
ATOM     10  C   UNL     1     -10.750  54.671  45.737  0.00  0.00    +0.000 A 
ATOM     11  C   UNL     1     -12.027  54.965  46.193  0.00  0.00    +0.000 A 
ENDROOT
BRANCH   1  17
ATOM     12  S   UNL     1      -6.984  55.822  53.498  0.00  0.00    +0.000 S 
ATOM     13  O   UNL     1      -7.528  55.154  54.666  0.00  0.00    +0.000 OA
ATOM     14  O   UNL     1      -6.589  57.213  53.571  0.00  0.00    +0.000 OA
ATOM     15  N   UNL     1      -8.059  55.676  52.305  0.00  0.00    +0.000 N 
ATOM     16  C   UNL     1      -5.546  54.930  53.055  0.00  0.00    +0.000 A 
ATOM     17  C   UNL     1      -7.853  54.900  51.283  0.00  0.00    +0.000 C 
ATOM     18  C   UNL     1      -5.573  54.197  51.880  0.00  0.00    +0.000 A 
ATOM     19  C   UNL     1      -4.430  54.970  53.894  0.00  0.00    +0.000 A 
ATOM     20  N   UNL     1      -6.701  54.178  51.061  0.00  0.00    +0.000 N 
ATOM     21  C   UNL     1      -4.437  53.447  51.557  0.00  0.00    +0.000 A 
ATOM     22  C   UNL     1      -3.301  54.235  53.550  0.00  0.00    +0.000 A 
ATOM     23  C   UNL     1      -3.307  53.470  52.384  0.00  0.00    +0.000 A 
ATOM     24  H   UNL     1      -8.898  56.189  52.353  0.00  0.00    +0.000 HD
ATOM     25  H   UNL     1      -6.673  53.604  50.262  0.00  0.00    +0.000 HD
ENDBRANCH   1  17
BRANCH   3  26
ATOM     26  O   UNL     1      -7.565  54.655  48.369  0.00  0.00    +0.000 OA
ATOM     27  H   UNL     1      -7.464  54.947  47.485  0.00  0.00    +0.000 HD
ENDBRANCH   3  26
BRANCH   5  28
ATOM     28  N   UNL     1     -12.750  55.400  50.425  0.00  0.00    +0.000 N 
ATOM     29  H   UNL     1     -13.394  54.665  50.545  0.00  0.00    +0.000 HD
BRANCH  28  30
ATOM     30  C   UNL     1     -13.098  56.805  50.754  0.00  0.00    +0.000 C 
BRANCH  30  31
ATOM     31  C   UNL     1     -13.578  56.800  52.228  0.00  0.00    +0.000 C 
ATOM     32  C   UNL     1     -15.084  56.975  52.384  0.00  0.00    +0.000 C 
ENDBRANCH  30  31
BRANCH  30  33
ATOM     33  C   UNL     1     -14.190  57.394  49.823  0.00  0.00    +0.000 C 
BRANCH  33  34
ATOM     34  C   UNL     1     -13.754  58.703  49.140  0.00  0.00    +0.000 C 
ATOM     35  C   UNL     1     -14.117  59.941  49.945  0.00  0.00    +0.000 C 
ENDBRANCH  33  34
ENDBRANCH  30  33
ENDBRANCH  28  30
ENDBRANCH   5  28
TORSDOF 7
ENDMDL
MODEL 2
REMARK VINA RESULT:      -7.9      2.346      4.791
REMARK  Name = 
REMARK  9 active torsions:
REMARK  status: ('A' for Active; 'I' for Inactive)
REMARK    1  A    between atoms: C_6  and  C_10
REMARK    2  A    between atoms: C_14  and  O_18
REMARK    3  A    between atoms: N_17  and  N_20
REMARK    4  A    between atoms: N_20  and  C_23
REMARK    5  A    between atoms: C_23  and  C_26
REMARK    6  A    between atoms: C_23  and  C_27
REMARK    7  A    between atoms: C_26  and  C_29
REMARK    8  A    between atoms: C_27  and  C_30
REMARK    9  A    between atoms: C_29  and  C_31
REMARK                            x       y       z     vdW  Elec       q    Type
REMARK                         _______ _______ _______ _____ _____    ______ ____
ROOT
ATOM      1  C   UNL     1      -9.881  55.279  50.350  0.00  0.00    +0.000 A 
ATOM      2  C   UNL     1      -9.406  55.350  48.931  0.00  0.00    +0.000 A 
ATOM      3  C   UNL     1     -11.119  55.718  50.648  0.00  0.00    +0.000 A 
ATOM      4  O   UNL     1      -8.191  55.260  48.724  0.00  0.00    +0.000 OA
ATOM      5  N   UNL     1     -10.392  55.434  47.933  0.00  0.00    +0.000 N 
ATOM      6  C   UNL     1     -12.036  56.163  49.591  0.00  0.00    +0.000 A 
ATOM      7  C   UNL     1     -11.693  55.965  48.243  0.00  0.00    +0.000 A 
ATOM      8  C   UNL     1     -13.285  56.723  49.927  0.00  0.00    +0.000 A 
ATOM      9  C   UNL     1     -12.631  56.331  47.261  0.00  0.00    +0.000 A 
ATOM     10  C   UNL     1     -14.202  57.073  48.941  0.00  0.00    +0.000 A 
ATOM     11  C   UNL     1     -13.874  56.875  47.607  0.00  0.00    +0.000 A 
ENDROOT
BRANCH   1  17
ATOM     12  S   UNL     1      -6.873  54.837  52.838  0.00  0.00    +0.000 S 
ATOM     13  O   UNL     1      -6.959  55.831  53.892  0.00  0.00    +0.000 OA
ATOM     14  O   UNL     1      -5.594  54.516  52.240  0.00  0.00    +0.000 OA
ATOM     15  N   UNL     1      -7.872  55.288  51.656  0.00  0.00    +0.000 N 
ATOM     16  C   UNL     1      -7.475  53.346  53.528  0.00  0.00    +0.000 A 
ATOM     17  C   UNL     1      -8.982  54.657  51.412  0.00  0.00    +0.000 C 
ATOM     18  C   UNL     1      -8.686  52.858  53.064  0.00  0.00    +0.000 A 
ATOM     19  C   UNL     1      -6.734  52.703  54.522  0.00  0.00    +0.000 A 
ATOM     20  N   UNL     1      -9.402  53.520  52.068  0.00  0.00    +0.000 N 
ATOM     21  C   UNL     1      -9.184  51.692  53.654  0.00  0.00    +0.000 A 
ATOM     22  C   UNL     1      -7.233  51.534  55.086  0.00  0.00    +0.000 A 
ATOM     23  C   UNL     1      -8.460  51.032  54.655  0.00  0.00    +0.000 A 
ATOM     24  H   UNL     1      -7.635  56.066  51.102  0.00  0.00    +0.000 HD
ATOM     25  H   UNL     1     -10.276  53.146  51.812  0.00  0.00    +0.000 HD
ENDBRANCH   1  17
BRANCH   3  26
ATOM     26  O   UNL     1     -11.667  55.735  51.918  0.00  0.00    +0.000 OA
ATOM     27  H   UNL     1     -11.460  56.432  52.508  0.00  0.00    +0.000 HD
ENDBRANCH   3  26
BRANCH   5  28
ATOM     28  N   UNL     1     -10.001  55.286  46.561  0.00  0.00    +0.000 N 
ATOM     29  H   UNL     1      -9.702  56.054  46.023  0.00  0.00    +0.000 HD
BRANCH  28  30
ATOM     30  C   UNL     1     -10.071  53.916  45.995  0.00  0.00    +0.000 C 
BRANCH  30  31
ATOM     31  C   UNL     1      -8.808  53.746  45.112  0.00  0.00    +0.000 C 
ATOM     32  C   UNL     1      -7.769  54.846  45.307  0.00  0.00    +0.000 C 
ENDBRANCH  30  31
BRANCH  30  33
ATOM     33  C   UNL     1     -11.358  53.666  45.165  0.00  0.00    +0.000 C 
BRANCH  33  34
ATOM     34  C   UNL     1     -12.162  52.449  45.658  0.00  0.00    +0.000 C 
ATOM     35  C   UNL     1     -12.198  52.338  47.175  0.00  0.00    +0.000 C 
ENDBRANCH  33  34
ENDBRANCH  30  33
ENDBRANCH  28  30
ENDBRANCH   5  28
TORSDOF 7
ENDMDL
MODEL 3
REMARK VINA RESULT:      -7.9      3.941      7.669
REMARK  Name = 
REMARK  9 active torsions:
REMARK  status: ('A' for Active; 'I' for Inactive)
REMARK    1  A    between atoms: C_6  and  C_10
REMARK    2  A    between atoms: C_14  and  O_18
REMARK    3  A    between atoms: N_17  and  N_20
REMARK    4  A    between atoms: N_20  and  C_23
REMARK    5  A    between atoms: C_23  and  C_26
REMARK    6  A    between atoms: C_23  and  C_27
REMARK    7  A    between atoms: C_26  and  C_29
REMARK    8  A    between atoms: C_27  and  C_30
REMARK    9  A    between atoms: C_29  and  C_31
REMARK                            x       y       z     vdW  Elec       q    Type
REMARK                         _______ _______ _______ _____ _____    ______ ____
ROOT
ATOM      1  C   UNL     1     -12.390  54.308  49.676  0.00  0.00    +0.000 A 
ATOM      2  C   UNL     1     -11.678  54.234  48.360  0.00  0.00    +0.000 A 
ATOM      3  C   UNL     1     -12.183  53.337  50.587  0.00  0.00    +0.000 A 
ATOM      4  O   UNL     1     -12.112  54.924  47.431  0.00  0.00    +0.000 OA
ATOM      5  N   UNL     1     -10.517  53.445  48.308  0.00  0.00    +0.000 N 
ATOM      6  C   UNL     1     -11.196  52.277  50.348  0.00  0.00    +0.000 A 
ATOM      7  C   UNL     1     -10.331  52.367  49.244  0.00  0.00    +0.000 A 
ATOM      8  C   UNL     1     -11.069  51.208  51.258  0.00  0.00    +0.000 A 
ATOM      9  C   UNL     1      -9.347  51.374  49.091  0.00  0.00    +0.000 A 
ATOM     10  C   UNL     1     -10.085  50.239  51.094  0.00  0.00    +0.000 A 
ATOM     11  C   UNL     1      -9.223  50.324  50.009  0.00  0.00    +0.000 A 
ENDROOT
BRANCH   1  17
ATOM     12  S   UNL     1     -15.367  56.410  51.145  0.00  0.00    +0.000 S 
ATOM     13  O   UNL     1     -15.247  56.484  52.590  0.00  0.00    +0.000 OA
ATOM     14  O   UNL     1     -16.660  56.199  50.529  0.00  0.00    +0.000 OA
ATOM     15  N   UNL     1     -14.378  55.245  50.631  0.00  0.00    +0.000 N 
ATOM     16  C   UNL     1     -14.779  57.939  50.532  0.00  0.00    +0.000 A 
ATOM     17  C   UNL     1     -13.283  55.505  49.982  0.00  0.00    +0.000 C 
ATOM     18  C   UNL     1     -13.583  57.942  49.832  0.00  0.00    +0.000 A 
ATOM     19  C   UNL     1     -15.515  59.102  50.772  0.00  0.00    +0.000 A 
ATOM     20  N   UNL     1     -12.872  56.765  49.604  0.00  0.00    +0.000 N 
ATOM     21  C   UNL     1     -13.095  59.174  49.386  0.00  0.00    +0.000 A 
ATOM     22  C   UNL     1     -15.027  60.317  50.306  0.00  0.00    +0.000 A 
ATOM     23  C   UNL     1     -13.815  60.353  49.618  0.00  0.00    +0.000 A 
ATOM     24  H   UNL     1     -14.611  54.305  50.815  0.00  0.00    +0.000 HD
ATOM     25  H   UNL     1     -12.008  56.839  49.138  0.00  0.00    +0.000 HD
ENDBRANCH   1  17
BRANCH   3  26
ATOM     26  O   UNL     1     -12.796  53.270  51.825  0.00  0.00    +0.000 OA
ATOM     27  H   UNL     1     -12.671  53.958  52.448  0.00  0.00    +0.000 HD
ENDBRANCH   3  26
BRANCH   5  28
ATOM     28  N   UNL     1      -9.686  53.515  47.142  0.00  0.00    +0.000 N 
ATOM     29  H   UNL     1      -9.692  52.806  46.458  0.00  0.00    +0.000 HD
BRANCH  28  30
ATOM     30  C   UNL     1      -8.815  54.710  47.018  0.00  0.00    +0.000 C 
BRANCH  30  31
ATOM     31  C   UNL     1      -7.801  54.394  45.889  0.00  0.00    +0.000 C 
ATOM     32  C   UNL     1      -8.441  53.807  44.635  0.00  0.00    +0.000 C 
ENDBRANCH  30  31
BRANCH  30  33
ATOM     33  C   UNL     1      -8.076  55.062  48.336  0.00  0.00    +0.000 C 
BRANCH  33  34
ATOM     34  C   UNL     1      -8.716  56.246  49.085  0.00  0.00    +0.000 C 
ATOM     35  C   UNL     1      -9.085  55.908  50.521  0.00  0.00    +0.000 C 
ENDBRANCH  33  34
ENDBRANCH  30  33
ENDBRANCH  28  30
ENDBRANCH   5  28
TORSDOF 7
ENDMDL
MODEL 4
REMARK VINA RESULT:      -7.9      2.825      8.283
REMARK  Name = 
REMARK  9 active torsions:
REMARK  status: ('A' for Active; 'I' for Inactive)
REMARK    1  A    between atoms: C_6  and  C_10
REMARK    2  A    between atoms: C_14  and  O_18
REMARK    3  A    between atoms: N_17  and  N_20
REMARK    4  A    between atoms: N_20  and  C_23
REMARK    5  A    between atoms: C_23  and  C_26
REMARK    6  A    between atoms: C_23  and  C_27
REMARK    7  A    between atoms: C_26  and  C_29
REMARK    8  A    between atoms: C_27  and  C_30
REMARK    9  A    between atoms: C_29  and  C_31
REMARK                            x       y       z     vdW  Elec       q    Type
REMARK                         _______ _______ _______ _____ _____    ______ ____
ROOT
ATOM      1  C   UNL     1      -9.969  54.361  52.192  0.00  0.00    +0.000 A 
ATOM      2  C   UNL     1      -8.552  54.790  51.961  0.00  0.00    +0.000 A 
ATOM      3  C   UNL     1     -10.210  53.305  52.992  0.00  0.00    +0.000 A 
ATOM      4  O   UNL     1      -8.323  55.526  50.995  0.00  0.00    +0.000 OA
ATOM      5  N   UNL     1      -7.601  54.385  52.913  0.00  0.00    +0.000 N 
ATOM      6  C   UNL     1      -9.119  52.641  53.716  0.00  0.00    +0.000 A 
ATOM      7  C   UNL     1      -7.836  53.216  53.720  0.00  0.00    +0.000 A 
ATOM      8  C   UNL     1      -9.369  51.471  54.460  0.00  0.00    +0.000 A 
ATOM      9  C   UNL     1      -6.835  52.596  54.489  0.00  0.00    +0.000 A 
ATOM     10  C   UNL     1      -8.368  50.875  55.219  0.00  0.00    +0.000 A 
ATOM     11  C   UNL     1      -7.100  51.440  55.234  0.00  0.00    +0.000 A 
ENDROOT
BRANCH   1  17
ATOM     12  S   UNL     1     -12.387  55.830  49.466  0.00  0.00    +0.000 S 
ATOM     13  O   UNL     1     -13.207  54.767  48.915  0.00  0.00    +0.000 OA
ATOM     14  O   UNL     1     -11.826  56.844  48.597  0.00  0.00    +0.000 OA
ATOM     15  N   UNL     1     -11.172  55.143  50.273  0.00  0.00    +0.000 N 
ATOM     16  C   UNL     1     -13.399  56.678  50.613  0.00  0.00    +0.000 A 
ATOM     17  C   UNL     1     -11.107  55.163  51.571  0.00  0.00    +0.000 C 
ATOM     18  C   UNL     1     -13.093  56.562  51.960  0.00  0.00    +0.000 A 
ATOM     19  C   UNL     1     -14.481  57.430  50.148  0.00  0.00    +0.000 A 
ATOM     20  N   UNL     1     -12.004  55.808  52.395  0.00  0.00    +0.000 N 
ATOM     21  C   UNL     1     -13.934  57.204  52.874  0.00  0.00    +0.000 A 
ATOM     22  C   UNL     1     -15.297  58.078  51.068  0.00  0.00    +0.000 A 
ATOM     23  C   UNL     1     -15.026  57.960  52.431  0.00  0.00    +0.000 A 
ATOM     24  H   UNL     1     -10.456  54.694  49.767  0.00  0.00    +0.000 HD
ATOM     25  H   UNL     1     -11.865  55.729  53.366  0.00  0.00    +0.000 HD
ENDBRANCH   1  17
BRANCH   3  26
ATOM     26  O   UNL     1     -11.465  52.790  53.265  0.00  0.00    +0.000 OA
ATOM     27  H   UNL     1     -12.161  52.899  52.648  0.00  0.00    +0.000 HD
ENDBRANCH   3  26
BRANCH   5  28
ATOM     28  N   UNL     1      -6.283  54.946  52.854  0.00  0.00    +0.000 N 
ATOM     29  H   UNL     1      -6.084  55.838  53.222  0.00  0.00    +0.000 HD
BRANCH  28  30
ATOM     30  C   UNL     1      -5.235  54.115  52.212  0.00  0.00    +0.000 C 
BRANCH  30  31
ATOM     31  C   UNL     1      -3.916  54.420  52.966  0.00  0.00    +0.000 C 
ATOM     32  C   UNL     1      -4.115  55.203  54.260  0.00  0.00    +0.000 C 
ENDBRANCH  30  31
BRANCH  30  33
ATOM     33  C   UNL     1      -5.079  54.400  50.695  0.00  0.00    +0.000 C 
BRANCH  33  34
ATOM     34  C   UNL     1      -5.743  53.328  49.812  0.00  0.00    +0.000 C 
ATOM     35  C   UNL     1      -6.113  52.071  50.584  0.00  0.00    +0.000 C 
ENDBRANCH  33  34
ENDBRANCH  30  33
ENDBRANCH  28  30
ENDBRANCH   5  28
TORSDOF 7
ENDMDL
MODEL 5
REMARK VINA RESULT:      -7.9      2.321      4.796
REMARK  Name = 
REMARK  9 active torsions:
REMARK  status: ('A' for Active; 'I' for Inactive)
REMARK    1  A    between atoms: C_6  and  C_10
REMARK    2  A    between atoms: C_14  and  O_18
REMARK    3  A    between atoms: N_17  and  N_20
REMARK    4  A    between atoms: N_20  and  C_23
REMARK    5  A    between atoms: C_23  and  C_26
REMARK    6  A    between atoms: C_23  and  C_27
REMARK    7  A    between atoms: C_26  and  C_29
REMARK    8  A    between atoms: C_27  and  C_30
REMARK    9  A    between atoms: C_29  and  C_31
REMARK                            x       y       z     vdW  Elec       q    Type
REMARK                         _______ _______ _______ _____ _____    ______ ____
ROOT
ATOM      1  C   UNL     1     -10.288  55.231  50.426  0.00  0.00    +0.000 A 
ATOM      2  C   UNL     1      -9.721  55.306  49.042  0.00  0.00    +0.000 A 
ATOM      3  C   UNL     1     -11.518  55.726  50.658  0.00  0.00    +0.000 A 
ATOM      4  O   UNL     1      -8.501  55.158  48.908  0.00  0.00    +0.000 OA
ATOM      5  N   UNL     1     -10.637  55.461  47.987  0.00  0.00    +0.000 N 
ATOM      6  C   UNL     1     -12.344  56.239  49.557  0.00  0.00    +0.000 A 
ATOM      7  C   UNL     1     -11.927  56.051  48.228  0.00  0.00    +0.000 A 
ATOM      8  C   UNL     1     -13.582  56.855  49.828  0.00  0.00    +0.000 A 
ATOM      9  C   UNL     1     -12.782  56.485  47.199  0.00  0.00    +0.000 A 
ATOM     10  C   UNL     1     -14.417  57.272  48.796  0.00  0.00    +0.000 A 
ATOM     11  C   UNL     1     -14.016  57.085  47.481  0.00  0.00    +0.000 A 
ENDROOT
BRANCH   1  17
ATOM     12  S   UNL     1      -9.109  52.448  52.937  0.00  0.00    +0.000 S 
ATOM     13  O   UNL     1      -8.519  51.344  52.203  0.00  0.00    +0.000 OA
ATOM     14  O   UNL     1      -9.986  52.192  54.061  0.00  0.00    +0.000 OA
ATOM     15  N   UNL     1      -9.912  53.365  51.882  0.00  0.00    +0.000 N 
ATOM     16  C   UNL     1      -7.770  53.381  53.568  0.00  0.00    +0.000 A 
ATOM     17  C   UNL     1      -9.489  54.541  51.527  0.00  0.00    +0.000 C 
ATOM     18  C   UNL     1      -7.548  54.641  53.035  0.00  0.00    +0.000 A 
ATOM     19  C   UNL     1      -6.965  52.833  54.569  0.00  0.00    +0.000 A 
ATOM     20  N   UNL     1      -8.372  55.163  52.038  0.00  0.00    +0.000 N 
ATOM     21  C   UNL     1      -6.448  55.361  53.510  0.00  0.00    +0.000 A 
ATOM     22  C   UNL     1      -5.885  53.569  55.044  0.00  0.00    +0.000 A 
ATOM     23  C   UNL     1      -5.625  54.831  54.511  0.00  0.00    +0.000 A 
ATOM     24  H   UNL     1     -10.750  53.022  51.494  0.00  0.00    +0.000 HD
ATOM     25  H   UNL     1      -8.136  56.046  51.671  0.00  0.00    +0.000 HD
ENDBRANCH   1  17
BRANCH   3  26
ATOM     26  O   UNL     1     -12.144  55.745  51.891  0.00  0.00    +0.000 OA
ATOM     27  H   UNL     1     -12.991  55.357  51.993  0.00  0.00    +0.000 HD
ENDBRANCH   3  26
BRANCH   5  28
ATOM     28  N   UNL     1     -10.169  55.321  46.639  0.00  0.00    +0.000 N 
ATOM     29  H   UNL     1      -9.854  56.096  46.118  0.00  0.00    +0.000 HD
BRANCH  28  30
ATOM     30  C   UNL     1     -10.183  53.951  46.069  0.00  0.00    +0.000 C 
BRANCH  30  31
ATOM     31  C   UNL     1      -8.946  53.854  45.139  0.00  0.00    +0.000 C 
ATOM     32  C   UNL     1      -7.838  54.843  45.486  0.00  0.00    +0.000 C 
ENDBRANCH  30  31
BRANCH  30  33
ATOM     33  C   UNL     1     -11.484  53.631  45.288  0.00  0.00    +0.000 C 
BRANCH  33  34
ATOM     34  C   UNL     1     -12.187  52.357  45.789  0.00  0.00    +0.000 C 
ATOM     35  C   UNL     1     -12.245  52.271  47.306  0.00  0.00    +0.000 C 
ENDBRANCH  33  34
ENDBRANCH  30  33
ENDBRANCH  28  30
ENDBRANCH   5  28
TORSDOF 7
ENDMDL
MODEL 6
REMARK VINA RESULT:      -7.6      3.117      7.607
REMARK  Name = 
REMARK  9 active torsions:
REMARK  status: ('A' for Active; 'I' for Inactive)
REMARK    1  A    between atoms: C_6  and  C_10
REMARK    2  A    between atoms: C_14  and  O_18
REMARK    3  A    between atoms: N_17  and  N_20
REMARK    4  A    between atoms: N_20  and  C_23
REMARK    5  A    between atoms: C_23  and  C_26
REMARK    6  A    between atoms: C_23  and  C_27
REMARK    7  A    between atoms: C_26  and  C_29
REMARK    8  A    between atoms: C_27  and  C_30
REMARK    9  A    between atoms: C_29  and  C_31
REMARK                            x       y       z     vdW  Elec       q    Type
REMARK                         _______ _______ _______ _____ _____    ______ ____
ROOT
ATOM      1  C   UNL     1     -11.569  54.851  50.580  0.00  0.00    +0.000 A 
ATOM      2  C   UNL     1     -11.529  54.146  49.258  0.00  0.00    +0.000 A 
ATOM      3  C   UNL     1     -10.668  54.519  51.525  0.00  0.00    +0.000 A 
ATOM      4  O   UNL     1     -12.531  54.215  48.538  0.00  0.00    +0.000 OA
ATOM      5  N   UNL     1     -10.318  53.527  48.903  0.00  0.00    +0.000 N 
ATOM      6  C   UNL     1      -9.594  53.560  51.240  0.00  0.00    +0.000 A 
ATOM      7  C   UNL     1      -9.389  53.116  49.922  0.00  0.00    +0.000 A 
ATOM      8  C   UNL     1      -8.728  53.139  52.269  0.00  0.00    +0.000 A 
ATOM      9  C   UNL     1      -8.301  52.260  49.674  0.00  0.00    +0.000 A 
ATOM     10  C   UNL     1      -7.653  52.297  52.003  0.00  0.00    +0.000 A 
ATOM     11  C   UNL     1      -7.440  51.859  50.703  0.00  0.00    +0.000 A 
ENDROOT
BRANCH   1  17
ATOM     12  S   UNL     1     -14.346  57.013  52.325  0.00  0.00    +0.000 S 
ATOM     13  O   UNL     1     -13.799  57.649  53.509  0.00  0.00    +0.000 OA
ATOM     14  O   UNL     1     -15.676  56.439  52.352  0.00  0.00    +0.000 OA
ATOM     15  N   UNL     1     -13.319  55.857  51.871  0.00  0.00    +0.000 N 
ATOM     16  C   UNL     1     -14.372  58.244  51.082  0.00  0.00    +0.000 A 
ATOM     17  C   UNL     1     -12.582  55.967  50.806  0.00  0.00    +0.000 C 
ATOM     18  C   UNL     1     -13.497  58.109  50.016  0.00  0.00    +0.000 A 
ATOM     19  C   UNL     1     -15.255  59.320  51.202  0.00  0.00    +0.000 A 
ATOM     20  N   UNL     1     -12.630  57.022  49.921  0.00  0.00    +0.000 N 
ATOM     21  C   UNL     1     -13.490  59.122  49.051  0.00  0.00    +0.000 A 
ATOM     22  C   UNL     1     -15.249  60.309  50.225  0.00  0.00    +0.000 A 
ATOM     23  C   UNL     1     -14.363  60.211  49.153  0.00  0.00    +0.000 A 
ATOM     24  H   UNL     1     -13.246  55.041  52.418  0.00  0.00    +0.000 HD
ATOM     25  H   UNL     1     -12.003  57.006  49.162  0.00  0.00    +0.000 HD
ENDBRANCH   1  17
BRANCH   3  26
ATOM     26  O   UNL     1     -10.613  55.070  52.793  0.00  0.00    +0.000 OA
ATOM     27  H   UNL     1     -11.136  55.818  53.001  0.00  0.00    +0.000 HD
ENDBRANCH   3  26
BRANCH   5  28
ATOM     28  N   UNL     1     -10.162  53.032  47.567  0.00  0.00    +0.000 N 
ATOM     29  H   UNL     1     -10.163  52.066  47.370  0.00  0.00    +0.000 HD
BRANCH  28  30
ATOM     30  C   UNL     1      -9.997  54.047  46.497  0.00  0.00    +0.000 C 
BRANCH  30  31
ATOM     31  C   UNL     1      -9.818  53.258  45.174  0.00  0.00    +0.000 C 
ATOM     32  C   UNL     1     -11.106  53.102  44.373  0.00  0.00    +0.000 C 
ENDBRANCH  30  31
BRANCH  30  33
ATOM     33  C   UNL     1      -8.793  54.994  46.738  0.00  0.00    +0.000 C 
BRANCH  33  34
ATOM     34  C   UNL     1      -7.535  54.577  45.955  0.00  0.00    +0.000 C 
ATOM     35  C   UNL     1      -6.508  53.863  46.821  0.00  0.00    +0.000 C 
ENDBRANCH  33  34
ENDBRANCH  30  33
ENDBRANCH  28  30
ENDBRANCH   5  28
TORSDOF 7
ENDMDL
MODEL 7
REMARK VINA RESULT:      -7.6      4.448      7.932
REMARK  Name = 
REMARK  9 active torsions:
REMARK  status: ('A' for Active; 'I' for Inactive)
REMARK    1  A    between atoms: C_6  and  C_10
REMARK    2  A    between atoms: C_14  and  O_18
REMARK    3  A    between atoms: N_17  and  N_20
REMARK    4  A    between atoms: N_20  and  C_23
REMARK    5  A    between atoms: C_23  and  C_26
REMARK    6  A    between atoms: C_23  and  C_27
REMARK    7  A    between atoms: C_26  and  C_29
REMARK    8  A    between atoms: C_27  and  C_30
REMARK    9  A    between atoms: C_29  and  C_31
REMARK                            x       y       z     vdW  Elec       q    Type
REMARK                         _______ _______ _______ _____ _____    ______ ____
ROOT
ATOM      1  C   UNL     1     -12.394  54.314  49.654  0.00  0.00    +0.000 A 
ATOM      2  C   UNL     1     -11.693  54.242  48.332  0.00  0.00    +0.000 A 
ATOM      3  C   UNL     1     -12.180  53.343  50.562  0.00  0.00    +0.000 A 
ATOM      4  O   UNL     1     -12.134  54.933  47.407  0.00  0.00    +0.000 OA
ATOM      5  N   UNL     1     -10.533  53.451  48.269  0.00  0.00    +0.000 N 
ATOM      6  C   UNL     1     -11.196  52.281  50.313  0.00  0.00    +0.000 A 
ATOM      7  C   UNL     1     -10.340  52.372  49.202  0.00  0.00    +0.000 A 
ATOM      8  C   UNL     1     -11.062  51.212  51.220  0.00  0.00    +0.000 A 
ATOM      9  C   UNL     1      -9.358  51.379  49.040  0.00  0.00    +0.000 A 
ATOM     10  C   UNL     1     -10.081  50.241  51.047  0.00  0.00    +0.000 A 
ATOM     11  C   UNL     1      -9.228  50.327  49.956  0.00  0.00    +0.000 A 
ENDROOT
BRANCH   1  17
ATOM     12  S   UNL     1     -15.354  56.418  51.152  0.00  0.00    +0.000 S 
ATOM     13  O   UNL     1     -15.221  56.492  52.596  0.00  0.00    +0.000 OA
ATOM     14  O   UNL     1     -16.654  56.208  50.549  0.00  0.00    +0.000 OA
ATOM     15  N   UNL     1     -14.372  55.252  50.628  0.00  0.00    +0.000 N 
ATOM     16  C   UNL     1     -14.772  57.947  50.533  0.00  0.00    +0.000 A 
ATOM     17  C   UNL     1     -13.283  55.513  49.968  0.00  0.00    +0.000 C 
ATOM     18  C   UNL     1     -13.583  57.949  49.821  0.00  0.00    +0.000 A 
ATOM     19  C   UNL     1     -15.505  59.110  50.781  0.00  0.00    +0.000 A 
ATOM     20  N   UNL     1     -12.875  56.772  49.587  0.00  0.00    +0.000 N 
ATOM     21  C   UNL     1     -13.099  59.182  49.371  0.00  0.00    +0.000 A 
ATOM     22  C   UNL     1     -15.021  60.326  50.310  0.00  0.00    +0.000 A 
ATOM     23  C   UNL     1     -13.815  60.361  49.610  0.00  0.00    +0.000 A 
ATOM     24  H   UNL     1     -14.604  54.313  50.815  0.00  0.00    +0.000 HD
ATOM     25  H   UNL     1     -12.015  56.845  49.112  0.00  0.00    +0.000 HD
ENDBRANCH   1  17
BRANCH   3  26
ATOM     26  O   UNL     1     -12.784  53.274  51.804  0.00  0.00    +0.000 OA
ATOM     27  H   UNL     1     -12.421  52.726  52.471  0.00  0.00    +0.000 HD
ENDBRANCH   3  26
BRANCH   5  28
ATOM     28  N   UNL     1      -9.711  53.523  47.096  0.00  0.00    +0.000 N 
ATOM     29  H   UNL     1      -9.010  54.208  46.996  0.00  0.00    +0.000 HD
BRANCH  28  30
ATOM     30  C   UNL     1      -9.971  52.512  46.041  0.00  0.00    +0.000 C 
BRANCH  30  31
ATOM     31  C   UNL     1      -8.642  52.349  45.259  0.00  0.00    +0.000 C 
ATOM     32  C   UNL     1      -8.433  53.400  44.175  0.00  0.00    +0.000 C 
ENDBRANCH  30  31
BRANCH  30  33
ATOM     33  C   UNL     1     -11.124  52.916  45.084  0.00  0.00    +0.000 C 
BRANCH  33  34
ATOM     34  C   UNL     1     -12.285  51.905  45.085  0.00  0.00    +0.000 C 
ATOM     35  C   UNL     1     -12.370  51.102  46.374  0.00  0.00    +0.000 C 
ENDBRANCH  33  34
ENDBRANCH  30  33
ENDBRANCH  28  30
ENDBRANCH   5  28
TORSDOF 7
ENDMDL
MODEL 8
REMARK VINA RESULT:      -7.5      2.245      2.488
REMARK  Name = 
REMARK  9 active torsions:
REMARK  status: ('A' for Active; 'I' for Inactive)
REMARK    1  A    between atoms: C_6  and  C_10
REMARK    2  A    between atoms: C_14  and  O_18
REMARK    3  A    between atoms: N_17  and  N_20
REMARK    4  A    between atoms: N_20  and  C_23
REMARK    5  A    between atoms: C_23  and  C_26
REMARK    6  A    between atoms: C_23  and  C_27
REMARK    7  A    between atoms: C_26  and  C_29
REMARK    8  A    between atoms: C_27  and  C_30
REMARK    9  A    between atoms: C_29  and  C_31
REMARK                            x       y       z     vdW  Elec       q    Type
REMARK                         _______ _______ _______ _____ _____    ______ ____
ROOT
ATOM      1  C   UNL     1     -10.098  54.173  50.695  0.00  0.00    +0.000 A 
ATOM      2  C   UNL     1     -11.506  54.461  51.116  0.00  0.00    +0.000 A 
ATOM      3  C   UNL     1      -9.753  54.345  49.404  0.00  0.00    +0.000 A 
ATOM      4  O   UNL     1     -11.891  53.998  52.196  0.00  0.00    +0.000 OA
ATOM      5  N   UNL     1     -12.258  55.308  50.285  0.00  0.00    +0.000 N 
ATOM      6  C   UNL     1     -10.704  54.908  48.438  0.00  0.00    +0.000 A 
ATOM      7  C   UNL     1     -11.925  55.438  48.891  0.00  0.00    +0.000 A 
ATOM      8  C   UNL     1     -10.368  54.979  47.072  0.00  0.00    +0.000 A 
ATOM      9  C   UNL     1     -12.776  56.040  47.947  0.00  0.00    +0.000 A 
ATOM     10  C   UNL     1     -11.221  55.583  46.153  0.00  0.00    +0.000 A 
ATOM     11  C   UNL     1     -12.425  56.115  46.593  0.00  0.00    +0.000 A 
ENDROOT
BRANCH   1  17
ATOM     12  S   UNL     1      -6.831  54.201  52.878  0.00  0.00    +0.000 S 
ATOM     13  O   UNL     1      -6.838  55.358  53.755  0.00  0.00    +0.000 OA
ATOM     14  O   UNL     1      -5.612  53.802  52.205  0.00  0.00    +0.000 OA
ATOM     15  N   UNL     1      -7.964  54.431  51.754  0.00  0.00    +0.000 N 
ATOM     16  C   UNL     1      -7.308  52.840  53.867  0.00  0.00    +0.000 A 
ATOM     17  C   UNL     1      -9.072  53.752  51.741  0.00  0.00    +0.000 C 
ATOM     18  C   UNL     1      -8.545  52.263  53.627  0.00  0.00    +0.000 A 
ATOM     19  C   UNL     1      -6.445  52.385  54.868  0.00  0.00    +0.000 A 
ATOM     20  N   UNL     1      -9.383  52.736  52.619  0.00  0.00    +0.000 N 
ATOM     21  C   UNL     1      -8.940  51.206  54.453  0.00  0.00    +0.000 A 
ATOM     22  C   UNL     1      -6.844  51.321  55.670  0.00  0.00    +0.000 A 
ATOM     23  C   UNL     1      -8.093  50.736  55.465  0.00  0.00    +0.000 A 
ATOM     24  H   UNL     1      -7.811  55.108  51.055  0.00  0.00    +0.000 HD
ATOM     25  H   UNL     1     -10.267  52.313  52.526  0.00  0.00    +0.000 HD
ENDBRANCH   1  17
BRANCH   3  26
ATOM     26  O   UNL     1      -8.499  54.089  48.880  0.00  0.00    +0.000 OA
ATOM     27  H   UNL     1      -8.288  53.231  48.570  0.00  0.00    +0.000 HD
ENDBRANCH   3  26
BRANCH   5  28
ATOM     28  N   UNL     1     -13.527  55.785  50.752  0.00  0.00    +0.000 N 
ATOM     29  H   UNL     1     -14.306  55.188  50.835  0.00  0.00    +0.000 HD
BRANCH  28  30
ATOM     30  C   UNL     1     -13.607  57.225  51.104  0.00  0.00    +0.000 C 
BRANCH  30  31
ATOM     31  C   UNL     1     -13.967  57.285  52.610  0.00  0.00    +0.000 C 
ATOM     32  C   UNL     1     -15.460  57.147  52.890  0.00  0.00    +0.000 C 
ENDBRANCH  30  31
BRANCH  30  33
ATOM     33  C   UNL     1     -14.651  58.000  50.257  0.00  0.00    +0.000 C 
BRANCH  33  34
ATOM     34  C   UNL     1     -14.633  59.516  50.524  0.00  0.00    +0.000 C 
ATOM     35  C   UNL     1     -13.468  60.222  49.849  0.00  0.00    +0.000 C 
ENDBRANCH  33  34
ENDBRANCH  30  33
ENDBRANCH  28  30
ENDBRANCH   5  28
TORSDOF 7
ENDMDL
MODEL 9
REMARK VINA RESULT:      -7.4      3.573      6.876
REMARK  Name = 
REMARK  9 active torsions:
REMARK  status: ('A' for Active; 'I' for Inactive)
REMARK    1  A    between atoms: C_6  and  C_10
REMARK    2  A    between atoms: C_14  and  O_18
REMARK    3  A    between atoms: N_17  and  N_20
REMARK    4  A    between atoms: N_20  and  C_23
REMARK    5  A    between atoms: C_23  and  C_26
REMARK    6  A    between atoms: C_23  and  C_27
REMARK    7  A    between atoms: C_26  and  C_29
REMARK    8  A    between atoms: C_27  and  C_30
REMARK    9  A    between atoms: C_29  and  C_31
REMARK                            x       y       z     vdW  Elec       q    Type
REMARK                         _______ _______ _______ _____ _____    ______ ____
ROOT
ATOM      1  C   UNL     1     -11.763  54.520  48.235  0.00  0.00    +0.000 A 
ATOM      2  C   UNL     1     -11.849  53.692  49.480  0.00  0.00    +0.000 A 
ATOM      3  C   UNL     1     -12.458  55.672  48.167  0.00  0.00    +0.000 A 
ATOM      4  O   UNL     1     -11.487  52.512  49.413  0.00  0.00    +0.000 OA
ATOM      5  N   UNL     1     -12.258  54.347  50.654  0.00  0.00    +0.000 N 
ATOM      6  C   UNL     1     -13.206  56.171  49.327  0.00  0.00    +0.000 A 
ATOM      7  C   UNL     1     -13.056  55.542  50.575  0.00  0.00    +0.000 A 
ATOM      8  C   UNL     1     -14.017  57.317  49.208  0.00  0.00    +0.000 A 
ATOM      9  C   UNL     1     -13.726  56.096  51.680  0.00  0.00    +0.000 A 
ATOM     10  C   UNL     1     -14.668  57.855  50.314  0.00  0.00    +0.000 A 
ATOM     11  C   UNL     1     -14.520  57.243  51.551  0.00  0.00    +0.000 A 
ENDROOT
BRANCH   1  17
ATOM     12  S   UNL     1      -8.517  54.112  46.060  0.00  0.00    +0.000 S 
ATOM     13  O   UNL     1      -7.539  53.321  46.785  0.00  0.00    +0.000 OA
ATOM     14  O   UNL     1      -8.102  55.280  45.311  0.00  0.00    +0.000 OA
ATOM     15  N   UNL     1      -9.648  54.576  47.112  0.00  0.00    +0.000 N 
ATOM     16  C   UNL     1      -9.255  53.028  44.902  0.00  0.00    +0.000 A 
ATOM     17  C   UNL     1     -10.848  54.077  47.099  0.00  0.00    +0.000 C 
ATOM     18  C   UNL     1     -10.579  52.670  45.100  0.00  0.00    +0.000 A 
ATOM     19  C   UNL     1      -8.496  52.550  43.832  0.00  0.00    +0.000 A 
ATOM     20  N   UNL     1     -11.313  53.166  46.176  0.00  0.00    +0.000 N 
ATOM     21  C   UNL     1     -11.148  51.766  44.197  0.00  0.00    +0.000 A 
ATOM     22  C   UNL     1      -9.081  51.666  42.932  0.00  0.00    +0.000 A 
ATOM     23  C   UNL     1     -10.405  51.271  43.118  0.00  0.00    +0.000 A 
ATOM     24  H   UNL     1      -9.422  55.258  47.785  0.00  0.00    +0.000 HD
ATOM     25  H   UNL     1     -12.235  52.841  46.286  0.00  0.00    +0.000 HD
ENDBRANCH   1  17
BRANCH   3  26
ATOM     26  O   UNL     1     -12.490  56.513  47.069  0.00  0.00    +0.000 OA
ATOM     27  H   UNL     1     -12.842  56.208  46.256  0.00  0.00    +0.000 HD
ENDBRANCH   3  26
BRANCH   5  28
ATOM     28  N   UNL     1     -12.148  53.656  51.905  0.00  0.00    +0.000 N 
ATOM     29  H   UNL     1     -12.940  53.313  52.378  0.00  0.00    +0.000 HD
BRANCH  28  30
ATOM     30  C   UNL     1     -10.778  53.486  52.451  0.00  0.00    +0.000 C 
BRANCH  30  31
ATOM     31  C   UNL     1     -10.911  52.540  53.672  0.00  0.00    +0.000 C 
ATOM     32  C   UNL     1      -9.598  51.888  54.090  0.00  0.00    +0.000 C 
ENDBRANCH  30  31
BRANCH  30  33
ATOM     33  C   UNL     1     -10.119  54.828  52.866  0.00  0.00    +0.000 C 
BRANCH  33  34
ATOM     34  C   UNL     1      -9.127  55.359  51.815  0.00  0.00    +0.000 C 
ATOM     35  C   UNL     1      -8.481  54.251  50.998  0.00  0.00    +0.000 C 
ENDBRANCH  33  34
ENDBRANCH  30  33
ENDBRANCH  28  30
ENDBRANCH   5  28
TORSDOF 7
ENDMDL
