MODEL 1
REMARK VINA RESULT:      -8.4      0.000      0.000
REMARK  Name = 
REMARK  5 active torsions:
REMARK  status: ('A' for Active; 'I' for Inactive)
REMARK    1  A    between atoms: C_6  and  C_10
REMARK    2  A    between atoms: C_14  and  O_18
REMARK    3  A    between atoms: N_17  and  N_20
REMARK    4  A    between atoms: N_20  and  C_23
REMARK    5  A    between atoms: C_23  and  C_26
REMARK                            x       y       z     vdW  Elec       q    Type
REMARK                         _______ _______ _______ _____ _____    ______ ____
ROOT
ATOM      1  C   UNL     1     -10.101  54.571  52.203  0.00  0.00    +0.000 A 
ATOM      2  C   UNL     1      -8.738  55.146  52.035  0.00  0.00    +0.000 A 
ATOM      3  C   UNL     1     -10.298  53.439  52.900  0.00  0.00    +0.000 A 
ATOM      4  O   UNL     1      -8.596  56.231  51.463  0.00  0.00    +0.000 OA
ATOM      5  N   UNL     1      -7.669  54.411  52.554  0.00  0.00    +0.000 N 
ATOM      6  C   UNL     1      -9.166  52.781  53.569  0.00  0.00    +0.000 A 
ATOM      7  C   UNL     1      -7.875  53.313  53.435  0.00  0.00    +0.000 A 
ATOM      8  C   UNL     1      -9.354  51.638  54.361  0.00  0.00    +0.000 A 
ATOM      9  C   UNL     1      -6.821  52.753  54.173  0.00  0.00    +0.000 A 
ATOM     10  C   UNL     1      -8.289  51.064  55.054  0.00  0.00    +0.000 A 
ATOM     11  C   UNL     1      -7.024  51.631  54.973  0.00  0.00    +0.000 A 
ENDROOT
BRANCH   1  17
ATOM     12  S   UNL     1     -12.542  56.058  49.559  0.00  0.00    +0.000 S 
ATOM     13  O   UNL     1     -13.436  55.048  49.015  0.00  0.00    +0.000 OA
ATOM     14  O   UNL     1     -11.953  57.060  48.698  0.00  0.00    +0.000 OA
ATOM     15  N   UNL     1     -11.353  55.284  50.333  0.00  0.00    +0.000 N 
ATOM     16  C   UNL     1     -13.487  56.934  50.754  0.00  0.00    +0.000 A 
ATOM     17  C   UNL     1     -11.280  55.292  51.628  0.00  0.00    +0.000 C 
ATOM     18  C   UNL     1     -13.191  56.738  52.094  0.00  0.00    +0.000 A 
ATOM     19  C   UNL     1     -14.498  57.805  50.335  0.00  0.00    +0.000 A 
ATOM     20  N   UNL     1     -12.176  55.872  52.497  0.00  0.00    +0.000 N 
ATOM     21  C   UNL     1     -13.982  57.392  53.045  0.00  0.00    +0.000 A 
ATOM     22  C   UNL     1     -15.254  58.474  51.292  0.00  0.00    +0.000 A 
ATOM     23  C   UNL     1     -15.002  58.262  52.647  0.00  0.00    +0.000 A 
ATOM     24  H   UNL     1     -10.674  54.796  49.812  0.00  0.00    +0.000 HD
ATOM     25  H   UNL     1     -12.095  55.664  53.455  0.00  0.00    +0.000 HD
ENDBRANCH   1  17
BRANCH   3  26
ATOM     26  O   UNL     1     -11.534  52.854  53.117  0.00  0.00    +0.000 OA
ATOM     27  H   UNL     1     -11.869  52.777  53.989  0.00  0.00    +0.000 HD
ENDBRANCH   3  26
BRANCH   5  28
ATOM     28  N   UNL     1      -6.341  54.880  52.274  0.00  0.00    +0.000 N 
ATOM     29  H   UNL     1      -5.789  55.385  52.914  0.00  0.00    +0.000 HD
BRANCH  28  30
ATOM     30  C   UNL     1      -5.901  54.518  50.912  0.00  0.00    +0.000 C 
BRANCH  30  31
ATOM     31  C   UNL     1      -4.807  53.447  50.946  0.00  0.00    +0.000 C 
ATOM     32  C   UNL     1      -5.388  52.031  50.961  0.00  0.00    +0.000 C 
ATOM     33  C   UNL     1      -3.962  53.456  52.221  0.00  0.00    +0.000 C 
ATOM     34  C   UNL     1      -4.270  51.149  51.510  0.00  0.00    +0.000 C 
ATOM     35  C   UNL     1      -3.300  52.085  52.231  0.00  0.00    +0.000 C 
ENDBRANCH  30  31
ENDBRANCH  28  30
ENDBRANCH   5  28
TORSDOF 5
ENDMDL
MODEL 2
REMARK VINA RESULT:      -8.1      3.290      5.010
REMARK  Name = 
REMARK  5 active torsions:
REMARK  status: ('A' for Active; 'I' for Inactive)
REMARK    1  A    between atoms: C_6  and  C_10
REMARK    2  A    between atoms: C_14  and  O_18
REMARK    3  A    between atoms: N_17  and  N_20
REMARK    4  A    between atoms: N_20  and  C_23
REMARK    5  A    between atoms: C_23  and  C_26
REMARK                            x       y       z     vdW  Elec       q    Type
REMARK                         _______ _______ _______ _____ _____    ______ ____
ROOT
ATOM      1  C   UNL     1     -11.694  55.962  48.823  0.00  0.00    +0.000 A 
ATOM      2  C   UNL     1     -10.657  55.273  49.640  0.00  0.00    +0.000 A 
ATOM      3  C   UNL     1     -11.850  55.685  47.517  0.00  0.00    +0.000 A 
ATOM      4  O   UNL     1     -10.593  55.484  50.855  0.00  0.00    +0.000 OA
ATOM      5  N   UNL     1      -9.797  54.398  48.971  0.00  0.00    +0.000 N 
ATOM      6  C   UNL     1     -11.031  54.639  46.885  0.00  0.00    +0.000 A 
ATOM      7  C   UNL     1     -10.056  53.968  47.639  0.00  0.00    +0.000 A 
ATOM      8  C   UNL     1     -11.221  54.281  45.542  0.00  0.00    +0.000 A 
ATOM      9  C   UNL     1      -9.366  52.891  47.065  0.00  0.00    +0.000 A 
ATOM     10  C   UNL     1     -10.495  53.237  44.970  0.00  0.00    +0.000 A 
ATOM     11  C   UNL     1      -9.577  52.530  45.736  0.00  0.00    +0.000 A 
ENDROOT
BRANCH   1  17
ATOM     12  S   UNL     1     -13.587  59.291  49.525  0.00  0.00    +0.000 S 
ATOM     13  O   UNL     1     -14.725  59.467  48.636  0.00  0.00    +0.000 OA
ATOM     14  O   UNL     1     -12.729  60.408  49.854  0.00  0.00    +0.000 OA
ATOM     15  N   UNL     1     -12.674  58.108  48.910  0.00  0.00    +0.000 N 
ATOM     16  C   UNL     1     -14.258  58.725  51.047  0.00  0.00    +0.000 A 
ATOM     17  C   UNL     1     -12.615  56.943  49.479  0.00  0.00    +0.000 C 
ATOM     18  C   UNL     1     -14.043  57.402  51.405  0.00  0.00    +0.000 A 
ATOM     19  C   UNL     1     -14.977  59.607  51.859  0.00  0.00    +0.000 A 
ATOM     20  N   UNL     1     -13.318  56.535  50.588  0.00  0.00    +0.000 N 
ATOM     21  C   UNL     1     -14.626  56.938  52.589  0.00  0.00    +0.000 A 
ATOM     22  C   UNL     1     -15.522  59.139  53.051  0.00  0.00    +0.000 A 
ATOM     23  C   UNL     1     -15.354  57.803  53.412  0.00  0.00    +0.000 A 
ATOM     24  H   UNL     1     -12.156  58.273  48.090  0.00  0.00    +0.000 HD
ATOM     25  H   UNL     1     -13.309  55.579  50.819  0.00  0.00    +0.000 HD
ENDBRANCH   1  17
BRANCH   3  26
ATOM     26  O   UNL     1     -12.802  56.266  46.698  0.00  0.00    +0.000 OA
ATOM     27  H   UNL     1     -12.778  56.117  45.773  0.00  0.00    +0.000 HD
ENDBRANCH   3  26
BRANCH   5  28
ATOM     28  N   UNL     1      -8.704  53.840  49.716  0.00  0.00    +0.000 N 
ATOM     29  H   UNL     1      -8.707  52.935  50.101  0.00  0.00    +0.000 HD
BRANCH  28  30
ATOM     30  C   UNL     1      -7.575  54.784  49.835  0.00  0.00    +0.000 C 
BRANCH  30  31
ATOM     31  C   UNL     1      -7.072  54.871  51.278  0.00  0.00    +0.000 C 
ATOM     32  C   UNL     1      -7.737  53.832  52.184  0.00  0.00    +0.000 C 
ATOM     33  C   UNL     1      -7.425  56.181  51.986  0.00  0.00    +0.000 C 
ATOM     34  C   UNL     1      -7.553  54.366  53.603  0.00  0.00    +0.000 C 
ATOM     35  C   UNL     1      -7.249  55.857  53.463  0.00  0.00    +0.000 C 
ENDBRANCH  30  31
ENDBRANCH  28  30
ENDBRANCH   5  28
TORSDOF 5
ENDMDL
MODEL 3
REMARK VINA RESULT:      -8.1      3.305      8.349
REMARK  Name = 
REMARK  5 active torsions:
REMARK  status: ('A' for Active; 'I' for Inactive)
REMARK    1  A    between atoms: C_6  and  C_10
REMARK    2  A    between atoms: C_14  and  O_18
REMARK    3  A    between atoms: N_17  and  N_20
REMARK    4  A    between atoms: N_20  and  C_23
REMARK    5  A    between atoms: C_23  and  C_26
REMARK                            x       y       z     vdW  Elec       q    Type
REMARK                         _______ _______ _______ _____ _____    ______ ____
ROOT
ATOM      1  C   UNL     1      -9.071  54.252  49.850  0.00  0.00    +0.000 A 
ATOM      2  C   UNL     1     -10.107  55.322  49.856  0.00  0.00    +0.000 A 
ATOM      3  C   UNL     1      -8.945  53.410  48.811  0.00  0.00    +0.000 A 
ATOM      4  O   UNL     1     -10.144  56.135  50.785  0.00  0.00    +0.000 OA
ATOM      5  N   UNL     1     -10.996  55.352  48.779  0.00  0.00    +0.000 N 
ATOM      6  C   UNL     1      -9.796  53.576  47.623  0.00  0.00    +0.000 A 
ATOM      7  C   UNL     1     -10.770  54.586  47.601  0.00  0.00    +0.000 A 
ATOM      8  C   UNL     1      -9.638  52.756  46.496  0.00  0.00    +0.000 A 
ATOM      9  C   UNL     1     -11.493  54.817  46.421  0.00  0.00    +0.000 A 
ATOM     10  C   UNL     1     -10.396  52.968  45.345  0.00  0.00    +0.000 A 
ATOM     11  C   UNL     1     -11.313  54.010  45.301  0.00  0.00    +0.000 A 
ENDROOT
BRANCH   1  17
ATOM     12  S   UNL     1      -7.768  54.144  53.518  0.00  0.00    +0.000 S 
ATOM     13  O   UNL     1      -7.993  52.846  54.137  0.00  0.00    +0.000 OA
ATOM     14  O   UNL     1      -7.983  55.363  54.265  0.00  0.00    +0.000 OA
ATOM     15  N   UNL     1      -8.666  54.200  52.176  0.00  0.00    +0.000 N 
ATOM     16  C   UNL     1      -6.077  54.154  53.041  0.00  0.00    +0.000 A 
ATOM     17  C   UNL     1      -8.119  54.144  51.001  0.00  0.00    +0.000 C 
ATOM     18  C   UNL     1      -5.778  54.071  51.689  0.00  0.00    +0.000 A 
ATOM     19  C   UNL     1      -5.081  54.253  54.017  0.00  0.00    +0.000 A 
ATOM     20  N   UNL     1      -6.781  53.979  50.725  0.00  0.00    +0.000 N 
ATOM     21  C   UNL     1      -4.430  54.022  51.315  0.00  0.00    +0.000 A 
ATOM     22  C   UNL     1      -3.746  54.237  53.627  0.00  0.00    +0.000 A 
ATOM     23  C   UNL     1      -3.420  54.113  52.277  0.00  0.00    +0.000 A 
ATOM     24  H   UNL     1      -9.645  54.275  52.251  0.00  0.00    +0.000 HD
ATOM     25  H   UNL     1      -6.518  53.787  49.797  0.00  0.00    +0.000 HD
ENDBRANCH   1  17
BRANCH   3  26
ATOM     26  O   UNL     1      -7.997  52.406  48.723  0.00  0.00    +0.000 OA
ATOM     27  H   UNL     1      -7.941  51.754  49.393  0.00  0.00    +0.000 HD
ENDBRANCH   3  26
BRANCH   5  28
ATOM     28  N   UNL     1     -12.086  56.284  48.842  0.00  0.00    +0.000 N 
ATOM     29  H   UNL     1     -12.037  57.211  48.515  0.00  0.00    +0.000 HD
BRANCH  28  30
ATOM     30  C   UNL     1     -13.290  55.689  49.456  0.00  0.00    +0.000 C 
BRANCH  30  31
ATOM     31  C   UNL     1     -13.971  56.670  50.415  0.00  0.00    +0.000 C 
ATOM     32  C   UNL     1     -13.354  56.628  51.815  0.00  0.00    +0.000 C 
ATOM     33  C   UNL     1     -15.437  56.345  50.705  0.00  0.00    +0.000 C 
ATOM     34  C   UNL     1     -14.419  57.217  52.736  0.00  0.00    +0.000 C 
ATOM     35  C   UNL     1     -15.741  57.128  51.974  0.00  0.00    +0.000 C 
ENDBRANCH  30  31
ENDBRANCH  28  30
ENDBRANCH   5  28
TORSDOF 5
ENDMDL
MODEL 4
REMARK VINA RESULT:      -8.1      3.447      4.968
REMARK  Name = 
REMARK  5 active torsions:
REMARK  status: ('A' for Active; 'I' for Inactive)
REMARK    1  A    between atoms: C_6  and  C_10
REMARK    2  A    between atoms: C_14  and  O_18
REMARK    3  A    between atoms: N_17  and  N_20
REMARK    4  A    between atoms: N_20  and  C_23
REMARK    5  A    between atoms: C_23  and  C_26
REMARK                            x       y       z     vdW  Elec       q    Type
REMARK                         _______ _______ _______ _____ _____    ______ ____
ROOT
ATOM      1  C   UNL     1     -10.626  55.769  48.405  0.00  0.00    +0.000 A 
ATOM      2  C   UNL     1      -9.200  55.736  48.834  0.00  0.00    +0.000 A 
ATOM      3  C   UNL     1     -11.016  55.221  47.241  0.00  0.00    +0.000 A 
ATOM      4  O   UNL     1      -8.884  56.171  49.946  0.00  0.00    +0.000 OA
ATOM      5  N   UNL     1      -8.277  55.195  47.936  0.00  0.00    +0.000 N 
ATOM      6  C   UNL     1     -10.039  54.517  46.397  0.00  0.00    +0.000 A 
ATOM      7  C   UNL     1      -8.693  54.463  46.788  0.00  0.00    +0.000 A 
ATOM      8  C   UNL     1     -10.432  53.875  45.213  0.00  0.00    +0.000 A 
ATOM      9  C   UNL     1      -7.792  53.687  46.043  0.00  0.00    +0.000 A 
ATOM     10  C   UNL     1      -9.516  53.145  44.456  0.00  0.00    +0.000 A 
ATOM     11  C   UNL     1      -8.197  53.037  44.880  0.00  0.00    +0.000 A 
ENDROOT
BRANCH   1  17
ATOM     12  S   UNL     1     -13.176  56.119  51.327  0.00  0.00    +0.000 S 
ATOM     13  O   UNL     1     -12.517  56.398  52.593  0.00  0.00    +0.000 OA
ATOM     14  O   UNL     1     -14.288  55.198  51.263  0.00  0.00    +0.000 OA
ATOM     15  N   UNL     1     -12.039  55.623  50.290  0.00  0.00    +0.000 N 
ATOM     16  C   UNL     1     -13.788  57.667  50.761  0.00  0.00    +0.000 A 
ATOM     17  C   UNL     1     -11.652  56.378  49.309  0.00  0.00    +0.000 C 
ATOM     18  C   UNL     1     -13.162  58.261  49.676  0.00  0.00    +0.000 A 
ATOM     19  C   UNL     1     -14.884  58.254  51.401  0.00  0.00    +0.000 A 
ATOM     20  N   UNL     1     -12.074  57.660  49.043  0.00  0.00    +0.000 N 
ATOM     21  C   UNL     1     -13.614  59.519  49.263  0.00  0.00    +0.000 A 
ATOM     22  C   UNL     1     -15.344  59.490  50.957  0.00  0.00    +0.000 A 
ATOM     23  C   UNL     1     -14.704  60.126  49.894  0.00  0.00    +0.000 A 
ATOM     24  H   UNL     1     -11.632  54.734  50.408  0.00  0.00    +0.000 HD
ATOM     25  H   UNL     1     -11.582  58.182  48.370  0.00  0.00    +0.000 HD
ENDBRANCH   1  17
BRANCH   3  26
ATOM     26  O   UNL     1     -12.321  55.193  46.784  0.00  0.00    +0.000 OA
ATOM     27  H   UNL     1     -12.609  55.820  46.150  0.00  0.00    +0.000 HD
ENDBRANCH   3  26
BRANCH   5  28
ATOM     28  N   UNL     1      -6.885  55.289  48.274  0.00  0.00    +0.000 N 
ATOM     29  H   UNL     1      -6.307  56.044  48.020  0.00  0.00    +0.000 HD
BRANCH  28  30
ATOM     30  C   UNL     1      -6.423  54.120  49.048  0.00  0.00    +0.000 C 
BRANCH  30  31
ATOM     31  C   UNL     1      -5.632  54.549  50.287  0.00  0.00    +0.000 C 
ATOM     32  C   UNL     1      -4.368  53.709  50.482  0.00  0.00    +0.000 C 
ATOM     33  C   UNL     1      -6.370  54.322  51.609  0.00  0.00    +0.000 C 
ATOM     34  C   UNL     1      -4.002  53.878  51.955  0.00  0.00    +0.000 C 
ATOM     35  C   UNL     1      -5.266  54.373  52.656  0.00  0.00    +0.000 C 
ENDBRANCH  30  31
ENDBRANCH  28  30
ENDBRANCH   5  28
TORSDOF 5
ENDMDL
MODEL 5
REMARK VINA RESULT:      -8.0      2.942      8.255
REMARK  Name = 
REMARK  5 active torsions:
REMARK  status: ('A' for Active; 'I' for Inactive)
REMARK    1  A    between atoms: C_6  and  C_10
REMARK    2  A    between atoms: C_14  and  O_18
REMARK    3  A    between atoms: N_17  and  N_20
REMARK    4  A    between atoms: N_20  and  C_23
REMARK    5  A    between atoms: C_23  and  C_26
REMARK                            x       y       z     vdW  Elec       q    Type
REMARK                         _______ _______ _______ _____ _____    ______ ____
ROOT
ATOM      1  C   UNL     1      -9.699  53.897  51.052  0.00  0.00    +0.000 A 
ATOM      2  C   UNL     1     -10.644  55.021  51.302  0.00  0.00    +0.000 A 
ATOM      3  C   UNL     1      -9.540  53.382  49.821  0.00  0.00    +0.000 A 
ATOM      4  O   UNL     1     -10.707  55.531  52.424  0.00  0.00    +0.000 OA
ATOM      5  N   UNL     1     -11.420  55.452  50.223  0.00  0.00    +0.000 N 
ATOM      6  C   UNL     1     -10.256  53.970  48.680  0.00  0.00    +0.000 A 
ATOM      7  C   UNL     1     -11.142  55.038  48.890  0.00  0.00    +0.000 A 
ATOM      8  C   UNL     1     -10.055  53.498  47.374  0.00  0.00    +0.000 A 
ATOM      9  C   UNL     1     -11.727  55.673  47.784  0.00  0.00    +0.000 A 
ATOM     10  C   UNL     1     -10.679  54.110  46.287  0.00  0.00    +0.000 A 
ATOM     11  C   UNL     1     -11.504  55.209  46.490  0.00  0.00    +0.000 A 
ENDROOT
BRANCH   1  17
ATOM     12  S   UNL     1      -6.586  53.145  53.266  0.00  0.00    +0.000 S 
ATOM     13  O   UNL     1      -6.227  54.279  54.102  0.00  0.00    +0.000 OA
ATOM     14  O   UNL     1      -5.563  52.359  52.612  0.00  0.00    +0.000 OA
ATOM     15  N   UNL     1      -7.617  53.681  52.143  0.00  0.00    +0.000 N 
ATOM     16  C   UNL     1      -7.456  52.038  54.317  0.00  0.00    +0.000 A 
ATOM     17  C   UNL     1      -8.874  53.365  52.182  0.00  0.00    +0.000 C 
ATOM     18  C   UNL     1      -8.825  51.903  54.137  0.00  0.00    +0.000 A 
ATOM     19  C   UNL     1      -6.761  51.319  55.295  0.00  0.00    +0.000 A 
ATOM     20  N   UNL     1      -9.504  52.621  53.153  0.00  0.00    +0.000 N 
ATOM     21  C   UNL     1      -9.525  51.065  55.011  0.00  0.00    +0.000 A 
ATOM     22  C   UNL     1      -7.466  50.463  56.136  0.00  0.00    +0.000 A 
ATOM     23  C   UNL     1      -8.849  50.343  55.999  0.00  0.00    +0.000 A 
ATOM     24  H   UNL     1      -7.285  54.259  51.418  0.00  0.00    +0.000 HD
ATOM     25  H   UNL     1     -10.487  52.594  53.154  0.00  0.00    +0.000 HD
ENDBRANCH   1  17
BRANCH   3  26
ATOM     26  O   UNL     1      -8.669  52.354  49.505  0.00  0.00    +0.000 OA
ATOM     27  H   UNL     1      -8.444  52.188  48.611  0.00  0.00    +0.000 HD
ENDBRANCH   3  26
BRANCH   5  28
ATOM     28  N   UNL     1     -12.435  56.433  50.483  0.00  0.00    +0.000 N 
ATOM     29  H   UNL     1     -12.321  57.398  50.325  0.00  0.00    +0.000 HD
BRANCH  28  30
ATOM     30  C   UNL     1     -13.670  55.825  51.017  0.00  0.00    +0.000 C 
BRANCH  30  31
ATOM     31  C   UNL     1     -14.652  56.894  51.505  0.00  0.00    +0.000 C 
ATOM     32  C   UNL     1     -14.719  58.091  50.553  0.00  0.00    +0.000 C 
ATOM     33  C   UNL     1     -14.250  57.558  52.822  0.00  0.00    +0.000 C 
ATOM     34  C   UNL     1     -15.285  59.234  51.393  0.00  0.00    +0.000 C 
ATOM     35  C   UNL     1     -15.075  58.837  52.854  0.00  0.00    +0.000 C 
ENDBRANCH  30  31
ENDBRANCH  28  30
ENDBRANCH   5  28
TORSDOF 5
ENDMDL
MODEL 6
REMARK VINA RESULT:      -7.9      1.896      2.547
REMARK  Name = 
REMARK  5 active torsions:
REMARK  status: ('A' for Active; 'I' for Inactive)
REMARK    1  A    between atoms: C_6  and  C_10
REMARK    2  A    between atoms: C_14  and  O_18
REMARK    3  A    between atoms: N_17  and  N_20
REMARK    4  A    between atoms: N_20  and  C_23
REMARK    5  A    between atoms: C_23  and  C_26
REMARK                            x       y       z     vdW  Elec       q    Type
REMARK                         _______ _______ _______ _____ _____    ______ ____
ROOT
ATOM      1  C   UNL     1     -11.226  53.884  51.625  0.00  0.00    +0.000 A 
ATOM      2  C   UNL     1     -10.237  54.046  52.727  0.00  0.00    +0.000 A 
ATOM      3  C   UNL     1     -11.407  52.698  51.020  0.00  0.00    +0.000 A 
ATOM      4  O   UNL     1     -10.152  55.125  53.322  0.00  0.00    +0.000 OA
ATOM      5  N   UNL     1      -9.445  52.938  53.039  0.00  0.00    +0.000 N 
ATOM      6  C   UNL     1     -10.669  51.515  51.486  0.00  0.00    +0.000 A 
ATOM      7  C   UNL     1      -9.741  51.642  52.532  0.00  0.00    +0.000 A 
ATOM      8  C   UNL     1     -10.890  50.251  50.920  0.00  0.00    +0.000 A 
ATOM      9  C   UNL     1      -9.133  50.489  53.052  0.00  0.00    +0.000 A 
ATOM     10  C   UNL     1     -10.243  49.120  51.417  0.00  0.00    +0.000 A 
ATOM     11  C   UNL     1      -9.376  49.236  52.496  0.00  0.00    +0.000 A 
ENDROOT
BRANCH   1  17
ATOM     12  S   UNL     1     -12.746  56.695  49.400  0.00  0.00    +0.000 S 
ATOM     13  O   UNL     1     -13.777  56.185  48.508  0.00  0.00    +0.000 OA
ATOM     14  O   UNL     1     -11.789  57.673  48.935  0.00  0.00    +0.000 OA
ATOM     15  N   UNL     1     -11.938  55.421  49.981  0.00  0.00    +0.000 N 
ATOM     16  C   UNL     1     -13.606  57.447  50.735  0.00  0.00    +0.000 A 
ATOM     17  C   UNL     1     -12.070  55.052  51.217  0.00  0.00    +0.000 C 
ATOM     18  C   UNL     1     -13.586  56.812  51.967  0.00  0.00    +0.000 A 
ATOM     19  C   UNL     1     -14.276  58.658  50.534  0.00  0.00    +0.000 A 
ATOM     20  N   UNL     1     -12.908  55.608  52.155  0.00  0.00    +0.000 N 
ATOM     21  C   UNL     1     -14.318  57.382  53.015  0.00  0.00    +0.000 A 
ATOM     22  C   UNL     1     -14.972  59.231  51.594  0.00  0.00    +0.000 A 
ATOM     23  C   UNL     1     -15.000  58.589  52.832  0.00  0.00    +0.000 A 
ATOM     24  H   UNL     1     -11.337  54.918  49.385  0.00  0.00    +0.000 HD
ATOM     25  H   UNL     1     -13.036  55.131  53.006  0.00  0.00    +0.000 HD
ENDBRANCH   1  17
BRANCH   3  26
ATOM     26  O   UNL     1     -12.318  52.464  50.005  0.00  0.00    +0.000 OA
ATOM     27  H   UNL     1     -13.007  51.841  50.129  0.00  0.00    +0.000 HD
ENDBRANCH   3  26
BRANCH   5  28
ATOM     28  N   UNL     1      -8.392  53.121  53.997  0.00  0.00    +0.000 N 
ATOM     29  H   UNL     1      -8.528  53.488  54.900  0.00  0.00    +0.000 HD
BRANCH  28  30
ATOM     30  C   UNL     1      -7.081  52.696  53.468  0.00  0.00    +0.000 C 
BRANCH  30  31
ATOM     31  C   UNL     1      -6.110  53.875  53.370  0.00  0.00    +0.000 C 
ATOM     32  C   UNL     1      -4.718  53.437  52.907  0.00  0.00    +0.000 C 
ATOM     33  C   UNL     1      -5.801  54.544  54.711  0.00  0.00    +0.000 C 
ATOM     34  C   UNL     1      -3.781  54.556  53.354  0.00  0.00    +0.000 C 
ATOM     35  C   UNL     1      -4.525  55.329  54.442  0.00  0.00    +0.000 C 
ENDBRANCH  30  31
ENDBRANCH  28  30
ENDBRANCH   5  28
TORSDOF 5
ENDMDL
MODEL 7
REMARK VINA RESULT:      -7.8      2.664      3.343
REMARK  Name = 
REMARK  5 active torsions:
REMARK  status: ('A' for Active; 'I' for Inactive)
REMARK    1  A    between atoms: C_6  and  C_10
REMARK    2  A    between atoms: C_14  and  O_18
REMARK    3  A    between atoms: N_17  and  N_20
REMARK    4  A    between atoms: N_20  and  C_23
REMARK    5  A    between atoms: C_23  and  C_26
REMARK                            x       y       z     vdW  Elec       q    Type
REMARK                         _______ _______ _______ _____ _____    ______ ____
ROOT
ATOM      1  C   UNL     1     -11.137  54.671  50.879  0.00  0.00    +0.000 A 
ATOM      2  C   UNL     1      -9.743  55.056  50.522  0.00  0.00    +0.000 A 
ATOM      3  C   UNL     1     -11.430  53.431  51.308  0.00  0.00    +0.000 A 
ATOM      4  O   UNL     1      -9.489  56.224  50.214  0.00  0.00    +0.000 OA
ATOM      5  N   UNL     1      -8.775  54.049  50.565  0.00  0.00    +0.000 N 
ATOM      6  C   UNL     1     -10.355  52.445  51.494  0.00  0.00    +0.000 A 
ATOM      7  C   UNL     1      -9.032  52.790  51.176  0.00  0.00    +0.000 A 
ATOM      8  C   UNL     1     -10.623  51.167  52.007  0.00  0.00    +0.000 A 
ATOM      9  C   UNL     1      -7.999  51.888  51.470  0.00  0.00    +0.000 A 
ATOM     10  C   UNL     1      -9.589  50.263  52.252  0.00  0.00    +0.000 A 
ATOM     11  C   UNL     1      -8.274  50.630  51.999  0.00  0.00    +0.000 A 
ENDROOT
BRANCH   1  17
ATOM     12  S   UNL     1     -13.584  57.306  49.385  0.00  0.00    +0.000 S 
ATOM     13  O   UNL     1     -14.718  56.681  48.722  0.00  0.00    +0.000 OA
ATOM     14  O   UNL     1     -12.936  58.461  48.804  0.00  0.00    +0.000 OA
ATOM     15  N   UNL     1     -12.470  56.158  49.621  0.00  0.00    +0.000 N 
ATOM     16  C   UNL     1     -14.178  57.818  50.958  0.00  0.00    +0.000 A 
ATOM     17  C   UNL     1     -12.225  55.698  50.809  0.00  0.00    +0.000 C 
ATOM     18  C   UNL     1     -13.748  57.122  52.078  0.00  0.00    +0.000 A 
ATOM     19  C   UNL     1     -15.053  58.905  51.049  0.00  0.00    +0.000 A 
ATOM     20  N   UNL     1     -12.870  56.044  51.973  0.00  0.00    +0.000 N 
ATOM     21  C   UNL     1     -14.266  57.494  53.323  0.00  0.00    +0.000 A 
ATOM     22  C   UNL     1     -15.534  59.285  52.298  0.00  0.00    +0.000 A 
ATOM     23  C   UNL     1     -15.147  58.574  53.434  0.00  0.00    +0.000 A 
ATOM     24  H   UNL     1     -11.972  55.802  48.850  0.00  0.00    +0.000 HD
ATOM     25  H   UNL     1     -12.702  55.502  52.777  0.00  0.00    +0.000 HD
ENDBRANCH   1  17
BRANCH   3  26
ATOM     26  O   UNL     1     -12.694  53.005  51.677  0.00  0.00    +0.000 OA
ATOM     27  H   UNL     1     -13.018  52.181  51.371  0.00  0.00    +0.000 HD
ENDBRANCH   3  26
BRANCH   5  28
ATOM     28  N   UNL     1      -7.461  54.370  50.085  0.00  0.00    +0.000 N 
ATOM     29  H   UNL     1      -6.842  54.982  50.545  0.00  0.00    +0.000 HD
BRANCH  28  30
ATOM     30  C   UNL     1      -7.146  53.675  48.822  0.00  0.00    +0.000 C 
BRANCH  30  31
ATOM     31  C   UNL     1      -7.772  54.389  47.621  0.00  0.00    +0.000 C 
ATOM     32  C   UNL     1      -9.064  53.712  47.158  0.00  0.00    +0.000 C 
ATOM     33  C   UNL     1      -6.918  54.344  46.352  0.00  0.00    +0.000 C 
ATOM     34  C   UNL     1      -9.262  54.178  45.717  0.00  0.00    +0.000 C 
ATOM     35  C   UNL     1      -7.901  54.681  45.239  0.00  0.00    +0.000 C 
ENDBRANCH  30  31
ENDBRANCH  28  30
ENDBRANCH   5  28
TORSDOF 5
ENDMDL
MODEL 8
REMARK VINA RESULT:      -7.6      1.677      2.179
REMARK  Name = 
REMARK  5 active torsions:
REMARK  status: ('A' for Active; 'I' for Inactive)
REMARK    1  A    between atoms: C_6  and  C_10
REMARK    2  A    between atoms: C_14  and  O_18
REMARK    3  A    between atoms: N_17  and  N_20
REMARK    4  A    between atoms: N_20  and  C_23
REMARK    5  A    between atoms: C_23  and  C_26
REMARK                            x       y       z     vdW  Elec       q    Type
REMARK                         _______ _______ _______ _____ _____    ______ ____
ROOT
ATOM      1  C   UNL     1      -9.266  55.085  51.248  0.00  0.00    +0.000 A 
ATOM      2  C   UNL     1      -8.162  55.601  50.392  0.00  0.00    +0.000 A 
ATOM      3  C   UNL     1      -9.012  54.440  52.399  0.00  0.00    +0.000 A 
ATOM      4  O   UNL     1      -8.426  56.263  49.384  0.00  0.00    +0.000 OA
ATOM      5  N   UNL     1      -6.856  55.305  50.792  0.00  0.00    +0.000 N 
ATOM      6  C   UNL     1      -7.626  54.290  52.867  0.00  0.00    +0.000 A 
ATOM      7  C   UNL     1      -6.571  54.780  52.083  0.00  0.00    +0.000 A 
ATOM      8  C   UNL     1      -7.337  53.684  54.099  0.00  0.00    +0.000 A 
ATOM      9  C   UNL     1      -5.264  54.744  52.592  0.00  0.00    +0.000 A 
ATOM     10  C   UNL     1      -6.027  53.614  54.572  0.00  0.00    +0.000 A 
ATOM     11  C   UNL     1      -4.990  54.158  53.825  0.00  0.00    +0.000 A 
ENDROOT
BRANCH   1  17
ATOM     12  S   UNL     1     -12.437  55.338  49.001  0.00  0.00    +0.000 S 
ATOM     13  O   UNL     1     -13.049  54.038  48.776  0.00  0.00    +0.000 OA
ATOM     14  O   UNL     1     -12.332  56.299  47.926  0.00  0.00    +0.000 OA
ATOM     15  N   UNL     1     -10.959  55.078  49.602  0.00  0.00    +0.000 N 
ATOM     16  C   UNL     1     -13.404  56.107  50.252  0.00  0.00    +0.000 A 
ATOM     17  C   UNL     1     -10.687  55.333  50.845  0.00  0.00    +0.000 C 
ATOM     18  C   UNL     1     -12.852  56.239  51.517  0.00  0.00    +0.000 A 
ATOM     19  C   UNL     1     -14.688  56.570  49.948  0.00  0.00    +0.000 A 
ATOM     20  N   UNL     1     -11.567  55.779  51.803  0.00  0.00    +0.000 N 
ATOM     21  C   UNL     1     -13.644  56.799  52.525  0.00  0.00    +0.000 A 
ATOM     22  C   UNL     1     -15.451  57.155  50.953  0.00  0.00    +0.000 A 
ATOM     23  C   UNL     1     -14.932  57.263  52.243  0.00  0.00    +0.000 A 
ATOM     24  H   UNL     1     -10.255  54.718  49.016  0.00  0.00    +0.000 HD
ATOM     25  H   UNL     1     -11.274  55.773  52.742  0.00  0.00    +0.000 HD
ENDBRANCH   1  17
BRANCH   3  26
ATOM     26  O   UNL     1      -9.982  53.950  53.257  0.00  0.00    +0.000 OA
ATOM     27  H   UNL     1     -10.652  53.382  52.931  0.00  0.00    +0.000 HD
ENDBRANCH   3  26
BRANCH   5  28
ATOM     28  N   UNL     1      -5.790  55.670  49.903  0.00  0.00    +0.000 N 
ATOM     29  H   UNL     1      -5.184  56.431  50.054  0.00  0.00    +0.000 HD
BRANCH  28  30
ATOM     30  C   UNL     1      -5.710  54.771  48.735  0.00  0.00    +0.000 C 
BRANCH  30  31
ATOM     31  C   UNL     1      -4.658  53.678  48.943  0.00  0.00    +0.000 C 
ATOM     32  C   UNL     1      -4.147  53.111  47.616  0.00  0.00    +0.000 C 
ATOM     33  C   UNL     1      -5.189  52.424  49.639  0.00  0.00    +0.000 C 
ATOM     34  C   UNL     1      -3.553  51.750  47.969  0.00  0.00    +0.000 C 
ATOM     35  C   UNL     1      -4.147  51.361  49.322  0.00  0.00    +0.000 C 
ENDBRANCH  30  31
ENDBRANCH  28  30
ENDBRANCH   5  28
TORSDOF 5
ENDMDL
MODEL 9
REMARK VINA RESULT:      -7.5      4.540      7.911
REMARK  Name = 
REMARK  5 active torsions:
REMARK  status: ('A' for Active; 'I' for Inactive)
REMARK    1  A    between atoms: C_6  and  C_10
REMARK    2  A    between atoms: C_14  and  O_18
REMARK    3  A    between atoms: N_17  and  N_20
REMARK    4  A    between atoms: N_20  and  C_23
REMARK    5  A    between atoms: C_23  and  C_26
REMARK                            x       y       z     vdW  Elec       q    Type
REMARK                         _______ _______ _______ _____ _____    ______ ____
ROOT
ATOM      1  C   UNL     1     -10.304  53.343  48.909  0.00  0.00    +0.000 A 
ATOM      2  C   UNL     1     -11.588  53.809  49.505  0.00  0.00    +0.000 A 
ATOM      3  C   UNL     1      -9.143  53.466  49.575  0.00  0.00    +0.000 A 
ATOM      4  O   UNL     1     -12.650  53.606  48.909  0.00  0.00    +0.000 OA
ATOM      5  N   UNL     1     -11.517  54.458  50.740  0.00  0.00    +0.000 N 
ATOM      6  C   UNL     1      -9.132  54.009  50.941  0.00  0.00    +0.000 A 
ATOM      7  C   UNL     1     -10.332  54.442  51.527  0.00  0.00    +0.000 A 
ATOM      8  C   UNL     1      -7.945  54.083  51.684  0.00  0.00    +0.000 A 
ATOM      9  C   UNL     1     -10.333  54.843  52.871  0.00  0.00    +0.000 A 
ATOM     10  C   UNL     1      -7.954  54.527  53.006  0.00  0.00    +0.000 A 
ATOM     11  C   UNL     1      -9.151  54.893  53.606  0.00  0.00    +0.000 A 
ENDROOT
BRANCH   1  17
ATOM     12  S   UNL     1     -10.953  50.660  46.163  0.00  0.00    +0.000 S 
ATOM     13  O   UNL     1     -12.324  50.698  45.679  0.00  0.00    +0.000 OA
ATOM     14  O   UNL     1     -10.288  49.397  46.393  0.00  0.00    +0.000 OA
ATOM     15  N   UNL     1     -10.900  51.523  47.529  0.00  0.00    +0.000 N 
ATOM     16  C   UNL     1     -10.000  51.502  44.951  0.00  0.00    +0.000 A 
ATOM     17  C   UNL     1     -10.314  52.680  47.567  0.00  0.00    +0.000 C 
ATOM     18  C   UNL     1      -9.497  52.756  45.268  0.00  0.00    +0.000 A 
ATOM     19  C   UNL     1      -9.763  50.898  43.712  0.00  0.00    +0.000 A 
ATOM     20  N   UNL     1      -9.735  53.343  46.510  0.00  0.00    +0.000 N 
ATOM     21  C   UNL     1      -8.787  53.449  44.282  0.00  0.00    +0.000 A 
ATOM     22  C   UNL     1      -9.026  51.586  42.753  0.00  0.00    +0.000 A 
ATOM     23  C   UNL     1      -8.545  52.864  43.035  0.00  0.00    +0.000 A 
ATOM     24  H   UNL     1     -11.320  51.165  48.344  0.00  0.00    +0.000 HD
ATOM     25  H   UNL     1      -9.475  54.283  46.637  0.00  0.00    +0.000 HD
ENDBRANCH   1  17
BRANCH   3  26
ATOM     26  O   UNL     1      -7.915  53.040  49.098  0.00  0.00    +0.000 OA
ATOM     27  H   UNL     1      -7.186  53.628  49.092  0.00  0.00    +0.000 HD
ENDBRANCH   3  26
BRANCH   5  28
ATOM     28  N   UNL     1     -12.725  55.039  51.255  0.00  0.00    +0.000 N 
ATOM     29  H   UNL     1     -13.250  54.652  51.993  0.00  0.00    +0.000 HD
BRANCH  28  30
ATOM     30  C   UNL     1     -13.087  56.284  50.550  0.00  0.00    +0.000 C 
BRANCH  30  31
ATOM     31  C   UNL     1     -14.212  57.028  51.273  0.00  0.00    +0.000 C 
ATOM     32  C   UNL     1     -14.362  58.468  50.776  0.00  0.00    +0.000 C 
ATOM     33  C   UNL     1     -13.965  57.234  52.769  0.00  0.00    +0.000 C 
ATOM     34  C   UNL     1     -15.103  59.199  51.893  0.00  0.00    +0.000 C 
ATOM     35  C   UNL     1     -14.933  58.347  53.149  0.00  0.00    +0.000 C 
ENDBRANCH  30  31
ENDBRANCH  28  30
ENDBRANCH   5  28
TORSDOF 5
ENDMDL
