MODEL 1
REMARK VINA RESULT:      -8.4      0.000      0.000
REMARK  Name = 
REMARK  5 active torsions:
REMARK  status: ('A' for Active; 'I' for Inactive)
REMARK    1  A    between atoms: C_6  and  C_10
REMARK    2  A    between atoms: C_14  and  O_18
REMARK    3  A    between atoms: N_17  and  N_20
REMARK    4  A    between atoms: N_20  and  C_23
REMARK    5  A    between atoms: C_23  and  C_26
REMARK                            x       y       z     vdW  Elec       q    Type
REMARK                         _______ _______ _______ _____ _____    ______ ____
ROOT
ATOM      1  C   UNL     1     -11.457  56.045  48.840  0.00  0.00    +0.000 A 
ATOM      2  C   UNL     1     -10.397  55.447  49.707  0.00  0.00    +0.000 A 
ATOM      3  C   UNL     1     -11.567  55.671  47.552  0.00  0.00    +0.000 A 
ATOM      4  O   UNL     1     -10.338  55.833  50.881  0.00  0.00    +0.000 OA
ATOM      5  N   UNL     1      -9.570  54.464  49.161  0.00  0.00    +0.000 N 
ATOM      6  C   UNL     1     -10.666  54.655  46.987  0.00  0.00    +0.000 A 
ATOM      7  C   UNL     1      -9.675  54.069  47.793  0.00  0.00    +0.000 A 
ATOM      8  C   UNL     1     -10.799  54.244  45.648  0.00  0.00    +0.000 A 
ATOM      9  C   UNL     1      -8.825  53.100  47.238  0.00  0.00    +0.000 A 
ATOM     10  C   UNL     1      -9.966  53.265  45.114  0.00  0.00    +0.000 A 
ATOM     11  C   UNL     1      -8.974  52.697  45.906  0.00  0.00    +0.000 A 
ENDROOT
BRANCH   1  17
ATOM     12  S   UNL     1     -13.576  59.296  49.461  0.00  0.00    +0.000 S 
ATOM     13  O   UNL     1     -14.710  59.395  48.561  0.00  0.00    +0.000 OA
ATOM     14  O   UNL     1     -12.780  60.468  49.771  0.00  0.00    +0.000 OA
ATOM     15  N   UNL     1     -12.580  58.161  48.869  0.00  0.00    +0.000 N 
ATOM     16  C   UNL     1     -14.217  58.726  50.992  0.00  0.00    +0.000 A 
ATOM     17  C   UNL     1     -12.448  57.011  49.459  0.00  0.00    +0.000 C 
ATOM     18  C   UNL     1     -13.903  57.437  51.388  0.00  0.00    +0.000 A 
ATOM     19  C   UNL     1     -15.003  59.572  51.779  0.00  0.00    +0.000 A 
ATOM     20  N   UNL     1     -13.125  56.602  50.589  0.00  0.00    +0.000 N 
ATOM     21  C   UNL     1     -14.461  56.955  52.576  0.00  0.00    +0.000 A 
ATOM     22  C   UNL     1     -15.520  59.093  52.980  0.00  0.00    +0.000 A 
ATOM     23  C   UNL     1     -15.259  57.781  53.374  0.00  0.00    +0.000 A 
ATOM     24  H   UNL     1     -12.067  58.347  48.050  0.00  0.00    +0.000 HD
ATOM     25  H   UNL     1     -13.054  55.655  50.850  0.00  0.00    +0.000 HD
ENDBRANCH   1  17
BRANCH   3  26
ATOM     26  O   UNL     1     -12.522  56.159  46.679  0.00  0.00    +0.000 OA
ATOM     27  H   UNL     1     -12.524  57.068  46.448  0.00  0.00    +0.000 HD
ENDBRANCH   3  26
BRANCH   5  28
ATOM     28  N   UNL     1      -8.547  53.845  49.965  0.00  0.00    +0.000 N 
ATOM     29  H   UNL     1      -8.645  52.947  50.357  0.00  0.00    +0.000 HD
BRANCH  28  30
ATOM     30  C   UNL     1      -7.339  54.672  50.153  0.00  0.00    +0.000 C 
BRANCH  30  31
ATOM     31  C   UNL     1      -7.063  54.956  51.606  0.00  0.00    +0.000 A 
ATOM     32  S   UNL     1      -6.594  53.679  52.661  0.00  0.00    +0.000 S 
ATOM     33  N   UNL     1      -7.251  56.127  52.185  0.00  0.00    +0.000 NA
ATOM     34  C   UNL     1      -6.664  54.762  53.985  0.00  0.00    +0.000 A 
ATOM     35  C   UNL     1      -7.024  56.015  53.543  0.00  0.00    +0.000 A 
ENDBRANCH  30  31
ENDBRANCH  28  30
ENDBRANCH   5  28
TORSDOF 5
ENDMDL
MODEL 2
REMARK VINA RESULT:      -8.3      3.284      4.909
REMARK  Name = 
REMARK  5 active torsions:
REMARK  status: ('A' for Active; 'I' for Inactive)
REMARK    1  A    between atoms: C_6  and  C_10
REMARK    2  A    between atoms: C_14  and  O_18
REMARK    3  A    between atoms: N_17  and  N_20
REMARK    4  A    between atoms: N_20  and  C_23
REMARK    5  A    between atoms: C_23  and  C_26
REMARK                            x       y       z     vdW  Elec       q    Type
REMARK                         _______ _______ _______ _____ _____    ______ ____
ROOT
ATOM      1  C   UNL     1     -10.127  54.541  52.192  0.00  0.00    +0.000 A 
ATOM      2  C   UNL     1      -8.755  55.097  51.988  0.00  0.00    +0.000 A 
ATOM      3  C   UNL     1     -10.308  53.446  52.953  0.00  0.00    +0.000 A 
ATOM      4  O   UNL     1      -8.647  56.100  51.274  0.00  0.00    +0.000 OA
ATOM      5  N   UNL     1      -7.687  54.482  52.646  0.00  0.00    +0.000 N 
ATOM      6  C   UNL     1      -9.166  52.796  53.614  0.00  0.00    +0.000 A 
ATOM      7  C   UNL     1      -7.870  53.315  53.448  0.00  0.00    +0.000 A 
ATOM      8  C   UNL     1      -9.358  51.668  54.432  0.00  0.00    +0.000 A 
ATOM      9  C   UNL     1      -6.792  52.683  54.087  0.00  0.00    +0.000 A 
ATOM     10  C   UNL     1      -8.285  51.062  55.079  0.00  0.00    +0.000 A 
ATOM     11  C   UNL     1      -7.001  51.565  54.902  0.00  0.00    +0.000 A 
ENDROOT
BRANCH   1  17
ATOM     12  S   UNL     1     -12.594  56.068  49.541  0.00  0.00    +0.000 S 
ATOM     13  O   UNL     1     -13.499  55.075  48.994  0.00  0.00    +0.000 OA
ATOM     14  O   UNL     1     -11.989  57.064  48.678  0.00  0.00    +0.000 OA
ATOM     15  N   UNL     1     -11.400  55.276  50.300  0.00  0.00    +0.000 N 
ATOM     16  C   UNL     1     -13.515  56.960  50.739  0.00  0.00    +0.000 A 
ATOM     17  C   UNL     1     -11.309  55.281  51.596  0.00  0.00    +0.000 C 
ATOM     18  C   UNL     1     -13.193  56.778  52.073  0.00  0.00    +0.000 A 
ATOM     19  C   UNL     1     -14.526  57.836  50.334  0.00  0.00    +0.000 A 
ATOM     20  N   UNL     1     -12.188  55.895  52.463  0.00  0.00    +0.000 N 
ATOM     21  C   UNL     1     -13.963  57.437  53.036  0.00  0.00    +0.000 A 
ATOM     22  C   UNL     1     -15.260  58.517  51.302  0.00  0.00    +0.000 A 
ATOM     23  C   UNL     1     -14.986  58.310  52.654  0.00  0.00    +0.000 A 
ATOM     24  H   UNL     1     -10.732  54.785  49.769  0.00  0.00    +0.000 HD
ATOM     25  H   UNL     1     -12.099  55.697  53.424  0.00  0.00    +0.000 HD
ENDBRANCH   1  17
BRANCH   3  26
ATOM     26  O   UNL     1     -11.539  52.870  53.208  0.00  0.00    +0.000 OA
ATOM     27  H   UNL     1     -12.172  52.795  52.521  0.00  0.00    +0.000 HD
ENDBRANCH   3  26
BRANCH   5  28
ATOM     28  N   UNL     1      -6.349  54.994  52.495  0.00  0.00    +0.000 N 
ATOM     29  H   UNL     1      -5.879  55.482  53.211  0.00  0.00    +0.000 HD
BRANCH  28  30
ATOM     30  C   UNL     1      -5.742  54.727  51.177  0.00  0.00    +0.000 C 
BRANCH  30  31
ATOM     31  C   UNL     1      -4.884  53.489  51.184  0.00  0.00    +0.000 A 
ATOM     32  S   UNL     1      -5.404  52.074  50.353  0.00  0.00    +0.000 S 
ATOM     33  N   UNL     1      -3.771  53.358  51.881  0.00  0.00    +0.000 NA
ATOM     34  C   UNL     1      -4.058  51.223  50.981  0.00  0.00    +0.000 A 
ATOM     35  C   UNL     1      -3.301  52.065  51.766  0.00  0.00    +0.000 A 
ENDBRANCH  30  31
ENDBRANCH  28  30
ENDBRANCH   5  28
TORSDOF 5
ENDMDL
MODEL 3
REMARK VINA RESULT:      -8.2      2.624      3.414
REMARK  Name = 
REMARK  5 active torsions:
REMARK  status: ('A' for Active; 'I' for Inactive)
REMARK    1  A    between atoms: C_6  and  C_10
REMARK    2  A    between atoms: C_14  and  O_18
REMARK    3  A    between atoms: N_17  and  N_20
REMARK    4  A    between atoms: N_20  and  C_23
REMARK    5  A    between atoms: C_23  and  C_26
REMARK                            x       y       z     vdW  Elec       q    Type
REMARK                         _______ _______ _______ _____ _____    ______ ____
ROOT
ATOM      1  C   UNL     1     -10.310  54.895  47.681  0.00  0.00    +0.000 A 
ATOM      2  C   UNL     1      -8.822  55.016  47.659  0.00  0.00    +0.000 A 
ATOM      3  C   UNL     1     -10.960  54.335  46.644  0.00  0.00    +0.000 A 
ATOM      4  O   UNL     1      -8.278  55.545  48.635  0.00  0.00    +0.000 OA
ATOM      5  N   UNL     1      -8.131  54.488  46.565  0.00  0.00    +0.000 N 
ATOM      6  C   UNL     1     -10.216  53.812  45.489  0.00  0.00    +0.000 A 
ATOM      7  C   UNL     1      -8.813  53.900  45.458  0.00  0.00    +0.000 A 
ATOM      8  C   UNL     1     -10.893  53.201  44.417  0.00  0.00    +0.000 A 
ATOM      9  C   UNL     1      -8.120  53.395  44.347  0.00  0.00    +0.000 A 
ATOM     10  C   UNL     1     -10.193  52.683  43.331  0.00  0.00    +0.000 A 
ATOM     11  C   UNL     1      -8.807  52.785  43.292  0.00  0.00    +0.000 A 
ENDROOT
BRANCH   1  17
ATOM     12  S   UNL     1     -11.697  54.945  51.359  0.00  0.00    +0.000 S 
ATOM     13  O   UNL     1     -10.714  55.427  52.311  0.00  0.00    +0.000 OA
ATOM     14  O   UNL     1     -12.543  53.813  51.685  0.00  0.00    +0.000 OA
ATOM     15  N   UNL     1     -10.913  54.600  49.981  0.00  0.00    +0.000 N 
ATOM     16  C   UNL     1     -12.782  56.290  51.055  0.00  0.00    +0.000 A 
ATOM     17  C   UNL     1     -11.059  55.339  48.923  0.00  0.00    +0.000 C 
ATOM     18  C   UNL     1     -12.731  56.898  49.813  0.00  0.00    +0.000 A 
ATOM     19  C   UNL     1     -13.676  56.705  52.047  0.00  0.00    +0.000 A 
ATOM     20  N   UNL     1     -11.829  56.480  48.837  0.00  0.00    +0.000 N 
ATOM     21  C   UNL     1     -13.549  58.010  49.586  0.00  0.00    +0.000 A 
ATOM     22  C   UNL     1     -14.514  57.788  51.793  0.00  0.00    +0.000 A 
ATOM     23  C   UNL     1     -14.442  58.448  50.567  0.00  0.00    +0.000 A 
ATOM     24  H   UNL     1     -10.318  53.816  49.947  0.00  0.00    +0.000 HD
ATOM     25  H   UNL     1     -11.736  57.037  48.030  0.00  0.00    +0.000 HD
ENDBRANCH   1  17
BRANCH   3  26
ATOM     26  O   UNL     1     -12.331  54.170  46.583  0.00  0.00    +0.000 OA
ATOM     27  H   UNL     1     -12.886  54.912  46.437  0.00  0.00    +0.000 HD
ENDBRANCH   3  26
BRANCH   5  28
ATOM     28  N   UNL     1      -6.693  54.564  46.508  0.00  0.00    +0.000 N 
ATOM     29  H   UNL     1      -6.213  55.343  46.144  0.00  0.00    +0.000 HD
BRANCH  28  30
ATOM     30  C   UNL     1      -6.001  53.374  47.040  0.00  0.00    +0.000 C 
BRANCH  30  31
ATOM     31  C   UNL     1      -5.663  53.516  48.500  0.00  0.00    +0.000 A 
ATOM     32  S   UNL     1      -6.426  52.504  49.666  0.00  0.00    +0.000 S 
ATOM     33  N   UNL     1      -4.873  54.451  48.995  0.00  0.00    +0.000 NA
ATOM     34  C   UNL     1      -5.663  53.388  50.918  0.00  0.00    +0.000 A 
ATOM     35  C   UNL     1      -4.876  54.379  50.374  0.00  0.00    +0.000 A 
ENDBRANCH  30  31
ENDBRANCH  28  30
ENDBRANCH   5  28
TORSDOF 5
ENDMDL
MODEL 4
REMARK VINA RESULT:      -8.1      1.981      2.455
REMARK  Name = 
REMARK  5 active torsions:
REMARK  status: ('A' for Active; 'I' for Inactive)
REMARK    1  A    between atoms: C_6  and  C_10
REMARK    2  A    between atoms: C_14  and  O_18
REMARK    3  A    between atoms: N_17  and  N_20
REMARK    4  A    between atoms: N_20  and  C_23
REMARK    5  A    between atoms: C_23  and  C_26
REMARK                            x       y       z     vdW  Elec       q    Type
REMARK                         _______ _______ _______ _____ _____    ______ ____
ROOT
ATOM      1  C   UNL     1     -10.665  55.866  48.451  0.00  0.00    +0.000 A 
ATOM      2  C   UNL     1      -9.243  55.879  48.908  0.00  0.00    +0.000 A 
ATOM      3  C   UNL     1     -10.998  55.267  47.293  0.00  0.00    +0.000 A 
ATOM      4  O   UNL     1      -8.993  56.449  49.976  0.00  0.00    +0.000 OA
ATOM      5  N   UNL     1      -8.291  55.213  48.132  0.00  0.00    +0.000 N 
ATOM      6  C   UNL     1      -9.976  54.597  46.475  0.00  0.00    +0.000 A 
ATOM      7  C   UNL     1      -8.636  54.583  46.898  0.00  0.00    +0.000 A 
ATOM      8  C   UNL     1     -10.329  53.947  45.278  0.00  0.00    +0.000 A 
ATOM      9  C   UNL     1      -7.674  53.938  46.105  0.00  0.00    +0.000 A 
ATOM     10  C   UNL     1      -9.371  53.290  44.511  0.00  0.00    +0.000 A 
ATOM     11  C   UNL     1      -8.042  53.290  44.920  0.00  0.00    +0.000 A 
ENDROOT
BRANCH   1  17
ATOM     12  S   UNL     1     -13.308  56.228  51.337  0.00  0.00    +0.000 S 
ATOM     13  O   UNL     1     -12.688  56.496  52.621  0.00  0.00    +0.000 OA
ATOM     14  O   UNL     1     -14.421  55.304  51.237  0.00  0.00    +0.000 OA
ATOM     15  N   UNL     1     -12.144  55.718  50.330  0.00  0.00    +0.000 N 
ATOM     16  C   UNL     1     -13.907  57.772  50.753  0.00  0.00    +0.000 A 
ATOM     17  C   UNL     1     -11.726  56.465  49.353  0.00  0.00    +0.000 C 
ATOM     18  C   UNL     1     -13.266  58.349  49.670  0.00  0.00    +0.000 A 
ATOM     19  C   UNL     1     -15.009  58.372  51.368  0.00  0.00    +0.000 A 
ATOM     20  N   UNL     1     -12.163  57.744  49.072  0.00  0.00    +0.000 N 
ATOM     21  C   UNL     1     -13.697  59.607  49.239  0.00  0.00    +0.000 A 
ATOM     22  C   UNL     1     -15.454  59.607  50.903  0.00  0.00    +0.000 A 
ATOM     23  C   UNL     1     -14.792  60.230  49.846  0.00  0.00    +0.000 A 
ATOM     24  H   UNL     1     -11.749  54.826  50.460  0.00  0.00    +0.000 HD
ATOM     25  H   UNL     1     -11.661  58.264  48.403  0.00  0.00    +0.000 HD
ENDBRANCH   1  17
BRANCH   3  26
ATOM     26  O   UNL     1     -12.287  55.194  46.797  0.00  0.00    +0.000 OA
ATOM     27  H   UNL     1     -13.003  55.526  47.304  0.00  0.00    +0.000 HD
ENDBRANCH   3  26
BRANCH   5  28
ATOM     28  N   UNL     1      -6.910  55.182  48.542  0.00  0.00    +0.000 N 
ATOM     29  H   UNL     1      -6.283  55.920  48.364  0.00  0.00    +0.000 HD
BRANCH  28  30
ATOM     30  C   UNL     1      -6.515  53.949  49.250  0.00  0.00    +0.000 C 
BRANCH  30  31
ATOM     31  C   UNL     1      -6.001  54.228  50.637  0.00  0.00    +0.000 A 
ATOM     32  S   UNL     1      -4.376  53.836  51.051  0.00  0.00    +0.000 S 
ATOM     33  N   UNL     1      -6.745  54.675  51.632  0.00  0.00    +0.000 NA
ATOM     34  C   UNL     1      -4.693  54.278  52.674  0.00  0.00    +0.000 A 
ATOM     35  C   UNL     1      -5.999  54.701  52.794  0.00  0.00    +0.000 A 
ENDBRANCH  30  31
ENDBRANCH  28  30
ENDBRANCH   5  28
TORSDOF 5
ENDMDL
MODEL 5
REMARK VINA RESULT:      -8.1      3.045      7.241
REMARK  Name = 
REMARK  5 active torsions:
REMARK  status: ('A' for Active; 'I' for Inactive)
REMARK    1  A    between atoms: C_6  and  C_10
REMARK    2  A    between atoms: C_14  and  O_18
REMARK    3  A    between atoms: N_17  and  N_20
REMARK    4  A    between atoms: N_20  and  C_23
REMARK    5  A    between atoms: C_23  and  C_26
REMARK                            x       y       z     vdW  Elec       q    Type
REMARK                         _______ _______ _______ _____ _____    ______ ____
ROOT
ATOM      1  C   UNL     1     -10.295  55.237  50.730  0.00  0.00    +0.000 A 
ATOM      2  C   UNL     1      -9.933  55.114  49.286  0.00  0.00    +0.000 A 
ATOM      3  C   UNL     1     -11.480  55.763  51.088  0.00  0.00    +0.000 A 
ATOM      4  O   UNL     1      -8.828  54.629  49.015  0.00  0.00    +0.000 OA
ATOM      5  N   UNL     1     -10.872  55.511  48.331  0.00  0.00    +0.000 N 
ATOM      6  C   UNL     1     -12.444  56.203  50.067  0.00  0.00    +0.000 A 
ATOM      7  C   UNL     1     -12.127  56.079  48.703  0.00  0.00    +0.000 A 
ATOM      8  C   UNL     1     -13.694  56.728  50.441  0.00  0.00    +0.000 A 
ATOM      9  C   UNL     1     -13.059  56.503  47.743  0.00  0.00    +0.000 A 
ATOM     10  C   UNL     1     -14.620  57.124  49.480  0.00  0.00    +0.000 A 
ATOM     11  C   UNL     1     -14.301  57.017  48.131  0.00  0.00    +0.000 A 
ENDROOT
BRANCH   1  17
ATOM     12  S   UNL     1      -7.059  54.733  52.902  0.00  0.00    +0.000 S 
ATOM     13  O   UNL     1      -6.946  55.719  53.960  0.00  0.00    +0.000 OA
ATOM     14  O   UNL     1      -5.891  54.339  52.138  0.00  0.00    +0.000 OA
ATOM     15  N   UNL     1      -8.182  55.261  51.859  0.00  0.00    +0.000 N 
ATOM     16  C   UNL     1      -7.656  53.268  53.663  0.00  0.00    +0.000 A 
ATOM     17  C   UNL     1      -9.342  54.682  51.770  0.00  0.00    +0.000 C 
ATOM     18  C   UNL     1      -8.952  52.871  53.378  0.00  0.00    +0.000 A 
ATOM     19  C   UNL     1      -6.825  52.533  54.513  0.00  0.00    +0.000 A 
ATOM     20  N   UNL     1      -9.772  53.618  52.536  0.00  0.00    +0.000 N 
ATOM     21  C   UNL     1      -9.455  51.740  54.029  0.00  0.00    +0.000 A 
ATOM     22  C   UNL     1      -7.327  51.386  55.123  0.00  0.00    +0.000 A 
ATOM     23  C   UNL     1      -8.645  50.995  54.891  0.00  0.00    +0.000 A 
ATOM     24  H   UNL     1      -7.980  56.033  51.282  0.00  0.00    +0.000 HD
ATOM     25  H   UNL     1     -10.723  53.369  52.483  0.00  0.00    +0.000 HD
ENDBRANCH   1  17
BRANCH   3  26
ATOM     26  O   UNL     1     -11.907  55.904  52.396  0.00  0.00    +0.000 OA
ATOM     27  H   UNL     1     -11.709  56.688  52.871  0.00  0.00    +0.000 HD
ENDBRANCH   3  26
BRANCH   5  28
ATOM     28  N   UNL     1     -10.574  55.394  46.926  0.00  0.00    +0.000 N 
ATOM     29  H   UNL     1      -9.969  56.012  46.454  0.00  0.00    +0.000 HD
BRANCH  28  30
ATOM     30  C   UNL     1     -11.255  54.270  46.253  0.00  0.00    +0.000 C 
BRANCH  30  31
ATOM     31  C   UNL     1     -10.386  53.622  45.207  0.00  0.00    +0.000 A 
ATOM     32  S   UNL     1      -8.679  53.844  45.243  0.00  0.00    +0.000 S 
ATOM     33  N   UNL     1     -10.847  52.951  44.168  0.00  0.00    +0.000 NA
ATOM     34  C   UNL     1      -8.549  53.001  43.759  0.00  0.00    +0.000 A 
ATOM     35  C   UNL     1      -9.799  52.599  43.341  0.00  0.00    +0.000 A 
ENDBRANCH  30  31
ENDBRANCH  28  30
ENDBRANCH   5  28
TORSDOF 5
ENDMDL
MODEL 6
REMARK VINA RESULT:      -8.0      3.071      4.308
REMARK  Name = 
REMARK  5 active torsions:
REMARK  status: ('A' for Active; 'I' for Inactive)
REMARK    1  A    between atoms: C_6  and  C_10
REMARK    2  A    between atoms: C_14  and  O_18
REMARK    3  A    between atoms: N_17  and  N_20
REMARK    4  A    between atoms: N_20  and  C_23
REMARK    5  A    between atoms: C_23  and  C_26
REMARK                            x       y       z     vdW  Elec       q    Type
REMARK                         _______ _______ _______ _____ _____    ______ ____
ROOT
ATOM      1  C   UNL     1     -12.429  54.294  49.688  0.00  0.00    +0.000 A 
ATOM      2  C   UNL     1     -11.984  54.181  48.266  0.00  0.00    +0.000 A 
ATOM      3  C   UNL     1     -12.041  53.378  50.593  0.00  0.00    +0.000 A 
ATOM      4  O   UNL     1     -12.376  55.048  47.476  0.00  0.00    +0.000 OA
ATOM      5  N   UNL     1     -11.122  53.137  47.923  0.00  0.00    +0.000 N 
ATOM      6  C   UNL     1     -11.157  52.268  50.205  0.00  0.00    +0.000 A 
ATOM      7  C   UNL     1     -10.714  52.156  48.876  0.00  0.00    +0.000 A 
ATOM      8  C   UNL     1     -10.730  51.326  51.158  0.00  0.00    +0.000 A 
ATOM      9  C   UNL     1      -9.869  51.092  48.523  0.00  0.00    +0.000 A 
ATOM     10  C   UNL     1      -9.874  50.287  50.802  0.00  0.00    +0.000 A 
ATOM     11  C   UNL     1      -9.448  50.166  49.484  0.00  0.00    +0.000 A 
ENDROOT
BRANCH   1  17
ATOM     12  S   UNL     1     -15.350  56.457  51.185  0.00  0.00    +0.000 S 
ATOM     13  O   UNL     1     -15.270  56.565  52.630  0.00  0.00    +0.000 OA
ATOM     14  O   UNL     1     -16.629  56.252  50.533  0.00  0.00    +0.000 OA
ATOM     15  N   UNL     1     -14.361  55.254  50.730  0.00  0.00    +0.000 N 
ATOM     16  C   UNL     1     -14.717  57.964  50.548  0.00  0.00    +0.000 A 
ATOM     17  C   UNL     1     -13.252  55.500  50.101  0.00  0.00    +0.000 C 
ATOM     18  C   UNL     1     -13.492  57.933  49.902  0.00  0.00    +0.000 A 
ATOM     19  C   UNL     1     -15.452  59.145  50.685  0.00  0.00    +0.000 A 
ATOM     20  N   UNL     1     -12.766  56.751  49.780  0.00  0.00    +0.000 N 
ATOM     21  C   UNL     1     -12.953  59.140  49.447  0.00  0.00    +0.000 A 
ATOM     22  C   UNL     1     -14.921  60.334  50.191  0.00  0.00    +0.000 A 
ATOM     23  C   UNL     1     -13.667  60.334  49.582  0.00  0.00    +0.000 A 
ATOM     24  H   UNL     1     -14.607  54.323  50.934  0.00  0.00    +0.000 HD
ATOM     25  H   UNL     1     -11.843  56.812  49.442  0.00  0.00    +0.000 HD
ENDBRANCH   1  17
BRANCH   3  26
ATOM     26  O   UNL     1     -12.392  53.407  51.930  0.00  0.00    +0.000 OA
ATOM     27  H   UNL     1     -13.128  53.917  52.210  0.00  0.00    +0.000 HD
ENDBRANCH   3  26
BRANCH   5  28
ATOM     28  N   UNL     1     -10.651  52.999  46.568  0.00  0.00    +0.000 N 
ATOM     29  H   UNL     1     -10.902  52.242  45.989  0.00  0.00    +0.000 HD
BRANCH  28  30
ATOM     30  C   UNL     1      -9.758  54.086  46.122  0.00  0.00    +0.000 C 
BRANCH  30  31
ATOM     31  C   UNL     1      -8.397  54.004  46.759  0.00  0.00    +0.000 A 
ATOM     32  S   UNL     1      -8.009  55.013  48.100  0.00  0.00    +0.000 S 
ATOM     33  N   UNL     1      -7.403  53.266  46.301  0.00  0.00    +0.000 NA
ATOM     34  C   UNL     1      -6.397  54.437  48.053  0.00  0.00    +0.000 A 
ATOM     35  C   UNL     1      -6.262  53.515  47.038  0.00  0.00    +0.000 A 
ENDBRANCH  30  31
ENDBRANCH  28  30
ENDBRANCH   5  28
TORSDOF 5
ENDMDL
MODEL 7
REMARK VINA RESULT:      -8.0      2.150      7.169
REMARK  Name = 
REMARK  5 active torsions:
REMARK  status: ('A' for Active; 'I' for Inactive)
REMARK    1  A    between atoms: C_6  and  C_10
REMARK    2  A    between atoms: C_14  and  O_18
REMARK    3  A    between atoms: N_17  and  N_20
REMARK    4  A    between atoms: N_20  and  C_23
REMARK    5  A    between atoms: C_23  and  C_26
REMARK                            x       y       z     vdW  Elec       q    Type
REMARK                         _______ _______ _______ _____ _____    ______ ____
ROOT
ATOM      1  C   UNL     1      -9.113  54.341  49.966  0.00  0.00    +0.000 A 
ATOM      2  C   UNL     1     -10.197  55.361  50.092  0.00  0.00    +0.000 A 
ATOM      3  C   UNL     1      -8.978  53.633  48.830  0.00  0.00    +0.000 A 
ATOM      4  O   UNL     1     -10.277  55.978  51.161  0.00  0.00    +0.000 OA
ATOM      5  N   UNL     1     -11.022  55.590  48.989  0.00  0.00    +0.000 N 
ATOM      6  C   UNL     1      -9.877  53.868  47.690  0.00  0.00    +0.000 A 
ATOM      7  C   UNL     1     -10.891  54.837  47.783  0.00  0.00    +0.000 A 
ATOM      8  C   UNL     1      -9.719  53.147  46.492  0.00  0.00    +0.000 A 
ATOM      9  C   UNL     1     -11.739  55.049  46.685  0.00  0.00    +0.000 A 
ATOM     10  C   UNL     1     -10.551  53.382  45.401  0.00  0.00    +0.000 A 
ATOM     11  C   UNL     1     -11.565  54.328  45.499  0.00  0.00    +0.000 A 
ENDROOT
BRANCH   1  17
ATOM     12  S   UNL     1      -7.662  54.091  53.610  0.00  0.00    +0.000 S 
ATOM     13  O   UNL     1      -7.889  52.787  54.205  0.00  0.00    +0.000 OA
ATOM     14  O   UNL     1      -7.832  55.297  54.397  0.00  0.00    +0.000 OA
ATOM     15  N   UNL     1      -8.620  54.207  52.307  0.00  0.00    +0.000 N 
ATOM     16  C   UNL     1      -5.992  54.096  53.071  0.00  0.00    +0.000 A 
ATOM     17  C   UNL     1      -8.125  54.182  51.106  0.00  0.00    +0.000 C 
ATOM     18  C   UNL     1      -5.750  54.076  51.708  0.00  0.00    +0.000 A 
ATOM     19  C   UNL     1      -4.955  54.138  54.008  0.00  0.00    +0.000 A 
ATOM     20  N   UNL     1      -6.792  54.025  50.786  0.00  0.00    +0.000 N 
ATOM     21  C   UNL     1      -4.422  54.016  51.272  0.00  0.00    +0.000 A 
ATOM     22  C   UNL     1      -3.636  54.119  53.559  0.00  0.00    +0.000 A 
ATOM     23  C   UNL     1      -3.369  54.047  52.192  0.00  0.00    +0.000 A 
ATOM     24  H   UNL     1      -9.592  54.298  52.429  0.00  0.00    +0.000 HD
ATOM     25  H   UNL     1      -6.563  53.867  49.842  0.00  0.00    +0.000 HD
ENDBRANCH   1  17
BRANCH   3  26
ATOM     26  O   UNL     1      -8.000  52.679  48.618  0.00  0.00    +0.000 OA
ATOM     27  H   UNL     1      -7.273  52.615  49.208  0.00  0.00    +0.000 HD
ENDBRANCH   3  26
BRANCH   5  28
ATOM     28  N   UNL     1     -12.069  56.578  49.056  0.00  0.00    +0.000 N 
ATOM     29  H   UNL     1     -11.958  57.498  48.721  0.00  0.00    +0.000 HD
BRANCH  28  30
ATOM     30  C   UNL     1     -13.320  56.096  49.673  0.00  0.00    +0.000 C 
BRANCH  30  31
ATOM     31  C   UNL     1     -13.750  56.952  50.834  0.00  0.00    +0.000 A 
ATOM     32  S   UNL     1     -14.268  58.573  50.568  0.00  0.00    +0.000 S 
ATOM     33  N   UNL     1     -13.669  56.586  52.100  0.00  0.00    +0.000 NA
ATOM     34  C   UNL     1     -14.375  58.806  52.261  0.00  0.00    +0.000 A 
ATOM     35  C   UNL     1     -14.024  57.645  52.913  0.00  0.00    +0.000 A 
ENDBRANCH  30  31
ENDBRANCH  28  30
ENDBRANCH   5  28
TORSDOF 5
ENDMDL
MODEL 8
REMARK VINA RESULT:      -8.0      3.314      5.422
REMARK  Name = 
REMARK  5 active torsions:
REMARK  status: ('A' for Active; 'I' for Inactive)
REMARK    1  A    between atoms: C_6  and  C_10
REMARK    2  A    between atoms: C_14  and  O_18
REMARK    3  A    between atoms: N_17  and  N_20
REMARK    4  A    between atoms: N_20  and  C_23
REMARK    5  A    between atoms: C_23  and  C_26
REMARK                            x       y       z     vdW  Elec       q    Type
REMARK                         _______ _______ _______ _____ _____    ______ ____
ROOT
ATOM      1  C   UNL     1     -12.310  54.273  50.170  0.00  0.00    +0.000 A 
ATOM      2  C   UNL     1     -12.094  53.864  48.750  0.00  0.00    +0.000 A 
ATOM      3  C   UNL     1     -11.704  53.603  51.167  0.00  0.00    +0.000 A 
ATOM      4  O   UNL     1     -12.682  54.511  47.875  0.00  0.00    +0.000 OA
ATOM      5  N   UNL     1     -11.213  52.812  48.490  0.00  0.00    +0.000 N 
ATOM      6  C   UNL     1     -10.803  52.478  50.874  0.00  0.00    +0.000 A 
ATOM      7  C   UNL     1     -10.573  52.091  49.543  0.00  0.00    +0.000 A 
ATOM      8  C   UNL     1     -10.147  51.796  51.915  0.00  0.00    +0.000 A 
ATOM      9  C   UNL     1      -9.709  51.016  49.282  0.00  0.00    +0.000 A 
ATOM     10  C   UNL     1      -9.274  50.746  51.644  0.00  0.00    +0.000 A 
ATOM     11  C   UNL     1      -9.060  50.351  50.328  0.00  0.00    +0.000 A 
ENDROOT
BRANCH   1  17
ATOM     12  S   UNL     1     -15.291  56.522  51.397  0.00  0.00    +0.000 S 
ATOM     13  O   UNL     1     -15.251  56.756  52.829  0.00  0.00    +0.000 OA
ATOM     14  O   UNL     1     -16.550  56.247  50.732  0.00  0.00    +0.000 OA
ATOM     15  N   UNL     1     -14.279  55.297  51.074  0.00  0.00    +0.000 N 
ATOM     16  C   UNL     1     -14.655  57.976  50.648  0.00  0.00    +0.000 A 
ATOM     17  C   UNL     1     -13.155  55.500  50.455  0.00  0.00    +0.000 C 
ATOM     18  C   UNL     1     -13.413  57.903  50.040  0.00  0.00    +0.000 A 
ATOM     19  C   UNL     1     -15.405  59.156  50.663  0.00  0.00    +0.000 A 
ATOM     20  N   UNL     1     -12.673  56.724  50.040  0.00  0.00    +0.000 N 
ATOM     21  C   UNL     1     -12.873  59.073  49.496  0.00  0.00    +0.000 A 
ATOM     22  C   UNL     1     -14.872  60.304  50.082  0.00  0.00    +0.000 A 
ATOM     23  C   UNL     1     -13.602  60.266  49.509  0.00  0.00    +0.000 A 
ATOM     24  H   UNL     1     -14.522  54.384  51.352  0.00  0.00    +0.000 HD
ATOM     25  H   UNL     1     -11.742  56.767  49.722  0.00  0.00    +0.000 HD
ENDBRANCH   1  17
BRANCH   3  26
ATOM     26  O   UNL     1     -11.834  53.916  52.508  0.00  0.00    +0.000 OA
ATOM     27  H   UNL     1     -11.466  53.350  53.159  0.00  0.00    +0.000 HD
ENDBRANCH   3  26
BRANCH   5  28
ATOM     28  N   UNL     1     -10.958  52.394  47.134  0.00  0.00    +0.000 N 
ATOM     29  H   UNL     1     -11.400  51.615  46.723  0.00  0.00    +0.000 HD
BRANCH  28  30
ATOM     30  C   UNL     1      -9.978  53.232  46.416  0.00  0.00    +0.000 C 
BRANCH  30  31
ATOM     31  C   UNL     1      -9.662  52.691  45.047  0.00  0.00    +0.000 A 
ATOM     32  S   UNL     1      -8.242  51.751  44.796  0.00  0.00    +0.000 S 
ATOM     33  N   UNL     1     -10.356  52.968  43.958  0.00  0.00    +0.000 NA
ATOM     34  C   UNL     1      -8.567  51.726  43.115  0.00  0.00    +0.000 A 
ATOM     35  C   UNL     1      -9.729  52.419  42.856  0.00  0.00    +0.000 A 
ENDBRANCH  30  31
ENDBRANCH  28  30
ENDBRANCH   5  28
TORSDOF 5
ENDMDL
MODEL 9
REMARK VINA RESULT:      -8.0      2.937      6.966
REMARK  Name = 
REMARK  5 active torsions:
REMARK  status: ('A' for Active; 'I' for Inactive)
REMARK    1  A    between atoms: C_6  and  C_10
REMARK    2  A    between atoms: C_14  and  O_18
REMARK    3  A    between atoms: N_17  and  N_20
REMARK    4  A    between atoms: N_20  and  C_23
REMARK    5  A    between atoms: C_23  and  C_26
REMARK                            x       y       z     vdW  Elec       q    Type
REMARK                         _______ _______ _______ _____ _____    ______ ____
ROOT
ATOM      1  C   UNL     1     -11.329  54.624  48.366  0.00  0.00    +0.000 A 
ATOM      2  C   UNL     1     -11.171  54.093  49.753  0.00  0.00    +0.000 A 
ATOM      3  C   UNL     1     -12.169  55.646  48.124  0.00  0.00    +0.000 A 
ATOM      4  O   UNL     1     -10.390  53.148  49.916  0.00  0.00    +0.000 OA
ATOM      5  N   UNL     1     -11.874  54.717  50.785  0.00  0.00    +0.000 N 
ATOM      6  C   UNL     1     -12.924  56.271  49.220  0.00  0.00    +0.000 A 
ATOM      7  C   UNL     1     -12.774  55.797  50.535  0.00  0.00    +0.000 A 
ATOM      8  C   UNL     1     -13.781  57.359  48.972  0.00  0.00    +0.000 A 
ATOM      9  C   UNL     1     -13.502  56.406  51.570  0.00  0.00    +0.000 A 
ATOM     10  C   UNL     1     -14.480  57.970  50.009  0.00  0.00    +0.000 A 
ATOM     11  C   UNL     1     -14.346  57.491  51.307  0.00  0.00    +0.000 A 
ENDROOT
BRANCH   1  17
ATOM     12  S   UNL     1      -8.217  53.921  46.069  0.00  0.00    +0.000 S 
ATOM     13  O   UNL     1      -7.272  53.009  46.686  0.00  0.00    +0.000 OA
ATOM     14  O   UNL     1      -7.748  55.083  45.340  0.00  0.00    +0.000 OA
ATOM     15  N   UNL     1      -9.228  54.435  47.228  0.00  0.00    +0.000 N 
ATOM     16  C   UNL     1      -9.136  52.965  44.918  0.00  0.00    +0.000 A 
ATOM     17  C   UNL     1     -10.467  54.044  47.261  0.00  0.00    +0.000 C 
ATOM     18  C   UNL     1     -10.465  52.703  45.206  0.00  0.00    +0.000 A 
ATOM     19  C   UNL     1      -8.528  52.509  43.745  0.00  0.00    +0.000 A 
ATOM     20  N   UNL     1     -11.055  53.157  46.383  0.00  0.00    +0.000 N 
ATOM     21  C   UNL     1     -11.185  51.891  44.325  0.00  0.00    +0.000 A 
ATOM     22  C   UNL     1      -9.269  51.734  42.856  0.00  0.00    +0.000 A 
ATOM     23  C   UNL     1     -10.594  51.415  43.151  0.00  0.00    +0.000 A 
ATOM     24  H   UNL     1      -8.897  55.054  47.918  0.00  0.00    +0.000 HD
ATOM     25  H   UNL     1     -11.955  52.822  46.604  0.00  0.00    +0.000 HD
ENDBRANCH   1  17
BRANCH   3  26
ATOM     26  O   UNL     1     -12.370  56.211  46.877  0.00  0.00    +0.000 OA
ATOM     27  H   UNL     1     -12.886  56.990  46.794  0.00  0.00    +0.000 HD
ENDBRANCH   3  26
BRANCH   5  28
ATOM     28  N   UNL     1     -11.739  54.253  52.143  0.00  0.00    +0.000 N 
ATOM     29  H   UNL     1     -12.409  53.679  52.580  0.00  0.00    +0.000 HD
BRANCH  28  30
ATOM     30  C   UNL     1     -10.512  54.712  52.822  0.00  0.00    +0.000 C 
BRANCH  30  31
ATOM     31  C   UNL     1      -9.736  53.573  53.429  0.00  0.00    +0.000 A 
ATOM     32  S   UNL     1      -8.019  53.536  53.308  0.00  0.00    +0.000 S 
ATOM     33  N   UNL     1     -10.287  52.508  53.983  0.00  0.00    +0.000 NA
ATOM     34  C   UNL     1      -8.012  51.984  54.030  0.00  0.00    +0.000 A 
ATOM     35  C   UNL     1      -9.302  51.602  54.324  0.00  0.00    +0.000 A 
ENDBRANCH  30  31
ENDBRANCH  28  30
ENDBRANCH   5  28
TORSDOF 5
ENDMDL
