MODEL 1
REMARK VINA RESULT:      -8.4      0.000      0.000
REMARK  Name = 
REMARK  5 active torsions:
REMARK  status: ('A' for Active; 'I' for Inactive)
REMARK    1  A    between atoms: C_6  and  C_10
REMARK    2  A    between atoms: C_14  and  O_18
REMARK    3  A    between atoms: N_17  and  N_20
REMARK    4  A    between atoms: N_20  and  C_23
REMARK    5  A    between atoms: C_23  and  C_26
REMARK                            x       y       z     vdW  Elec       q    Type
REMARK                         _______ _______ _______ _____ _____    ______ ____
ROOT
ATOM      1  C   UNL     1     -10.127  54.568  52.196  0.00  0.00    +0.000 A 
ATOM      2  C   UNL     1      -8.762  55.136  51.996  0.00  0.00    +0.000 A 
ATOM      3  C   UNL     1     -10.301  53.465  52.944  0.00  0.00    +0.000 A 
ATOM      4  O   UNL     1      -8.667  56.144  51.286  0.00  0.00    +0.000 OA
ATOM      5  N   UNL     1      -7.684  54.518  52.638  0.00  0.00    +0.000 N 
ATOM      6  C   UNL     1      -9.157  52.821  53.604  0.00  0.00    +0.000 A 
ATOM      7  C   UNL     1      -7.864  53.350  53.440  0.00  0.00    +0.000 A 
ATOM      8  C   UNL     1      -9.345  51.687  54.413  0.00  0.00    +0.000 A 
ATOM      9  C   UNL     1      -6.782  52.719  54.078  0.00  0.00    +0.000 A 
ATOM     10  C   UNL     1      -8.267  51.081  55.056  0.00  0.00    +0.000 A 
ATOM     11  C   UNL     1      -6.987  51.596  54.884  0.00  0.00    +0.000 A 
ENDROOT
BRANCH   1  17
ATOM     12  S   UNL     1     -12.573  56.096  49.525  0.00  0.00    +0.000 S 
ATOM     13  O   UNL     1     -13.469  55.099  48.971  0.00  0.00    +0.000 OA
ATOM     14  O   UNL     1     -11.966  57.099  48.673  0.00  0.00    +0.000 OA
ATOM     15  N   UNL     1     -11.381  55.307  50.293  0.00  0.00    +0.000 N 
ATOM     16  C   UNL     1     -13.508  56.980  50.719  0.00  0.00    +0.000 A 
ATOM     17  C   UNL     1     -11.312  55.298  51.590  0.00  0.00    +0.000 C 
ATOM     18  C   UNL     1     -13.203  56.782  52.058  0.00  0.00    +0.000 A 
ATOM     19  C   UNL     1     -14.514  57.858  50.310  0.00  0.00    +0.000 A 
ATOM     20  N   UNL     1     -12.210  55.892  52.452  0.00  0.00    +0.000 N 
ATOM     21  C   UNL     1     -13.985  57.438  53.016  0.00  0.00    +0.000 A 
ATOM     22  C   UNL     1     -15.259  58.533  51.275  0.00  0.00    +0.000 A 
ATOM     23  C   UNL     1     -15.000  58.316  52.627  0.00  0.00    +0.000 A 
ATOM     24  H   UNL     1     -10.700  54.829  49.768  0.00  0.00    +0.000 HD
ATOM     25  H   UNL     1     -12.143  55.672  53.409  0.00  0.00    +0.000 HD
ENDBRANCH   1  17
BRANCH   3  26
ATOM     26  O   UNL     1     -11.528  52.871  53.182  0.00  0.00    +0.000 OA
ATOM     27  H   UNL     1     -12.073  53.182  53.878  0.00  0.00    +0.000 HD
ENDBRANCH   3  26
BRANCH   5  28
ATOM     28  N   UNL     1      -6.337  54.997  52.429  0.00  0.00    +0.000 N 
ATOM     29  H   UNL     1      -5.828  55.473  53.125  0.00  0.00    +0.000 HD
BRANCH  28  30
ATOM     30  C   UNL     1      -5.788  54.716  51.095  0.00  0.00    +0.000 C 
BRANCH  30  31
ATOM     31  C   UNL     1      -4.960  53.478  51.143  0.00  0.00    +0.000 A 
ATOM     32  C   UNL     1      -5.270  52.262  50.565  0.00  0.00    +0.000 A 
ATOM     33  C   UNL     1      -3.671  53.299  51.722  0.00  0.00    +0.000 A 
ATOM     34  O   UNL     1      -4.271  51.366  50.751  0.00  0.00    +0.000 OA
ATOM     35  C   UNL     1      -3.301  52.002  51.453  0.00  0.00    +0.000 A 
ENDBRANCH  30  31
ENDBRANCH  28  30
ENDBRANCH   5  28
TORSDOF 5
ENDMDL
MODEL 2
REMARK VINA RESULT:      -8.3      2.409      3.337
REMARK  Name = 
REMARK  5 active torsions:
REMARK  status: ('A' for Active; 'I' for Inactive)
REMARK    1  A    between atoms: C_6  and  C_10
REMARK    2  A    between atoms: C_14  and  O_18
REMARK    3  A    between atoms: N_17  and  N_20
REMARK    4  A    between atoms: N_20  and  C_23
REMARK    5  A    between atoms: C_23  and  C_26
REMARK                            x       y       z     vdW  Elec       q    Type
REMARK                         _______ _______ _______ _____ _____    ______ ____
ROOT
ATOM      1  C   UNL     1     -11.740  54.037  51.275  0.00  0.00    +0.000 A 
ATOM      2  C   UNL     1     -10.914  54.030  52.518  0.00  0.00    +0.000 A 
ATOM      3  C   UNL     1     -11.780  52.955  50.480  0.00  0.00    +0.000 A 
ATOM      4  O   UNL     1     -10.909  55.061  53.199  0.00  0.00    +0.000 OA
ATOM      5  N   UNL     1     -10.224  52.860  52.850  0.00  0.00    +0.000 N 
ATOM      6  C   UNL     1     -11.040  51.736  50.837  0.00  0.00    +0.000 A 
ATOM      7  C   UNL     1     -10.269  51.704  52.013  0.00  0.00    +0.000 A 
ATOM      8  C   UNL     1     -11.109  50.594  50.021  0.00  0.00    +0.000 A 
ATOM      9  C   UNL     1      -9.567  50.530  52.337  0.00  0.00    +0.000 A 
ATOM     10  C   UNL     1     -10.425  49.428  50.364  0.00  0.00    +0.000 A 
ATOM     11  C   UNL     1      -9.652  49.400  51.519  0.00  0.00    +0.000 A 
ENDROOT
BRANCH   1  17
ATOM     12  S   UNL     1     -13.314  57.058  49.313  0.00  0.00    +0.000 S 
ATOM     13  O   UNL     1     -14.409  56.643  48.458  0.00  0.00    +0.000 OA
ATOM     14  O   UNL     1     -12.345  58.032  48.851  0.00  0.00    +0.000 OA
ATOM     15  N   UNL     1     -12.506  55.721  49.752  0.00  0.00    +0.000 N 
ATOM     16  C   UNL     1     -14.051  57.753  50.746  0.00  0.00    +0.000 A 
ATOM     17  C   UNL     1     -12.576  55.266  50.967  0.00  0.00    +0.000 C 
ATOM     18  C   UNL     1     -13.961  57.040  51.932  0.00  0.00    +0.000 A 
ATOM     19  C   UNL     1     -14.693  58.991  50.672  0.00  0.00    +0.000 A 
ATOM     20  N   UNL     1     -13.333  55.801  51.989  0.00  0.00    +0.000 N 
ATOM     21  C   UNL     1     -14.598  57.561  53.064  0.00  0.00    +0.000 A 
ATOM     22  C   UNL     1     -15.290  59.514  51.816  0.00  0.00    +0.000 A 
ATOM     23  C   UNL     1     -15.251  58.795  53.009  0.00  0.00    +0.000 A 
ATOM     24  H   UNL     1     -11.953  55.249  49.089  0.00  0.00    +0.000 HD
ATOM     25  H   UNL     1     -13.436  55.270  52.811  0.00  0.00    +0.000 HD
ENDBRANCH   1  17
BRANCH   3  26
ATOM     26  O   UNL     1     -12.516  52.873  49.310  0.00  0.00    +0.000 OA
ATOM     27  H   UNL     1     -13.063  52.130  49.151  0.00  0.00    +0.000 HD
ENDBRANCH   3  26
BRANCH   5  28
ATOM     28  N   UNL     1      -9.367  52.823  54.013  0.00  0.00    +0.000 N 
ATOM     29  H   UNL     1      -9.718  52.734  54.929  0.00  0.00    +0.000 HD
BRANCH  28  30
ATOM     30  C   UNL     1      -7.932  52.929  53.718  0.00  0.00    +0.000 C 
BRANCH  30  31
ATOM     31  C   UNL     1      -7.601  54.327  53.322  0.00  0.00    +0.000 A 
ATOM     32  C   UNL     1      -7.396  55.393  54.177  0.00  0.00    +0.000 A 
ATOM     33  C   UNL     1      -7.365  54.843  52.016  0.00  0.00    +0.000 A 
ATOM     34  O   UNL     1      -7.057  56.510  53.487  0.00  0.00    +0.000 OA
ATOM     35  C   UNL     1      -7.037  56.169  52.175  0.00  0.00    +0.000 A 
ENDBRANCH  30  31
ENDBRANCH  28  30
ENDBRANCH   5  28
TORSDOF 5
ENDMDL
MODEL 3
REMARK VINA RESULT:      -8.3      3.258      4.842
REMARK  Name = 
REMARK  5 active torsions:
REMARK  status: ('A' for Active; 'I' for Inactive)
REMARK    1  A    between atoms: C_6  and  C_10
REMARK    2  A    between atoms: C_14  and  O_18
REMARK    3  A    between atoms: N_17  and  N_20
REMARK    4  A    between atoms: N_20  and  C_23
REMARK    5  A    between atoms: C_23  and  C_26
REMARK                            x       y       z     vdW  Elec       q    Type
REMARK                         _______ _______ _______ _____ _____    ______ ____
ROOT
ATOM      1  C   UNL     1     -11.426  56.040  48.815  0.00  0.00    +0.000 A 
ATOM      2  C   UNL     1     -10.345  55.482  49.678  0.00  0.00    +0.000 A 
ATOM      3  C   UNL     1     -11.535  55.659  47.531  0.00  0.00    +0.000 A 
ATOM      4  O   UNL     1     -10.290  55.883  50.846  0.00  0.00    +0.000 OA
ATOM      5  N   UNL     1      -9.483  54.527  49.130  0.00  0.00    +0.000 N 
ATOM      6  C   UNL     1     -10.615  54.662  46.966  0.00  0.00    +0.000 A 
ATOM      7  C   UNL     1      -9.599  54.111  47.768  0.00  0.00    +0.000 A 
ATOM      8  C   UNL     1     -10.751  54.239  45.633  0.00  0.00    +0.000 A 
ATOM      9  C   UNL     1      -8.728  53.160  47.209  0.00  0.00    +0.000 A 
ATOM     10  C   UNL     1      -9.894  53.280  45.096  0.00  0.00    +0.000 A 
ATOM     11  C   UNL     1      -8.882  52.746  45.884  0.00  0.00    +0.000 A 
ENDROOT
BRANCH   1  17
ATOM     12  S   UNL     1     -13.561  59.278  49.457  0.00  0.00    +0.000 S 
ATOM     13  O   UNL     1     -14.696  59.371  48.558  0.00  0.00    +0.000 OA
ATOM     14  O   UNL     1     -12.774  60.452  49.776  0.00  0.00    +0.000 OA
ATOM     15  N   UNL     1     -12.557  58.152  48.859  0.00  0.00    +0.000 N 
ATOM     16  C   UNL     1     -14.197  58.694  50.985  0.00  0.00    +0.000 A 
ATOM     17  C   UNL     1     -12.429  56.995  49.436  0.00  0.00    +0.000 C 
ATOM     18  C   UNL     1     -13.884  57.397  51.364  0.00  0.00    +0.000 A 
ATOM     19  C   UNL     1     -14.982  59.530  51.782  0.00  0.00    +0.000 A 
ATOM     20  N   UNL     1     -13.115  56.569  50.554  0.00  0.00    +0.000 N 
ATOM     21  C   UNL     1     -14.438  56.906  52.552  0.00  0.00    +0.000 A 
ATOM     22  C   UNL     1     -15.495  59.040  52.980  0.00  0.00    +0.000 A 
ATOM     23  C   UNL     1     -15.231  57.725  53.360  0.00  0.00    +0.000 A 
ATOM     24  H   UNL     1     -12.037  58.349  48.047  0.00  0.00    +0.000 HD
ATOM     25  H   UNL     1     -13.057  55.616  50.793  0.00  0.00    +0.000 HD
ENDBRANCH   1  17
BRANCH   3  26
ATOM     26  O   UNL     1     -12.504  56.125  46.660  0.00  0.00    +0.000 OA
ATOM     27  H   UNL     1     -12.429  56.982  46.290  0.00  0.00    +0.000 HD
ENDBRANCH   3  26
BRANCH   5  28
ATOM     28  N   UNL     1      -8.387  53.999  49.909  0.00  0.00    +0.000 N 
ATOM     29  H   UNL     1      -8.412  53.108  50.327  0.00  0.00    +0.000 HD
BRANCH  28  30
ATOM     30  C   UNL     1      -7.232  54.899  50.026  0.00  0.00    +0.000 C 
BRANCH  30  31
ATOM     31  C   UNL     1      -6.825  55.012  51.455  0.00  0.00    +0.000 A 
ATOM     32  C   UNL     1      -5.833  54.283  52.084  0.00  0.00    +0.000 A 
ATOM     33  C   UNL     1      -7.309  55.916  52.443  0.00  0.00    +0.000 A 
ATOM     34  O   UNL     1      -5.684  54.677  53.373  0.00  0.00    +0.000 OA
ATOM     35  C   UNL     1      -6.581  55.671  53.584  0.00  0.00    +0.000 A 
ENDBRANCH  30  31
ENDBRANCH  28  30
ENDBRANCH   5  28
TORSDOF 5
ENDMDL
MODEL 4
REMARK VINA RESULT:      -8.2      2.042      2.403
REMARK  Name = 
REMARK  5 active torsions:
REMARK  status: ('A' for Active; 'I' for Inactive)
REMARK    1  A    between atoms: C_6  and  C_10
REMARK    2  A    between atoms: C_14  and  O_18
REMARK    3  A    between atoms: N_17  and  N_20
REMARK    4  A    between atoms: N_20  and  C_23
REMARK    5  A    between atoms: C_23  and  C_26
REMARK                            x       y       z     vdW  Elec       q    Type
REMARK                         _______ _______ _______ _____ _____    ______ ____
ROOT
ATOM      1  C   UNL     1     -11.137  54.630  50.919  0.00  0.00    +0.000 A 
ATOM      2  C   UNL     1      -9.733  55.040  50.625  0.00  0.00    +0.000 A 
ATOM      3  C   UNL     1     -11.408  53.381  51.334  0.00  0.00    +0.000 A 
ATOM      4  O   UNL     1      -9.553  56.198  50.234  0.00  0.00    +0.000 OA
ATOM      5  N   UNL     1      -8.712  54.107  50.833  0.00  0.00    +0.000 N 
ATOM      6  C   UNL     1     -10.325  52.409  51.538  0.00  0.00    +0.000 A 
ATOM      7  C   UNL     1      -8.992  52.780  51.281  0.00  0.00    +0.000 A 
ATOM      8  C   UNL     1     -10.605  51.113  52.004  0.00  0.00    +0.000 A 
ATOM      9  C   UNL     1      -7.970  51.837  51.480  0.00  0.00    +0.000 A 
ATOM     10  C   UNL     1      -9.581  50.193  52.217  0.00  0.00    +0.000 A 
ATOM     11  C   UNL     1      -8.265  50.555  51.951  0.00  0.00    +0.000 A 
ENDROOT
BRANCH   1  17
ATOM     12  S   UNL     1     -13.584  57.279  49.355  0.00  0.00    +0.000 S 
ATOM     13  O   UNL     1     -14.710  56.655  48.687  0.00  0.00    +0.000 OA
ATOM     14  O   UNL     1     -12.918  58.424  48.766  0.00  0.00    +0.000 OA
ATOM     15  N   UNL     1     -12.468  56.128  49.606  0.00  0.00    +0.000 N 
ATOM     16  C   UNL     1     -14.181  57.818  50.914  0.00  0.00    +0.000 A 
ATOM     17  C   UNL     1     -12.236  55.670  50.799  0.00  0.00    +0.000 C 
ATOM     18  C   UNL     1     -13.749  57.139  52.044  0.00  0.00    +0.000 A 
ATOM     19  C   UNL     1     -15.053  58.907  50.992  0.00  0.00    +0.000 A 
ATOM     20  N   UNL     1     -12.893  56.048  51.952  0.00  0.00    +0.000 N 
ATOM     21  C   UNL     1     -14.268  57.527  53.285  0.00  0.00    +0.000 A 
ATOM     22  C   UNL     1     -15.532  59.304  52.238  0.00  0.00    +0.000 A 
ATOM     23  C   UNL     1     -15.147  58.609  53.383  0.00  0.00    +0.000 A 
ATOM     24  H   UNL     1     -11.959  55.772  48.842  0.00  0.00    +0.000 HD
ATOM     25  H   UNL     1     -12.746  55.509  52.762  0.00  0.00    +0.000 HD
ENDBRANCH   1  17
BRANCH   3  26
ATOM     26  O   UNL     1     -12.677  52.915  51.629  0.00  0.00    +0.000 OA
ATOM     27  H   UNL     1     -13.229  52.592  50.944  0.00  0.00    +0.000 HD
ENDBRANCH   3  26
BRANCH   5  28
ATOM     28  N   UNL     1      -7.344  54.439  50.508  0.00  0.00    +0.000 N 
ATOM     29  H   UNL     1      -6.845  53.991  49.786  0.00  0.00    +0.000 HD
BRANCH  28  30
ATOM     30  C   UNL     1      -6.757  55.497  51.341  0.00  0.00    +0.000 C 
BRANCH  30  31
ATOM     31  C   UNL     1      -6.403  54.947  52.679  0.00  0.00    +0.000 A 
ATOM     32  C   UNL     1      -5.316  54.146  52.974  0.00  0.00    +0.000 A 
ATOM     33  C   UNL     1      -7.052  55.171  53.927  0.00  0.00    +0.000 A 
ATOM     34  O   UNL     1      -5.260  53.871  54.300  0.00  0.00    +0.000 OA
ATOM     35  C   UNL     1      -6.316  54.498  54.874  0.00  0.00    +0.000 A 
ENDBRANCH  30  31
ENDBRANCH  28  30
ENDBRANCH   5  28
TORSDOF 5
ENDMDL
MODEL 5
REMARK VINA RESULT:      -8.1      3.654      7.325
REMARK  Name = 
REMARK  5 active torsions:
REMARK  status: ('A' for Active; 'I' for Inactive)
REMARK    1  A    between atoms: C_6  and  C_10
REMARK    2  A    between atoms: C_14  and  O_18
REMARK    3  A    between atoms: N_17  and  N_20
REMARK    4  A    between atoms: N_20  and  C_23
REMARK    5  A    between atoms: C_23  and  C_26
REMARK                            x       y       z     vdW  Elec       q    Type
REMARK                         _______ _______ _______ _____ _____    ______ ____
ROOT
ATOM      1  C   UNL     1     -10.369  55.215  50.848  0.00  0.00    +0.000 A 
ATOM      2  C   UNL     1     -10.008  55.124  49.403  0.00  0.00    +0.000 A 
ATOM      3  C   UNL     1     -11.556  55.720  51.221  0.00  0.00    +0.000 A 
ATOM      4  O   UNL     1      -8.895  54.663  49.126  0.00  0.00    +0.000 OA
ATOM      5  N   UNL     1     -10.950  55.537  48.455  0.00  0.00    +0.000 N 
ATOM      6  C   UNL     1     -12.533  56.159  50.214  0.00  0.00    +0.000 A 
ATOM      7  C   UNL     1     -12.218  56.067  48.846  0.00  0.00    +0.000 A 
ATOM      8  C   UNL     1     -13.788  56.655  50.604  0.00  0.00    +0.000 A 
ATOM      9  C   UNL     1     -13.164  56.493  47.898  0.00  0.00    +0.000 A 
ATOM     10  C   UNL     1     -14.725  57.056  49.654  0.00  0.00    +0.000 A 
ATOM     11  C   UNL     1     -14.410  56.978  48.303  0.00  0.00    +0.000 A 
ENDROOT
BRANCH   1  17
ATOM     12  S   UNL     1      -7.086  54.728  52.956  0.00  0.00    +0.000 S 
ATOM     13  O   UNL     1      -6.968  55.709  54.017  0.00  0.00    +0.000 OA
ATOM     14  O   UNL     1      -5.930  54.347  52.169  0.00  0.00    +0.000 OA
ATOM     15  N   UNL     1      -8.233  55.251  51.934  0.00  0.00    +0.000 N 
ATOM     16  C   UNL     1      -7.658  53.253  53.717  0.00  0.00    +0.000 A 
ATOM     17  C   UNL     1      -9.393  54.669  51.874  0.00  0.00    +0.000 C 
ATOM     18  C   UNL     1      -8.962  52.855  53.461  0.00  0.00    +0.000 A 
ATOM     19  C   UNL     1      -6.805  52.515  54.541  0.00  0.00    +0.000 A 
ATOM     20  N   UNL     1      -9.805  53.607  52.651  0.00  0.00    +0.000 N 
ATOM     21  C   UNL     1      -9.441  51.712  54.113  0.00  0.00    +0.000 A 
ATOM     22  C   UNL     1      -7.286  51.361  55.154  0.00  0.00    +0.000 A 
ATOM     23  C   UNL     1      -8.606  50.964  54.947  0.00  0.00    +0.000 A 
ATOM     24  H   UNL     1      -8.047  56.022  51.350  0.00  0.00    +0.000 HD
ATOM     25  H   UNL     1     -10.759  53.366  52.632  0.00  0.00    +0.000 HD
ENDBRANCH   1  17
BRANCH   3  26
ATOM     26  O   UNL     1     -11.973  55.842  52.535  0.00  0.00    +0.000 OA
ATOM     27  H   UNL     1     -12.775  56.283  52.734  0.00  0.00    +0.000 HD
ENDBRANCH   3  26
BRANCH   5  28
ATOM     28  N   UNL     1     -10.626  55.521  47.048  0.00  0.00    +0.000 N 
ATOM     29  H   UNL     1     -10.057  56.206  46.626  0.00  0.00    +0.000 HD
BRANCH  28  30
ATOM     30  C   UNL     1     -11.211  54.402  46.298  0.00  0.00    +0.000 C 
BRANCH  30  31
ATOM     31  C   UNL     1     -10.183  53.805  45.400  0.00  0.00    +0.000 A 
ATOM     32  C   UNL     1      -8.812  53.886  45.557  0.00  0.00    +0.000 A 
ATOM     33  C   UNL     1     -10.379  52.987  44.251  0.00  0.00    +0.000 A 
ATOM     34  O   UNL     1      -8.169  53.183  44.593  0.00  0.00    +0.000 OA
ATOM     35  C   UNL     1      -9.127  52.637  43.804  0.00  0.00    +0.000 A 
ENDBRANCH  30  31
ENDBRANCH  28  30
ENDBRANCH   5  28
TORSDOF 5
ENDMDL
MODEL 6
REMARK VINA RESULT:      -8.1      2.952      8.336
REMARK  Name = 
REMARK  5 active torsions:
REMARK  status: ('A' for Active; 'I' for Inactive)
REMARK    1  A    between atoms: C_6  and  C_10
REMARK    2  A    between atoms: C_14  and  O_18
REMARK    3  A    between atoms: N_17  and  N_20
REMARK    4  A    between atoms: N_20  and  C_23
REMARK    5  A    between atoms: C_23  and  C_26
REMARK                            x       y       z     vdW  Elec       q    Type
REMARK                         _______ _______ _______ _____ _____    ______ ____
ROOT
ATOM      1  C   UNL     1      -9.900  54.442  50.689  0.00  0.00    +0.000 A 
ATOM      2  C   UNL     1     -11.216  55.078  50.984  0.00  0.00    +0.000 A 
ATOM      3  C   UNL     1      -9.524  54.216  49.419  0.00  0.00    +0.000 A 
ATOM      4  O   UNL     1     -11.509  55.247  52.173  0.00  0.00    +0.000 OA
ATOM      5  N   UNL     1     -12.022  55.468  49.910  0.00  0.00    +0.000 N 
ATOM      6  C   UNL     1     -10.386  54.621  48.300  0.00  0.00    +0.000 A 
ATOM      7  C   UNL     1     -11.625  55.237  48.557  0.00  0.00    +0.000 A 
ATOM      8  C   UNL     1      -9.977  54.414  46.972  0.00  0.00    +0.000 A 
ATOM      9  C   UNL     1     -12.436  55.617  47.474  0.00  0.00    +0.000 A 
ATOM     10  C   UNL     1     -10.782  54.813  45.906  0.00  0.00    +0.000 A 
ATOM     11  C   UNL     1     -12.012  55.410  46.159  0.00  0.00    +0.000 A 
ENDROOT
BRANCH   1  17
ATOM     12  S   UNL     1      -6.819  54.569  53.127  0.00  0.00    +0.000 S 
ATOM     13  O   UNL     1      -6.933  55.642  54.096  0.00  0.00    +0.000 OA
ATOM     14  O   UNL     1      -5.549  54.281  52.491  0.00  0.00    +0.000 OA
ATOM     15  N   UNL     1      -7.909  54.850  51.959  0.00  0.00    +0.000 N 
ATOM     16  C   UNL     1      -7.279  53.101  53.970  0.00  0.00    +0.000 A 
ATOM     17  C   UNL     1      -8.975  54.117  51.848  0.00  0.00    +0.000 C 
ATOM     18  C   UNL     1      -8.490  52.513  53.635  0.00  0.00    +0.000 A 
ATOM     19  C   UNL     1      -6.432  52.553  54.936  0.00  0.00    +0.000 A 
ATOM     20  N   UNL     1      -9.332  53.077  52.682  0.00  0.00    +0.000 N 
ATOM     21  C   UNL     1      -8.890  51.376  54.346  0.00  0.00    +0.000 A 
ATOM     22  C   UNL     1      -6.827  51.400  55.609  0.00  0.00    +0.000 A 
ATOM     23  C   UNL     1      -8.059  50.817  55.321  0.00  0.00    +0.000 A 
ATOM     24  H   UNL     1      -7.760  55.587  51.323  0.00  0.00    +0.000 HD
ATOM     25  H   UNL     1     -10.241  52.712  52.598  0.00  0.00    +0.000 HD
ENDBRANCH   1  17
BRANCH   3  26
ATOM     26  O   UNL     1      -8.324  53.632  49.053  0.00  0.00    +0.000 OA
ATOM     27  H   UNL     1      -7.513  54.027  49.308  0.00  0.00    +0.000 HD
ENDBRANCH   3  26
BRANCH   5  28
ATOM     28  N   UNL     1     -13.329  56.036  50.145  0.00  0.00    +0.000 N 
ATOM     29  H   UNL     1     -14.134  55.483  50.272  0.00  0.00    +0.000 HD
BRANCH  28  30
ATOM     30  C   UNL     1     -13.360  57.504  50.182  0.00  0.00    +0.000 C 
BRANCH  30  31
ATOM     31  C   UNL     1     -14.110  57.961  51.385  0.00  0.00    +0.000 A 
ATOM     32  C   UNL     1     -14.594  59.236  51.613  0.00  0.00    +0.000 A 
ATOM     33  C   UNL     1     -14.540  57.193  52.504  0.00  0.00    +0.000 A 
ATOM     34  O   UNL     1     -15.279  59.295  52.781  0.00  0.00    +0.000 OA
ATOM     35  C   UNL     1     -15.245  58.050  53.317  0.00  0.00    +0.000 A 
ENDBRANCH  30  31
ENDBRANCH  28  30
ENDBRANCH   5  28
TORSDOF 5
ENDMDL
MODEL 7
REMARK VINA RESULT:      -8.1      4.096      5.555
REMARK  Name = 
REMARK  5 active torsions:
REMARK  status: ('A' for Active; 'I' for Inactive)
REMARK    1  A    between atoms: C_6  and  C_10
REMARK    2  A    between atoms: C_14  and  O_18
REMARK    3  A    between atoms: N_17  and  N_20
REMARK    4  A    between atoms: N_20  and  C_23
REMARK    5  A    between atoms: C_23  and  C_26
REMARK                            x       y       z     vdW  Elec       q    Type
REMARK                         _______ _______ _______ _____ _____    ______ ____
ROOT
ATOM      1  C   UNL     1     -10.391  54.942  47.756  0.00  0.00    +0.000 A 
ATOM      2  C   UNL     1      -8.904  55.067  47.749  0.00  0.00    +0.000 A 
ATOM      3  C   UNL     1     -11.031  54.390  46.711  0.00  0.00    +0.000 A 
ATOM      4  O   UNL     1      -8.377  55.596  48.733  0.00  0.00    +0.000 OA
ATOM      5  N   UNL     1      -8.199  54.560  46.652  0.00  0.00    +0.000 N 
ATOM      6  C   UNL     1     -10.278  53.871  45.561  0.00  0.00    +0.000 A 
ATOM      7  C   UNL     1      -8.874  53.966  45.542  0.00  0.00    +0.000 A 
ATOM      8  C   UNL     1     -10.946  53.265  44.484  0.00  0.00    +0.000 A 
ATOM      9  C   UNL     1      -8.171  53.465  44.433  0.00  0.00    +0.000 A 
ATOM     10  C   UNL     1     -10.237  52.754  43.398  0.00  0.00    +0.000 A 
ATOM     11  C   UNL     1      -8.851  52.859  43.373  0.00  0.00    +0.000 A 
ENDROOT
BRANCH   1  17
ATOM     12  S   UNL     1     -11.828  54.994  51.414  0.00  0.00    +0.000 S 
ATOM     13  O   UNL     1     -10.858  55.481  52.375  0.00  0.00    +0.000 OA
ATOM     14  O   UNL     1     -12.679  53.865  51.731  0.00  0.00    +0.000 OA
ATOM     15  N   UNL     1     -11.027  54.646  50.047  0.00  0.00    +0.000 N 
ATOM     16  C   UNL     1     -12.910  56.338  51.092  0.00  0.00    +0.000 A 
ATOM     17  C   UNL     1     -11.150  55.392  48.990  0.00  0.00    +0.000 C 
ATOM     18  C   UNL     1     -12.831  56.952  49.851  0.00  0.00    +0.000 A 
ATOM     19  C   UNL     1     -13.823  56.751  52.066  0.00  0.00    +0.000 A 
ATOM     20  N   UNL     1     -11.907  56.541  48.896  0.00  0.00    +0.000 N 
ATOM     21  C   UNL     1     -13.650  58.061  49.611  0.00  0.00    +0.000 A 
ATOM     22  C   UNL     1     -14.657  57.833  51.798  0.00  0.00    +0.000 A 
ATOM     23  C   UNL     1     -14.564  58.494  50.575  0.00  0.00    +0.000 A 
ATOM     24  H   UNL     1     -10.439  53.857  50.017  0.00  0.00    +0.000 HD
ATOM     25  H   UNL     1     -11.785  57.108  48.101  0.00  0.00    +0.000 HD
ENDBRANCH   1  17
BRANCH   3  26
ATOM     26  O   UNL     1     -12.404  54.235  46.632  0.00  0.00    +0.000 OA
ATOM     27  H   UNL     1     -12.821  54.165  45.796  0.00  0.00    +0.000 HD
ENDBRANCH   3  26
BRANCH   5  28
ATOM     28  N   UNL     1      -6.765  54.709  46.574  0.00  0.00    +0.000 N 
ATOM     29  H   UNL     1      -6.333  55.528  46.238  0.00  0.00    +0.000 HD
BRANCH  28  30
ATOM     30  C   UNL     1      -6.003  53.541  47.036  0.00  0.00    +0.000 C 
BRANCH  30  31
ATOM     31  C   UNL     1      -5.696  53.684  48.487  0.00  0.00    +0.000 A 
ATOM     32  C   UNL     1      -6.054  52.802  49.490  0.00  0.00    +0.000 A 
ATOM     33  C   UNL     1      -4.930  54.695  49.134  0.00  0.00    +0.000 A 
ATOM     34  O   UNL     1      -5.565  53.205  50.688  0.00  0.00    +0.000 OA
ATOM     35  C   UNL     1      -4.881  54.355  50.465  0.00  0.00    +0.000 A 
ENDBRANCH  30  31
ENDBRANCH  28  30
ENDBRANCH   5  28
TORSDOF 5
ENDMDL
MODEL 8
REMARK VINA RESULT:      -8.0      4.399      7.358
REMARK  Name = 
REMARK  5 active torsions:
REMARK  status: ('A' for Active; 'I' for Inactive)
REMARK    1  A    between atoms: C_6  and  C_10
REMARK    2  A    between atoms: C_14  and  O_18
REMARK    3  A    between atoms: N_17  and  N_20
REMARK    4  A    between atoms: N_20  and  C_23
REMARK    5  A    between atoms: C_23  and  C_26
REMARK                            x       y       z     vdW  Elec       q    Type
REMARK                         _______ _______ _______ _____ _____    ______ ____
ROOT
ATOM      1  C   UNL     1     -11.272  54.689  48.344  0.00  0.00    +0.000 A 
ATOM      2  C   UNL     1     -11.088  54.193  49.739  0.00  0.00    +0.000 A 
ATOM      3  C   UNL     1     -12.132  55.689  48.086  0.00  0.00    +0.000 A 
ATOM      4  O   UNL     1     -10.293  53.262  49.908  0.00  0.00    +0.000 OA
ATOM      5  N   UNL     1     -11.800  54.821  50.766  0.00  0.00    +0.000 N 
ATOM      6  C   UNL     1     -12.880  56.332  49.175  0.00  0.00    +0.000 A 
ATOM      7  C   UNL     1     -12.710  55.889  50.499  0.00  0.00    +0.000 A 
ATOM      8  C   UNL     1     -13.754  57.400  48.908  0.00  0.00    +0.000 A 
ATOM      9  C   UNL     1     -13.435  56.516  51.527  0.00  0.00    +0.000 A 
ATOM     10  C   UNL     1     -14.453  58.026  49.938  0.00  0.00    +0.000 A 
ATOM     11  C   UNL     1     -14.295  57.581  51.246  0.00  0.00    +0.000 A 
ENDROOT
BRANCH   1  17
ATOM     12  S   UNL     1      -8.188  53.937  46.024  0.00  0.00    +0.000 S 
ATOM     13  O   UNL     1      -7.248  53.024  46.644  0.00  0.00    +0.000 OA
ATOM     14  O   UNL     1      -7.718  55.086  45.276  0.00  0.00    +0.000 OA
ATOM     15  N   UNL     1      -9.185  54.475  47.187  0.00  0.00    +0.000 N 
ATOM     16  C   UNL     1      -9.127  52.977  44.894  0.00  0.00    +0.000 A 
ATOM     17  C   UNL     1     -10.422  54.083  47.242  0.00  0.00    +0.000 C 
ATOM     18  C   UNL     1     -10.454  52.720  45.208  0.00  0.00    +0.000 A 
ATOM     19  C   UNL     1      -8.539  52.508  43.717  0.00  0.00    +0.000 A 
ATOM     20  N   UNL     1     -11.022  53.179  46.390  0.00  0.00    +0.000 N 
ATOM     21  C   UNL     1     -11.190  51.905  44.340  0.00  0.00    +0.000 A 
ATOM     22  C   UNL     1      -9.296  51.729  42.845  0.00  0.00    +0.000 A 
ATOM     23  C   UNL     1     -10.617  51.420  43.161  0.00  0.00    +0.000 A 
ATOM     24  H   UNL     1      -8.846  55.108  47.861  0.00  0.00    +0.000 HD
ATOM     25  H   UNL     1     -11.911  52.837  46.637  0.00  0.00    +0.000 HD
ENDBRANCH   1  17
BRANCH   3  26
ATOM     26  O   UNL     1     -12.365  56.211  46.825  0.00  0.00    +0.000 OA
ATOM     27  H   UNL     1     -12.811  57.029  46.731  0.00  0.00    +0.000 HD
ENDBRANCH   3  26
BRANCH   5  28
ATOM     28  N   UNL     1     -11.699  54.339  52.125  0.00  0.00    +0.000 N 
ATOM     29  H   UNL     1     -12.374  53.748  52.530  0.00  0.00    +0.000 HD
BRANCH  28  30
ATOM     30  C   UNL     1     -10.508  54.801  52.850  0.00  0.00    +0.000 C 
BRANCH  30  31
ATOM     31  C   UNL     1      -9.778  53.632  53.414  0.00  0.00    +0.000 A 
ATOM     32  C   UNL     1     -10.346  52.511  53.990  0.00  0.00    +0.000 A 
ATOM     33  C   UNL     1      -8.375  53.386  53.425  0.00  0.00    +0.000 A 
ATOM     34  O   UNL     1      -9.396  51.612  54.347  0.00  0.00    +0.000 OA
ATOM     35  C   UNL     1      -8.200  52.149  53.999  0.00  0.00    +0.000 A 
ENDBRANCH  30  31
ENDBRANCH  28  30
ENDBRANCH   5  28
TORSDOF 5
ENDMDL
MODEL 9
REMARK VINA RESULT:      -8.0      3.725      7.413
REMARK  Name = 
REMARK  5 active torsions:
REMARK  status: ('A' for Active; 'I' for Inactive)
REMARK    1  A    between atoms: C_6  and  C_10
REMARK    2  A    between atoms: C_14  and  O_18
REMARK    3  A    between atoms: N_17  and  N_20
REMARK    4  A    between atoms: N_20  and  C_23
REMARK    5  A    between atoms: C_23  and  C_26
REMARK                            x       y       z     vdW  Elec       q    Type
REMARK                         _______ _______ _______ _____ _____    ______ ____
ROOT
ATOM      1  C   UNL     1     -10.536  54.939  50.610  0.00  0.00    +0.000 A 
ATOM      2  C   UNL     1     -10.236  54.885  49.150  0.00  0.00    +0.000 A 
ATOM      3  C   UNL     1     -11.634  55.573  51.055  0.00  0.00    +0.000 A 
ATOM      4  O   UNL     1      -9.204  54.298  48.806  0.00  0.00    +0.000 OA
ATOM      5  N   UNL     1     -11.144  55.471  48.262  0.00  0.00    +0.000 N 
ATOM      6  C   UNL     1     -12.573  56.194  50.111  0.00  0.00    +0.000 A 
ATOM      7  C   UNL     1     -12.316  56.141  48.729  0.00  0.00    +0.000 A 
ATOM      8  C   UNL     1     -13.738  56.829  50.575  0.00  0.00    +0.000 A 
ATOM      9  C   UNL     1     -13.226  56.741  47.841  0.00  0.00    +0.000 A 
ATOM     10  C   UNL     1     -14.642  57.404  49.684  0.00  0.00    +0.000 A 
ATOM     11  C   UNL     1     -14.383  57.362  48.319  0.00  0.00    +0.000 A 
ENDROOT
BRANCH   1  17
ATOM     12  S   UNL     1      -9.150  52.210  53.077  0.00  0.00    +0.000 S 
ATOM     13  O   UNL     1      -8.598  51.068  52.375  0.00  0.00    +0.000 OA
ATOM     14  O   UNL     1      -9.955  52.026  54.268  0.00  0.00    +0.000 OA
ATOM     15  N   UNL     1     -10.026  53.062  52.010  0.00  0.00    +0.000 N 
ATOM     16  C   UNL     1      -7.778  53.188  53.570  0.00  0.00    +0.000 A 
ATOM     17  C   UNL     1      -9.611  54.211  51.568  0.00  0.00    +0.000 C 
ATOM     18  C   UNL     1      -7.579  54.398  52.922  0.00  0.00    +0.000 A 
ATOM     19  C   UNL     1      -6.935  52.746  54.591  0.00  0.00    +0.000 A 
ATOM     20  N   UNL     1      -8.417  54.819  51.895  0.00  0.00    +0.000 N 
ATOM     21  C   UNL     1      -6.452  55.153  53.269  0.00  0.00    +0.000 A 
ATOM     22  C   UNL     1      -5.839  53.526  54.951  0.00  0.00    +0.000 A 
ATOM     23  C   UNL     1      -5.593  54.725  54.284  0.00  0.00    +0.000 A 
ATOM     24  H   UNL     1     -10.887  52.704  51.693  0.00  0.00    +0.000 HD
ATOM     25  H   UNL     1      -8.139  55.602  51.367  0.00  0.00    +0.000 HD
ENDBRANCH   1  17
BRANCH   3  26
ATOM     26  O   UNL     1     -11.989  55.674  52.389  0.00  0.00    +0.000 OA
ATOM     27  H   UNL     1     -12.138  54.899  52.894  0.00  0.00    +0.000 HD
ENDBRANCH   3  26
BRANCH   5  28
ATOM     28  N   UNL     1     -10.868  55.494  46.844  0.00  0.00    +0.000 N 
ATOM     29  H   UNL     1     -10.313  56.189  46.422  0.00  0.00    +0.000 HD
BRANCH  28  30
ATOM     30  C   UNL     1     -11.482  54.397  46.085  0.00  0.00    +0.000 C 
BRANCH  30  31
ATOM     31  C   UNL     1     -10.453  53.736  45.234  0.00  0.00    +0.000 A 
ATOM     32  C   UNL     1     -10.691  52.858  44.194  0.00  0.00    +0.000 A 
ATOM     33  C   UNL     1      -9.040  53.909  45.261  0.00  0.00    +0.000 A 
ATOM     34  O   UNL     1      -9.533  52.489  43.594  0.00  0.00    +0.000 OA
ATOM     35  C   UNL     1      -8.533  53.133  44.245  0.00  0.00    +0.000 A 
ENDBRANCH  30  31
ENDBRANCH  28  30
ENDBRANCH   5  28
TORSDOF 5
ENDMDL
