MODEL 1
REMARK VINA RESULT:      -8.4      0.000      0.000
REMARK  Name = 
REMARK  5 active torsions:
REMARK  status: ('A' for Active; 'I' for Inactive)
REMARK    1  A    between atoms: C_6  and  C_10
REMARK    2  A    between atoms: C_14  and  O_18
REMARK    3  A    between atoms: N_17  and  N_20
REMARK    4  A    between atoms: N_20  and  C_23
REMARK    5  A    between atoms: C_23  and  C_26
REMARK                            x       y       z     vdW  Elec       q    Type
REMARK                         _______ _______ _______ _____ _____    ______ ____
ROOT
ATOM      1  C   UNL     1     -10.114  54.552  52.175  0.00  0.00    +0.000 A 
ATOM      2  C   UNL     1      -8.754  55.131  51.966  0.00  0.00    +0.000 A 
ATOM      3  C   UNL     1     -10.282  53.453  52.926  0.00  0.00    +0.000 A 
ATOM      4  O   UNL     1      -8.670  56.149  51.273  0.00  0.00    +0.000 OA
ATOM      5  N   UNL     1      -7.671  54.512  52.595  0.00  0.00    +0.000 N 
ATOM      6  C   UNL     1      -9.132  52.814  53.580  0.00  0.00    +0.000 A 
ATOM      7  C   UNL     1      -7.841  53.346  53.401  0.00  0.00    +0.000 A 
ATOM      8  C   UNL     1      -9.310  51.690  54.403  0.00  0.00    +0.000 A 
ATOM      9  C   UNL     1      -6.755  52.727  54.041  0.00  0.00    +0.000 A 
ATOM     10  C   UNL     1      -8.228  51.103  55.056  0.00  0.00    +0.000 A 
ATOM     11  C   UNL     1      -6.951  51.620  54.872  0.00  0.00    +0.000 A 
ENDROOT
BRANCH   1  17
ATOM     12  S   UNL     1     -12.586  56.045  49.516  0.00  0.00    +0.000 S 
ATOM     13  O   UNL     1     -13.485  55.040  48.985  0.00  0.00    +0.000 OA
ATOM     14  O   UNL     1     -11.993  57.038  48.643  0.00  0.00    +0.000 OA
ATOM     15  N   UNL     1     -11.386  55.271  50.280  0.00  0.00    +0.000 N 
ATOM     16  C   UNL     1     -13.508  56.943  50.712  0.00  0.00    +0.000 A 
ATOM     17  C   UNL     1     -11.302  55.275  51.576  0.00  0.00    +0.000 C 
ATOM     18  C   UNL     1     -13.187  56.763  52.046  0.00  0.00    +0.000 A 
ATOM     19  C   UNL     1     -14.522  57.812  50.302  0.00  0.00    +0.000 A 
ATOM     20  N   UNL     1     -12.191  55.876  52.442  0.00  0.00    +0.000 N 
ATOM     21  C   UNL     1     -13.955  57.432  53.008  0.00  0.00    +0.000 A 
ATOM     22  C   UNL     1     -15.255  58.496  51.267  0.00  0.00    +0.000 A 
ATOM     23  C   UNL     1     -14.977  58.302  52.619  0.00  0.00    +0.000 A 
ATOM     24  H   UNL     1     -10.707  54.789  49.753  0.00  0.00    +0.000 HD
ATOM     25  H   UNL     1     -12.117  55.663  53.401  0.00  0.00    +0.000 HD
ENDBRANCH   1  17
BRANCH   3  26
ATOM     26  O   UNL     1     -11.507  52.863  53.184  0.00  0.00    +0.000 OA
ATOM     27  H   UNL     1     -11.782  52.118  52.687  0.00  0.00    +0.000 HD
ENDBRANCH   3  26
BRANCH   5  28
ATOM     28  N   UNL     1      -6.332  54.995  52.391  0.00  0.00    +0.000 N 
ATOM     29  H   UNL     1      -5.827  55.463  53.095  0.00  0.00    +0.000 HD
BRANCH  28  30
ATOM     30  C   UNL     1      -5.773  54.739  51.057  0.00  0.00    +0.000 C 
BRANCH  30  31
ATOM     31  C   UNL     1      -4.985  53.461  51.057  0.00  0.00    +0.000 A 
ATOM     32  S   UNL     1      -5.577  52.089  50.212  0.00  0.00    +0.000 S 
ATOM     33  C   UNL     1      -3.759  53.212  51.629  0.00  0.00    +0.000 A 
ATOM     34  C   UNL     1      -4.196  51.167  50.617  0.00  0.00    +0.000 A 
ATOM     35  C   UNL     1      -3.301  51.884  51.380  0.00  0.00    +0.000 A 
ENDBRANCH  30  31
ENDBRANCH  28  30
ENDBRANCH   5  28
TORSDOF 5
ENDMDL
MODEL 2
REMARK VINA RESULT:      -8.3      3.253      4.868
REMARK  Name = 
REMARK  5 active torsions:
REMARK  status: ('A' for Active; 'I' for Inactive)
REMARK    1  A    between atoms: C_6  and  C_10
REMARK    2  A    between atoms: C_14  and  O_18
REMARK    3  A    between atoms: N_17  and  N_20
REMARK    4  A    between atoms: N_20  and  C_23
REMARK    5  A    between atoms: C_23  and  C_26
REMARK                            x       y       z     vdW  Elec       q    Type
REMARK                         _______ _______ _______ _____ _____    ______ ____
ROOT
ATOM      1  C   UNL     1     -11.424  55.934  48.880  0.00  0.00    +0.000 A 
ATOM      2  C   UNL     1     -10.426  55.294  49.787  0.00  0.00    +0.000 A 
ATOM      3  C   UNL     1     -11.476  55.606  47.579  0.00  0.00    +0.000 A 
ATOM      4  O   UNL     1     -10.438  55.634  50.974  0.00  0.00    +0.000 OA
ATOM      5  N   UNL     1      -9.571  54.329  49.250  0.00  0.00    +0.000 N 
ATOM      6  C   UNL     1     -10.568  54.588  47.031  0.00  0.00    +0.000 A 
ATOM      7  C   UNL     1      -9.623  53.968  47.870  0.00  0.00    +0.000 A 
ATOM      8  C   UNL     1     -10.650  54.210  45.682  0.00  0.00    +0.000 A 
ATOM      9  C   UNL     1      -8.770  52.992  47.330  0.00  0.00    +0.000 A 
ATOM     10  C   UNL     1      -9.818  53.218  45.165  0.00  0.00    +0.000 A 
ATOM     11  C   UNL     1      -8.876  52.613  45.989  0.00  0.00    +0.000 A 
ENDROOT
BRANCH   1  17
ATOM     12  S   UNL     1     -13.523  59.203  49.442  0.00  0.00    +0.000 S 
ATOM     13  O   UNL     1     -14.649  59.289  48.534  0.00  0.00    +0.000 OA
ATOM     14  O   UNL     1     -12.729  60.377  49.745  0.00  0.00    +0.000 OA
ATOM     15  N   UNL     1     -12.528  58.057  48.878  0.00  0.00    +0.000 N 
ATOM     16  C   UNL     1     -14.176  58.653  50.978  0.00  0.00    +0.000 A 
ATOM     17  C   UNL     1     -12.417  56.909  49.476  0.00  0.00    +0.000 C 
ATOM     18  C   UNL     1     -13.878  57.364  51.385  0.00  0.00    +0.000 A 
ATOM     19  C   UNL     1     -14.960  59.513  51.750  0.00  0.00    +0.000 A 
ATOM     20  N   UNL     1     -13.116  56.510  50.595  0.00  0.00    +0.000 N 
ATOM     21  C   UNL     1     -14.442  56.901  52.581  0.00  0.00    +0.000 A 
ATOM     22  C   UNL     1     -15.486  59.051  52.953  0.00  0.00    +0.000 A 
ATOM     23  C   UNL     1     -15.233  57.743  53.365  0.00  0.00    +0.000 A 
ATOM     24  H   UNL     1     -11.996  58.233  48.067  0.00  0.00    +0.000 HD
ATOM     25  H   UNL     1     -13.074  55.559  50.850  0.00  0.00    +0.000 HD
ENDBRANCH   1  17
BRANCH   3  26
ATOM     26  O   UNL     1     -12.378  56.136  46.675  0.00  0.00    +0.000 OA
ATOM     27  H   UNL     1     -13.295  56.136  46.873  0.00  0.00    +0.000 HD
ENDBRANCH   3  26
BRANCH   5  28
ATOM     28  N   UNL     1      -8.557  53.714  50.065  0.00  0.00    +0.000 N 
ATOM     29  H   UNL     1      -8.664  52.815  50.451  0.00  0.00    +0.000 HD
BRANCH  28  30
ATOM     30  C   UNL     1      -7.352  54.526  50.278  0.00  0.00    +0.000 C 
BRANCH  30  31
ATOM     31  C   UNL     1      -7.171  54.819  51.739  0.00  0.00    +0.000 A 
ATOM     32  S   UNL     1      -6.670  53.573  52.808  0.00  0.00    +0.000 S 
ATOM     33  C   UNL     1      -7.309  56.021  52.394  0.00  0.00    +0.000 A 
ATOM     34  C   UNL     1      -6.644  54.641  54.141  0.00  0.00    +0.000 A 
ATOM     35  C   UNL     1      -7.010  55.920  53.785  0.00  0.00    +0.000 A 
ENDBRANCH  30  31
ENDBRANCH  28  30
ENDBRANCH   5  28
TORSDOF 5
ENDMDL
MODEL 3
REMARK VINA RESULT:      -8.3      2.165      2.461
REMARK  Name = 
REMARK  5 active torsions:
REMARK  status: ('A' for Active; 'I' for Inactive)
REMARK    1  A    between atoms: C_6  and  C_10
REMARK    2  A    between atoms: C_14  and  O_18
REMARK    3  A    between atoms: N_17  and  N_20
REMARK    4  A    between atoms: N_20  and  C_23
REMARK    5  A    between atoms: C_23  and  C_26
REMARK                            x       y       z     vdW  Elec       q    Type
REMARK                         _______ _______ _______ _____ _____    ______ ____
ROOT
ATOM      1  C   UNL     1     -11.164  54.629  50.860  0.00  0.00    +0.000 A 
ATOM      2  C   UNL     1      -9.768  55.032  50.515  0.00  0.00    +0.000 A 
ATOM      3  C   UNL     1     -11.428  53.390  51.302  0.00  0.00    +0.000 A 
ATOM      4  O   UNL     1      -9.593  56.190  50.123  0.00  0.00    +0.000 OA
ATOM      5  N   UNL     1      -8.749  54.094  50.691  0.00  0.00    +0.000 N 
ATOM      6  C   UNL     1     -10.343  52.415  51.481  0.00  0.00    +0.000 A 
ATOM      7  C   UNL     1      -9.019  52.776  51.168  0.00  0.00    +0.000 A 
ATOM      8  C   UNL     1     -10.610  51.133  51.987  0.00  0.00    +0.000 A 
ATOM      9  C   UNL     1      -7.994  51.834  51.353  0.00  0.00    +0.000 A 
ATOM     10  C   UNL     1      -9.580  50.217  52.195  0.00  0.00    +0.000 A 
ATOM     11  C   UNL     1      -8.274  50.568  51.874  0.00  0.00    +0.000 A 
ENDROOT
BRANCH   1  17
ATOM     12  S   UNL     1     -13.622  57.290  49.348  0.00  0.00    +0.000 S 
ATOM     13  O   UNL     1     -14.757  56.671  48.692  0.00  0.00    +0.000 OA
ATOM     14  O   UNL     1     -12.966  58.439  48.756  0.00  0.00    +0.000 OA
ATOM     15  N   UNL     1     -12.505  56.140  49.578  0.00  0.00    +0.000 N 
ATOM     16  C   UNL     1     -14.196  57.819  50.921  0.00  0.00    +0.000 A 
ATOM     17  C   UNL     1     -12.258  55.670  50.764  0.00  0.00    +0.000 C 
ATOM     18  C   UNL     1     -13.748  57.135  52.038  0.00  0.00    +0.000 A 
ATOM     19  C   UNL     1     -15.068  58.905  51.016  0.00  0.00    +0.000 A 
ATOM     20  N   UNL     1     -12.898  56.039  51.928  0.00  0.00    +0.000 N 
ATOM     21  C   UNL     1     -14.246  57.515  53.291  0.00  0.00    +0.000 A 
ATOM     22  C   UNL     1     -15.528  59.294  52.271  0.00  0.00    +0.000 A 
ATOM     23  C   UNL     1     -15.123  58.596  53.408  0.00  0.00    +0.000 A 
ATOM     24  H   UNL     1     -12.004  55.789  48.805  0.00  0.00    +0.000 HD
ATOM     25  H   UNL     1     -12.745  55.490  52.732  0.00  0.00    +0.000 HD
ENDBRANCH   1  17
BRANCH   3  26
ATOM     26  O   UNL     1     -12.687  52.940  51.660  0.00  0.00    +0.000 OA
ATOM     27  H   UNL     1     -13.273  53.507  52.121  0.00  0.00    +0.000 HD
ENDBRANCH   3  26
BRANCH   5  28
ATOM     28  N   UNL     1      -7.393  54.410  50.329  0.00  0.00    +0.000 N 
ATOM     29  H   UNL     1      -6.920  53.946  49.601  0.00  0.00    +0.000 HD
BRANCH  28  30
ATOM     30  C   UNL     1      -6.767  55.475  51.124  0.00  0.00    +0.000 C 
BRANCH  30  31
ATOM     31  C   UNL     1      -6.353  54.949  52.467  0.00  0.00    +0.000 A 
ATOM     32  S   UNL     1      -7.248  55.377  53.869  0.00  0.00    +0.000 S 
ATOM     33  C   UNL     1      -5.327  54.084  52.768  0.00  0.00    +0.000 A 
ATOM     34  C   UNL     1      -6.260  54.409  54.871  0.00  0.00    +0.000 A 
ATOM     35  C   UNL     1      -5.267  53.773  54.159  0.00  0.00    +0.000 A 
ENDBRANCH  30  31
ENDBRANCH  28  30
ENDBRANCH   5  28
TORSDOF 5
ENDMDL
MODEL 4
REMARK VINA RESULT:      -8.2      3.127      8.366
REMARK  Name = 
REMARK  5 active torsions:
REMARK  status: ('A' for Active; 'I' for Inactive)
REMARK    1  A    between atoms: C_6  and  C_10
REMARK    2  A    between atoms: C_14  and  O_18
REMARK    3  A    between atoms: N_17  and  N_20
REMARK    4  A    between atoms: N_20  and  C_23
REMARK    5  A    between atoms: C_23  and  C_26
REMARK                            x       y       z     vdW  Elec       q    Type
REMARK                         _______ _______ _______ _____ _____    ______ ____
ROOT
ATOM      1  C   UNL     1      -9.113  54.343  49.905  0.00  0.00    +0.000 A 
ATOM      2  C   UNL     1     -10.160  55.402  50.012  0.00  0.00    +0.000 A 
ATOM      3  C   UNL     1      -9.000  53.602  48.791  0.00  0.00    +0.000 A 
ATOM      4  O   UNL     1     -10.203  56.054  51.059  0.00  0.00    +0.000 OA
ATOM      5  N   UNL     1     -10.997  55.614  48.914  0.00  0.00    +0.000 N 
ATOM      6  C   UNL     1      -9.890  53.839  47.646  0.00  0.00    +0.000 A 
ATOM      7  C   UNL     1     -10.881  54.836  47.723  0.00  0.00    +0.000 A 
ATOM      8  C   UNL     1      -9.746  53.097  46.463  0.00  0.00    +0.000 A 
ATOM      9  C   UNL     1     -11.717  55.053  46.616  0.00  0.00    +0.000 A 
ATOM     10  C   UNL     1     -10.562  53.342  45.360  0.00  0.00    +0.000 A 
ATOM     11  C   UNL     1     -11.548  54.318  45.439  0.00  0.00    +0.000 A 
ENDROOT
BRANCH   1  17
ATOM     12  S   UNL     1      -7.709  54.076  53.561  0.00  0.00    +0.000 S 
ATOM     13  O   UNL     1      -7.936  52.765  54.135  0.00  0.00    +0.000 OA
ATOM     14  O   UNL     1      -7.892  55.272  54.358  0.00  0.00    +0.000 OA
ATOM     15  N   UNL     1      -8.648  54.202  52.247  0.00  0.00    +0.000 N 
ATOM     16  C   UNL     1      -6.032  54.096  53.038  0.00  0.00    +0.000 A 
ATOM     17  C   UNL     1      -8.140  54.174  51.052  0.00  0.00    +0.000 C 
ATOM     18  C   UNL     1      -5.776  54.078  51.678  0.00  0.00    +0.000 A 
ATOM     19  C   UNL     1      -5.007  54.139  53.985  0.00  0.00    +0.000 A 
ATOM     20  N   UNL     1      -6.806  54.010  50.745  0.00  0.00    +0.000 N 
ATOM     21  C   UNL     1      -4.441  54.036  51.255  0.00  0.00    +0.000 A 
ATOM     22  C   UNL     1      -3.685  54.132  53.551  0.00  0.00    +0.000 A 
ATOM     23  C   UNL     1      -3.401  54.074  52.187  0.00  0.00    +0.000 A 
ATOM     24  H   UNL     1      -9.623  54.301  52.357  0.00  0.00    +0.000 HD
ATOM     25  H   UNL     1      -6.568  53.832  49.806  0.00  0.00    +0.000 HD
ENDBRANCH   1  17
BRANCH   3  26
ATOM     26  O   UNL     1      -8.049  52.616  48.602  0.00  0.00    +0.000 OA
ATOM     27  H   UNL     1      -7.763  52.401  47.735  0.00  0.00    +0.000 HD
ENDBRANCH   3  26
BRANCH   5  28
ATOM     28  N   UNL     1     -12.056  56.586  48.978  0.00  0.00    +0.000 N 
ATOM     29  H   UNL     1     -11.955  57.500  48.626  0.00  0.00    +0.000 HD
BRANCH  28  30
ATOM     30  C   UNL     1     -13.297  56.115  49.606  0.00  0.00    +0.000 C 
BRANCH  30  31
ATOM     31  C   UNL     1     -13.654  56.987  50.775  0.00  0.00    +0.000 A 
ATOM     32  S   UNL     1     -14.265  58.569  50.509  0.00  0.00    +0.000 S 
ATOM     33  C   UNL     1     -13.609  56.682  52.115  0.00  0.00    +0.000 A 
ATOM     34  C   UNL     1     -14.462  58.842  52.184  0.00  0.00    +0.000 A 
ATOM     35  C   UNL     1     -14.071  57.754  52.934  0.00  0.00    +0.000 A 
ENDBRANCH  30  31
ENDBRANCH  28  30
ENDBRANCH   5  28
TORSDOF 5
ENDMDL
MODEL 5
REMARK VINA RESULT:      -8.1      4.119      5.533
REMARK  Name = 
REMARK  5 active torsions:
REMARK  status: ('A' for Active; 'I' for Inactive)
REMARK    1  A    between atoms: C_6  and  C_10
REMARK    2  A    between atoms: C_14  and  O_18
REMARK    3  A    between atoms: N_17  and  N_20
REMARK    4  A    between atoms: N_20  and  C_23
REMARK    5  A    between atoms: C_23  and  C_26
REMARK                            x       y       z     vdW  Elec       q    Type
REMARK                         _______ _______ _______ _____ _____    ______ ____
ROOT
ATOM      1  C   UNL     1     -10.382  54.939  47.761  0.00  0.00    +0.000 A 
ATOM      2  C   UNL     1      -8.893  55.048  47.754  0.00  0.00    +0.000 A 
ATOM      3  C   UNL     1     -11.032  54.394  46.721  0.00  0.00    +0.000 A 
ATOM      4  O   UNL     1      -8.357  55.551  48.746  0.00  0.00    +0.000 OA
ATOM      5  N   UNL     1      -8.200  54.544  46.652  0.00  0.00    +0.000 N 
ATOM      6  C   UNL     1     -10.287  53.870  45.568  0.00  0.00    +0.000 A 
ATOM      7  C   UNL     1      -8.883  53.957  45.544  0.00  0.00    +0.000 A 
ATOM      8  C   UNL     1     -10.961  53.258  44.499  0.00  0.00    +0.000 A 
ATOM      9  C   UNL     1      -8.187  53.443  44.438  0.00  0.00    +0.000 A 
ATOM     10  C   UNL     1     -10.258  52.725  43.421  0.00  0.00    +0.000 A 
ATOM     11  C   UNL     1      -8.871  52.820  43.390  0.00  0.00    +0.000 A 
ENDROOT
BRANCH   1  17
ATOM     12  S   UNL     1     -11.811  54.994  51.416  0.00  0.00    +0.000 S 
ATOM     13  O   UNL     1     -10.829  55.459  52.376  0.00  0.00    +0.000 OA
ATOM     14  O   UNL     1     -12.680  53.879  51.733  0.00  0.00    +0.000 OA
ATOM     15  N   UNL     1     -11.022  54.641  50.046  0.00  0.00    +0.000 N 
ATOM     16  C   UNL     1     -12.871  56.359  51.102  0.00  0.00    +0.000 A 
ATOM     17  C   UNL     1     -11.132  55.395  48.994  0.00  0.00    +0.000 C 
ATOM     18  C   UNL     1     -12.785  56.975  49.865  0.00  0.00    +0.000 A 
ATOM     19  C   UNL     1     -13.770  56.784  52.081  0.00  0.00    +0.000 A 
ATOM     20  N   UNL     1     -11.866  56.558  48.906  0.00  0.00    +0.000 N 
ATOM     21  C   UNL     1     -13.587  58.099  49.628  0.00  0.00    +0.000 A 
ATOM     22  C   UNL     1     -14.586  57.881  51.820  0.00  0.00    +0.000 A 
ATOM     23  C   UNL     1     -14.490  58.543  50.597  0.00  0.00    +0.000 A 
ATOM     24  H   UNL     1     -10.449  53.839  50.010  0.00  0.00    +0.000 HD
ATOM     25  H   UNL     1     -11.732  57.130  48.116  0.00  0.00    +0.000 HD
ENDBRANCH   1  17
BRANCH   3  26
ATOM     26  O   UNL     1     -12.405  54.239  46.652  0.00  0.00    +0.000 OA
ATOM     27  H   UNL     1     -12.779  53.380  46.638  0.00  0.00    +0.000 HD
ENDBRANCH   3  26
BRANCH   5  28
ATOM     28  N   UNL     1      -6.769  54.666  46.568  0.00  0.00    +0.000 N 
ATOM     29  H   UNL     1      -6.328  55.478  46.230  0.00  0.00    +0.000 HD
BRANCH  28  30
ATOM     30  C   UNL     1      -6.015  53.491  47.026  0.00  0.00    +0.000 C 
BRANCH  30  31
ATOM     31  C   UNL     1      -5.714  53.602  48.492  0.00  0.00    +0.000 A 
ATOM     32  S   UNL     1      -6.442  52.513  49.602  0.00  0.00    +0.000 S 
ATOM     33  C   UNL     1      -4.853  54.468  49.125  0.00  0.00    +0.000 A 
ATOM     34  C   UNL     1      -5.609  53.205  50.923  0.00  0.00    +0.000 A 
ATOM     35  C   UNL     1      -4.794  54.244  50.533  0.00  0.00    +0.000 A 
ENDBRANCH  30  31
ENDBRANCH  28  30
ENDBRANCH   5  28
TORSDOF 5
ENDMDL
MODEL 6
REMARK VINA RESULT:      -8.1      3.698      7.404
REMARK  Name = 
REMARK  5 active torsions:
REMARK  status: ('A' for Active; 'I' for Inactive)
REMARK    1  A    between atoms: C_6  and  C_10
REMARK    2  A    between atoms: C_14  and  O_18
REMARK    3  A    between atoms: N_17  and  N_20
REMARK    4  A    between atoms: N_20  and  C_23
REMARK    5  A    between atoms: C_23  and  C_26
REMARK                            x       y       z     vdW  Elec       q    Type
REMARK                         _______ _______ _______ _____ _____    ______ ____
ROOT
ATOM      1  C   UNL     1     -10.342  55.173  50.803  0.00  0.00    +0.000 A 
ATOM      2  C   UNL     1     -10.017  54.987  49.359  0.00  0.00    +0.000 A 
ATOM      3  C   UNL     1     -11.494  55.755  51.175  0.00  0.00    +0.000 A 
ATOM      4  O   UNL     1      -8.946  54.436  49.085  0.00  0.00    +0.000 OA
ATOM      5  N   UNL     1     -10.953  55.408  48.412  0.00  0.00    +0.000 N 
ATOM      6  C   UNL     1     -12.467  56.193  50.165  0.00  0.00    +0.000 A 
ATOM      7  C   UNL     1     -12.183  56.021  48.798  0.00  0.00    +0.000 A 
ATOM      8  C   UNL     1     -13.692  56.760  50.552  0.00  0.00    +0.000 A 
ATOM      9  C   UNL     1     -13.128  56.439  47.847  0.00  0.00    +0.000 A 
ATOM     10  C   UNL     1     -14.635  57.143  49.600  0.00  0.00    +0.000 A 
ATOM     11  C   UNL     1     -14.351  56.985  48.249  0.00  0.00    +0.000 A 
ENDROOT
BRANCH   1  17
ATOM     12  S   UNL     1      -7.070  54.679  52.915  0.00  0.00    +0.000 S 
ATOM     13  O   UNL     1      -6.942  55.676  53.959  0.00  0.00    +0.000 OA
ATOM     14  O   UNL     1      -5.917  54.271  52.140  0.00  0.00    +0.000 OA
ATOM     15  N   UNL     1      -8.209  55.196  51.885  0.00  0.00    +0.000 N 
ATOM     16  C   UNL     1      -7.663  53.224  53.701  0.00  0.00    +0.000 A 
ATOM     17  C   UNL     1      -9.377  54.631  51.835  0.00  0.00    +0.000 C 
ATOM     18  C   UNL     1      -8.968  52.837  53.449  0.00  0.00    +0.000 A 
ATOM     19  C   UNL     1      -6.821  52.492  54.540  0.00  0.00    +0.000 A 
ATOM     20  N   UNL     1      -9.805  53.589  52.630  0.00  0.00    +0.000 N 
ATOM     21  C   UNL     1      -9.465  51.710  54.116  0.00  0.00    +0.000 A 
ATOM     22  C   UNL     1      -7.317  51.355  55.170  0.00  0.00    +0.000 A 
ATOM     23  C   UNL     1      -8.640  50.967  54.964  0.00  0.00    +0.000 A 
ATOM     24  H   UNL     1      -8.011  55.953  51.286  0.00  0.00    +0.000 HD
ATOM     25  H   UNL     1     -10.764  53.363  52.618  0.00  0.00    +0.000 HD
ENDBRANCH   1  17
BRANCH   3  26
ATOM     26  O   UNL     1     -11.882  55.950  52.489  0.00  0.00    +0.000 OA
ATOM     27  H   UNL     1     -11.958  55.218  53.069  0.00  0.00    +0.000 HD
ENDBRANCH   3  26
BRANCH   5  28
ATOM     28  N   UNL     1     -10.671  55.299  47.006  0.00  0.00    +0.000 N 
ATOM     29  H   UNL     1     -10.077  55.928  46.536  0.00  0.00    +0.000 HD
BRANCH  28  30
ATOM     30  C   UNL     1     -11.334  54.181  46.322  0.00  0.00    +0.000 C 
BRANCH  30  31
ATOM     31  C   UNL     1     -10.468  53.659  45.213  0.00  0.00    +0.000 A 
ATOM     32  S   UNL     1      -8.768  53.898  45.268  0.00  0.00    +0.000 S 
ATOM     33  C   UNL     1     -10.839  52.930  44.108  0.00  0.00    +0.000 A 
ATOM     34  C   UNL     1      -8.536  53.032  43.814  0.00  0.00    +0.000 A 
ATOM     35  C   UNL     1      -9.725  52.570  43.293  0.00  0.00    +0.000 A 
ENDBRANCH  30  31
ENDBRANCH  28  30
ENDBRANCH   5  28
TORSDOF 5
ENDMDL
MODEL 7
REMARK VINA RESULT:      -8.0      2.810      8.282
REMARK  Name = 
REMARK  5 active torsions:
REMARK  status: ('A' for Active; 'I' for Inactive)
REMARK    1  A    between atoms: C_6  and  C_10
REMARK    2  A    between atoms: C_14  and  O_18
REMARK    3  A    between atoms: N_17  and  N_20
REMARK    4  A    between atoms: N_20  and  C_23
REMARK    5  A    between atoms: C_23  and  C_26
REMARK                            x       y       z     vdW  Elec       q    Type
REMARK                         _______ _______ _______ _____ _____    ______ ____
ROOT
ATOM      1  C   UNL     1      -9.791  53.973  50.611  0.00  0.00    +0.000 A 
ATOM      2  C   UNL     1     -11.078  54.686  50.860  0.00  0.00    +0.000 A 
ATOM      3  C   UNL     1      -9.393  53.695  49.360  0.00  0.00    +0.000 A 
ATOM      4  O   UNL     1     -11.380  54.919  52.035  0.00  0.00    +0.000 OA
ATOM      5  N   UNL     1     -11.839  55.077  49.757  0.00  0.00    +0.000 N 
ATOM      6  C   UNL     1     -10.207  54.114  48.210  0.00  0.00    +0.000 A 
ATOM      7  C   UNL     1     -11.422  54.792  48.422  0.00  0.00    +0.000 A 
ATOM      8  C   UNL     1      -9.772  53.865  46.898  0.00  0.00    +0.000 A 
ATOM      9  C   UNL     1     -12.182  55.192  47.310  0.00  0.00    +0.000 A 
ATOM     10  C   UNL     1     -10.521  54.293  45.803  0.00  0.00    +0.000 A 
ATOM     11  C   UNL     1     -11.726  54.953  46.010  0.00  0.00    +0.000 A 
ENDROOT
BRANCH   1  17
ATOM     12  S   UNL     1      -6.708  53.904  53.040  0.00  0.00    +0.000 S 
ATOM     13  O   UNL     1      -6.668  55.070  53.901  0.00  0.00    +0.000 OA
ATOM     14  O   UNL     1      -5.492  53.386  52.446  0.00  0.00    +0.000 OA
ATOM     15  N   UNL     1      -7.756  54.217  51.845  0.00  0.00    +0.000 N 
ATOM     16  C   UNL     1      -7.363  52.599  54.016  0.00  0.00    +0.000 A 
ATOM     17  C   UNL     1      -8.915  53.633  51.798  0.00  0.00    +0.000 C 
ATOM     18  C   UNL     1      -8.642  52.153  53.729  0.00  0.00    +0.000 A 
ATOM     19  C   UNL     1      -6.593  52.037  55.037  0.00  0.00    +0.000 A 
ATOM     20  N   UNL     1      -9.407  52.738  52.725  0.00  0.00    +0.000 N 
ATOM     21  C   UNL     1      -9.192  51.151  54.539  0.00  0.00    +0.000 A 
ATOM     22  C   UNL     1      -7.140  51.019  55.812  0.00  0.00    +0.000 A 
ATOM     23  C   UNL     1      -8.440  50.580  55.568  0.00  0.00    +0.000 A 
ATOM     24  H   UNL     1      -7.509  54.861  51.141  0.00  0.00    +0.000 HD
ATOM     25  H   UNL     1     -10.361  52.499  52.673  0.00  0.00    +0.000 HD
ENDBRANCH   1  17
BRANCH   3  26
ATOM     26  O   UNL     1      -8.209  53.055  49.040  0.00  0.00    +0.000 OA
ATOM     27  H   UNL     1      -8.197  52.403  48.366  0.00  0.00    +0.000 HD
ENDBRANCH   3  26
BRANCH   5  28
ATOM     28  N   UNL     1     -13.112  55.723  49.937  0.00  0.00    +0.000 N 
ATOM     29  H   UNL     1     -13.951  55.217  50.034  0.00  0.00    +0.000 HD
BRANCH  28  30
ATOM     30  C   UNL     1     -13.068  57.191  49.965  0.00  0.00    +0.000 C 
BRANCH  30  31
ATOM     31  C   UNL     1     -13.841  57.714  51.140  0.00  0.00    +0.000 A 
ATOM     32  S   UNL     1     -14.531  59.285  51.082  0.00  0.00    +0.000 S 
ATOM     33  C   UNL     1     -14.143  57.074  52.320  0.00  0.00    +0.000 A 
ATOM     34  C   UNL     1     -15.226  59.105  52.633  0.00  0.00    +0.000 A 
ATOM     35  C   UNL     1     -14.940  57.877  53.188  0.00  0.00    +0.000 A 
ENDBRANCH  30  31
ENDBRANCH  28  30
ENDBRANCH   5  28
TORSDOF 5
ENDMDL
MODEL 8
REMARK VINA RESULT:      -8.0      4.502      7.371
REMARK  Name = 
REMARK  5 active torsions:
REMARK  status: ('A' for Active; 'I' for Inactive)
REMARK    1  A    between atoms: C_6  and  C_10
REMARK    2  A    between atoms: C_14  and  O_18
REMARK    3  A    between atoms: N_17  and  N_20
REMARK    4  A    between atoms: N_20  and  C_23
REMARK    5  A    between atoms: C_23  and  C_26
REMARK                            x       y       z     vdW  Elec       q    Type
REMARK                         _______ _______ _______ _____ _____    ______ ____
ROOT
ATOM      1  C   UNL     1     -11.308  54.684  48.345  0.00  0.00    +0.000 A 
ATOM      2  C   UNL     1     -11.136  54.177  49.739  0.00  0.00    +0.000 A 
ATOM      3  C   UNL     1     -12.156  55.690  48.084  0.00  0.00    +0.000 A 
ATOM      4  O   UNL     1     -10.332  53.255  49.912  0.00  0.00    +0.000 OA
ATOM      5  N   UNL     1     -11.859  54.796  50.760  0.00  0.00    +0.000 N 
ATOM      6  C   UNL     1     -12.911  56.330  49.170  0.00  0.00    +0.000 A 
ATOM      7  C   UNL     1     -12.759  55.872  50.492  0.00  0.00    +0.000 A 
ATOM      8  C   UNL     1     -13.765  57.413  48.906  0.00  0.00    +0.000 A 
ATOM      9  C   UNL     1     -13.483  56.500  51.518  0.00  0.00    +0.000 A 
ATOM     10  C   UNL     1     -14.454  58.048  49.938  0.00  0.00    +0.000 A 
ATOM     11  C   UNL     1     -14.315  57.589  51.242  0.00  0.00    +0.000 A 
ENDROOT
BRANCH   1  17
ATOM     12  S   UNL     1      -8.210  53.937  46.053  0.00  0.00    +0.000 S 
ATOM     13  O   UNL     1      -7.279  53.020  46.680  0.00  0.00    +0.000 OA
ATOM     14  O   UNL     1      -7.727  55.084  45.311  0.00  0.00    +0.000 OA
ATOM     15  N   UNL     1      -9.216  54.472  47.204  0.00  0.00    +0.000 N 
ATOM     16  C   UNL     1      -9.143  52.982  44.912  0.00  0.00    +0.000 A 
ATOM     17  C   UNL     1     -10.454  54.082  47.250  0.00  0.00    +0.000 C 
ATOM     18  C   UNL     1     -10.471  52.728  45.211  0.00  0.00    +0.000 A 
ATOM     19  C   UNL     1      -8.543  52.512  43.741  0.00  0.00    +0.000 A 
ATOM     20  N   UNL     1     -11.049  53.181  46.393  0.00  0.00    +0.000 N 
ATOM     21  C   UNL     1     -11.205  51.920  44.334  0.00  0.00    +0.000 A 
ATOM     22  C   UNL     1      -9.294  51.738  42.861  0.00  0.00    +0.000 A 
ATOM     23  C   UNL     1     -10.622  51.436  43.160  0.00  0.00    +0.000 A 
ATOM     24  H   UNL     1      -8.883  55.106  47.882  0.00  0.00    +0.000 HD
ATOM     25  H   UNL     1     -11.939  52.835  46.633  0.00  0.00    +0.000 HD
ENDBRANCH   1  17
BRANCH   3  26
ATOM     26  O   UNL     1     -12.363  56.232  46.827  0.00  0.00    +0.000 OA
ATOM     27  H   UNL     1     -13.138  56.016  46.346  0.00  0.00    +0.000 HD
ENDBRANCH   3  26
BRANCH   5  28
ATOM     28  N   UNL     1     -11.771  54.318  52.113  0.00  0.00    +0.000 N 
ATOM     29  H   UNL     1     -12.459  53.738  52.513  0.00  0.00    +0.000 HD
BRANCH  28  30
ATOM     30  C   UNL     1     -10.582  54.758  52.854  0.00  0.00    +0.000 C 
BRANCH  30  31
ATOM     31  C   UNL     1      -9.820  53.573  53.371  0.00  0.00    +0.000 A 
ATOM     32  S   UNL     1      -8.106  53.548  53.277  0.00  0.00    +0.000 S 
ATOM     33  C   UNL     1     -10.308  52.447  53.992  0.00  0.00    +0.000 A 
ATOM     34  C   UNL     1      -8.023  52.032  54.060  0.00  0.00    +0.000 A 
ATOM     35  C   UNL     1      -9.271  51.550  54.387  0.00  0.00    +0.000 A 
ENDBRANCH  30  31
ENDBRANCH  28  30
ENDBRANCH   5  28
TORSDOF 5
ENDMDL
MODEL 9
REMARK VINA RESULT:      -7.9      3.762      6.887
REMARK  Name = 
REMARK  5 active torsions:
REMARK  status: ('A' for Active; 'I' for Inactive)
REMARK    1  A    between atoms: C_6  and  C_10
REMARK    2  A    between atoms: C_14  and  O_18
REMARK    3  A    between atoms: N_17  and  N_20
REMARK    4  A    between atoms: N_20  and  C_23
REMARK    5  A    between atoms: C_23  and  C_26
REMARK                            x       y       z     vdW  Elec       q    Type
REMARK                         _______ _______ _______ _____ _____    ______ ____
ROOT
ATOM      1  C   UNL     1     -12.088  55.068  49.005  0.00  0.00    +0.000 A 
ATOM      2  C   UNL     1     -11.532  54.626  50.318  0.00  0.00    +0.000 A 
ATOM      3  C   UNL     1     -13.029  56.024  48.948  0.00  0.00    +0.000 A 
ATOM      4  O   UNL     1     -10.662  53.749  50.298  0.00  0.00    +0.000 OA
ATOM      5  N   UNL     1     -11.998  55.251  51.476  0.00  0.00    +0.000 N 
ATOM      6  C   UNL     1     -13.509  56.671  50.178  0.00  0.00    +0.000 A 
ATOM      7  C   UNL     1     -12.994  56.273  51.425  0.00  0.00    +0.000 A 
ATOM      8  C   UNL     1     -14.460  57.702  50.119  0.00  0.00    +0.000 A 
ATOM      9  C   UNL     1     -13.458  56.907  52.588  0.00  0.00    +0.000 A 
ATOM     10  C   UNL     1     -14.891  58.345  51.277  0.00  0.00    +0.000 A 
ATOM     11  C   UNL     1     -14.392  57.945  52.511  0.00  0.00    +0.000 A 
ENDROOT
BRANCH   1  17
ATOM     12  S   UNL     1     -11.569  52.632  45.971  0.00  0.00    +0.000 S 
ATOM     13  O   UNL     1     -12.512  52.888  44.901  0.00  0.00    +0.000 OA
ATOM     14  O   UNL     1     -11.234  51.274  46.348  0.00  0.00    +0.000 OA
ATOM     15  N   UNL     1     -12.110  53.399  47.291  0.00  0.00    +0.000 N 
ATOM     16  C   UNL     1     -10.059  53.383  45.482  0.00  0.00    +0.000 A 
ATOM     17  C   UNL     1     -11.517  54.464  47.740  0.00  0.00    +0.000 C 
ATOM     18  C   UNL     1      -9.651  54.521  46.158  0.00  0.00    +0.000 A 
ATOM     19  C   UNL     1      -9.306  52.825  44.446  0.00  0.00    +0.000 A 
ATOM     20  N   UNL     1     -10.423  55.080  47.171  0.00  0.00    +0.000 N 
ATOM     21  C   UNL     1      -8.477  55.157  45.735  0.00  0.00    +0.000 A 
ATOM     22  C   UNL     1      -8.123  53.449  44.059  0.00  0.00    +0.000 A 
ATOM     23  C   UNL     1      -7.712  54.618  44.698  0.00  0.00    +0.000 A 
ATOM     24  H   UNL     1     -12.903  53.052  47.763  0.00  0.00    +0.000 HD
ATOM     25  H   UNL     1     -10.173  55.974  47.502  0.00  0.00    +0.000 HD
ENDBRANCH   1  17
BRANCH   3  26
ATOM     26  O   UNL     1     -13.585  56.505  47.776  0.00  0.00    +0.000 OA
ATOM     27  H   UNL     1     -13.465  56.035  46.974  0.00  0.00    +0.000 HD
ENDBRANCH   3  26
BRANCH   5  28
ATOM     28  N   UNL     1     -11.534  54.831  52.771  0.00  0.00    +0.000 N 
ATOM     29  H   UNL     1     -12.142  54.470  53.457  0.00  0.00    +0.000 HD
BRANCH  28  30
ATOM     30  C   UNL     1     -10.091  54.981  52.996  0.00  0.00    +0.000 C 
BRANCH  30  31
ATOM     31  C   UNL     1      -9.499  53.685  53.470  0.00  0.00    +0.000 A 
ATOM     32  S   UNL     1      -7.797  53.527  53.629  0.00  0.00    +0.000 S 
ATOM     33  C   UNL     1     -10.151  52.542  53.868  0.00  0.00    +0.000 A 
ATOM     34  C   UNL     1      -7.938  51.932  54.224  0.00  0.00    +0.000 A 
ATOM     35  C   UNL     1      -9.251  51.523  54.300  0.00  0.00    +0.000 A 
ENDBRANCH  30  31
ENDBRANCH  28  30
ENDBRANCH   5  28
TORSDOF 5
ENDMDL
