MODEL 1
REMARK VINA RESULT:      -8.4      0.000      0.000
REMARK  Name = 
REMARK  6 active torsions:
REMARK  status: ('A' for Active; 'I' for Inactive)
REMARK    1  A    between atoms: C_6  and  C_10
REMARK    2  A    between atoms: C_14  and  O_18
REMARK    3  A    between atoms: N_17  and  N_20
REMARK    4  A    between atoms: N_20  and  C_23
REMARK    5  A    between atoms: C_23  and  C_26
REMARK    6  A    between atoms: C_23  and  C_27
REMARK                            x       y       z     vdW  Elec       q    Type
REMARK                         _______ _______ _______ _____ _____    ______ ____
ROOT
ATOM      1  C   UNL     1     -10.082  54.507  52.202  0.00  0.00    +0.000 A 
ATOM      2  C   UNL     1      -8.690  55.027  52.014  0.00  0.00    +0.000 A 
ATOM      3  C   UNL     1     -10.300  53.423  52.971  0.00  0.00    +0.000 A 
ATOM      4  O   UNL     1      -8.506  55.961  51.227  0.00  0.00    +0.000 OA
ATOM      5  N   UNL     1      -7.680  54.459  52.795  0.00  0.00    +0.000 N 
ATOM      6  C   UNL     1      -9.189  52.746  53.648  0.00  0.00    +0.000 A 
ATOM      7  C   UNL     1      -7.896  53.288  53.572  0.00  0.00    +0.000 A 
ATOM      8  C   UNL     1      -9.412  51.585  54.407  0.00  0.00    +0.000 A 
ATOM      9  C   UNL     1      -6.850  52.658  54.262  0.00  0.00    +0.000 A 
ATOM     10  C   UNL     1      -8.368  50.976  55.100  0.00  0.00    +0.000 A 
ATOM     11  C   UNL     1      -7.088  51.513  55.027  0.00  0.00    +0.000 A 
ENDROOT
BRANCH   1  17
ATOM     12  S   UNL     1     -12.516  56.060  49.547  0.00  0.00    +0.000 S 
ATOM     13  O   UNL     1     -13.404  55.062  48.984  0.00  0.00    +0.000 OA
ATOM     14  O   UNL     1     -11.928  57.075  48.697  0.00  0.00    +0.000 OA
ATOM     15  N   UNL     1     -11.321  55.293  50.316  0.00  0.00    +0.000 N 
ATOM     16  C   UNL     1     -13.467  56.922  50.746  0.00  0.00    +0.000 A 
ATOM     17  C   UNL     1     -11.251  55.268  51.616  0.00  0.00    +0.000 C 
ATOM     18  C   UNL     1     -13.165  56.721  52.085  0.00  0.00    +0.000 A 
ATOM     19  C   UNL     1     -14.487  57.781  50.332  0.00  0.00    +0.000 A 
ATOM     20  N   UNL     1     -12.149  55.856  52.479  0.00  0.00    +0.000 N 
ATOM     21  C   UNL     1     -13.968  57.357  53.038  0.00  0.00    +0.000 A 
ATOM     22  C   UNL     1     -15.253  58.436  51.288  0.00  0.00    +0.000 A 
ATOM     23  C   UNL     1     -14.998  58.215  52.644  0.00  0.00    +0.000 A 
ATOM     24  H   UNL     1     -10.628  54.834  49.789  0.00  0.00    +0.000 HD
ATOM     25  H   UNL     1     -12.067  55.651  53.439  0.00  0.00    +0.000 HD
ENDBRANCH   1  17
BRANCH   3  26
ATOM     26  O   UNL     1     -11.550  52.891  53.240  0.00  0.00    +0.000 OA
ATOM     27  H   UNL     1     -12.322  53.352  52.981  0.00  0.00    +0.000 HD
ENDBRANCH   3  26
BRANCH   5  28
ATOM     28  N   UNL     1      -6.358  55.012  52.754  0.00  0.00    +0.000 N 
ATOM     29  H   UNL     1      -6.103  55.828  53.243  0.00  0.00    +0.000 HD
BRANCH  28  30
ATOM     30  C   UNL     1      -5.414  54.246  51.915  0.00  0.00    +0.000 C 
ATOM     31  C   UNL     1      -5.356  54.732  50.466  0.00  0.00    +0.000 C 
ATOM     32  C   UNL     1      -4.017  54.357  52.536  0.00  0.00    +0.000 C 
ENDBRANCH  28  30
ENDBRANCH   5  28
TORSDOF 4
ENDMDL
MODEL 2
REMARK VINA RESULT:      -8.3      2.968      7.202
REMARK  Name = 
REMARK  6 active torsions:
REMARK  status: ('A' for Active; 'I' for Inactive)
REMARK    1  A    between atoms: C_6  and  C_10
REMARK    2  A    between atoms: C_14  and  O_18
REMARK    3  A    between atoms: N_17  and  N_20
REMARK    4  A    between atoms: N_20  and  C_23
REMARK    5  A    between atoms: C_23  and  C_26
REMARK    6  A    between atoms: C_23  and  C_27
REMARK                            x       y       z     vdW  Elec       q    Type
REMARK                         _______ _______ _______ _____ _____    ______ ____
ROOT
ATOM      1  C   UNL     1     -10.191  55.323  50.727  0.00  0.00    +0.000 A 
ATOM      2  C   UNL     1      -9.747  55.398  49.299  0.00  0.00    +0.000 A 
ATOM      3  C   UNL     1     -11.441  55.690  51.067  0.00  0.00    +0.000 A 
ATOM      4  O   UNL     1      -8.567  55.150  49.029  0.00  0.00    +0.000 OA
ATOM      5  N   UNL     1     -10.719  55.686  48.338  0.00  0.00    +0.000 N 
ATOM      6  C   UNL     1     -12.392  56.150  50.049  0.00  0.00    +0.000 A 
ATOM      7  C   UNL     1     -12.027  56.117  48.693  0.00  0.00    +0.000 A 
ATOM      8  C   UNL     1     -13.678  56.581  50.411  0.00  0.00    +0.000 A 
ATOM      9  C   UNL     1     -12.961  56.515  47.726  0.00  0.00    +0.000 A 
ATOM     10  C   UNL     1     -14.602  56.960  49.440  0.00  0.00    +0.000 A 
ATOM     11  C   UNL     1     -14.243  56.927  48.098  0.00  0.00    +0.000 A 
ENDROOT
BRANCH   1  17
ATOM     12  S   UNL     1      -7.030  54.814  52.993  0.00  0.00    +0.000 S 
ATOM     13  O   UNL     1      -6.994  55.765  54.087  0.00  0.00    +0.000 OA
ATOM     14  O   UNL     1      -5.813  54.476  52.281  0.00  0.00    +0.000 OA
ATOM     15  N   UNL     1      -8.117  55.327  51.916  0.00  0.00    +0.000 N 
ATOM     16  C   UNL     1      -7.619  53.312  53.687  0.00  0.00    +0.000 A 
ATOM     17  C   UNL     1      -9.265  54.732  51.768  0.00  0.00    +0.000 C 
ATOM     18  C   UNL     1      -8.896  52.892  53.343  0.00  0.00    +0.000 A 
ATOM     19  C   UNL     1      -6.802  52.583  54.552  0.00  0.00    +0.000 A 
ATOM     20  N   UNL     1      -9.699  53.636  52.483  0.00  0.00    +0.000 N 
ATOM     21  C   UNL     1      -9.388  51.732  53.948  0.00  0.00    +0.000 A 
ATOM     22  C   UNL     1      -7.289  51.411  55.119  0.00  0.00    +0.000 A 
ATOM     23  C   UNL     1      -8.588  50.991  54.824  0.00  0.00    +0.000 A 
ATOM     24  H   UNL     1      -7.907  56.110  51.356  0.00  0.00    +0.000 HD
ATOM     25  H   UNL     1     -10.639  53.362  52.379  0.00  0.00    +0.000 HD
ENDBRANCH   1  17
BRANCH   3  26
ATOM     26  O   UNL     1     -11.959  55.619  52.349  0.00  0.00    +0.000 OA
ATOM     27  H   UNL     1     -11.939  56.372  52.905  0.00  0.00    +0.000 HD
ENDBRANCH   3  26
BRANCH   5  28
ATOM     28  N   UNL     1     -10.377  55.634  46.947  0.00  0.00    +0.000 N 
ATOM     29  H   UNL     1     -10.139  56.434  46.423  0.00  0.00    +0.000 HD
BRANCH  28  30
ATOM     30  C   UNL     1     -10.411  54.274  46.371  0.00  0.00    +0.000 C 
ATOM     31  C   UNL     1     -11.563  54.058  45.388  0.00  0.00    +0.000 C 
ATOM     32  C   UNL     1      -9.083  54.022  45.648  0.00  0.00    +0.000 C 
ENDBRANCH  28  30
ENDBRANCH   5  28
TORSDOF 4
ENDMDL
MODEL 3
REMARK VINA RESULT:      -8.3      3.832      5.432
REMARK  Name = 
REMARK  6 active torsions:
REMARK  status: ('A' for Active; 'I' for Inactive)
REMARK    1  A    between atoms: C_6  and  C_10
REMARK    2  A    between atoms: C_14  and  O_18
REMARK    3  A    between atoms: N_17  and  N_20
REMARK    4  A    between atoms: N_20  and  C_23
REMARK    5  A    between atoms: C_23  and  C_26
REMARK    6  A    between atoms: C_23  and  C_27
REMARK                            x       y       z     vdW  Elec       q    Type
REMARK                         _______ _______ _______ _____ _____    ______ ____
ROOT
ATOM      1  C   UNL     1     -10.690  55.699  48.090  0.00  0.00    +0.000 A 
ATOM      2  C   UNL     1      -9.218  55.868  48.310  0.00  0.00    +0.000 A 
ATOM      3  C   UNL     1     -11.138  54.972  47.049  0.00  0.00    +0.000 A 
ATOM      4  O   UNL     1      -8.835  56.619  49.214  0.00  0.00    +0.000 OA
ATOM      5  N   UNL     1      -8.357  55.110  47.513  0.00  0.00    +0.000 N 
ATOM      6  C   UNL     1     -10.201  54.323  46.127  0.00  0.00    +0.000 A 
ATOM      7  C   UNL     1      -8.822  54.378  46.386  0.00  0.00    +0.000 A 
ATOM      8  C   UNL     1     -10.670  53.609  45.012  0.00  0.00    +0.000 A 
ATOM      9  C   UNL     1      -7.938  53.713  45.523  0.00  0.00    +0.000 A 
ATOM     10  C   UNL     1      -9.784  52.940  44.170  0.00  0.00    +0.000 A 
ATOM     11  C   UNL     1      -8.418  52.993  44.426  0.00  0.00    +0.000 A 
ENDROOT
BRANCH   1  17
ATOM     12  S   UNL     1     -13.033  55.907  51.229  0.00  0.00    +0.000 S 
ATOM     13  O   UNL     1     -12.278  56.102  52.451  0.00  0.00    +0.000 OA
ATOM     14  O   UNL     1     -14.167  55.004  51.208  0.00  0.00    +0.000 OA
ATOM     15  N   UNL     1     -12.006  55.451  50.070  0.00  0.00    +0.000 N 
ATOM     16  C   UNL     1     -13.666  57.489  50.802  0.00  0.00    +0.000 A 
ATOM     17  C   UNL     1     -11.667  56.255  49.103  0.00  0.00    +0.000 C 
ATOM     18  C   UNL     1     -13.128  58.129  49.695  0.00  0.00    +0.000 A 
ATOM     19  C   UNL     1     -14.683  58.057  51.570  0.00  0.00    +0.000 A 
ATOM     20  N   UNL     1     -12.109  57.550  48.944  0.00  0.00    +0.000 N 
ATOM     21  C   UNL     1     -13.586  59.417  49.397  0.00  0.00    +0.000 A 
ATOM     22  C   UNL     1     -15.157  59.322  51.242  0.00  0.00    +0.000 A 
ATOM     23  C   UNL     1     -14.599  60.006  50.160  0.00  0.00    +0.000 A 
ATOM     24  H   UNL     1     -11.626  54.543  50.095  0.00  0.00    +0.000 HD
ATOM     25  H   UNL     1     -11.676  58.103  48.254  0.00  0.00    +0.000 HD
ENDBRANCH   1  17
BRANCH   3  26
ATOM     26  O   UNL     1     -12.475  54.723  46.784  0.00  0.00    +0.000 OA
ATOM     27  H   UNL     1     -12.945  55.273  46.190  0.00  0.00    +0.000 HD
ENDBRANCH   3  26
BRANCH   5  28
ATOM     28  N   UNL     1      -6.948  55.130  47.775  0.00  0.00    +0.000 N 
ATOM     29  H   UNL     1      -6.310  55.652  47.235  0.00  0.00    +0.000 HD
BRANCH  28  30
ATOM     30  C   UNL     1      -6.540  54.301  48.927  0.00  0.00    +0.000 C 
ATOM     31  C   UNL     1      -5.961  52.943  48.525  0.00  0.00    +0.000 C 
ATOM     32  C   UNL     1      -5.488  55.074  49.730  0.00  0.00    +0.000 C 
ENDBRANCH  28  30
ENDBRANCH   5  28
TORSDOF 4
ENDMDL
MODEL 4
REMARK VINA RESULT:      -8.2      2.600      7.723
REMARK  Name = 
REMARK  6 active torsions:
REMARK  status: ('A' for Active; 'I' for Inactive)
REMARK    1  A    between atoms: C_6  and  C_10
REMARK    2  A    between atoms: C_14  and  O_18
REMARK    3  A    between atoms: N_17  and  N_20
REMARK    4  A    between atoms: N_20  and  C_23
REMARK    5  A    between atoms: C_23  and  C_26
REMARK    6  A    between atoms: C_23  and  C_27
REMARK                            x       y       z     vdW  Elec       q    Type
REMARK                         _______ _______ _______ _____ _____    ______ ____
ROOT
ATOM      1  C   UNL     1     -10.476  54.983  50.937  0.00  0.00    +0.000 A 
ATOM      2  C   UNL     1     -11.685  55.723  51.422  0.00  0.00    +0.000 A 
ATOM      3  C   UNL     1     -10.272  54.814  49.617  0.00  0.00    +0.000 A 
ATOM      4  O   UNL     1     -11.899  55.779  52.638  0.00  0.00    +0.000 OA
ATOM      5  N   UNL     1     -12.473  56.365  50.464  0.00  0.00    +0.000 N 
ATOM      6  C   UNL     1     -11.214  55.361  48.635  0.00  0.00    +0.000 A 
ATOM      7  C   UNL     1     -12.289  56.153  49.070  0.00  0.00    +0.000 A 
ATOM      8  C   UNL     1     -11.027  55.139  47.261  0.00  0.00    +0.000 A 
ATOM      9  C   UNL     1     -13.156  56.709  48.118  0.00  0.00    +0.000 A 
ATOM     10  C   UNL     1     -11.886  55.709  46.324  0.00  0.00    +0.000 A 
ATOM     11  C   UNL     1     -12.950  56.494  46.753  0.00  0.00    +0.000 A 
ENDROOT
BRANCH   1  17
ATOM     12  S   UNL     1      -7.134  54.861  52.987  0.00  0.00    +0.000 S 
ATOM     13  O   UNL     1      -7.111  55.861  54.037  0.00  0.00    +0.000 OA
ATOM     14  O   UNL     1      -5.943  54.601  52.202  0.00  0.00    +0.000 OA
ATOM     15  N   UNL     1      -8.335  55.226  51.972  0.00  0.00    +0.000 N 
ATOM     16  C   UNL     1      -7.534  53.346  53.779  0.00  0.00    +0.000 A 
ATOM     17  C   UNL     1      -9.431  54.524  51.931  0.00  0.00    +0.000 C 
ATOM     18  C   UNL     1      -8.787  52.799  53.545  0.00  0.00    +0.000 A 
ATOM     19  C   UNL     1      -6.596  52.732  54.611  0.00  0.00    +0.000 A 
ATOM     20  N   UNL     1      -9.712  53.428  52.717  0.00  0.00    +0.000 N 
ATOM     21  C   UNL     1      -9.127  51.627  54.229  0.00  0.00    +0.000 A 
ATOM     22  C   UNL     1      -6.932  51.549  55.256  0.00  0.00    +0.000 A 
ATOM     23  C   UNL     1      -8.204  51.001  55.073  0.00  0.00    +0.000 A 
ATOM     24  H   UNL     1      -8.237  55.998  51.368  0.00  0.00    +0.000 HD
ATOM     25  H   UNL     1     -10.627  53.067  52.692  0.00  0.00    +0.000 HD
ENDBRANCH   1  17
BRANCH   3  26
ATOM     26  O   UNL     1      -9.168  54.183  49.068  0.00  0.00    +0.000 OA
ATOM     27  H   UNL     1      -8.761  54.533  48.302  0.00  0.00    +0.000 HD
ENDBRANCH   3  26
BRANCH   5  28
ATOM     28  N   UNL     1     -13.560  57.199  50.885  0.00  0.00    +0.000 N 
ATOM     29  H   UNL     1     -13.556  58.178  50.781  0.00  0.00    +0.000 HD
BRANCH  28  30
ATOM     30  C   UNL     1     -14.688  56.457  51.486  0.00  0.00    +0.000 C 
ATOM     31  C   UNL     1     -15.273  57.137  52.724  0.00  0.00    +0.000 C 
ATOM     32  C   UNL     1     -15.788  56.310  50.429  0.00  0.00    +0.000 C 
ENDBRANCH  28  30
ENDBRANCH   5  28
TORSDOF 4
ENDMDL
MODEL 5
REMARK VINA RESULT:      -8.0      3.831      4.438
REMARK  Name = 
REMARK  6 active torsions:
REMARK  status: ('A' for Active; 'I' for Inactive)
REMARK    1  A    between atoms: C_6  and  C_10
REMARK    2  A    between atoms: C_14  and  O_18
REMARK    3  A    between atoms: N_17  and  N_20
REMARK    4  A    between atoms: N_20  and  C_23
REMARK    5  A    between atoms: C_23  and  C_26
REMARK    6  A    between atoms: C_23  and  C_27
REMARK                            x       y       z     vdW  Elec       q    Type
REMARK                         _______ _______ _______ _____ _____    ______ ____
ROOT
ATOM      1  C   UNL     1     -12.339  54.248  49.763  0.00  0.00    +0.000 A 
ATOM      2  C   UNL     1     -11.758  54.122  48.388  0.00  0.00    +0.000 A 
ATOM      3  C   UNL     1     -12.035  53.341  50.711  0.00  0.00    +0.000 A 
ATOM      4  O   UNL     1     -12.129  54.910  47.512  0.00  0.00    +0.000 OA
ATOM      5  N   UNL     1     -10.774  53.150  48.192  0.00  0.00    +0.000 N 
ATOM      6  C   UNL     1     -11.123  52.229  50.421  0.00  0.00    +0.000 A 
ATOM      7  C   UNL     1     -10.483  52.163  49.173  0.00  0.00    +0.000 A 
ATOM      8  C   UNL     1     -10.848  51.255  51.395  0.00  0.00    +0.000 A 
ATOM      9  C   UNL     1      -9.577  51.121  48.925  0.00  0.00    +0.000 A 
ATOM     10  C   UNL     1      -9.935  50.233  51.143  0.00  0.00    +0.000 A 
ATOM     11  C   UNL     1      -9.300  50.167  49.908  0.00  0.00    +0.000 A 
ENDROOT
BRANCH   1  17
ATOM     12  S   UNL     1     -15.312  56.402  51.143  0.00  0.00    +0.000 S 
ATOM     13  O   UNL     1     -15.265  56.520  52.587  0.00  0.00    +0.000 OA
ATOM     14  O   UNL     1     -16.579  56.201  50.469  0.00  0.00    +0.000 OA
ATOM     15  N   UNL     1     -14.313  55.213  50.702  0.00  0.00    +0.000 N 
ATOM     16  C   UNL     1     -14.666  57.912  50.520  0.00  0.00    +0.000 A 
ATOM     17  C   UNL     1     -13.178  55.457  50.113  0.00  0.00    +0.000 C 
ATOM     18  C   UNL     1     -13.419  57.886  49.913  0.00  0.00    +0.000 A 
ATOM     19  C   UNL     1     -15.411  59.086  50.643  0.00  0.00    +0.000 A 
ATOM     20  N   UNL     1     -12.688  56.707  49.804  0.00  0.00    +0.000 N 
ATOM     21  C   UNL     1     -12.878  59.101  49.478  0.00  0.00    +0.000 A 
ATOM     22  C   UNL     1     -14.878  60.280  50.174  0.00  0.00    +0.000 A 
ATOM     23  C   UNL     1     -13.605  60.288  49.600  0.00  0.00    +0.000 A 
ATOM     24  H   UNL     1     -14.568  54.279  50.884  0.00  0.00    +0.000 HD
ATOM     25  H   UNL     1     -11.758  56.770  49.486  0.00  0.00    +0.000 HD
ENDBRANCH   1  17
BRANCH   3  26
ATOM     26  O   UNL     1     -12.486  53.391  52.019  0.00  0.00    +0.000 OA
ATOM     27  H   UNL     1     -12.372  52.653  52.583  0.00  0.00    +0.000 HD
ENDBRANCH   3  26
BRANCH   5  28
ATOM     28  N   UNL     1     -10.089  53.079  46.935  0.00  0.00    +0.000 N 
ATOM     29  H   UNL     1     -10.485  52.670  46.131  0.00  0.00    +0.000 HD
BRANCH  28  30
ATOM     30  C   UNL     1      -8.738  53.677  46.953  0.00  0.00    +0.000 C 
ATOM     31  C   UNL     1      -7.722  52.910  46.106  0.00  0.00    +0.000 C 
ATOM     32  C   UNL     1      -8.839  55.115  46.432  0.00  0.00    +0.000 C 
ENDBRANCH  28  30
ENDBRANCH   5  28
TORSDOF 4
ENDMDL
MODEL 6
REMARK VINA RESULT:      -8.0      3.114      7.267
REMARK  Name = 
REMARK  6 active torsions:
REMARK  status: ('A' for Active; 'I' for Inactive)
REMARK    1  A    between atoms: C_6  and  C_10
REMARK    2  A    between atoms: C_14  and  O_18
REMARK    3  A    between atoms: N_17  and  N_20
REMARK    4  A    between atoms: N_20  and  C_23
REMARK    5  A    between atoms: C_23  and  C_26
REMARK    6  A    between atoms: C_23  and  C_27
REMARK                            x       y       z     vdW  Elec       q    Type
REMARK                         _______ _______ _______ _____ _____    ______ ____
ROOT
ATOM      1  C   UNL     1     -10.339  55.016  50.485  0.00  0.00    +0.000 A 
ATOM      2  C   UNL     1      -9.866  55.114  49.068  0.00  0.00    +0.000 A 
ATOM      3  C   UNL     1     -11.563  55.462  50.822  0.00  0.00    +0.000 A 
ATOM      4  O   UNL     1      -8.704  54.788  48.805  0.00  0.00    +0.000 OA
ATOM      5  N   UNL     1     -10.796  55.515  48.106  0.00  0.00    +0.000 N 
ATOM      6  C   UNL     1     -12.458  56.035  49.811  0.00  0.00    +0.000 A 
ATOM      7  C   UNL     1     -12.074  56.030  48.461  0.00  0.00    +0.000 A 
ATOM      8  C   UNL     1     -13.715  56.548  50.173  0.00  0.00    +0.000 A 
ATOM      9  C   UNL     1     -12.958  56.537  47.497  0.00  0.00    +0.000 A 
ATOM     10  C   UNL     1     -14.590  57.035  49.206  0.00  0.00    +0.000 A 
ATOM     11  C   UNL     1     -14.212  57.030  47.868  0.00  0.00    +0.000 A 
ENDROOT
BRANCH   1  17
ATOM     12  S   UNL     1      -9.110  52.297  53.032  0.00  0.00    +0.000 S 
ATOM     13  O   UNL     1      -8.532  51.151  52.357  0.00  0.00    +0.000 OA
ATOM     14  O   UNL     1      -9.966  52.107  54.186  0.00  0.00    +0.000 OA
ATOM     15  N   UNL     1      -9.923  53.166  51.941  0.00  0.00    +0.000 N 
ATOM     16  C   UNL     1      -7.751  53.258  53.589  0.00  0.00    +0.000 A 
ATOM     17  C   UNL     1      -9.479  54.313  51.514  0.00  0.00    +0.000 C 
ATOM     18  C   UNL     1      -7.508  54.470  52.958  0.00  0.00    +0.000 A 
ATOM     19  C   UNL     1      -6.959  52.793  54.640  0.00  0.00    +0.000 A 
ATOM     20  N   UNL     1      -8.304  54.915  51.907  0.00  0.00    +0.000 N 
ATOM     21  C   UNL     1      -6.385  55.202  53.359  0.00  0.00    +0.000 A 
ATOM     22  C   UNL     1      -5.868  53.548  55.054  0.00  0.00    +0.000 A 
ATOM     23  C   UNL     1      -5.575  54.749  54.404  0.00  0.00    +0.000 A 
ATOM     24  H   UNL     1     -10.775  52.820  51.589  0.00  0.00    +0.000 HD
ATOM     25  H   UNL     1      -8.008  55.713  51.412  0.00  0.00    +0.000 HD
ENDBRANCH   1  17
BRANCH   3  26
ATOM     26  O   UNL     1     -12.107  55.379  52.093  0.00  0.00    +0.000 OA
ATOM     27  H   UNL     1     -12.300  56.159  52.573  0.00  0.00    +0.000 HD
ENDBRANCH   3  26
BRANCH   5  28
ATOM     28  N   UNL     1     -10.435  55.494  46.719  0.00  0.00    +0.000 N 
ATOM     29  H   UNL     1     -10.216  56.308  46.210  0.00  0.00    +0.000 HD
BRANCH  28  30
ATOM     30  C   UNL     1     -10.418  54.142  46.124  0.00  0.00    +0.000 C 
ATOM     31  C   UNL     1     -11.606  53.868  45.200  0.00  0.00    +0.000 C 
ATOM     32  C   UNL     1      -9.118  53.981  45.327  0.00  0.00    +0.000 C 
ENDBRANCH  28  30
ENDBRANCH   5  28
TORSDOF 4
ENDMDL
MODEL 7
REMARK VINA RESULT:      -7.8      1.253      3.316
REMARK  Name = 
REMARK  6 active torsions:
REMARK  status: ('A' for Active; 'I' for Inactive)
REMARK    1  A    between atoms: C_6  and  C_10
REMARK    2  A    between atoms: C_14  and  O_18
REMARK    3  A    between atoms: N_17  and  N_20
REMARK    4  A    between atoms: N_20  and  C_23
REMARK    5  A    between atoms: C_23  and  C_26
REMARK    6  A    between atoms: C_23  and  C_27
REMARK                            x       y       z     vdW  Elec       q    Type
REMARK                         _______ _______ _______ _____ _____    ______ ____
ROOT
ATOM      1  C   UNL     1      -9.301  54.543  51.935  0.00  0.00    +0.000 A 
ATOM      2  C   UNL     1      -9.345  53.733  53.193  0.00  0.00    +0.000 A 
ATOM      3  C   UNL     1      -8.123  54.796  51.334  0.00  0.00    +0.000 A 
ATOM      4  O   UNL     1     -10.426  53.599  53.777  0.00  0.00    +0.000 OA
ATOM      5  N   UNL     1      -8.160  53.118  53.604  0.00  0.00    +0.000 N 
ATOM      6  C   UNL     1      -6.870  54.271  51.888  0.00  0.00    +0.000 A 
ATOM      7  C   UNL     1      -6.907  53.417  53.001  0.00  0.00    +0.000 A 
ATOM      8  C   UNL     1      -5.637  54.579  51.290  0.00  0.00    +0.000 A 
ATOM      9  C   UNL     1      -5.707  52.884  53.493  0.00  0.00    +0.000 A 
ATOM     10  C   UNL     1      -4.453  54.032  51.778  0.00  0.00    +0.000 A 
ATOM     11  C   UNL     1      -4.488  53.185  52.880  0.00  0.00    +0.000 A 
ENDROOT
BRANCH   1  17
ATOM     12  S   UNL     1     -12.013  55.172  49.171  0.00  0.00    +0.000 S 
ATOM     13  O   UNL     1     -12.726  53.956  48.832  0.00  0.00    +0.000 OA
ATOM     14  O   UNL     1     -11.623  56.103  48.131  0.00  0.00    +0.000 OA
ATOM     15  N   UNL     1     -10.690  54.764  50.002  0.00  0.00    +0.000 N 
ATOM     16  C   UNL     1     -13.077  56.064  50.247  0.00  0.00    +0.000 A 
ATOM     17  C   UNL     1     -10.594  54.983  51.282  0.00  0.00    +0.000 C 
ATOM     18  C   UNL     1     -12.721  56.158  51.584  0.00  0.00    +0.000 A 
ATOM     19  C   UNL     1     -14.236  56.654  49.740  0.00  0.00    +0.000 A 
ATOM     20  N   UNL     1     -11.564  55.558  52.073  0.00  0.00    +0.000 N 
ATOM     21  C   UNL     1     -13.604  56.812  52.451  0.00  0.00    +0.000 A 
ATOM     22  C   UNL     1     -15.086  57.333  50.605  0.00  0.00    +0.000 A 
ATOM     23  C   UNL     1     -14.774  57.402  51.965  0.00  0.00    +0.000 A 
ATOM     24  H   UNL     1      -9.938  54.340  49.530  0.00  0.00    +0.000 HD
ATOM     25  H   UNL     1     -11.431  55.544  53.049  0.00  0.00    +0.000 HD
ENDBRANCH   1  17
BRANCH   3  26
ATOM     26  O   UNL     1      -7.980  55.498  50.149  0.00  0.00    +0.000 OA
ATOM     27  H   UNL     1      -7.177  55.938  49.959  0.00  0.00    +0.000 HD
ENDBRANCH   3  26
BRANCH   5  28
ATOM     28  N   UNL     1      -8.178  52.222  54.722  0.00  0.00    +0.000 N 
ATOM     29  H   UNL     1      -7.669  52.386  55.550  0.00  0.00    +0.000 HD
BRANCH  28  30
ATOM     30  C   UNL     1      -9.031  51.031  54.524  0.00  0.00    +0.000 C 
ATOM     31  C   UNL     1      -8.668  50.224  53.277  0.00  0.00    +0.000 C 
ATOM     32  C   UNL     1      -8.899  50.132  55.758  0.00  0.00    +0.000 C 
ENDBRANCH  28  30
ENDBRANCH   5  28
TORSDOF 4
ENDMDL
MODEL 8
REMARK VINA RESULT:      -7.8      1.587      2.318
REMARK  Name = 
REMARK  6 active torsions:
REMARK  status: ('A' for Active; 'I' for Inactive)
REMARK    1  A    between atoms: C_6  and  C_10
REMARK    2  A    between atoms: C_14  and  O_18
REMARK    3  A    between atoms: N_17  and  N_20
REMARK    4  A    between atoms: N_20  and  C_23
REMARK    5  A    between atoms: C_23  and  C_26
REMARK    6  A    between atoms: C_23  and  C_27
REMARK                            x       y       z     vdW  Elec       q    Type
REMARK                         _______ _______ _______ _____ _____    ______ ____
ROOT
ATOM      1  C   UNL     1     -10.080  54.471  52.046  0.00  0.00    +0.000 A 
ATOM      2  C   UNL     1      -8.671  54.965  51.926  0.00  0.00    +0.000 A 
ATOM      3  C   UNL     1     -10.360  53.407  52.822  0.00  0.00    +0.000 A 
ATOM      4  O   UNL     1      -8.427  55.880  51.133  0.00  0.00    +0.000 OA
ATOM      5  N   UNL     1      -7.717  54.397  52.774  0.00  0.00    +0.000 N 
ATOM      6  C   UNL     1      -9.300  52.726  53.573  0.00  0.00    +0.000 A 
ATOM      7  C   UNL     1      -7.996  53.246  53.560  0.00  0.00    +0.000 A 
ATOM      8  C   UNL     1      -9.585  51.584  54.341  0.00  0.00    +0.000 A 
ATOM      9  C   UNL     1      -7.002  52.612  54.320  0.00  0.00    +0.000 A 
ATOM     10  C   UNL     1      -8.593  50.973  55.103  0.00  0.00    +0.000 A 
ATOM     11  C   UNL     1      -7.301  51.487  55.093  0.00  0.00    +0.000 A 
ENDROOT
BRANCH   1  17
ATOM     12  S   UNL     1     -13.433  56.456  51.592  0.00  0.00    +0.000 S 
ATOM     13  O   UNL     1     -13.314  57.824  52.056  0.00  0.00    +0.000 OA
ATOM     14  O   UNL     1     -14.637  55.695  51.863  0.00  0.00    +0.000 OA
ATOM     15  N   UNL     1     -12.172  55.621  52.158  0.00  0.00    +0.000 N 
ATOM     16  C   UNL     1     -13.292  56.532  49.843  0.00  0.00    +0.000 A 
ATOM     17  C   UNL     1     -11.201  55.239  51.380  0.00  0.00    +0.000 C 
ATOM     18  C   UNL     1     -12.138  56.029  49.259  0.00  0.00    +0.000 A 
ATOM     19  C   UNL     1     -14.329  57.083  49.089  0.00  0.00    +0.000 A 
ATOM     20  N   UNL     1     -11.111  55.488  50.028  0.00  0.00    +0.000 N 
ATOM     21  C   UNL     1     -11.999  56.152  47.873  0.00  0.00    +0.000 A 
ATOM     22  C   UNL     1     -14.195  57.166  47.708  0.00  0.00    +0.000 A 
ATOM     23  C   UNL     1     -13.023  56.709  47.101  0.00  0.00    +0.000 A 
ATOM     24  H   UNL     1     -12.137  55.396  53.116  0.00  0.00    +0.000 HD
ATOM     25  H   UNL     1     -10.264  55.270  49.575  0.00  0.00    +0.000 HD
ENDBRANCH   1  17
BRANCH   3  26
ATOM     26  O   UNL     1     -11.632  52.900  53.030  0.00  0.00    +0.000 OA
ATOM     27  H   UNL     1     -11.838  52.468  53.834  0.00  0.00    +0.000 HD
ENDBRANCH   3  26
BRANCH   5  28
ATOM     28  N   UNL     1      -6.385  54.927  52.797  0.00  0.00    +0.000 N 
ATOM     29  H   UNL     1      -6.140  55.739  53.298  0.00  0.00    +0.000 HD
BRANCH  28  30
ATOM     30  C   UNL     1      -5.414  54.145  52.005  0.00  0.00    +0.000 C 
ATOM     31  C   UNL     1      -5.299  54.609  50.552  0.00  0.00    +0.000 C 
ATOM     32  C   UNL     1      -4.041  54.258  52.676  0.00  0.00    +0.000 C 
ENDBRANCH  28  30
ENDBRANCH   5  28
TORSDOF 4
ENDMDL
MODEL 9
REMARK VINA RESULT:      -7.7      2.669      7.743
REMARK  Name = 
REMARK  6 active torsions:
REMARK  status: ('A' for Active; 'I' for Inactive)
REMARK    1  A    between atoms: C_6  and  C_10
REMARK    2  A    between atoms: C_14  and  O_18
REMARK    3  A    between atoms: N_17  and  N_20
REMARK    4  A    between atoms: N_20  and  C_23
REMARK    5  A    between atoms: C_23  and  C_26
REMARK    6  A    between atoms: C_23  and  C_27
REMARK                            x       y       z     vdW  Elec       q    Type
REMARK                         _______ _______ _______ _____ _____    ______ ____
ROOT
ATOM      1  C   UNL     1     -10.856  54.982  50.856  0.00  0.00    +0.000 A 
ATOM      2  C   UNL     1     -11.963  55.799  51.447  0.00  0.00    +0.000 A 
ATOM      3  C   UNL     1     -10.731  54.879  49.519  0.00  0.00    +0.000 A 
ATOM      4  O   UNL     1     -12.114  55.797  52.673  0.00  0.00    +0.000 OA
ATOM      5  N   UNL     1     -12.727  56.575  50.572  0.00  0.00    +0.000 N 
ATOM      6  C   UNL     1     -11.659  55.577  48.622  0.00  0.00    +0.000 A 
ATOM      7  C   UNL     1     -12.630  56.437  49.160  0.00  0.00    +0.000 A 
ATOM      8  C   UNL     1     -11.560  55.427  47.229  0.00  0.00    +0.000 A 
ATOM      9  C   UNL     1     -13.481  57.134  48.290  0.00  0.00    +0.000 A 
ATOM     10  C   UNL     1     -12.400  56.136  46.375  0.00  0.00    +0.000 A 
ATOM     11  C   UNL     1     -13.361  56.990  46.906  0.00  0.00    +0.000 A 
ENDROOT
BRANCH   1  17
ATOM     12  S   UNL     1      -9.040  52.354  53.132  0.00  0.00    +0.000 S 
ATOM     13  O   UNL     1      -8.381  51.328  52.348  0.00  0.00    +0.000 OA
ATOM     14  O   UNL     1      -9.748  52.001  54.346  0.00  0.00    +0.000 OA
ATOM     15  N   UNL     1     -10.061  53.148  52.166  0.00  0.00    +0.000 N 
ATOM     16  C   UNL     1      -7.773  53.470  53.617  0.00  0.00    +0.000 A 
ATOM     17  C   UNL     1      -9.817  54.362  51.764  0.00  0.00    +0.000 C 
ATOM     18  C   UNL     1      -7.755  54.728  53.033  0.00  0.00    +0.000 A 
ATOM     19  C   UNL     1      -6.830  53.075  54.567  0.00  0.00    +0.000 A 
ATOM     20  N   UNL     1      -8.700  55.103  52.083  0.00  0.00    +0.000 N 
ATOM     21  C   UNL     1      -6.706  55.590  53.371  0.00  0.00    +0.000 A 
ATOM     22  C   UNL     1      -5.814  53.954  54.922  0.00  0.00    +0.000 A 
ATOM     23  C   UNL     1      -5.747  55.210  54.314  0.00  0.00    +0.000 A 
ATOM     24  H   UNL     1     -10.890  52.703  51.874  0.00  0.00    +0.000 HD
ATOM     25  H   UNL     1      -8.561  55.953  51.607  0.00  0.00    +0.000 HD
ENDBRANCH   1  17
BRANCH   3  26
ATOM     26  O   UNL     1      -9.721  54.183  48.876  0.00  0.00    +0.000 OA
ATOM     27  H   UNL     1      -9.318  54.543  48.112  0.00  0.00    +0.000 HD
ENDBRANCH   3  26
BRANCH   5  28
ATOM     28  N   UNL     1     -13.707  57.479  51.099  0.00  0.00    +0.000 N 
ATOM     29  H   UNL     1     -13.654  58.456  50.981  0.00  0.00    +0.000 HD
BRANCH  28  30
ATOM     30  C   UNL     1     -14.804  56.815  51.832  0.00  0.00    +0.000 C 
ATOM     31  C   UNL     1     -15.289  57.604  53.049  0.00  0.00    +0.000 C 
ATOM     32  C   UNL     1     -15.978  56.614  50.866  0.00  0.00    +0.000 C 
ENDBRANCH  28  30
ENDBRANCH   5  28
TORSDOF 4
ENDMDL
