MODEL 1
REMARK VINA RESULT:      -8.7      0.000      0.000
REMARK  Name = 
REMARK  5 active torsions:
REMARK  status: ('A' for Active; 'I' for Inactive)
REMARK    1  A    between atoms: C_6  and  C_10
REMARK    2  A    between atoms: C_14  and  O_18
REMARK    3  A    between atoms: N_17  and  N_20
REMARK    4  A    between atoms: N_20  and  C_23
REMARK    5  A    between atoms: C_23  and  C_26
REMARK                            x       y       z     vdW  Elec       q    Type
REMARK                         _______ _______ _______ _____ _____    ______ ____
ROOT
ATOM      1  C   UNL     1     -11.513  55.904  48.863  0.00  0.00    +0.000 A 
ATOM      2  C   UNL     1     -10.525  55.229  49.753  0.00  0.00    +0.000 A 
ATOM      3  C   UNL     1     -11.586  55.590  47.559  0.00  0.00    +0.000 A 
ATOM      4  O   UNL     1     -10.523  55.554  50.944  0.00  0.00    +0.000 OA
ATOM      5  N   UNL     1      -9.693  54.254  49.195  0.00  0.00    +0.000 N 
ATOM      6  C   UNL     1     -10.710  54.560  46.992  0.00  0.00    +0.000 A 
ATOM      7  C   UNL     1      -9.772  53.908  47.811  0.00  0.00    +0.000 A 
ATOM      8  C   UNL     1     -10.822  54.197  45.638  0.00  0.00    +0.000 A 
ATOM      9  C   UNL     1      -8.957  52.911  47.250  0.00  0.00    +0.000 A 
ATOM     10  C   UNL     1     -10.033  53.182  45.104  0.00  0.00    +0.000 A 
ATOM     11  C   UNL     1      -9.099  52.541  45.911  0.00  0.00    +0.000 A 
ENDROOT
BRANCH   1  17
ATOM     12  S   UNL     1     -13.563  59.195  49.440  0.00  0.00    +0.000 S 
ATOM     13  O   UNL     1     -14.691  59.286  48.541  0.00  0.00    +0.000 OA
ATOM     14  O   UNL     1     -12.755  60.365  49.728  0.00  0.00    +0.000 OA
ATOM     15  N   UNL     1     -12.577  58.041  48.877  0.00  0.00    +0.000 N 
ATOM     16  C   UNL     1     -14.202  58.659  50.982  0.00  0.00    +0.000 A 
ATOM     17  C   UNL     1     -12.484  56.889  49.472  0.00  0.00    +0.000 C 
ATOM     18  C   UNL     1     -13.922  57.365  51.391  0.00  0.00    +0.000 A 
ATOM     19  C   UNL     1     -14.960  59.535  51.762  0.00  0.00    +0.000 A 
ATOM     20  N   UNL     1     -13.184  56.498  50.592  0.00  0.00    +0.000 N 
ATOM     21  C   UNL     1     -14.471  56.917  52.597  0.00  0.00    +0.000 A 
ATOM     22  C   UNL     1     -15.478  59.087  52.974  0.00  0.00    +0.000 A 
ATOM     23  C   UNL     1     -15.239  57.777  53.388  0.00  0.00    +0.000 A 
ATOM     24  H   UNL     1     -12.039  58.215  48.070  0.00  0.00    +0.000 HD
ATOM     25  H   UNL     1     -13.160  55.546  50.842  0.00  0.00    +0.000 HD
ENDBRANCH   1  17
BRANCH   3  26
ATOM     26  O   UNL     1     -12.491  56.146  46.671  0.00  0.00    +0.000 OA
ATOM     27  H   UNL     1     -12.383  57.032  46.386  0.00  0.00    +0.000 HD
ENDBRANCH   3  26
BRANCH   5  28
ATOM     28  N   UNL     1      -8.682  53.608  49.986  0.00  0.00    +0.000 N 
ATOM     29  H   UNL     1      -8.783  52.683  50.310  0.00  0.00    +0.000 HD
BRANCH  28  30
ATOM     30  C   UNL     1      -7.489  54.415  50.280  0.00  0.00    +0.000 C 
BRANCH  30  31
ATOM     31  C   UNL     1      -7.279  54.555  51.762  0.00  0.00    +0.000 A 
ATOM     32  C   UNL     1      -7.224  55.813  52.363  0.00  0.00    +0.000 A 
ATOM     33  C   UNL     1      -7.133  53.442  52.589  0.00  0.00    +0.000 A 
ATOM     34  N   UNL     1      -7.012  56.016  53.681  0.00  0.00    +0.000 NA
ATOM     35  C   UNL     1      -6.909  53.619  53.950  0.00  0.00    +0.000 A 
ATOM     36  C   UNL     1      -6.851  54.913  54.442  0.00  0.00    +0.000 A 
ENDBRANCH  30  31
ENDBRANCH  28  30
ENDBRANCH   5  28
TORSDOF 5
ENDMDL
MODEL 2
REMARK VINA RESULT:      -8.7      2.623      7.142
REMARK  Name = 
REMARK  5 active torsions:
REMARK  status: ('A' for Active; 'I' for Inactive)
REMARK    1  A    between atoms: C_6  and  C_10
REMARK    2  A    between atoms: C_14  and  O_18
REMARK    3  A    between atoms: N_17  and  N_20
REMARK    4  A    between atoms: N_20  and  C_23
REMARK    5  A    between atoms: C_23  and  C_26
REMARK                            x       y       z     vdW  Elec       q    Type
REMARK                         _______ _______ _______ _____ _____    ______ ____
ROOT
ATOM      1  C   UNL     1      -9.159  54.314  49.891  0.00  0.00    +0.000 A 
ATOM      2  C   UNL     1     -10.206  55.374  49.965  0.00  0.00    +0.000 A 
ATOM      3  C   UNL     1      -9.034  53.549  48.794  0.00  0.00    +0.000 A 
ATOM      4  O   UNL     1     -10.253  56.051  50.997  0.00  0.00    +0.000 OA
ATOM      5  N   UNL     1     -11.037  55.556  48.857  0.00  0.00    +0.000 N 
ATOM      6  C   UNL     1      -9.912  53.759  47.638  0.00  0.00    +0.000 A 
ATOM      7  C   UNL     1     -10.905  54.753  47.682  0.00  0.00    +0.000 A 
ATOM      8  C   UNL     1      -9.747  52.992  46.471  0.00  0.00    +0.000 A 
ATOM      9  C   UNL     1     -11.721  54.949  46.556  0.00  0.00    +0.000 A 
ATOM     10  C   UNL     1     -10.540  53.221  45.350  0.00  0.00    +0.000 A 
ATOM     11  C   UNL     1     -11.528  54.199  45.394  0.00  0.00    +0.000 A 
ENDROOT
BRANCH   1  17
ATOM     12  S   UNL     1      -7.778  54.099  53.554  0.00  0.00    +0.000 S 
ATOM     13  O   UNL     1      -8.003  52.793  54.133  0.00  0.00    +0.000 OA
ATOM     14  O   UNL     1      -7.977  55.299  54.344  0.00  0.00    +0.000 OA
ATOM     15  N   UNL     1      -8.708  54.218  52.233  0.00  0.00    +0.000 N 
ATOM     16  C   UNL     1      -6.101  54.130  53.042  0.00  0.00    +0.000 A 
ATOM     17  C   UNL     1      -8.190  54.170  51.042  0.00  0.00    +0.000 C 
ATOM     18  C   UNL     1      -5.832  54.095  51.684  0.00  0.00    +0.000 A 
ATOM     19  C   UNL     1      -5.085  54.201  53.998  0.00  0.00    +0.000 A 
ATOM     20  N   UNL     1      -6.855  54.003  50.746  0.00  0.00    +0.000 N 
ATOM     21  C   UNL     1      -4.495  54.070  51.273  0.00  0.00    +0.000 A 
ATOM     22  C   UNL     1      -3.759  54.204  53.576  0.00  0.00    +0.000 A 
ATOM     23  C   UNL     1      -3.464  54.132  52.215  0.00  0.00    +0.000 A 
ATOM     24  H   UNL     1      -9.682  54.327  52.335  0.00  0.00    +0.000 HD
ATOM     25  H   UNL     1      -6.611  53.805  49.813  0.00  0.00    +0.000 HD
ENDBRANCH   1  17
BRANCH   3  26
ATOM     26  O   UNL     1      -8.074  52.566  48.633  0.00  0.00    +0.000 OA
ATOM     27  H   UNL     1      -7.171  52.801  48.555  0.00  0.00    +0.000 HD
ENDBRANCH   3  26
BRANCH   5  28
ATOM     28  N   UNL     1     -12.102  56.521  48.886  0.00  0.00    +0.000 N 
ATOM     29  H   UNL     1     -12.010  57.414  48.479  0.00  0.00    +0.000 HD
BRANCH  28  30
ATOM     30  C   UNL     1     -13.336  56.092  49.561  0.00  0.00    +0.000 C 
BRANCH  30  31
ATOM     31  C   UNL     1     -13.738  57.069  50.631  0.00  0.00    +0.000 A 
ATOM     32  C   UNL     1     -14.172  58.353  50.303  0.00  0.00    +0.000 A 
ATOM     33  C   UNL     1     -13.695  56.731  51.983  0.00  0.00    +0.000 A 
ATOM     34  N   UNL     1     -14.523  59.290  51.211  0.00  0.00    +0.000 NA
ATOM     35  C   UNL     1     -14.046  57.676  52.940  0.00  0.00    +0.000 A 
ATOM     36  C   UNL     1     -14.443  58.932  52.509  0.00  0.00    +0.000 A 
ENDBRANCH  30  31
ENDBRANCH  28  30
ENDBRANCH   5  28
TORSDOF 5
ENDMDL
MODEL 3
REMARK VINA RESULT:      -8.6      3.083      4.932
REMARK  Name = 
REMARK  5 active torsions:
REMARK  status: ('A' for Active; 'I' for Inactive)
REMARK    1  A    between atoms: C_6  and  C_10
REMARK    2  A    between atoms: C_14  and  O_18
REMARK    3  A    between atoms: N_17  and  N_20
REMARK    4  A    between atoms: N_20  and  C_23
REMARK    5  A    between atoms: C_23  and  C_26
REMARK                            x       y       z     vdW  Elec       q    Type
REMARK                         _______ _______ _______ _____ _____    ______ ____
ROOT
ATOM      1  C   UNL     1     -10.112  54.567  52.172  0.00  0.00    +0.000 A 
ATOM      2  C   UNL     1      -8.747  55.135  51.979  0.00  0.00    +0.000 A 
ATOM      3  C   UNL     1     -10.297  53.464  52.914  0.00  0.00    +0.000 A 
ATOM      4  O   UNL     1      -8.652  56.160  51.297  0.00  0.00    +0.000 OA
ATOM      5  N   UNL     1      -7.673  54.496  52.605  0.00  0.00    +0.000 N 
ATOM      6  C   UNL     1      -9.159  52.810  53.569  0.00  0.00    +0.000 A 
ATOM      7  C   UNL     1      -7.862  53.327  53.405  0.00  0.00    +0.000 A 
ATOM      8  C   UNL     1      -9.359  51.684  54.388  0.00  0.00    +0.000 A 
ATOM      9  C   UNL     1      -6.791  52.696  54.057  0.00  0.00    +0.000 A 
ATOM     10  C   UNL     1      -8.293  51.090  55.057  0.00  0.00    +0.000 A 
ATOM     11  C   UNL     1      -7.008  51.596  54.890  0.00  0.00    +0.000 A 
ENDROOT
BRANCH   1  17
ATOM     12  S   UNL     1     -12.569  56.090  49.523  0.00  0.00    +0.000 S 
ATOM     13  O   UNL     1     -13.463  55.088  48.987  0.00  0.00    +0.000 OA
ATOM     14  O   UNL     1     -11.975  57.087  48.654  0.00  0.00    +0.000 OA
ATOM     15  N   UNL     1     -11.366  55.318  50.284  0.00  0.00    +0.000 N 
ATOM     16  C   UNL     1     -13.487  56.980  50.722  0.00  0.00    +0.000 A 
ATOM     17  C   UNL     1     -11.294  55.302  51.581  0.00  0.00    +0.000 C 
ATOM     18  C   UNL     1     -13.177  56.787  52.058  0.00  0.00    +0.000 A 
ATOM     19  C   UNL     1     -14.491  57.862  50.315  0.00  0.00    +0.000 A 
ATOM     20  N   UNL     1     -12.189  55.889  52.449  0.00  0.00    +0.000 N 
ATOM     21  C   UNL     1     -13.939  57.458  53.020  0.00  0.00    +0.000 A 
ATOM     22  C   UNL     1     -15.224  58.545  51.280  0.00  0.00    +0.000 A 
ATOM     23  C   UNL     1     -14.953  58.339  52.632  0.00  0.00    +0.000 A 
ATOM     24  H   UNL     1     -10.678  54.853  49.754  0.00  0.00    +0.000 HD
ATOM     25  H   UNL     1     -12.125  55.658  53.403  0.00  0.00    +0.000 HD
ENDBRANCH   1  17
BRANCH   3  26
ATOM     26  O   UNL     1     -11.530  52.889  53.167  0.00  0.00    +0.000 OA
ATOM     27  H   UNL     1     -11.883  52.256  52.573  0.00  0.00    +0.000 HD
ENDBRANCH   3  26
BRANCH   5  28
ATOM     28  N   UNL     1      -6.327  54.960  52.413  0.00  0.00    +0.000 N 
ATOM     29  H   UNL     1      -5.819  55.405  53.130  0.00  0.00    +0.000 HD
BRANCH  28  30
ATOM     30  C   UNL     1      -5.755  54.727  51.078  0.00  0.00    +0.000 C 
BRANCH  30  31
ATOM     31  C   UNL     1      -5.077  53.386  51.003  0.00  0.00    +0.000 A 
ATOM     32  C   UNL     1      -5.629  52.343  50.261  0.00  0.00    +0.000 A 
ATOM     33  C   UNL     1      -3.877  53.137  51.669  0.00  0.00    +0.000 A 
ATOM     34  N   UNL     1      -5.091  51.107  50.171  0.00  0.00    +0.000 NA
ATOM     35  C   UNL     1      -3.301  51.873  51.598  0.00  0.00    +0.000 A 
ATOM     36  C   UNL     1      -3.943  50.899  50.850  0.00  0.00    +0.000 A 
ENDBRANCH  30  31
ENDBRANCH  28  30
ENDBRANCH   5  28
TORSDOF 5
ENDMDL
MODEL 4
REMARK VINA RESULT:      -8.6      2.351      3.088
REMARK  Name = 
REMARK  5 active torsions:
REMARK  status: ('A' for Active; 'I' for Inactive)
REMARK    1  A    between atoms: C_6  and  C_10
REMARK    2  A    between atoms: C_14  and  O_18
REMARK    3  A    between atoms: N_17  and  N_20
REMARK    4  A    between atoms: N_20  and  C_23
REMARK    5  A    between atoms: C_23  and  C_26
REMARK                            x       y       z     vdW  Elec       q    Type
REMARK                         _______ _______ _______ _____ _____    ______ ____
ROOT
ATOM      1  C   UNL     1     -11.179  54.562  50.717  0.00  0.00    +0.000 A 
ATOM      2  C   UNL     1      -9.797  54.939  50.300  0.00  0.00    +0.000 A 
ATOM      3  C   UNL     1     -11.438  53.335  51.197  0.00  0.00    +0.000 A 
ATOM      4  O   UNL     1      -9.627  56.089  49.883  0.00  0.00    +0.000 OA
ATOM      5  N   UNL     1      -8.784  53.987  50.439  0.00  0.00    +0.000 N 
ATOM      6  C   UNL     1     -10.361  52.350  51.342  0.00  0.00    +0.000 A 
ATOM      7  C   UNL     1      -9.050  52.682  50.957  0.00  0.00    +0.000 A 
ATOM      8  C   UNL     1     -10.624  51.083  51.892  0.00  0.00    +0.000 A 
ATOM      9  C   UNL     1      -8.031  51.730  51.123  0.00  0.00    +0.000 A 
ATOM     10  C   UNL     1      -9.598  50.162  52.083  0.00  0.00    +0.000 A 
ATOM     11  C   UNL     1      -8.302  50.485  51.697  0.00  0.00    +0.000 A 
ENDROOT
BRANCH   1  17
ATOM     12  S   UNL     1     -13.661  57.242  49.295  0.00  0.00    +0.000 S 
ATOM     13  O   UNL     1     -14.812  56.627  48.673  0.00  0.00    +0.000 OA
ATOM     14  O   UNL     1     -13.021  58.392  48.684  0.00  0.00    +0.000 OA
ATOM     15  N   UNL     1     -12.534  56.095  49.488  0.00  0.00    +0.000 N 
ATOM     16  C   UNL     1     -14.181  57.767  50.885  0.00  0.00    +0.000 A 
ATOM     17  C   UNL     1     -12.265  55.612  50.664  0.00  0.00    +0.000 C 
ATOM     18  C   UNL     1     -13.710  57.074  51.988  0.00  0.00    +0.000 A 
ATOM     19  C   UNL     1     -15.036  58.864  51.009  0.00  0.00    +0.000 A 
ATOM     20  N   UNL     1     -12.875  55.970  51.846  0.00  0.00    +0.000 N 
ATOM     21  C   UNL     1     -14.161  57.458  53.255  0.00  0.00    +0.000 A 
ATOM     22  C   UNL     1     -15.456  59.255  52.277  0.00  0.00    +0.000 A 
ATOM     23  C   UNL     1     -15.023  58.548  53.399  0.00  0.00    +0.000 A 
ATOM     24  H   UNL     1     -12.047  55.758  48.702  0.00  0.00    +0.000 HD
ATOM     25  H   UNL     1     -12.711  55.410  52.638  0.00  0.00    +0.000 HD
ENDBRANCH   1  17
BRANCH   3  26
ATOM     26  O   UNL     1     -12.682  52.913  51.632  0.00  0.00    +0.000 OA
ATOM     27  H   UNL     1     -12.975  52.044  51.443  0.00  0.00    +0.000 HD
ENDBRANCH   3  26
BRANCH   5  28
ATOM     28  N   UNL     1      -7.444  54.268  50.002  0.00  0.00    +0.000 N 
ATOM     29  H   UNL     1      -7.022  53.777  49.260  0.00  0.00    +0.000 HD
BRANCH  28  30
ATOM     30  C   UNL     1      -6.745  55.335  50.734  0.00  0.00    +0.000 C 
BRANCH  30  31
ATOM     31  C   UNL     1      -6.522  54.953  52.171  0.00  0.00    +0.000 A 
ATOM     32  C   UNL     1      -7.298  55.506  53.190  0.00  0.00    +0.000 A 
ATOM     33  C   UNL     1      -5.537  54.037  52.539  0.00  0.00    +0.000 A 
ATOM     34  N   UNL     1      -7.136  55.230  54.502  0.00  0.00    +0.000 NA
ATOM     35  C   UNL     1      -5.344  53.737  53.883  0.00  0.00    +0.000 A 
ATOM     36  C   UNL     1      -6.156  54.358  54.818  0.00  0.00    +0.000 A 
ENDBRANCH  30  31
ENDBRANCH  28  30
ENDBRANCH   5  28
TORSDOF 5
ENDMDL
MODEL 5
REMARK VINA RESULT:      -8.6      2.973      7.369
REMARK  Name = 
REMARK  5 active torsions:
REMARK  status: ('A' for Active; 'I' for Inactive)
REMARK    1  A    between atoms: C_6  and  C_10
REMARK    2  A    between atoms: C_14  and  O_18
REMARK    3  A    between atoms: N_17  and  N_20
REMARK    4  A    between atoms: N_20  and  C_23
REMARK    5  A    between atoms: C_23  and  C_26
REMARK                            x       y       z     vdW  Elec       q    Type
REMARK                         _______ _______ _______ _____ _____    ______ ____
ROOT
ATOM      1  C   UNL     1     -10.399  55.222  50.899  0.00  0.00    +0.000 A 
ATOM      2  C   UNL     1     -10.081  55.110  49.446  0.00  0.00    +0.000 A 
ATOM      3  C   UNL     1     -11.570  55.739  51.306  0.00  0.00    +0.000 A 
ATOM      4  O   UNL     1      -8.994  54.611  49.142  0.00  0.00    +0.000 OA
ATOM      5  N   UNL     1     -11.041  55.543  48.527  0.00  0.00    +0.000 N 
ATOM      6  C   UNL     1     -12.568  56.182  50.327  0.00  0.00    +0.000 A 
ATOM      7  C   UNL     1     -12.293  56.085  48.951  0.00  0.00    +0.000 A 
ATOM      8  C   UNL     1     -13.814  56.675  50.753  0.00  0.00    +0.000 A 
ATOM      9  C   UNL     1     -13.271  56.497  48.032  0.00  0.00    +0.000 A 
ATOM     10  C   UNL     1     -14.787  57.047  49.831  0.00  0.00    +0.000 A 
ATOM     11  C   UNL     1     -14.514  56.959  48.470  0.00  0.00    +0.000 A 
ENDROOT
BRANCH   1  17
ATOM     12  S   UNL     1      -7.088  54.730  52.939  0.00  0.00    +0.000 S 
ATOM     13  O   UNL     1      -6.955  55.717  53.987  0.00  0.00    +0.000 OA
ATOM     14  O   UNL     1      -5.940  54.345  52.140  0.00  0.00    +0.000 OA
ATOM     15  N   UNL     1      -8.245  55.240  51.927  0.00  0.00    +0.000 N 
ATOM     16  C   UNL     1      -7.652  53.261  53.713  0.00  0.00    +0.000 A 
ATOM     17  C   UNL     1      -9.413  54.670  51.902  0.00  0.00    +0.000 C 
ATOM     18  C   UNL     1      -8.960  52.865  53.488  0.00  0.00    +0.000 A 
ATOM     19  C   UNL     1      -6.783  52.523  54.520  0.00  0.00    +0.000 A 
ATOM     20  N   UNL     1      -9.820  53.622  52.699  0.00  0.00    +0.000 N 
ATOM     21  C   UNL     1      -9.429  51.721  54.143  0.00  0.00    +0.000 A 
ATOM     22  C   UNL     1      -7.252  51.371  55.144  0.00  0.00    +0.000 A 
ATOM     23  C   UNL     1      -8.577  50.974  54.960  0.00  0.00    +0.000 A 
ATOM     24  H   UNL     1      -8.060  55.994  51.322  0.00  0.00    +0.000 HD
ATOM     25  H   UNL     1     -10.778  53.397  52.711  0.00  0.00    +0.000 HD
ENDBRANCH   1  17
BRANCH   3  26
ATOM     26  O   UNL     1     -11.956  55.852  52.630  0.00  0.00    +0.000 OA
ATOM     27  H   UNL     1     -11.370  56.226  53.258  0.00  0.00    +0.000 HD
ENDBRANCH   3  26
BRANCH   5  28
ATOM     28  N   UNL     1     -10.773  55.515  47.115  0.00  0.00    +0.000 N 
ATOM     29  H   UNL     1     -10.191  56.180  46.680  0.00  0.00    +0.000 HD
BRANCH  28  30
ATOM     30  C   UNL     1     -11.423  54.431  46.363  0.00  0.00    +0.000 C 
BRANCH  30  31
ATOM     31  C   UNL     1     -10.480  53.822  45.362  0.00  0.00    +0.000 A 
ATOM     32  C   UNL     1      -9.101  53.996  45.478  0.00  0.00    +0.000 A 
ATOM     33  C   UNL     1     -10.944  53.064  44.288  0.00  0.00    +0.000 A 
ATOM     34  N   UNL     1      -8.197  53.502  44.604  0.00  0.00    +0.000 NA
ATOM     35  C   UNL     1     -10.037  52.546  43.369  0.00  0.00    +0.000 A 
ATOM     36  C   UNL     1      -8.689  52.796  43.564  0.00  0.00    +0.000 A 
ENDBRANCH  30  31
ENDBRANCH  28  30
ENDBRANCH   5  28
TORSDOF 5
ENDMDL
MODEL 6
REMARK VINA RESULT:      -8.4      2.836      7.088
REMARK  Name = 
REMARK  5 active torsions:
REMARK  status: ('A' for Active; 'I' for Inactive)
REMARK    1  A    between atoms: C_6  and  C_10
REMARK    2  A    between atoms: C_14  and  O_18
REMARK    3  A    between atoms: N_17  and  N_20
REMARK    4  A    between atoms: N_20  and  C_23
REMARK    5  A    between atoms: C_23  and  C_26
REMARK                            x       y       z     vdW  Elec       q    Type
REMARK                         _______ _______ _______ _____ _____    ______ ____
ROOT
ATOM      1  C   UNL     1      -9.640  53.960  50.302  0.00  0.00    +0.000 A 
ATOM      2  C   UNL     1     -10.646  55.047  50.475  0.00  0.00    +0.000 A 
ATOM      3  C   UNL     1      -9.460  53.378  49.105  0.00  0.00    +0.000 A 
ATOM      4  O   UNL     1     -10.748  55.549  51.599  0.00  0.00    +0.000 OA
ATOM      5  N   UNL     1     -11.379  55.451  49.356  0.00  0.00    +0.000 N 
ATOM      6  C   UNL     1     -10.234  53.818  47.940  0.00  0.00    +0.000 A 
ATOM      7  C   UNL     1     -11.187  54.843  48.077  0.00  0.00    +0.000 A 
ATOM      8  C   UNL     1     -10.008  53.244  46.677  0.00  0.00    +0.000 A 
ATOM      9  C   UNL     1     -11.902  55.262  46.944  0.00  0.00    +0.000 A 
ATOM     10  C   UNL     1     -10.699  53.693  45.555  0.00  0.00    +0.000 A 
ATOM     11  C   UNL     1     -11.648  54.702  45.690  0.00  0.00    +0.000 A 
ENDROOT
BRANCH   1  17
ATOM     12  S   UNL     1      -6.495  53.621  52.616  0.00  0.00    +0.000 S 
ATOM     13  O   UNL     1      -6.253  54.831  53.370  0.00  0.00    +0.000 OA
ATOM     14  O   UNL     1      -5.390  52.887  52.028  0.00  0.00    +0.000 OA
ATOM     15  N   UNL     1      -7.537  53.979  51.430  0.00  0.00    +0.000 N 
ATOM     16  C   UNL     1      -7.285  52.504  53.715  0.00  0.00    +0.000 A 
ATOM     17  C   UNL     1      -8.773  53.580  51.480  0.00  0.00    +0.000 C 
ATOM     18  C   UNL     1      -8.628  52.234  53.516  0.00  0.00    +0.000 A 
ATOM     19  C   UNL     1      -6.553  51.909  54.745  0.00  0.00    +0.000 A 
ATOM     20  N   UNL     1      -9.348  52.852  52.498  0.00  0.00    +0.000 N 
ATOM     21  C   UNL     1      -9.274  51.383  54.419  0.00  0.00    +0.000 A 
ATOM     22  C   UNL     1      -7.200  51.042  55.620  0.00  0.00    +0.000 A 
ATOM     23  C   UNL     1      -8.561  50.784  55.461  0.00  0.00    +0.000 A 
ATOM     24  H   UNL     1      -7.229  54.510  50.659  0.00  0.00    +0.000 HD
ATOM     25  H   UNL     1     -10.328  52.764  52.505  0.00  0.00    +0.000 HD
ENDBRANCH   1  17
BRANCH   3  26
ATOM     26  O   UNL     1      -8.531  52.384  48.852  0.00  0.00    +0.000 OA
ATOM     27  H   UNL     1      -8.610  51.853  48.084  0.00  0.00    +0.000 HD
ENDBRANCH   3  26
BRANCH   5  28
ATOM     28  N   UNL     1     -12.403  56.453  49.469  0.00  0.00    +0.000 N 
ATOM     29  H   UNL     1     -12.279  57.368  49.125  0.00  0.00    +0.000 HD
BRANCH  28  30
ATOM     30  C   UNL     1     -13.645  56.026  50.129  0.00  0.00    +0.000 C 
BRANCH  30  31
ATOM     31  C   UNL     1     -14.179  57.104  51.032  0.00  0.00    +0.000 A 
ATOM     32  C   UNL     1     -14.128  58.446  50.656  0.00  0.00    +0.000 A 
ATOM     33  C   UNL     1     -14.741  56.805  52.273  0.00  0.00    +0.000 A 
ATOM     34  N   UNL     1     -14.563  59.467  51.426  0.00  0.00    +0.000 NA
ATOM     35  C   UNL     1     -15.193  57.836  53.090  0.00  0.00    +0.000 A 
ATOM     36  C   UNL     1     -15.077  59.138  52.630  0.00  0.00    +0.000 A 
ENDBRANCH  30  31
ENDBRANCH  28  30
ENDBRANCH   5  28
TORSDOF 5
ENDMDL
MODEL 7
REMARK VINA RESULT:      -8.4      2.938      7.529
REMARK  Name = 
REMARK  5 active torsions:
REMARK  status: ('A' for Active; 'I' for Inactive)
REMARK    1  A    between atoms: C_6  and  C_10
REMARK    2  A    between atoms: C_14  and  O_18
REMARK    3  A    between atoms: N_17  and  N_20
REMARK    4  A    between atoms: N_20  and  C_23
REMARK    5  A    between atoms: C_23  and  C_26
REMARK                            x       y       z     vdW  Elec       q    Type
REMARK                         _______ _______ _______ _____ _____    ______ ____
ROOT
ATOM      1  C   UNL     1     -10.543  54.958  50.673  0.00  0.00    +0.000 A 
ATOM      2  C   UNL     1     -10.270  54.879  49.208  0.00  0.00    +0.000 A 
ATOM      3  C   UNL     1     -11.620  55.614  51.134  0.00  0.00    +0.000 A 
ATOM      4  O   UNL     1      -9.271  54.247  48.853  0.00  0.00    +0.000 OA
ATOM      5  N   UNL     1     -11.175  55.491  48.336  0.00  0.00    +0.000 N 
ATOM      6  C   UNL     1     -12.562  56.245  50.203  0.00  0.00    +0.000 A 
ATOM      7  C   UNL     1     -12.328  56.182  48.818  0.00  0.00    +0.000 A 
ATOM      8  C   UNL     1     -13.716  56.887  50.685  0.00  0.00    +0.000 A 
ATOM      9  C   UNL     1     -13.254  56.776  47.945  0.00  0.00    +0.000 A 
ATOM     10  C   UNL     1     -14.643  57.441  49.806  0.00  0.00    +0.000 A 
ATOM     11  C   UNL     1     -14.410  57.387  48.436  0.00  0.00    +0.000 A 
ENDROOT
BRANCH   1  17
ATOM     12  S   UNL     1      -9.199  52.203  53.116  0.00  0.00    +0.000 S 
ATOM     13  O   UNL     1      -8.680  51.060  52.398  0.00  0.00    +0.000 OA
ATOM     14  O   UNL     1      -9.996  52.020  54.314  0.00  0.00    +0.000 OA
ATOM     15  N   UNL     1     -10.070  53.084  52.074  0.00  0.00    +0.000 N 
ATOM     16  C   UNL     1      -7.808  53.154  53.602  0.00  0.00    +0.000 A 
ATOM     17  C   UNL     1      -9.628  54.220  51.622  0.00  0.00    +0.000 C 
ATOM     18  C   UNL     1      -7.585  54.360  52.958  0.00  0.00    +0.000 A 
ATOM     19  C   UNL     1      -6.971  52.691  54.619  0.00  0.00    +0.000 A 
ATOM     20  N   UNL     1      -8.416  54.797  51.932  0.00  0.00    +0.000 N 
ATOM     21  C   UNL     1      -6.449  55.099  53.308  0.00  0.00    +0.000 A 
ATOM     22  C   UNL     1      -5.860  53.447  54.978  0.00  0.00    +0.000 A 
ATOM     23  C   UNL     1      -5.595  54.648  54.319  0.00  0.00    +0.000 A 
ATOM     24  H   UNL     1     -10.949  52.753  51.777  0.00  0.00    +0.000 HD
ATOM     25  H   UNL     1      -8.120  55.565  51.392  0.00  0.00    +0.000 HD
ENDBRANCH   1  17
BRANCH   3  26
ATOM     26  O   UNL     1     -11.962  55.712  52.472  0.00  0.00    +0.000 OA
ATOM     27  H   UNL     1     -12.751  55.314  52.784  0.00  0.00    +0.000 HD
ENDBRANCH   3  26
BRANCH   5  28
ATOM     28  N   UNL     1     -10.939  55.499  46.919  0.00  0.00    +0.000 N 
ATOM     29  H   UNL     1     -10.397  56.197  46.482  0.00  0.00    +0.000 HD
BRANCH  28  30
ATOM     30  C   UNL     1     -11.557  54.400  46.162  0.00  0.00    +0.000 C 
BRANCH  30  31
ATOM     31  C   UNL     1     -10.567  53.758  45.229  0.00  0.00    +0.000 A 
ATOM     32  C   UNL     1      -9.196  53.963  45.386  0.00  0.00    +0.000 A 
ATOM     33  C   UNL     1     -10.978  52.938  44.179  0.00  0.00    +0.000 A 
ATOM     34  N   UNL     1      -8.253  53.442  44.572  0.00  0.00    +0.000 NA
ATOM     35  C   UNL     1     -10.029  52.391  43.321  0.00  0.00    +0.000 A 
ATOM     36  C   UNL     1      -8.693  52.675  43.553  0.00  0.00    +0.000 A 
ENDBRANCH  30  31
ENDBRANCH  28  30
ENDBRANCH   5  28
TORSDOF 5
ENDMDL
MODEL 8
REMARK VINA RESULT:      -8.3      2.736      3.434
REMARK  Name = 
REMARK  5 active torsions:
REMARK  status: ('A' for Active; 'I' for Inactive)
REMARK    1  A    between atoms: C_6  and  C_10
REMARK    2  A    between atoms: C_14  and  O_18
REMARK    3  A    between atoms: N_17  and  N_20
REMARK    4  A    between atoms: N_20  and  C_23
REMARK    5  A    between atoms: C_23  and  C_26
REMARK                            x       y       z     vdW  Elec       q    Type
REMARK                         _______ _______ _______ _____ _____    ______ ____
ROOT
ATOM      1  C   UNL     1     -11.591  54.206  51.334  0.00  0.00    +0.000 A 
ATOM      2  C   UNL     1     -10.648  54.307  52.486  0.00  0.00    +0.000 A 
ATOM      3  C   UNL     1     -11.683  53.072  50.621  0.00  0.00    +0.000 A 
ATOM      4  O   UNL     1     -10.627  55.374  53.106  0.00  0.00    +0.000 OA
ATOM      5  N   UNL     1      -9.881  53.185  52.809  0.00  0.00    +0.000 N 
ATOM      6  C   UNL     1     -10.874  51.901  50.979  0.00  0.00    +0.000 A 
ATOM      7  C   UNL     1      -9.980  51.971  52.062  0.00  0.00    +0.000 A 
ATOM      8  C   UNL     1     -11.009  50.698  50.265  0.00  0.00    +0.000 A 
ATOM      9  C   UNL     1      -9.231  50.832  52.398  0.00  0.00    +0.000 A 
ATOM     10  C   UNL     1     -10.285  49.567  50.631  0.00  0.00    +0.000 A 
ATOM     11  C   UNL     1      -9.395  49.635  51.697  0.00  0.00    +0.000 A 
ENDROOT
BRANCH   1  17
ATOM     12  S   UNL     1     -13.391  57.072  49.356  0.00  0.00    +0.000 S 
ATOM     13  O   UNL     1     -14.486  56.565  48.560  0.00  0.00    +0.000 OA
ATOM     14  O   UNL     1     -12.502  58.087  48.823  0.00  0.00    +0.000 OA
ATOM     15  N   UNL     1     -12.484  55.809  49.807  0.00  0.00    +0.000 N 
ATOM     16  C   UNL     1     -14.109  57.768  50.797  0.00  0.00    +0.000 A 
ATOM     17  C   UNL     1     -12.496  55.378  51.033  0.00  0.00    +0.000 C 
ATOM     18  C   UNL     1     -13.941  57.099  51.998  0.00  0.00    +0.000 A 
ATOM     19  C   UNL     1     -14.815  58.969  50.710  0.00  0.00    +0.000 A 
ATOM     20  N   UNL     1     -13.253  55.891  52.064  0.00  0.00    +0.000 N 
ATOM     21  C   UNL     1     -14.554  57.624  53.141  0.00  0.00    +0.000 A 
ATOM     22  C   UNL     1     -15.397  59.497  51.859  0.00  0.00    +0.000 A 
ATOM     23  C   UNL     1     -15.271  58.821  53.073  0.00  0.00    +0.000 A 
ATOM     24  H   UNL     1     -11.915  55.360  49.140  0.00  0.00    +0.000 HD
ATOM     25  H   UNL     1     -13.310  55.371  52.897  0.00  0.00    +0.000 HD
ENDBRANCH   1  17
BRANCH   3  26
ATOM     26  O   UNL     1     -12.549  52.885  49.558  0.00  0.00    +0.000 OA
ATOM     27  H   UNL     1     -13.419  53.230  49.597  0.00  0.00    +0.000 HD
ENDBRANCH   3  26
BRANCH   5  28
ATOM     28  N   UNL     1      -8.914  53.235  53.871  0.00  0.00    +0.000 N 
ATOM     29  H   UNL     1      -8.934  52.604  54.627  0.00  0.00    +0.000 HD
BRANCH  28  30
ATOM     30  C   UNL     1      -7.894  54.288  53.756  0.00  0.00    +0.000 C 
BRANCH  30  31
ATOM     31  C   UNL     1      -6.917  53.981  52.655  0.00  0.00    +0.000 A 
ATOM     32  C   UNL     1      -6.774  54.836  51.563  0.00  0.00    +0.000 A 
ATOM     33  C   UNL     1      -6.120  52.837  52.683  0.00  0.00    +0.000 A 
ATOM     34  N   UNL     1      -5.938  54.611  50.527  0.00  0.00    +0.000 NA
ATOM     35  C   UNL     1      -5.253  52.576  51.628  0.00  0.00    +0.000 A 
ATOM     36  C   UNL     1      -5.203  53.481  50.580  0.00  0.00    +0.000 A 
ENDBRANCH  30  31
ENDBRANCH  28  30
ENDBRANCH   5  28
TORSDOF 5
ENDMDL
MODEL 9
REMARK VINA RESULT:      -8.2      2.551      3.355
REMARK  Name = 
REMARK  5 active torsions:
REMARK  status: ('A' for Active; 'I' for Inactive)
REMARK    1  A    between atoms: C_6  and  C_10
REMARK    2  A    between atoms: C_14  and  O_18
REMARK    3  A    between atoms: N_17  and  N_20
REMARK    4  A    between atoms: N_20  and  C_23
REMARK    5  A    between atoms: C_23  and  C_26
REMARK                            x       y       z     vdW  Elec       q    Type
REMARK                         _______ _______ _______ _____ _____    ______ ____
ROOT
ATOM      1  C   UNL     1     -10.429  54.989  47.668  0.00  0.00    +0.000 A 
ATOM      2  C   UNL     1      -8.940  55.063  47.715  0.00  0.00    +0.000 A 
ATOM      3  C   UNL     1     -11.054  54.442  46.613  0.00  0.00    +0.000 A 
ATOM      4  O   UNL     1      -8.431  55.564  48.722  0.00  0.00    +0.000 OA
ATOM      5  N   UNL     1      -8.220  54.535  46.640  0.00  0.00    +0.000 N 
ATOM      6  C   UNL     1     -10.282  53.886  45.497  0.00  0.00    +0.000 A 
ATOM      7  C   UNL     1      -8.877  53.943  45.519  0.00  0.00    +0.000 A 
ATOM      8  C   UNL     1     -10.936  53.268  44.416  0.00  0.00    +0.000 A 
ATOM      9  C   UNL     1      -8.158  53.387  44.448  0.00  0.00    +0.000 A 
ATOM     10  C   UNL     1     -10.209  52.690  43.379  0.00  0.00    +0.000 A 
ATOM     11  C   UNL     1      -8.820  52.751  43.395  0.00  0.00    +0.000 A 
ENDROOT
BRANCH   1  17
ATOM     12  S   UNL     1     -12.032  55.070  51.245  0.00  0.00    +0.000 S 
ATOM     13  O   UNL     1     -11.072  55.465  52.251  0.00  0.00    +0.000 OA
ATOM     14  O   UNL     1     -12.974  53.999  51.507  0.00  0.00    +0.000 OA
ATOM     15  N   UNL     1     -11.209  54.686  49.904  0.00  0.00    +0.000 N 
ATOM     16  C   UNL     1     -13.000  56.491  50.900  0.00  0.00    +0.000 A 
ATOM     17  C   UNL     1     -11.217  55.468  48.865  0.00  0.00    +0.000 C 
ATOM     18  C   UNL     1     -12.819  57.125  49.682  0.00  0.00    +0.000 A 
ATOM     19  C   UNL     1     -13.929  56.943  51.840  0.00  0.00    +0.000 A 
ATOM     20  N   UNL     1     -11.874  56.675  48.766  0.00  0.00    +0.000 N 
ATOM     21  C   UNL     1     -13.553  58.287  49.423  0.00  0.00    +0.000 A 
ATOM     22  C   UNL     1     -14.674  58.085  51.560  0.00  0.00    +0.000 A 
ATOM     23  C   UNL     1     -14.482  58.760  50.354  0.00  0.00    +0.000 A 
ATOM     24  H   UNL     1     -10.693  53.848  49.876  0.00  0.00    +0.000 HD
ATOM     25  H   UNL     1     -11.660  57.254  47.999  0.00  0.00    +0.000 HD
ENDBRANCH   1  17
BRANCH   3  26
ATOM     26  O   UNL     1     -12.427  54.307  46.502  0.00  0.00    +0.000 OA
ATOM     27  H   UNL     1     -12.790  53.591  46.019  0.00  0.00    +0.000 HD
ENDBRANCH   3  26
BRANCH   5  28
ATOM     28  N   UNL     1      -6.786  54.627  46.599  0.00  0.00    +0.000 N 
ATOM     29  H   UNL     1      -6.323  55.443  46.301  0.00  0.00    +0.000 HD
BRANCH  28  30
ATOM     30  C   UNL     1      -6.056  53.425  47.029  0.00  0.00    +0.000 C 
BRANCH  30  31
ATOM     31  C   UNL     1      -5.815  53.438  48.514  0.00  0.00    +0.000 A 
ATOM     32  C   UNL     1      -4.865  54.288  49.079  0.00  0.00    +0.000 A 
ATOM     33  C   UNL     1      -6.527  52.606  49.377  0.00  0.00    +0.000 A 
ATOM     34  N   UNL     1      -4.577  54.334  50.398  0.00  0.00    +0.000 NA
ATOM     35  C   UNL     1      -6.249  52.628  50.739  0.00  0.00    +0.000 A 
ATOM     36  C   UNL     1      -5.270  53.496  51.196  0.00  0.00    +0.000 A 
ENDBRANCH  30  31
ENDBRANCH  28  30
ENDBRANCH   5  28
TORSDOF 5
ENDMDL
