MODEL 1
REMARK VINA RESULT:      -8.4      0.000      0.000
REMARK  Name = 
REMARK  6 active torsions:
REMARK  status: ('A' for Active; 'I' for Inactive)
REMARK    1  A    between atoms: C_6  and  C_10
REMARK    2  A    between atoms: C_14  and  O_18
REMARK    3  A    between atoms: N_17  and  N_20
REMARK    4  A    between atoms: N_20  and  C_23
REMARK    5  A    between atoms: C_23  and  C_26
REMARK    6  A    between atoms: C_23  and  C_27
REMARK                            x       y       z     vdW  Elec       q    Type
REMARK                         _______ _______ _______ _____ _____    ______ ____
ROOT
ATOM      1  C   UNL     1     -10.086  54.511  52.236  0.00  0.00    +0.000 A 
ATOM      2  C   UNL     1      -8.700  55.046  52.065  0.00  0.00    +0.000 A 
ATOM      3  C   UNL     1     -10.296  53.416  52.991  0.00  0.00    +0.000 A 
ATOM      4  O   UNL     1      -8.520  55.997  51.296  0.00  0.00    +0.000 OA
ATOM      5  N   UNL     1      -7.685  54.471  52.831  0.00  0.00    +0.000 N 
ATOM      6  C   UNL     1      -9.181  52.746  53.676  0.00  0.00    +0.000 A 
ATOM      7  C   UNL     1      -7.892  53.294  53.604  0.00  0.00    +0.000 A 
ATOM      8  C   UNL     1      -9.392  51.578  54.428  0.00  0.00    +0.000 A 
ATOM      9  C   UNL     1      -6.839  52.668  54.293  0.00  0.00    +0.000 A 
ATOM     10  C   UNL     1      -8.340  50.964  55.106  0.00  0.00    +0.000 A 
ATOM     11  C   UNL     1      -7.064  51.510  55.040  0.00  0.00    +0.000 A 
ENDROOT
BRANCH   1  17
ATOM     12  S   UNL     1     -12.519  56.031  49.547  0.00  0.00    +0.000 S 
ATOM     13  O   UNL     1     -13.390  55.021  48.981  0.00  0.00    +0.000 OA
ATOM     14  O   UNL     1     -11.917  57.044  48.702  0.00  0.00    +0.000 OA
ATOM     15  N   UNL     1     -11.327  55.263  50.329  0.00  0.00    +0.000 N 
ATOM     16  C   UNL     1     -13.482  56.898  50.730  0.00  0.00    +0.000 A 
ATOM     17  C   UNL     1     -11.251  55.271  51.628  0.00  0.00    +0.000 C 
ATOM     18  C   UNL     1     -13.175  56.728  52.070  0.00  0.00    +0.000 A 
ATOM     19  C   UNL     1     -14.521  57.731  50.303  0.00  0.00    +0.000 A 
ATOM     20  N   UNL     1     -12.141  55.890  52.479  0.00  0.00    +0.000 N 
ATOM     21  C   UNL     1     -13.992  57.357  53.016  0.00  0.00    +0.000 A 
ATOM     22  C   UNL     1     -15.301  58.382  51.254  0.00  0.00    +0.000 A 
ATOM     23  C   UNL     1     -15.042  58.187  52.610  0.00  0.00    +0.000 A 
ATOM     24  H   UNL     1     -10.644  54.780  49.810  0.00  0.00    +0.000 HD
ATOM     25  H   UNL     1     -12.039  55.727  53.445  0.00  0.00    +0.000 HD
ENDBRANCH   1  17
BRANCH   3  26
ATOM     26  O   UNL     1     -11.539  52.857  53.229  0.00  0.00    +0.000 OA
ATOM     27  H   UNL     1     -11.824  52.704  54.109  0.00  0.00    +0.000 HD
ENDBRANCH   3  26
BRANCH   5  28
ATOM     28  N   UNL     1      -6.363  55.012  52.763  0.00  0.00    +0.000 N 
ATOM     29  H   UNL     1      -6.088  55.821  53.250  0.00  0.00    +0.000 HD
BRANCH  28  30
ATOM     30  C   UNL     1      -5.449  54.244  51.893  0.00  0.00    +0.000 C 
ATOM     31  C   UNL     1      -5.438  54.732  50.444  0.00  0.00    +0.000 C 
ATOM     32  C   UNL     1      -4.039  54.346  52.479  0.00  0.00    +0.000 C 
ENDBRANCH  28  30
ENDBRANCH   5  28
TORSDOF 4
ENDMDL
MODEL 2
REMARK VINA RESULT:      -8.3      1.906      2.580
REMARK  Name = 
REMARK  6 active torsions:
REMARK  status: ('A' for Active; 'I' for Inactive)
REMARK    1  A    between atoms: C_6  and  C_10
REMARK    2  A    between atoms: C_14  and  O_18
REMARK    3  A    between atoms: N_17  and  N_20
REMARK    4  A    between atoms: N_20  and  C_23
REMARK    5  A    between atoms: C_23  and  C_26
REMARK    6  A    between atoms: C_23  and  C_27
REMARK                            x       y       z     vdW  Elec       q    Type
REMARK                         _______ _______ _______ _____ _____    ______ ____
ROOT
ATOM      1  C   UNL     1     -11.312  54.005  51.558  0.00  0.00    +0.000 A 
ATOM      2  C   UNL     1     -10.331  54.135  52.679  0.00  0.00    +0.000 A 
ATOM      3  C   UNL     1     -11.484  52.817  50.948  0.00  0.00    +0.000 A 
ATOM      4  O   UNL     1     -10.125  55.254  53.162  0.00  0.00    +0.000 OA
ATOM      5  N   UNL     1      -9.735  52.967  53.156  0.00  0.00    +0.000 N 
ATOM      6  C   UNL     1     -10.735  51.630  51.385  0.00  0.00    +0.000 A 
ATOM      7  C   UNL     1      -9.885  51.714  52.497  0.00  0.00    +0.000 A 
ATOM      8  C   UNL     1     -10.880  50.399  50.722  0.00  0.00    +0.000 A 
ATOM      9  C   UNL     1      -9.201  50.566  52.931  0.00  0.00    +0.000 A 
ATOM     10  C   UNL     1     -10.196  49.266  51.159  0.00  0.00    +0.000 A 
ATOM     11  C   UNL     1      -9.359  49.348  52.265  0.00  0.00    +0.000 A 
ENDROOT
BRANCH   1  17
ATOM     12  S   UNL     1     -12.993  56.834  49.406  0.00  0.00    +0.000 S 
ATOM     13  O   UNL     1     -14.047  56.310  48.561  0.00  0.00    +0.000 OA
ATOM     14  O   UNL     1     -12.068  57.829  48.900  0.00  0.00    +0.000 OA
ATOM     15  N   UNL     1     -12.126  55.575  49.941  0.00  0.00    +0.000 N 
ATOM     16  C   UNL     1     -13.794  57.574  50.782  0.00  0.00    +0.000 A 
ATOM     17  C   UNL     1     -12.170  55.200  51.187  0.00  0.00    +0.000 C 
ATOM     18  C   UNL     1     -13.668  56.959  52.016  0.00  0.00    +0.000 A 
ATOM     19  C   UNL     1     -14.529  58.750  50.606  0.00  0.00    +0.000 A 
ATOM     20  N   UNL     1     -12.937  55.784  52.173  0.00  0.00    +0.000 N 
ATOM     21  C   UNL     1     -14.370  57.505  53.096  0.00  0.00    +0.000 A 
ATOM     22  C   UNL     1     -15.190  59.304  51.698  0.00  0.00    +0.000 A 
ATOM     23  C   UNL     1     -15.119  58.676  52.940  0.00  0.00    +0.000 A 
ATOM     24  H   UNL     1     -11.553  55.083  49.311  0.00  0.00    +0.000 HD
ATOM     25  H   UNL     1     -12.972  55.337  53.050  0.00  0.00    +0.000 HD
ENDBRANCH   1  17
BRANCH   3  26
ATOM     26  O   UNL     1     -12.380  52.588  49.920  0.00  0.00    +0.000 OA
ATOM     27  H   UNL     1     -12.253  52.999  49.087  0.00  0.00    +0.000 HD
ENDBRANCH   3  26
BRANCH   5  28
ATOM     28  N   UNL     1      -8.858  53.038  54.285  0.00  0.00    +0.000 N 
ATOM     29  H   UNL     1      -9.163  52.905  55.211  0.00  0.00    +0.000 HD
BRANCH  28  30
ATOM     30  C   UNL     1      -7.454  53.327  53.930  0.00  0.00    +0.000 C 
ATOM     31  C   UNL     1      -7.015  54.745  54.301  0.00  0.00    +0.000 C 
ATOM     32  C   UNL     1      -6.564  52.311  54.650  0.00  0.00    +0.000 C 
ENDBRANCH  28  30
ENDBRANCH   5  28
TORSDOF 4
ENDMDL
MODEL 3
REMARK VINA RESULT:      -8.3      2.962      7.215
REMARK  Name = 
REMARK  6 active torsions:
REMARK  status: ('A' for Active; 'I' for Inactive)
REMARK    1  A    between atoms: C_6  and  C_10
REMARK    2  A    between atoms: C_14  and  O_18
REMARK    3  A    between atoms: N_17  and  N_20
REMARK    4  A    between atoms: N_20  and  C_23
REMARK    5  A    between atoms: C_23  and  C_26
REMARK    6  A    between atoms: C_23  and  C_27
REMARK                            x       y       z     vdW  Elec       q    Type
REMARK                         _______ _______ _______ _____ _____    ______ ____
ROOT
ATOM      1  C   UNL     1     -10.195  55.278  50.741  0.00  0.00    +0.000 A 
ATOM      2  C   UNL     1      -9.760  55.336  49.312  0.00  0.00    +0.000 A 
ATOM      3  C   UNL     1     -11.438  55.668  51.084  0.00  0.00    +0.000 A 
ATOM      4  O   UNL     1      -8.588  55.060  49.035  0.00  0.00    +0.000 OA
ATOM      5  N   UNL     1     -10.726  55.651  48.354  0.00  0.00    +0.000 N 
ATOM      6  C   UNL     1     -12.391  56.129  50.064  0.00  0.00    +0.000 A 
ATOM      7  C   UNL     1     -12.030  56.096  48.710  0.00  0.00    +0.000 A 
ATOM      8  C   UNL     1     -13.673  56.578  50.424  0.00  0.00    +0.000 A 
ATOM      9  C   UNL     1     -12.961  56.504  47.739  0.00  0.00    +0.000 A 
ATOM     10  C   UNL     1     -14.589  56.982  49.454  0.00  0.00    +0.000 A 
ATOM     11  C   UNL     1     -14.234  56.942  48.111  0.00  0.00    +0.000 A 
ENDROOT
BRANCH   1  17
ATOM     12  S   UNL     1      -7.018  54.787  53.006  0.00  0.00    +0.000 S 
ATOM     13  O   UNL     1      -6.977  55.749  54.089  0.00  0.00    +0.000 OA
ATOM     14  O   UNL     1      -5.812  54.446  52.277  0.00  0.00    +0.000 OA
ATOM     15  N   UNL     1      -8.117  55.305  51.935  0.00  0.00    +0.000 N 
ATOM     16  C   UNL     1      -7.599  53.287  53.707  0.00  0.00    +0.000 A 
ATOM     17  C   UNL     1      -9.252  54.690  51.776  0.00  0.00    +0.000 C 
ATOM     18  C   UNL     1      -8.865  52.851  53.354  0.00  0.00    +0.000 A 
ATOM     19  C   UNL     1      -6.785  52.575  54.593  0.00  0.00    +0.000 A 
ATOM     20  N   UNL     1      -9.666  53.576  52.475  0.00  0.00    +0.000 N 
ATOM     21  C   UNL     1      -9.358  51.697  53.973  0.00  0.00    +0.000 A 
ATOM     22  C   UNL     1      -7.274  51.407  55.172  0.00  0.00    +0.000 A 
ATOM     23  C   UNL     1      -8.564  50.974  54.869  0.00  0.00    +0.000 A 
ATOM     24  H   UNL     1      -7.922  56.102  51.392  0.00  0.00    +0.000 HD
ATOM     25  H   UNL     1     -10.593  53.272  52.345  0.00  0.00    +0.000 HD
ENDBRANCH   1  17
BRANCH   3  26
ATOM     26  O   UNL     1     -11.942  55.631  52.371  0.00  0.00    +0.000 OA
ATOM     27  H   UNL     1     -11.434  55.968  53.083  0.00  0.00    +0.000 HD
ENDBRANCH   3  26
BRANCH   5  28
ATOM     28  N   UNL     1     -10.371  55.630  46.968  0.00  0.00    +0.000 N 
ATOM     29  H   UNL     1     -10.135  56.440  46.462  0.00  0.00    +0.000 HD
BRANCH  28  30
ATOM     30  C   UNL     1     -10.393  54.280  46.369  0.00  0.00    +0.000 C 
ATOM     31  C   UNL     1     -11.565  54.060  45.412  0.00  0.00    +0.000 C 
ATOM     32  C   UNL     1      -9.074  54.073  45.620  0.00  0.00    +0.000 C 
ENDBRANCH  28  30
ENDBRANCH   5  28
TORSDOF 4
ENDMDL
MODEL 4
REMARK VINA RESULT:      -8.2      3.840      5.458
REMARK  Name = 
REMARK  6 active torsions:
REMARK  status: ('A' for Active; 'I' for Inactive)
REMARK    1  A    between atoms: C_6  and  C_10
REMARK    2  A    between atoms: C_14  and  O_18
REMARK    3  A    between atoms: N_17  and  N_20
REMARK    4  A    between atoms: N_20  and  C_23
REMARK    5  A    between atoms: C_23  and  C_26
REMARK    6  A    between atoms: C_23  and  C_27
REMARK                            x       y       z     vdW  Elec       q    Type
REMARK                         _______ _______ _______ _____ _____    ______ ____
ROOT
ATOM      1  C   UNL     1     -10.704  55.648  48.075  0.00  0.00    +0.000 A 
ATOM      2  C   UNL     1      -9.237  55.826  48.298  0.00  0.00    +0.000 A 
ATOM      3  C   UNL     1     -11.143  54.922  47.029  0.00  0.00    +0.000 A 
ATOM      4  O   UNL     1      -8.860  56.570  49.211  0.00  0.00    +0.000 OA
ATOM      5  N   UNL     1      -8.365  55.094  47.490  0.00  0.00    +0.000 N 
ATOM      6  C   UNL     1     -10.195  54.276  46.109  0.00  0.00    +0.000 A 
ATOM      7  C   UNL     1      -8.818  54.353  46.363  0.00  0.00    +0.000 A 
ATOM      8  C   UNL     1     -10.649  53.554  44.992  0.00  0.00    +0.000 A 
ATOM      9  C   UNL     1      -7.921  53.701  45.500  0.00  0.00    +0.000 A 
ATOM     10  C   UNL     1      -9.752  52.912  44.141  0.00  0.00    +0.000 A 
ATOM     11  C   UNL     1      -8.388  52.983  44.396  0.00  0.00    +0.000 A 
ENDROOT
BRANCH   1  17
ATOM     12  S   UNL     1     -13.022  55.911  51.240  0.00  0.00    +0.000 S 
ATOM     13  O   UNL     1     -12.254  56.107  52.453  0.00  0.00    +0.000 OA
ATOM     14  O   UNL     1     -14.159  55.011  51.225  0.00  0.00    +0.000 OA
ATOM     15  N   UNL     1     -11.995  55.434  50.083  0.00  0.00    +0.000 N 
ATOM     16  C   UNL     1     -13.649  57.490  50.801  0.00  0.00    +0.000 A 
ATOM     17  C   UNL     1     -11.680  56.214  49.090  0.00  0.00    +0.000 C 
ATOM     18  C   UNL     1     -13.134  58.104  49.671  0.00  0.00    +0.000 A 
ATOM     19  C   UNL     1     -14.641  58.086  51.586  0.00  0.00    +0.000 A 
ATOM     20  N   UNL     1     -12.142  57.500  48.903  0.00  0.00    +0.000 N 
ATOM     21  C   UNL     1     -13.577  59.395  49.366  0.00  0.00    +0.000 A 
ATOM     22  C   UNL     1     -15.101  59.354  51.248  0.00  0.00    +0.000 A 
ATOM     23  C   UNL     1     -14.562  60.013  50.144  0.00  0.00    +0.000 A 
ATOM     24  H   UNL     1     -11.599  54.535  50.132  0.00  0.00    +0.000 HD
ATOM     25  H   UNL     1     -11.741  58.029  48.176  0.00  0.00    +0.000 HD
ENDBRANCH   1  17
BRANCH   3  26
ATOM     26  O   UNL     1     -12.475  54.680  46.748  0.00  0.00    +0.000 OA
ATOM     27  H   UNL     1     -12.743  53.838  46.434  0.00  0.00    +0.000 HD
ENDBRANCH   3  26
BRANCH   5  28
ATOM     28  N   UNL     1      -6.957  55.169  47.731  0.00  0.00    +0.000 N 
ATOM     29  H   UNL     1      -6.356  55.761  47.224  0.00  0.00    +0.000 HD
BRANCH  28  30
ATOM     30  C   UNL     1      -6.490  54.277  48.810  0.00  0.00    +0.000 C 
ATOM     31  C   UNL     1      -5.635  53.112  48.308  0.00  0.00    +0.000 C 
ATOM     32  C   UNL     1      -5.679  55.116  49.802  0.00  0.00    +0.000 C 
ENDBRANCH  28  30
ENDBRANCH   5  28
TORSDOF 4
ENDMDL
MODEL 5
REMARK VINA RESULT:      -8.1      2.605      7.722
REMARK  Name = 
REMARK  6 active torsions:
REMARK  status: ('A' for Active; 'I' for Inactive)
REMARK    1  A    between atoms: C_6  and  C_10
REMARK    2  A    between atoms: C_14  and  O_18
REMARK    3  A    between atoms: N_17  and  N_20
REMARK    4  A    between atoms: N_20  and  C_23
REMARK    5  A    between atoms: C_23  and  C_26
REMARK    6  A    between atoms: C_23  and  C_27
REMARK                            x       y       z     vdW  Elec       q    Type
REMARK                         _______ _______ _______ _____ _____    ______ ____
ROOT
ATOM      1  C   UNL     1     -10.474  54.976  50.911  0.00  0.00    +0.000 A 
ATOM      2  C   UNL     1     -11.659  55.737  51.413  0.00  0.00    +0.000 A 
ATOM      3  C   UNL     1     -10.294  54.806  49.587  0.00  0.00    +0.000 A 
ATOM      4  O   UNL     1     -11.851  55.802  52.633  0.00  0.00    +0.000 OA
ATOM      5  N   UNL     1     -12.460  56.384  50.470  0.00  0.00    +0.000 N 
ATOM      6  C   UNL     1     -11.237  55.384  48.618  0.00  0.00    +0.000 A 
ATOM      7  C   UNL     1     -12.297  56.183  49.071  0.00  0.00    +0.000 A 
ATOM      8  C   UNL     1     -11.076  55.172  47.238  0.00  0.00    +0.000 A 
ATOM      9  C   UNL     1     -13.172  56.762  48.135  0.00  0.00    +0.000 A 
ATOM     10  C   UNL     1     -11.950  55.749  46.318  0.00  0.00    +0.000 A 
ATOM     11  C   UNL     1     -12.996  56.546  46.767  0.00  0.00    +0.000 A 
ENDROOT
BRANCH   1  17
ATOM     12  S   UNL     1      -7.139  54.746  52.981  0.00  0.00    +0.000 S 
ATOM     13  O   UNL     1      -7.081  55.756  54.018  0.00  0.00    +0.000 OA
ATOM     14  O   UNL     1      -5.965  54.434  52.189  0.00  0.00    +0.000 OA
ATOM     15  N   UNL     1      -8.329  55.160  51.964  0.00  0.00    +0.000 N 
ATOM     16  C   UNL     1      -7.595  53.252  53.781  0.00  0.00    +0.000 A 
ATOM     17  C   UNL     1      -9.439  54.482  51.905  0.00  0.00    +0.000 C 
ATOM     18  C   UNL     1      -8.855  52.738  53.529  0.00  0.00    +0.000 A 
ATOM     19  C   UNL     1      -6.690  52.621  54.640  0.00  0.00    +0.000 A 
ATOM     20  N   UNL     1      -9.747  53.381  52.675  0.00  0.00    +0.000 N 
ATOM     21  C   UNL     1      -9.247  51.590  54.226  0.00  0.00    +0.000 A 
ATOM     22  C   UNL     1      -7.078  51.458  55.297  0.00  0.00    +0.000 A 
ATOM     23  C   UNL     1      -8.361  50.948  55.098  0.00  0.00    +0.000 A 
ATOM     24  H   UNL     1      -8.211  55.940  51.377  0.00  0.00    +0.000 HD
ATOM     25  H   UNL     1     -10.664  53.026  52.618  0.00  0.00    +0.000 HD
ENDBRANCH   1  17
BRANCH   3  26
ATOM     26  O   UNL     1      -9.223  54.139  49.022  0.00  0.00    +0.000 OA
ATOM     27  H   UNL     1      -8.715  54.551  48.351  0.00  0.00    +0.000 HD
ENDBRANCH   3  26
BRANCH   5  28
ATOM     28  N   UNL     1     -13.550  57.196  50.916  0.00  0.00    +0.000 N 
ATOM     29  H   UNL     1     -13.552  58.177  50.847  0.00  0.00    +0.000 HD
BRANCH  28  30
ATOM     30  C   UNL     1     -14.672  56.424  51.488  0.00  0.00    +0.000 C 
ATOM     31  C   UNL     1     -15.275  57.067  52.738  0.00  0.00    +0.000 C 
ATOM     32  C   UNL     1     -15.751  56.287  50.411  0.00  0.00    +0.000 C 
ENDBRANCH  28  30
ENDBRANCH   5  28
TORSDOF 4
ENDMDL
MODEL 6
REMARK VINA RESULT:      -8.0      3.105      7.275
REMARK  Name = 
REMARK  6 active torsions:
REMARK  status: ('A' for Active; 'I' for Inactive)
REMARK    1  A    between atoms: C_6  and  C_10
REMARK    2  A    between atoms: C_14  and  O_18
REMARK    3  A    between atoms: N_17  and  N_20
REMARK    4  A    between atoms: N_20  and  C_23
REMARK    5  A    between atoms: C_23  and  C_26
REMARK    6  A    between atoms: C_23  and  C_27
REMARK                            x       y       z     vdW  Elec       q    Type
REMARK                         _______ _______ _______ _____ _____    ______ ____
ROOT
ATOM      1  C   UNL     1     -10.386  54.998  50.513  0.00  0.00    +0.000 A 
ATOM      2  C   UNL     1      -9.907  55.070  49.099  0.00  0.00    +0.000 A 
ATOM      3  C   UNL     1     -11.603  55.475  50.838  0.00  0.00    +0.000 A 
ATOM      4  O   UNL     1      -8.753  54.710  48.842  0.00  0.00    +0.000 OA
ATOM      5  N   UNL     1     -10.817  55.494  48.128  0.00  0.00    +0.000 N 
ATOM      6  C   UNL     1     -12.487  56.045  49.811  0.00  0.00    +0.000 A 
ATOM      7  C   UNL     1     -12.092  56.029  48.466  0.00  0.00    +0.000 A 
ATOM      8  C   UNL     1     -13.740  56.583  50.154  0.00  0.00    +0.000 A 
ATOM      9  C   UNL     1     -12.959  56.544  47.487  0.00  0.00    +0.000 A 
ATOM     10  C   UNL     1     -14.592  57.092  49.176  0.00  0.00    +0.000 A 
ATOM     11  C   UNL     1     -14.203  57.070  47.842  0.00  0.00    +0.000 A 
ENDROOT
BRANCH   1  17
ATOM     12  S   UNL     1      -9.117  52.285  53.060  0.00  0.00    +0.000 S 
ATOM     13  O   UNL     1      -8.539  51.141  52.382  0.00  0.00    +0.000 OA
ATOM     14  O   UNL     1      -9.975  52.101  54.214  0.00  0.00    +0.000 OA
ATOM     15  N   UNL     1      -9.941  53.139  51.959  0.00  0.00    +0.000 N 
ATOM     16  C   UNL     1      -7.766  53.258  53.612  0.00  0.00    +0.000 A 
ATOM     17  C   UNL     1      -9.523  54.302  51.550  0.00  0.00    +0.000 C 
ATOM     18  C   UNL     1      -7.549  54.479  52.997  0.00  0.00    +0.000 A 
ATOM     19  C   UNL     1      -6.950  52.789  54.646  0.00  0.00    +0.000 A 
ATOM     20  N   UNL     1      -8.367  54.929  51.964  0.00  0.00    +0.000 N 
ATOM     21  C   UNL     1      -6.427  55.220  53.384  0.00  0.00    +0.000 A 
ATOM     22  C   UNL     1      -5.859  53.554  55.048  0.00  0.00    +0.000 A 
ATOM     23  C   UNL     1      -5.592  54.764  54.410  0.00  0.00    +0.000 A 
ATOM     24  H   UNL     1     -10.776  52.772  51.590  0.00  0.00    +0.000 HD
ATOM     25  H   UNL     1      -8.101  55.754  51.496  0.00  0.00    +0.000 HD
ENDBRANCH   1  17
BRANCH   3  26
ATOM     26  O   UNL     1     -12.145  55.435  52.109  0.00  0.00    +0.000 OA
ATOM     27  H   UNL     1     -12.495  56.215  52.494  0.00  0.00    +0.000 HD
ENDBRANCH   3  26
BRANCH   5  28
ATOM     28  N   UNL     1     -10.426  55.492  46.752  0.00  0.00    +0.000 N 
ATOM     29  H   UNL     1     -10.191  56.311  46.259  0.00  0.00    +0.000 HD
BRANCH  28  30
ATOM     30  C   UNL     1     -10.407  54.148  46.141  0.00  0.00    +0.000 C 
ATOM     31  C   UNL     1     -11.602  53.881  45.224  0.00  0.00    +0.000 C 
ATOM     32  C   UNL     1      -9.108  54.008  45.343  0.00  0.00    +0.000 C 
ENDBRANCH  28  30
ENDBRANCH   5  28
TORSDOF 4
ENDMDL
MODEL 7
REMARK VINA RESULT:      -7.9      3.840      4.912
REMARK  Name = 
REMARK  6 active torsions:
REMARK  status: ('A' for Active; 'I' for Inactive)
REMARK    1  A    between atoms: C_6  and  C_10
REMARK    2  A    between atoms: C_14  and  O_18
REMARK    3  A    between atoms: N_17  and  N_20
REMARK    4  A    between atoms: N_20  and  C_23
REMARK    5  A    between atoms: C_23  and  C_26
REMARK    6  A    between atoms: C_23  and  C_27
REMARK                            x       y       z     vdW  Elec       q    Type
REMARK                         _______ _______ _______ _____ _____    ______ ____
ROOT
ATOM      1  C   UNL     1     -12.339  54.238  49.799  0.00  0.00    +0.000 A 
ATOM      2  C   UNL     1     -11.809  54.080  48.410  0.00  0.00    +0.000 A 
ATOM      3  C   UNL     1     -11.993  53.356  50.756  0.00  0.00    +0.000 A 
ATOM      4  O   UNL     1     -12.212  54.848  47.529  0.00  0.00    +0.000 OA
ATOM      5  N   UNL     1     -10.839  53.099  48.195  0.00  0.00    +0.000 N 
ATOM      6  C   UNL     1     -11.075  52.246  50.462  0.00  0.00    +0.000 A 
ATOM      7  C   UNL     1     -10.493  52.143  49.191  0.00  0.00    +0.000 A 
ATOM      8  C   UNL     1     -10.747  51.299  51.447  0.00  0.00    +0.000 A 
ATOM      9  C   UNL     1      -9.588  51.101  48.929  0.00  0.00    +0.000 A 
ATOM     10  C   UNL     1      -9.849  50.268  51.178  0.00  0.00    +0.000 A 
ATOM     11  C   UNL     1      -9.267  50.170  49.920  0.00  0.00    +0.000 A 
ENDROOT
BRANCH   1  17
ATOM     12  S   UNL     1     -15.313  56.414  51.169  0.00  0.00    +0.000 S 
ATOM     13  O   UNL     1     -15.264  56.543  52.611  0.00  0.00    +0.000 OA
ATOM     14  O   UNL     1     -16.577  56.194  50.491  0.00  0.00    +0.000 OA
ATOM     15  N   UNL     1     -14.310  55.214  50.752  0.00  0.00    +0.000 N 
ATOM     16  C   UNL     1     -14.674  57.915  50.524  0.00  0.00    +0.000 A 
ATOM     17  C   UNL     1     -13.190  55.450  50.131  0.00  0.00    +0.000 C 
ATOM     18  C   UNL     1     -13.441  57.879  49.893  0.00  0.00    +0.000 A 
ATOM     19  C   UNL     1     -15.409  59.097  50.656  0.00  0.00    +0.000 A 
ATOM     20  N   UNL     1     -12.718  56.695  49.775  0.00  0.00    +0.000 N 
ATOM     21  C   UNL     1     -12.896  59.088  49.448  0.00  0.00    +0.000 A 
ATOM     22  C   UNL     1     -14.872  60.287  50.174  0.00  0.00    +0.000 A 
ATOM     23  C   UNL     1     -13.611  60.284  49.579  0.00  0.00    +0.000 A 
ATOM     24  H   UNL     1     -14.551  54.286  50.972  0.00  0.00    +0.000 HD
ATOM     25  H   UNL     1     -11.805  56.751  49.412  0.00  0.00    +0.000 HD
ENDBRANCH   1  17
BRANCH   3  26
ATOM     26  O   UNL     1     -12.411  53.426  52.073  0.00  0.00    +0.000 OA
ATOM     27  H   UNL     1     -13.272  53.734  52.276  0.00  0.00    +0.000 HD
ENDBRANCH   3  26
BRANCH   5  28
ATOM     28  N   UNL     1     -10.243  52.976  46.901  0.00  0.00    +0.000 N 
ATOM     29  H   UNL     1      -9.327  53.277  46.700  0.00  0.00    +0.000 HD
BRANCH  28  30
ATOM     30  C   UNL     1     -11.128  52.356  45.894  0.00  0.00    +0.000 C 
ATOM     31  C   UNL     1     -11.299  53.204  44.633  0.00  0.00    +0.000 C 
ATOM     32  C   UNL     1     -10.537  50.994  45.518  0.00  0.00    +0.000 C 
ENDBRANCH  28  30
ENDBRANCH   5  28
TORSDOF 4
ENDMDL
MODEL 8
REMARK VINA RESULT:      -7.9      1.585      2.318
REMARK  Name = 
REMARK  6 active torsions:
REMARK  status: ('A' for Active; 'I' for Inactive)
REMARK    1  A    between atoms: C_6  and  C_10
REMARK    2  A    between atoms: C_14  and  O_18
REMARK    3  A    between atoms: N_17  and  N_20
REMARK    4  A    between atoms: N_20  and  C_23
REMARK    5  A    between atoms: C_23  and  C_26
REMARK    6  A    between atoms: C_23  and  C_27
REMARK                            x       y       z     vdW  Elec       q    Type
REMARK                         _______ _______ _______ _____ _____    ______ ____
ROOT
ATOM      1  C   UNL     1     -10.165  54.503  52.065  0.00  0.00    +0.000 A 
ATOM      2  C   UNL     1      -8.765  55.015  51.957  0.00  0.00    +0.000 A 
ATOM      3  C   UNL     1     -10.431  53.424  52.826  0.00  0.00    +0.000 A 
ATOM      4  O   UNL     1      -8.531  55.949  51.182  0.00  0.00    +0.000 OA
ATOM      5  N   UNL     1      -7.799  54.438  52.785  0.00  0.00    +0.000 N 
ATOM      6  C   UNL     1      -9.363  52.751  53.579  0.00  0.00    +0.000 A 
ATOM      7  C   UNL     1      -8.064  53.279  53.566  0.00  0.00    +0.000 A 
ATOM      8  C   UNL     1      -9.630  51.599  54.340  0.00  0.00    +0.000 A 
ATOM      9  C   UNL     1      -7.057  52.650  54.318  0.00  0.00    +0.000 A 
ATOM     10  C   UNL     1      -8.625  50.982  55.082  0.00  0.00    +0.000 A 
ATOM     11  C   UNL     1      -7.339  51.509  55.073  0.00  0.00    +0.000 A 
ENDROOT
BRANCH   1  17
ATOM     12  S   UNL     1     -13.497  56.528  51.562  0.00  0.00    +0.000 S 
ATOM     13  O   UNL     1     -13.366  57.898  52.015  0.00  0.00    +0.000 OA
ATOM     14  O   UNL     1     -14.704  55.773  51.839  0.00  0.00    +0.000 OA
ATOM     15  N   UNL     1     -12.242  55.696  52.155  0.00  0.00    +0.000 N 
ATOM     16  C   UNL     1     -13.348  56.577  49.814  0.00  0.00    +0.000 A 
ATOM     17  C   UNL     1     -11.285  55.268  51.384  0.00  0.00    +0.000 C 
ATOM     18  C   UNL     1     -12.210  56.033  49.243  0.00  0.00    +0.000 A 
ATOM     19  C   UNL     1     -14.366  57.152  49.047  0.00  0.00    +0.000 A 
ATOM     20  N   UNL     1     -11.203  55.469  50.022  0.00  0.00    +0.000 N 
ATOM     21  C   UNL     1     -12.055  56.141  47.857  0.00  0.00    +0.000 A 
ATOM     22  C   UNL     1     -14.216  57.218  47.665  0.00  0.00    +0.000 A 
ATOM     23  C   UNL     1     -13.056  56.722  47.071  0.00  0.00    +0.000 A 
ATOM     24  H   UNL     1     -12.201  55.509  53.121  0.00  0.00    +0.000 HD
ATOM     25  H   UNL     1     -10.373  55.195  49.569  0.00  0.00    +0.000 HD
ENDBRANCH   1  17
BRANCH   3  26
ATOM     26  O   UNL     1     -11.693  52.888  53.009  0.00  0.00    +0.000 OA
ATOM     27  H   UNL     1     -12.041  52.283  52.382  0.00  0.00    +0.000 HD
ENDBRANCH   3  26
BRANCH   5  28
ATOM     28  N   UNL     1      -6.467  54.959  52.776  0.00  0.00    +0.000 N 
ATOM     29  H   UNL     1      -6.205  55.772  53.265  0.00  0.00    +0.000 HD
BRANCH  28  30
ATOM     30  C   UNL     1      -5.523  54.164  51.965  0.00  0.00    +0.000 C 
ATOM     31  C   UNL     1      -5.435  54.626  50.510  0.00  0.00    +0.000 C 
ATOM     32  C   UNL     1      -4.141  54.261  52.617  0.00  0.00    +0.000 C 
ENDBRANCH  28  30
ENDBRANCH   5  28
TORSDOF 4
ENDMDL
MODEL 9
REMARK VINA RESULT:      -7.9      3.383      4.998
REMARK  Name = 
REMARK  6 active torsions:
REMARK  status: ('A' for Active; 'I' for Inactive)
REMARK    1  A    between atoms: C_6  and  C_10
REMARK    2  A    between atoms: C_14  and  O_18
REMARK    3  A    between atoms: N_17  and  N_20
REMARK    4  A    between atoms: N_20  and  C_23
REMARK    5  A    between atoms: C_23  and  C_26
REMARK    6  A    between atoms: C_23  and  C_27
REMARK                            x       y       z     vdW  Elec       q    Type
REMARK                         _______ _______ _______ _____ _____    ______ ____
ROOT
ATOM      1  C   UNL     1     -11.353  56.113  48.769  0.00  0.00    +0.000 A 
ATOM      2  C   UNL     1     -10.162  55.633  49.535  0.00  0.00    +0.000 A 
ATOM      3  C   UNL     1     -11.585  55.650  47.525  0.00  0.00    +0.000 A 
ATOM      4  O   UNL     1      -9.920  56.139  50.637  0.00  0.00    +0.000 OA
ATOM      5  N   UNL     1      -9.412  54.594  48.982  0.00  0.00    +0.000 N 
ATOM      6  C   UNL     1     -10.693  54.654  46.913  0.00  0.00    +0.000 A 
ATOM      7  C   UNL     1      -9.630  54.123  47.657  0.00  0.00    +0.000 A 
ATOM      8  C   UNL     1     -10.908  54.203  45.600  0.00  0.00    +0.000 A 
ATOM      9  C   UNL     1      -8.805  53.144  47.076  0.00  0.00    +0.000 A 
ATOM     10  C   UNL     1     -10.084  53.233  45.032  0.00  0.00    +0.000 A 
ATOM     11  C   UNL     1      -9.033  52.702  45.771  0.00  0.00    +0.000 A 
ENDROOT
BRANCH   1  17
ATOM     12  S   UNL     1     -13.555  59.292  49.477  0.00  0.00    +0.000 S 
ATOM     13  O   UNL     1     -14.702  59.358  48.594  0.00  0.00    +0.000 OA
ATOM     14  O   UNL     1     -12.796  60.487  49.791  0.00  0.00    +0.000 OA
ATOM     15  N   UNL     1     -12.531  58.198  48.866  0.00  0.00    +0.000 N 
ATOM     16  C   UNL     1     -14.156  58.685  51.010  0.00  0.00    +0.000 A 
ATOM     17  C   UNL     1     -12.337  57.049  49.446  0.00  0.00    +0.000 C 
ATOM     18  C   UNL     1     -13.782  57.409  51.396  0.00  0.00    +0.000 A 
ATOM     19  C   UNL     1     -14.985  59.490  51.798  0.00  0.00    +0.000 A 
ATOM     20  N   UNL     1     -12.961  56.618  50.597  0.00  0.00    +0.000 N 
ATOM     21  C   UNL     1     -14.323  56.896  52.580  0.00  0.00    +0.000 A 
ATOM     22  C   UNL     1     -15.484  58.981  52.993  0.00  0.00    +0.000 A 
ATOM     23  C   UNL     1     -15.162  57.680  53.379  0.00  0.00    +0.000 A 
ATOM     24  H   UNL     1     -12.043  58.406  48.037  0.00  0.00    +0.000 HD
ATOM     25  H   UNL     1     -12.816  55.683  50.873  0.00  0.00    +0.000 HD
ENDBRANCH   1  17
BRANCH   3  26
ATOM     26  O   UNL     1     -12.667  56.013  46.745  0.00  0.00    +0.000 OA
ATOM     27  H   UNL     1     -13.410  55.445  46.679  0.00  0.00    +0.000 HD
ENDBRANCH   3  26
BRANCH   5  28
ATOM     28  N   UNL     1      -8.318  54.046  49.724  0.00  0.00    +0.000 N 
ATOM     29  H   UNL     1      -8.300  53.118  50.048  0.00  0.00    +0.000 HD
BRANCH  28  30
ATOM     30  C   UNL     1      -7.220  55.005  49.959  0.00  0.00    +0.000 C 
ATOM     31  C   UNL     1      -6.514  54.802  51.300  0.00  0.00    +0.000 C 
ATOM     32  C   UNL     1      -6.207  54.854  48.820  0.00  0.00    +0.000 C 
ENDBRANCH  28  30
ENDBRANCH   5  28
TORSDOF 4
ENDMDL
