MODEL 1
REMARK VINA RESULT:      -8.8      0.000      0.000
REMARK  Name = 
REMARK  5 active torsions:
REMARK  status: ('A' for Active; 'I' for Inactive)
REMARK    1  A    between atoms: C_6  and  C_10
REMARK    2  A    between atoms: C_14  and  O_18
REMARK    3  A    between atoms: N_17  and  N_20
REMARK    4  A    between atoms: N_20  and  C_23
REMARK    5  A    between atoms: C_23  and  C_26
REMARK                            x       y       z     vdW  Elec       q    Type
REMARK                         _______ _______ _______ _____ _____    ______ ____
ROOT
ATOM      1  C   UNL     1      -9.127  54.352  49.898  0.00  0.00    +0.000 A 
ATOM      2  C   UNL     1     -10.179  55.408  49.984  0.00  0.00    +0.000 A 
ATOM      3  C   UNL     1      -9.016  53.592  48.794  0.00  0.00    +0.000 A 
ATOM      4  O   UNL     1     -10.248  56.060  51.032  0.00  0.00    +0.000 OA
ATOM      5  N   UNL     1     -11.004  55.612  48.875  0.00  0.00    +0.000 N 
ATOM      6  C   UNL     1      -9.897  53.817  47.639  0.00  0.00    +0.000 A 
ATOM      7  C   UNL     1     -10.881  54.819  47.693  0.00  0.00    +0.000 A 
ATOM      8  C   UNL     1      -9.758  53.047  46.471  0.00  0.00    +0.000 A 
ATOM      9  C   UNL     1     -11.711  55.022  46.578  0.00  0.00    +0.000 A 
ATOM     10  C   UNL     1     -10.575  53.272  45.365  0.00  0.00    +0.000 A 
ATOM     11  C   UNL     1     -11.553  54.257  45.419  0.00  0.00    +0.000 A 
ENDROOT
BRANCH   1  17
ATOM     12  S   UNL     1      -7.737  54.102  53.562  0.00  0.00    +0.000 S 
ATOM     13  O   UNL     1      -7.961  52.790  54.146  0.00  0.00    +0.000 OA
ATOM     14  O   UNL     1      -7.934  55.299  54.352  0.00  0.00    +0.000 OA
ATOM     15  N   UNL     1      -8.671  54.215  52.246  0.00  0.00    +0.000 N 
ATOM     16  C   UNL     1      -6.055  54.126  53.052  0.00  0.00    +0.000 A 
ATOM     17  C   UNL     1      -8.156  54.198  51.053  0.00  0.00    +0.000 C 
ATOM     18  C   UNL     1      -5.791  54.114  51.694  0.00  0.00    +0.000 A 
ATOM     19  C   UNL     1      -5.036  54.170  54.007  0.00  0.00    +0.000 A 
ATOM     20  N   UNL     1      -6.817  54.056  50.755  0.00  0.00    +0.000 N 
ATOM     21  C   UNL     1      -4.455  54.074  51.282  0.00  0.00    +0.000 A 
ATOM     22  C   UNL     1      -3.710  54.166  53.582  0.00  0.00    +0.000 A 
ATOM     23  C   UNL     1      -3.418  54.110  52.219  0.00  0.00    +0.000 A 
ATOM     24  H   UNL     1      -9.647  54.297  52.350  0.00  0.00    +0.000 HD
ATOM     25  H   UNL     1      -6.570  53.904  49.815  0.00  0.00    +0.000 HD
ENDBRANCH   1  17
BRANCH   3  26
ATOM     26  O   UNL     1      -8.077  52.591  48.629  0.00  0.00    +0.000 OA
ATOM     27  H   UNL     1      -7.645  52.226  49.376  0.00  0.00    +0.000 HD
ENDBRANCH   3  26
BRANCH   5  28
ATOM     28  N   UNL     1     -12.086  56.556  48.934  0.00  0.00    +0.000 N 
ATOM     29  H   UNL     1     -12.026  57.454  48.535  0.00  0.00    +0.000 HD
BRANCH  28  30
ATOM     30  C   UNL     1     -13.291  56.084  49.631  0.00  0.00    +0.000 C 
BRANCH  30  31
ATOM     31  C   UNL     1     -13.744  57.067  50.678  0.00  0.00    +0.000 A 
ATOM     32  C   UNL     1     -14.274  58.303  50.315  0.00  0.00    +0.000 A 
ATOM     33  C   UNL     1     -13.666  56.776  52.041  0.00  0.00    +0.000 A 
ATOM     34  N   UNL     1     -14.695  59.239  51.196  0.00  0.00    +0.000 NA
ATOM     35  C   UNL     1     -14.090  57.720  52.970  0.00  0.00    +0.000 A 
ATOM     36  C   UNL     1     -14.588  58.926  52.505  0.00  0.00    +0.000 A 
ENDBRANCH  30  31
ENDBRANCH  28  30
ENDBRANCH   5  28
TORSDOF 5
ENDMDL
MODEL 2
REMARK VINA RESULT:      -8.8      2.621      7.339
REMARK  Name = 
REMARK  5 active torsions:
REMARK  status: ('A' for Active; 'I' for Inactive)
REMARK    1  A    between atoms: C_6  and  C_10
REMARK    2  A    between atoms: C_14  and  O_18
REMARK    3  A    between atoms: N_17  and  N_20
REMARK    4  A    between atoms: N_20  and  C_23
REMARK    5  A    between atoms: C_23  and  C_26
REMARK                            x       y       z     vdW  Elec       q    Type
REMARK                         _______ _______ _______ _____ _____    ______ ____
ROOT
ATOM      1  C   UNL     1     -11.436  56.066  48.801  0.00  0.00    +0.000 A 
ATOM      2  C   UNL     1     -10.336  55.513  49.646  0.00  0.00    +0.000 A 
ATOM      3  C   UNL     1     -11.567  55.682  47.520  0.00  0.00    +0.000 A 
ATOM      4  O   UNL     1     -10.252  55.921  50.809  0.00  0.00    +0.000 OA
ATOM      5  N   UNL     1      -9.487  54.557  49.083  0.00  0.00    +0.000 N 
ATOM      6  C   UNL     1     -10.660  54.680  46.942  0.00  0.00    +0.000 A 
ATOM      7  C   UNL     1      -9.630  54.132  47.727  0.00  0.00    +0.000 A 
ATOM      8  C   UNL     1     -10.819  54.250  45.613  0.00  0.00    +0.000 A 
ATOM      9  C   UNL     1      -8.776  53.173  47.159  0.00  0.00    +0.000 A 
ATOM     10  C   UNL     1      -9.977  53.283  45.068  0.00  0.00    +0.000 A 
ATOM     11  C   UNL     1      -8.954  52.746  45.840  0.00  0.00    +0.000 A 
ENDROOT
BRANCH   1  17
ATOM     12  S   UNL     1     -13.560  59.301  49.467  0.00  0.00    +0.000 S 
ATOM     13  O   UNL     1     -14.697  59.406  48.568  0.00  0.00    +0.000 OA
ATOM     14  O   UNL     1     -12.771  60.471  49.790  0.00  0.00    +0.000 OA
ATOM     15  N   UNL     1     -12.564  58.179  48.863  0.00  0.00    +0.000 N 
ATOM     16  C   UNL     1     -14.202  58.709  50.992  0.00  0.00    +0.000 A 
ATOM     17  C   UNL     1     -12.430  57.020  49.436  0.00  0.00    +0.000 C 
ATOM     18  C   UNL     1     -13.884  57.417  51.369  0.00  0.00    +0.000 A 
ATOM     19  C   UNL     1     -14.994  59.542  51.787  0.00  0.00    +0.000 A 
ATOM     20  N   UNL     1     -13.106  56.594  50.559  0.00  0.00    +0.000 N 
ATOM     21  C   UNL     1     -14.439  56.919  52.554  0.00  0.00    +0.000 A 
ATOM     22  C   UNL     1     -15.510  59.045  52.982  0.00  0.00    +0.000 A 
ATOM     23  C   UNL     1     -15.240  57.731  53.361  0.00  0.00    +0.000 A 
ATOM     24  H   UNL     1     -12.050  58.377  48.046  0.00  0.00    +0.000 HD
ATOM     25  H   UNL     1     -13.033  55.644  50.806  0.00  0.00    +0.000 HD
ENDBRANCH   1  17
BRANCH   3  26
ATOM     26  O   UNL     1     -12.551  56.144  46.664  0.00  0.00    +0.000 OA
ATOM     27  H   UNL     1     -13.453  55.976  46.853  0.00  0.00    +0.000 HD
ENDBRANCH   3  26
BRANCH   5  28
ATOM     28  N   UNL     1      -8.361  54.055  49.822  0.00  0.00    +0.000 N 
ATOM     29  H   UNL     1      -8.356  53.159  50.231  0.00  0.00    +0.000 HD
BRANCH  28  30
ATOM     30  C   UNL     1      -7.217  54.973  49.922  0.00  0.00    +0.000 C 
BRANCH  30  31
ATOM     31  C   UNL     1      -6.708  55.067  51.336  0.00  0.00    +0.000 A 
ATOM     32  C   UNL     1      -5.604  54.324  51.749  0.00  0.00    +0.000 A 
ATOM     33  C   UNL     1      -7.305  55.908  52.277  0.00  0.00    +0.000 A 
ATOM     34  N   UNL     1      -5.093  54.351  53.000  0.00  0.00    +0.000 NA
ATOM     35  C   UNL     1      -6.802  55.954  53.573  0.00  0.00    +0.000 A 
ATOM     36  C   UNL     1      -5.708  55.164  53.885  0.00  0.00    +0.000 A 
ENDBRANCH  30  31
ENDBRANCH  28  30
ENDBRANCH   5  28
TORSDOF 5
ENDMDL
MODEL 3
REMARK VINA RESULT:      -8.7      3.256      8.542
REMARK  Name = 
REMARK  5 active torsions:
REMARK  status: ('A' for Active; 'I' for Inactive)
REMARK    1  A    between atoms: C_6  and  C_10
REMARK    2  A    between atoms: C_14  and  O_18
REMARK    3  A    between atoms: N_17  and  N_20
REMARK    4  A    between atoms: N_20  and  C_23
REMARK    5  A    between atoms: C_23  and  C_26
REMARK                            x       y       z     vdW  Elec       q    Type
REMARK                         _______ _______ _______ _____ _____    ______ ____
ROOT
ATOM      1  C   UNL     1     -10.106  54.551  52.217  0.00  0.00    +0.000 A 
ATOM      2  C   UNL     1      -8.741  55.126  52.025  0.00  0.00    +0.000 A 
ATOM      3  C   UNL     1     -10.278  53.443  52.958  0.00  0.00    +0.000 A 
ATOM      4  O   UNL     1      -8.642  56.132  51.315  0.00  0.00    +0.000 OA
ATOM      5  N   UNL     1      -7.667  54.509  52.672  0.00  0.00    +0.000 N 
ATOM      6  C   UNL     1      -9.136  52.804  53.626  0.00  0.00    +0.000 A 
ATOM      7  C   UNL     1      -7.845  53.341  53.473  0.00  0.00    +0.000 A 
ATOM      8  C   UNL     1      -9.320  51.666  54.430  0.00  0.00    +0.000 A 
ATOM      9  C   UNL     1      -6.766  52.718  54.122  0.00  0.00    +0.000 A 
ATOM     10  C   UNL     1      -8.244  51.070  55.085  0.00  0.00    +0.000 A 
ATOM     11  C   UNL     1      -6.966  51.595  54.929  0.00  0.00    +0.000 A 
ENDROOT
BRANCH   1  17
ATOM     12  S   UNL     1     -12.569  56.036  49.543  0.00  0.00    +0.000 S 
ATOM     13  O   UNL     1     -13.466  55.027  49.004  0.00  0.00    +0.000 OA
ATOM     14  O   UNL     1     -11.970  57.025  48.673  0.00  0.00    +0.000 OA
ATOM     15  N   UNL     1     -11.375  55.263  50.314  0.00  0.00    +0.000 N 
ATOM     16  C   UNL     1     -13.505  56.933  50.730  0.00  0.00    +0.000 A 
ATOM     17  C   UNL     1     -11.292  55.277  51.611  0.00  0.00    +0.000 C 
ATOM     18  C   UNL     1     -13.187  56.764  52.066  0.00  0.00    +0.000 A 
ATOM     19  C   UNL     1     -14.524  57.793  50.311  0.00  0.00    +0.000 A 
ATOM     20  N   UNL     1     -12.179  55.892  52.468  0.00  0.00    +0.000 N 
ATOM     21  C   UNL     1     -13.966  57.430  53.018  0.00  0.00    +0.000 A 
ATOM     22  C   UNL     1     -15.267  58.477  51.269  0.00  0.00    +0.000 A 
ATOM     23  C   UNL     1     -14.995  58.290  52.624  0.00  0.00    +0.000 A 
ATOM     24  H   UNL     1     -10.700  54.771  49.792  0.00  0.00    +0.000 HD
ATOM     25  H   UNL     1     -12.094  55.703  53.430  0.00  0.00    +0.000 HD
ENDBRANCH   1  17
BRANCH   3  26
ATOM     26  O   UNL     1     -11.502  52.841  53.186  0.00  0.00    +0.000 OA
ATOM     27  H   UNL     1     -11.913  52.917  54.024  0.00  0.00    +0.000 HD
ENDBRANCH   3  26
BRANCH   5  28
ATOM     28  N   UNL     1      -6.323  54.968  52.453  0.00  0.00    +0.000 N 
ATOM     29  H   UNL     1      -5.799  55.420  53.154  0.00  0.00    +0.000 HD
BRANCH  28  30
ATOM     30  C   UNL     1      -5.784  54.713  51.109  0.00  0.00    +0.000 C 
BRANCH  30  31
ATOM     31  C   UNL     1      -5.111  53.368  51.030  0.00  0.00    +0.000 A 
ATOM     32  C   UNL     1      -5.696  52.317  50.326  0.00  0.00    +0.000 A 
ATOM     33  C   UNL     1      -3.879  53.127  51.639  0.00  0.00    +0.000 A 
ATOM     34  N   UNL     1      -5.156  51.082  50.216  0.00  0.00    +0.000 NA
ATOM     35  C   UNL     1      -3.301  51.866  51.544  0.00  0.00    +0.000 A 
ATOM     36  C   UNL     1      -3.972  50.884  50.832  0.00  0.00    +0.000 A 
ENDBRANCH  30  31
ENDBRANCH  28  30
ENDBRANCH   5  28
TORSDOF 5
ENDMDL
MODEL 4
REMARK VINA RESULT:      -8.7      3.005      7.636
REMARK  Name = 
REMARK  5 active torsions:
REMARK  status: ('A' for Active; 'I' for Inactive)
REMARK    1  A    between atoms: C_6  and  C_10
REMARK    2  A    between atoms: C_14  and  O_18
REMARK    3  A    between atoms: N_17  and  N_20
REMARK    4  A    between atoms: N_20  and  C_23
REMARK    5  A    between atoms: C_23  and  C_26
REMARK                            x       y       z     vdW  Elec       q    Type
REMARK                         _______ _______ _______ _____ _____    ______ ____
ROOT
ATOM      1  C   UNL     1     -11.159  54.569  50.752  0.00  0.00    +0.000 A 
ATOM      2  C   UNL     1      -9.775  54.935  50.329  0.00  0.00    +0.000 A 
ATOM      3  C   UNL     1     -11.422  53.338  51.223  0.00  0.00    +0.000 A 
ATOM      4  O   UNL     1      -9.599  56.074  49.882  0.00  0.00    +0.000 OA
ATOM      5  N   UNL     1      -8.763  53.984  50.483  0.00  0.00    +0.000 N 
ATOM      6  C   UNL     1     -10.346  52.348  51.373  0.00  0.00    +0.000 A 
ATOM      7  C   UNL     1      -9.032  52.680  50.998  0.00  0.00    +0.000 A 
ATOM      8  C   UNL     1     -10.613  51.073  51.900  0.00  0.00    +0.000 A 
ATOM      9  C   UNL     1      -8.016  51.722  51.152  0.00  0.00    +0.000 A 
ATOM     10  C   UNL     1      -9.592  50.138  52.066  0.00  0.00    +0.000 A 
ATOM     11  C   UNL     1      -8.294  50.462  51.689  0.00  0.00    +0.000 A 
ENDROOT
BRANCH   1  17
ATOM     12  S   UNL     1     -13.617  57.279  49.325  0.00  0.00    +0.000 S 
ATOM     13  O   UNL     1     -14.774  56.684  48.676  0.00  0.00    +0.000 OA
ATOM     14  O   UNL     1     -12.957  58.426  48.738  0.00  0.00    +0.000 OA
ATOM     15  N   UNL     1     -12.513  56.112  49.517  0.00  0.00    +0.000 N 
ATOM     16  C   UNL     1     -14.164  57.791  50.915  0.00  0.00    +0.000 A 
ATOM     17  C   UNL     1     -12.242  55.630  50.693  0.00  0.00    +0.000 C 
ATOM     18  C   UNL     1     -13.698  57.093  52.015  0.00  0.00    +0.000 A 
ATOM     19  C   UNL     1     -15.030  58.881  51.038  0.00  0.00    +0.000 A 
ATOM     20  N   UNL     1     -12.848  56.000  51.874  0.00  0.00    +0.000 N 
ATOM     21  C   UNL     1     -14.175  57.458  53.278  0.00  0.00    +0.000 A 
ATOM     22  C   UNL     1     -15.467  59.257  52.306  0.00  0.00    +0.000 A 
ATOM     23  C   UNL     1     -15.047  58.540  53.426  0.00  0.00    +0.000 A 
ATOM     24  H   UNL     1     -12.038  55.761  48.729  0.00  0.00    +0.000 HD
ATOM     25  H   UNL     1     -12.666  55.455  52.673  0.00  0.00    +0.000 HD
ENDBRANCH   1  17
BRANCH   3  26
ATOM     26  O   UNL     1     -12.672  52.910  51.633  0.00  0.00    +0.000 OA
ATOM     27  H   UNL     1     -13.106  53.344  52.341  0.00  0.00    +0.000 HD
ENDBRANCH   3  26
BRANCH   5  28
ATOM     28  N   UNL     1      -7.431  54.253  50.014  0.00  0.00    +0.000 N 
ATOM     29  H   UNL     1      -7.026  53.760  49.265  0.00  0.00    +0.000 HD
BRANCH  28  30
ATOM     30  C   UNL     1      -6.717  55.319  50.733  0.00  0.00    +0.000 C 
BRANCH  30  31
ATOM     31  C   UNL     1      -6.490  54.955  52.176  0.00  0.00    +0.000 A 
ATOM     32  C   UNL     1      -7.272  55.513  53.185  0.00  0.00    +0.000 A 
ATOM     33  C   UNL     1      -5.507  54.040  52.557  0.00  0.00    +0.000 A 
ATOM     34  N   UNL     1      -7.125  55.240  54.501  0.00  0.00    +0.000 NA
ATOM     35  C   UNL     1      -5.331  53.742  53.904  0.00  0.00    +0.000 A 
ATOM     36  C   UNL     1      -6.153  54.363  54.830  0.00  0.00    +0.000 A 
ENDBRANCH  30  31
ENDBRANCH  28  30
ENDBRANCH   5  28
TORSDOF 5
ENDMDL
MODEL 5
REMARK VINA RESULT:      -8.6      2.337      5.667
REMARK  Name = 
REMARK  5 active torsions:
REMARK  status: ('A' for Active; 'I' for Inactive)
REMARK    1  A    between atoms: C_6  and  C_10
REMARK    2  A    between atoms: C_14  and  O_18
REMARK    3  A    between atoms: N_17  and  N_20
REMARK    4  A    between atoms: N_20  and  C_23
REMARK    5  A    between atoms: C_23  and  C_26
REMARK                            x       y       z     vdW  Elec       q    Type
REMARK                         _______ _______ _______ _____ _____    ______ ____
ROOT
ATOM      1  C   UNL     1     -10.307  55.226  50.759  0.00  0.00    +0.000 A 
ATOM      2  C   UNL     1      -9.941  55.119  49.314  0.00  0.00    +0.000 A 
ATOM      3  C   UNL     1     -11.489  55.753  51.123  0.00  0.00    +0.000 A 
ATOM      4  O   UNL     1      -8.833  54.646  49.042  0.00  0.00    +0.000 OA
ATOM      5  N   UNL     1     -10.877  55.534  48.363  0.00  0.00    +0.000 N 
ATOM      6  C   UNL     1     -12.458  56.191  50.108  0.00  0.00    +0.000 A 
ATOM      7  C   UNL     1     -12.140  56.080  48.743  0.00  0.00    +0.000 A 
ATOM      8  C   UNL     1     -13.708  56.709  50.487  0.00  0.00    +0.000 A 
ATOM      9  C   UNL     1     -13.080  56.501  47.787  0.00  0.00    +0.000 A 
ATOM     10  C   UNL     1     -14.640  57.103  49.528  0.00  0.00    +0.000 A 
ATOM     11  C   UNL     1     -14.325  57.002  48.179  0.00  0.00    +0.000 A 
ENDROOT
BRANCH   1  17
ATOM     12  S   UNL     1      -7.059  54.743  52.912  0.00  0.00    +0.000 S 
ATOM     13  O   UNL     1      -6.952  55.729  53.974  0.00  0.00    +0.000 OA
ATOM     14  O   UNL     1      -5.892  54.363  52.144  0.00  0.00    +0.000 OA
ATOM     15  N   UNL     1      -8.188  55.261  51.876  0.00  0.00    +0.000 N 
ATOM     16  C   UNL     1      -7.641  53.270  53.675  0.00  0.00    +0.000 A 
ATOM     17  C   UNL     1      -9.345  54.675  51.795  0.00  0.00    +0.000 C 
ATOM     18  C   UNL     1      -8.933  52.864  53.395  0.00  0.00    +0.000 A 
ATOM     19  C   UNL     1      -6.801  52.543  54.523  0.00  0.00    +0.000 A 
ATOM     20  N   UNL     1      -9.763  53.607  52.559  0.00  0.00    +0.000 N 
ATOM     21  C   UNL     1      -9.423  51.726  54.044  0.00  0.00    +0.000 A 
ATOM     22  C   UNL     1      -7.290  51.391  55.134  0.00  0.00    +0.000 A 
ATOM     23  C   UNL     1      -8.604  50.987  54.902  0.00  0.00    +0.000 A 
ATOM     24  H   UNL     1      -7.997  56.036  51.299  0.00  0.00    +0.000 HD
ATOM     25  H   UNL     1     -10.712  53.352  52.511  0.00  0.00    +0.000 HD
ENDBRANCH   1  17
BRANCH   3  26
ATOM     26  O   UNL     1     -11.908  55.895  52.433  0.00  0.00    +0.000 OA
ATOM     27  H   UNL     1     -12.399  55.212  52.845  0.00  0.00    +0.000 HD
ENDBRANCH   3  26
BRANCH   5  28
ATOM     28  N   UNL     1     -10.545  55.532  46.965  0.00  0.00    +0.000 N 
ATOM     29  H   UNL     1      -9.875  56.143  46.581  0.00  0.00    +0.000 HD
BRANCH  28  30
ATOM     30  C   UNL     1     -11.278  54.553  46.148  0.00  0.00    +0.000 C 
BRANCH  30  31
ATOM     31  C   UNL     1     -10.340  53.711  45.324  0.00  0.00    +0.000 A 
ATOM     32  C   UNL     1      -9.002  53.570  45.685  0.00  0.00    +0.000 A 
ATOM     33  C   UNL     1     -10.774  53.030  44.185  0.00  0.00    +0.000 A 
ATOM     34  N   UNL     1      -8.101  52.836  44.994  0.00  0.00    +0.000 NA
ATOM     35  C   UNL     1      -9.868  52.270  43.453  0.00  0.00    +0.000 A 
ATOM     36  C   UNL     1      -8.555  52.207  43.890  0.00  0.00    +0.000 A 
ENDBRANCH  30  31
ENDBRANCH  28  30
ENDBRANCH   5  28
TORSDOF 5
ENDMDL
MODEL 6
REMARK VINA RESULT:      -8.5      1.568      2.113
REMARK  Name = 
REMARK  5 active torsions:
REMARK  status: ('A' for Active; 'I' for Inactive)
REMARK    1  A    between atoms: C_6  and  C_10
REMARK    2  A    between atoms: C_14  and  O_18
REMARK    3  A    between atoms: N_17  and  N_20
REMARK    4  A    between atoms: N_20  and  C_23
REMARK    5  A    between atoms: C_23  and  C_26
REMARK                            x       y       z     vdW  Elec       q    Type
REMARK                         _______ _______ _______ _____ _____    ______ ____
ROOT
ATOM      1  C   UNL     1      -9.625  54.287  50.108  0.00  0.00    +0.000 A 
ATOM      2  C   UNL     1     -10.639  55.385  50.130  0.00  0.00    +0.000 A 
ATOM      3  C   UNL     1      -9.447  53.549  48.999  0.00  0.00    +0.000 A 
ATOM      4  O   UNL     1     -10.774  56.014  51.184  0.00  0.00    +0.000 OA
ATOM      5  N   UNL     1     -11.352  55.648  48.958  0.00  0.00    +0.000 N 
ATOM      6  C   UNL     1     -10.212  53.836  47.778  0.00  0.00    +0.000 A 
ATOM      7  C   UNL     1     -11.157  54.877  47.772  0.00  0.00    +0.000 A 
ATOM      8  C   UNL     1     -10.001  53.088  46.607  0.00  0.00    +0.000 A 
ATOM      9  C   UNL     1     -11.876  55.139  46.593  0.00  0.00    +0.000 A 
ATOM     10  C   UNL     1     -10.706  53.371  45.439  0.00  0.00    +0.000 A 
ATOM     11  C   UNL     1     -11.646  54.395  45.433  0.00  0.00    +0.000 A 
ENDROOT
BRANCH   1  17
ATOM     12  S   UNL     1      -6.754  54.727  52.751  0.00  0.00    +0.000 S 
ATOM     13  O   UNL     1      -7.011  55.829  53.663  0.00  0.00    +0.000 OA
ATOM     14  O   UNL     1      -5.424  54.510  52.221  0.00  0.00    +0.000 OA
ATOM     15  N   UNL     1      -7.769  54.883  51.501  0.00  0.00    +0.000 N 
ATOM     16  C   UNL     1      -7.174  53.263  53.627  0.00  0.00    +0.000 A 
ATOM     17  C   UNL     1      -8.767  54.067  51.340  0.00  0.00    +0.000 C 
ATOM     18  C   UNL     1      -8.304  52.572  53.227  0.00  0.00    +0.000 A 
ATOM     19  C   UNL     1      -6.370  52.825  54.682  0.00  0.00    +0.000 A 
ATOM     20  N   UNL     1      -9.103  53.029  52.183  0.00  0.00    +0.000 N 
ATOM     21  C   UNL     1      -8.677  51.438  53.957  0.00  0.00    +0.000 A 
ATOM     22  C   UNL     1      -6.734  51.674  55.377  0.00  0.00    +0.000 A 
ATOM     23  C   UNL     1      -7.892  50.985  55.020  0.00  0.00    +0.000 A 
ATOM     24  H   UNL     1      -7.629  55.610  50.851  0.00  0.00    +0.000 HD
ATOM     25  H   UNL     1      -9.967  52.581  52.037  0.00  0.00    +0.000 HD
ENDBRANCH   1  17
BRANCH   3  26
ATOM     26  O   UNL     1      -8.537  52.513  48.891  0.00  0.00    +0.000 OA
ATOM     27  H   UNL     1      -7.619  52.696  48.866  0.00  0.00    +0.000 HD
ENDBRANCH   3  26
BRANCH   5  28
ATOM     28  N   UNL     1     -12.398  56.634  48.946  0.00  0.00    +0.000 N 
ATOM     29  H   UNL     1     -12.280  57.523  48.541  0.00  0.00    +0.000 HD
BRANCH  28  30
ATOM     30  C   UNL     1     -13.658  56.219  49.581  0.00  0.00    +0.000 C 
BRANCH  30  31
ATOM     31  C   UNL     1     -14.076  57.184  50.659  0.00  0.00    +0.000 A 
ATOM     32  C   UNL     1     -14.381  58.508  50.353  0.00  0.00    +0.000 A 
ATOM     33  C   UNL     1     -14.190  56.789  51.993  0.00  0.00    +0.000 A 
ATOM     34  N   UNL     1     -14.758  59.432  51.265  0.00  0.00    +0.000 NA
ATOM     35  C   UNL     1     -14.574  57.720  52.953  0.00  0.00    +0.000 A 
ATOM     36  C   UNL     1     -14.841  59.017  52.546  0.00  0.00    +0.000 A 
ENDBRANCH  30  31
ENDBRANCH  28  30
ENDBRANCH   5  28
TORSDOF 5
ENDMDL
MODEL 7
REMARK VINA RESULT:      -8.4      2.102      5.506
REMARK  Name = 
REMARK  5 active torsions:
REMARK  status: ('A' for Active; 'I' for Inactive)
REMARK    1  A    between atoms: C_6  and  C_10
REMARK    2  A    between atoms: C_14  and  O_18
REMARK    3  A    between atoms: N_17  and  N_20
REMARK    4  A    between atoms: N_20  and  C_23
REMARK    5  A    between atoms: C_23  and  C_26
REMARK                            x       y       z     vdW  Elec       q    Type
REMARK                         _______ _______ _______ _____ _____    ______ ____
ROOT
ATOM      1  C   UNL     1     -10.723  54.841  50.664  0.00  0.00    +0.000 A 
ATOM      2  C   UNL     1     -10.430  54.757  49.201  0.00  0.00    +0.000 A 
ATOM      3  C   UNL     1     -11.711  55.634  51.114  0.00  0.00    +0.000 A 
ATOM      4  O   UNL     1      -9.496  54.029  48.849  0.00  0.00    +0.000 OA
ATOM      5  N   UNL     1     -11.239  55.481  48.323  0.00  0.00    +0.000 N 
ATOM      6  C   UNL     1     -12.547  56.395  50.175  0.00  0.00    +0.000 A 
ATOM      7  C   UNL     1     -12.300  56.313  48.793  0.00  0.00    +0.000 A 
ATOM      8  C   UNL     1     -13.604  57.195  50.642  0.00  0.00    +0.000 A 
ATOM      9  C   UNL     1     -13.113  57.044  47.910  0.00  0.00    +0.000 A 
ATOM     10  C   UNL     1     -14.415  57.899  49.754  0.00  0.00    +0.000 A 
ATOM     11  C   UNL     1     -14.168  57.826  48.389  0.00  0.00    +0.000 A 
ENDROOT
BRANCH   1  17
ATOM     12  S   UNL     1      -9.848  52.055  53.289  0.00  0.00    +0.000 S 
ATOM     13  O   UNL     1      -9.715  50.744  52.675  0.00  0.00    +0.000 OA
ATOM     14  O   UNL     1     -10.527  52.205  54.559  0.00  0.00    +0.000 OA
ATOM     15  N   UNL     1     -10.576  53.024  52.217  0.00  0.00    +0.000 N 
ATOM     16  C   UNL     1      -8.210  52.640  53.541  0.00  0.00    +0.000 A 
ATOM     17  C   UNL     1      -9.923  53.973  51.616  0.00  0.00    +0.000 C 
ATOM     18  C   UNL     1      -7.770  53.691  52.755  0.00  0.00    +0.000 A 
ATOM     19  C   UNL     1      -7.401  52.056  54.519  0.00  0.00    +0.000 A 
ATOM     20  N   UNL     1      -8.583  54.253  51.774  0.00  0.00    +0.000 N 
ATOM     21  C   UNL     1      -6.449  54.123  52.909  0.00  0.00    +0.000 A 
ATOM     22  C   UNL     1      -6.099  52.520  54.687  0.00  0.00    +0.000 A 
ATOM     23  C   UNL     1      -5.619  53.548  53.876  0.00  0.00    +0.000 A 
ATOM     24  H   UNL     1     -11.531  52.891  52.016  0.00  0.00    +0.000 HD
ATOM     25  H   UNL     1      -8.172  54.895  51.151  0.00  0.00    +0.000 HD
ENDBRANCH   1  17
BRANCH   3  26
ATOM     26  O   UNL     1     -12.049  55.777  52.447  0.00  0.00    +0.000 OA
ATOM     27  H   UNL     1     -12.852  55.419  52.768  0.00  0.00    +0.000 HD
ENDBRANCH   3  26
BRANCH   5  28
ATOM     28  N   UNL     1     -10.950  55.504  46.915  0.00  0.00    +0.000 N 
ATOM     29  H   UNL     1     -10.364  56.182  46.508  0.00  0.00    +0.000 HD
BRANCH  28  30
ATOM     30  C   UNL     1     -11.591  54.441  46.126  0.00  0.00    +0.000 C 
BRANCH  30  31
ATOM     31  C   UNL     1     -10.605  53.759  45.215  0.00  0.00    +0.000 A 
ATOM     32  C   UNL     1      -9.235  53.950  45.375  0.00  0.00    +0.000 A 
ATOM     33  C   UNL     1     -11.021  52.902  44.195  0.00  0.00    +0.000 A 
ATOM     34  N   UNL     1      -8.291  53.378  44.594  0.00  0.00    +0.000 NA
ATOM     35  C   UNL     1     -10.072  52.301  43.374  0.00  0.00    +0.000 A 
ATOM     36  C   UNL     1      -8.733  52.569  43.608  0.00  0.00    +0.000 A 
ENDBRANCH  30  31
ENDBRANCH  28  30
ENDBRANCH   5  28
TORSDOF 5
ENDMDL
MODEL 8
REMARK VINA RESULT:      -8.4      1.460      1.596
REMARK  Name = 
REMARK  5 active torsions:
REMARK  status: ('A' for Active; 'I' for Inactive)
REMARK    1  A    between atoms: C_6  and  C_10
REMARK    2  A    between atoms: C_14  and  O_18
REMARK    3  A    between atoms: N_17  and  N_20
REMARK    4  A    between atoms: N_20  and  C_23
REMARK    5  A    between atoms: C_23  and  C_26
REMARK                            x       y       z     vdW  Elec       q    Type
REMARK                         _______ _______ _______ _____ _____    ______ ____
ROOT
ATOM      1  C   UNL     1      -9.750  53.764  49.843  0.00  0.00    +0.000 A 
ATOM      2  C   UNL     1     -10.618  54.978  49.914  0.00  0.00    +0.000 A 
ATOM      3  C   UNL     1      -9.674  53.050  48.707  0.00  0.00    +0.000 A 
ATOM      4  O   UNL     1     -10.666  55.581  50.991  0.00  0.00    +0.000 OA
ATOM      5  N   UNL     1     -11.302  55.370  48.761  0.00  0.00    +0.000 N 
ATOM      6  C   UNL     1     -10.406  53.473  47.505  0.00  0.00    +0.000 A 
ATOM      7  C   UNL     1     -11.213  54.624  47.546  0.00  0.00    +0.000 A 
ATOM      8  C   UNL     1     -10.298  52.747  46.306  0.00  0.00    +0.000 A 
ATOM      9  C   UNL     1     -11.903  55.016  46.386  0.00  0.00    +0.000 A 
ATOM     10  C   UNL     1     -10.971  53.158  45.157  0.00  0.00    +0.000 A 
ATOM     11  C   UNL     1     -11.775  54.290  45.198  0.00  0.00    +0.000 A 
ENDROOT
BRANCH   1  17
ATOM     12  S   UNL     1      -8.362  51.736  52.905  0.00  0.00    +0.000 S 
ATOM     13  O   UNL     1      -7.442  50.687  52.497  0.00  0.00    +0.000 OA
ATOM     14  O   UNL     1      -9.339  51.490  53.944  0.00  0.00    +0.000 OA
ATOM     15  N   UNL     1      -9.153  52.231  51.584  0.00  0.00    +0.000 N 
ATOM     16  C   UNL     1      -7.362  53.061  53.481  0.00  0.00    +0.000 A 
ATOM     17  C   UNL     1      -8.917  53.394  51.056  0.00  0.00    +0.000 C 
ATOM     18  C   UNL     1      -7.303  54.209  52.711  0.00  0.00    +0.000 A 
ATOM     19  C   UNL     1      -6.668  52.940  54.688  0.00  0.00    +0.000 A 
ATOM     20  N   UNL     1      -7.988  54.309  51.503  0.00  0.00    +0.000 N 
ATOM     21  C   UNL     1      -6.464  55.245  53.134  0.00  0.00    +0.000 A 
ATOM     22  C   UNL     1      -5.864  53.994  55.115  0.00  0.00    +0.000 A 
ATOM     23  C   UNL     1      -5.755  55.144  54.334  0.00  0.00    +0.000 A 
ATOM     24  H   UNL     1      -9.823  51.639  51.171  0.00  0.00    +0.000 HD
ATOM     25  H   UNL     1      -7.797  55.086  50.931  0.00  0.00    +0.000 HD
ENDBRANCH   1  17
BRANCH   3  26
ATOM     26  O   UNL     1      -8.901  51.913  48.552  0.00  0.00    +0.000 OA
ATOM     27  H   UNL     1      -8.016  51.985  48.255  0.00  0.00    +0.000 HD
ENDBRANCH   3  26
BRANCH   5  28
ATOM     28  N   UNL     1     -12.216  56.478  48.795  0.00  0.00    +0.000 N 
ATOM     29  H   UNL     1     -11.983  57.366  48.441  0.00  0.00    +0.000 HD
BRANCH  28  30
ATOM     30  C   UNL     1     -13.527  56.190  49.397  0.00  0.00    +0.000 C 
BRANCH  30  31
ATOM     31  C   UNL     1     -13.841  57.145  50.518  0.00  0.00    +0.000 A 
ATOM     32  C   UNL     1     -14.168  58.474  50.254  0.00  0.00    +0.000 A 
ATOM     33  C   UNL     1     -13.834  56.738  51.853  0.00  0.00    +0.000 A 
ATOM     34  N   UNL     1     -14.455  59.390  51.206  0.00  0.00    +0.000 NA
ATOM     35  C   UNL     1     -14.124  57.659  52.854  0.00  0.00    +0.000 A 
ATOM     36  C   UNL     1     -14.422  58.961  52.486  0.00  0.00    +0.000 A 
ENDBRANCH  30  31
ENDBRANCH  28  30
ENDBRANCH   5  28
TORSDOF 5
ENDMDL
MODEL 9
REMARK VINA RESULT:      -8.4      2.613      3.234
REMARK  Name = 
REMARK  5 active torsions:
REMARK  status: ('A' for Active; 'I' for Inactive)
REMARK    1  A    between atoms: C_6  and  C_10
REMARK    2  A    between atoms: C_14  and  O_18
REMARK    3  A    between atoms: N_17  and  N_20
REMARK    4  A    between atoms: N_20  and  C_23
REMARK    5  A    between atoms: C_23  and  C_26
REMARK                            x       y       z     vdW  Elec       q    Type
REMARK                         _______ _______ _______ _____ _____    ______ ____
ROOT
ATOM      1  C   UNL     1      -8.440  53.645  51.206  0.00  0.00    +0.000 A 
ATOM      2  C   UNL     1      -9.643  54.530  51.222  0.00  0.00    +0.000 A 
ATOM      3  C   UNL     1      -7.791  53.402  50.054  0.00  0.00    +0.000 A 
ATOM      4  O   UNL     1     -10.212  54.698  52.307  0.00  0.00    +0.000 OA
ATOM      5  N   UNL     1     -10.039  55.130  50.024  0.00  0.00    +0.000 N 
ATOM      6  C   UNL     1      -8.226  54.037  48.802  0.00  0.00    +0.000 A 
ATOM      7  C   UNL     1      -9.345  54.888  48.800  0.00  0.00    +0.000 A 
ATOM      8  C   UNL     1      -7.526  53.812  47.604  0.00  0.00    +0.000 A 
ATOM      9  C   UNL     1      -9.743  55.489  47.594  0.00  0.00    +0.000 A 
ATOM     10  C   UNL     1      -7.920  54.430  46.418  0.00  0.00    +0.000 A 
ATOM     11  C   UNL     1      -9.030  55.265  46.413  0.00  0.00    +0.000 A 
ENDROOT
BRANCH   1  17
ATOM     12  S   UNL     1      -6.050  52.812  54.208  0.00  0.00    +0.000 S 
ATOM     13  O   UNL     1      -5.936  53.919  55.144  0.00  0.00    +0.000 OA
ATOM     14  O   UNL     1      -4.880  52.044  53.838  0.00  0.00    +0.000 OA
ATOM     15  N   UNL     1      -6.718  53.387  52.852  0.00  0.00    +0.000 N 
ATOM     16  C   UNL     1      -7.170  51.673  54.939  0.00  0.00    +0.000 A 
ATOM     17  C   UNL     1      -7.937  53.079  52.521  0.00  0.00    +0.000 C 
ATOM     18  C   UNL     1      -8.419  51.533  54.361  0.00  0.00    +0.000 A 
ATOM     19  C   UNL     1      -6.783  50.933  56.060  0.00  0.00    +0.000 A 
ATOM     20  N   UNL     1      -8.796  52.288  53.253  0.00  0.00    +0.000 N 
ATOM     21  C   UNL     1      -9.337  50.671  54.972  0.00  0.00    +0.000 A 
ATOM     22  C   UNL     1      -7.695  50.051  56.636  0.00  0.00    +0.000 A 
ATOM     23  C   UNL     1      -8.975  49.926  56.097  0.00  0.00    +0.000 A 
ATOM     24  H   UNL     1      -6.194  53.982  52.268  0.00  0.00    +0.000 HD
ATOM     25  H   UNL     1      -9.739  52.255  52.975  0.00  0.00    +0.000 HD
ENDBRANCH   1  17
BRANCH   3  26
ATOM     26  O   UNL     1      -6.674  52.595  49.945  0.00  0.00    +0.000 OA
ATOM     27  H   UNL     1      -6.077  52.520  50.663  0.00  0.00    +0.000 HD
ENDBRANCH   3  26
BRANCH   5  28
ATOM     28  N   UNL     1     -11.237  55.921  49.965  0.00  0.00    +0.000 N 
ATOM     29  H   UNL     1     -11.219  56.898  49.846  0.00  0.00    +0.000 HD
BRANCH  28  30
ATOM     30  C   UNL     1     -12.493  55.167  50.093  0.00  0.00    +0.000 C 
BRANCH  30  31
ATOM     31  C   UNL     1     -13.525  55.942  50.869  0.00  0.00    +0.000 A 
ATOM     32  C   UNL     1     -14.832  56.058  50.400  0.00  0.00    +0.000 A 
ATOM     33  C   UNL     1     -13.222  56.555  52.085  0.00  0.00    +0.000 A 
ATOM     34  N   UNL     1     -15.811  56.741  51.035  0.00  0.00    +0.000 NA
ATOM     35  C   UNL     1     -14.208  57.267  52.760  0.00  0.00    +0.000 A 
ATOM     36  C   UNL     1     -15.474  57.334  52.200  0.00  0.00    +0.000 A 
ENDBRANCH  30  31
ENDBRANCH  28  30
ENDBRANCH   5  28
TORSDOF 5
ENDMDL
