MODEL 1
REMARK VINA RESULT:      -8.1      0.000      0.000
REMARK  Name = 
REMARK  7 active torsions:
REMARK  status: ('A' for Active; 'I' for Inactive)
REMARK    1  A    between atoms: C_6  and  C_10
REMARK    2  A    between atoms: C_14  and  O_18
REMARK    3  A    between atoms: N_17  and  N_20
REMARK    4  A    between atoms: N_20  and  C_23
REMARK    5  A    between atoms: C_23  and  C_26
REMARK    6  A    between atoms: C_26  and  C_28
REMARK    7  A    between atoms: C_28  and  C_29
REMARK                            x       y       z     vdW  Elec       q    Type
REMARK                         _______ _______ _______ _____ _____    ______ ____
ROOT
ATOM      1  C   UNL     1     -10.140  54.539  52.239  0.00  0.00    +0.000 A 
ATOM      2  C   UNL     1      -8.767  55.096  52.055  0.00  0.00    +0.000 A 
ATOM      3  C   UNL     1     -10.332  53.433  52.975  0.00  0.00    +0.000 A 
ATOM      4  O   UNL     1      -8.654  56.084  51.321  0.00  0.00    +0.000 OA
ATOM      5  N   UNL     1      -7.709  54.487  52.737  0.00  0.00    +0.000 N 
ATOM      6  C   UNL     1      -9.199  52.778  53.649  0.00  0.00    +0.000 A 
ATOM      7  C   UNL     1      -7.905  53.310  53.521  0.00  0.00    +0.000 A 
ATOM      8  C   UNL     1      -9.400  51.629  54.438  0.00  0.00    +0.000 A 
ATOM      9  C   UNL     1      -6.835  52.674  54.175  0.00  0.00    +0.000 A 
ATOM     10  C   UNL     1      -8.336  51.015  55.091  0.00  0.00    +0.000 A 
ATOM     11  C   UNL     1      -7.052  51.534  54.955  0.00  0.00    +0.000 A 
ENDROOT
BRANCH   1  17
ATOM     12  S   UNL     1     -12.539  56.113  49.550  0.00  0.00    +0.000 S 
ATOM     13  O   UNL     1     -13.428  55.131  48.961  0.00  0.00    +0.000 OA
ATOM     14  O   UNL     1     -11.905  57.120  48.722  0.00  0.00    +0.000 OA
ATOM     15  N   UNL     1     -11.366  55.300  50.327  0.00  0.00    +0.000 N 
ATOM     16  C   UNL     1     -13.489  56.982  50.740  0.00  0.00    +0.000 A 
ATOM     17  C   UNL     1     -11.310  55.283  51.625  0.00  0.00    +0.000 C 
ATOM     18  C   UNL     1     -13.202  56.776  52.077  0.00  0.00    +0.000 A 
ATOM     19  C   UNL     1     -14.489  57.865  50.321  0.00  0.00    +0.000 A 
ATOM     20  N   UNL     1     -12.210  55.885  52.479  0.00  0.00    +0.000 N 
ATOM     21  C   UNL     1     -13.997  57.424  53.032  0.00  0.00    +0.000 A 
ATOM     22  C   UNL     1     -15.251  58.529  51.278  0.00  0.00    +0.000 A 
ATOM     23  C   UNL     1     -15.011  58.300  52.635  0.00  0.00    +0.000 A 
ATOM     24  H   UNL     1     -10.688  54.812  49.807  0.00  0.00    +0.000 HD
ATOM     25  H   UNL     1     -12.148  55.669  53.437  0.00  0.00    +0.000 HD
ENDBRANCH   1  17
BRANCH   3  26
ATOM     26  O   UNL     1     -11.562  52.842  53.191  0.00  0.00    +0.000 OA
ATOM     27  H   UNL     1     -12.307  53.373  53.397  0.00  0.00    +0.000 HD
ENDBRANCH   3  26
BRANCH   5  28
ATOM     28  N   UNL     1      -6.362  54.973  52.569  0.00  0.00    +0.000 N 
ATOM     29  H   UNL     1      -5.890  55.494  53.258  0.00  0.00    +0.000 HD
BRANCH  28  30
ATOM     30  C   UNL     1      -5.758  54.620  51.277  0.00  0.00    +0.000 C 
BRANCH  30  31
ATOM     31  C   UNL     1      -4.414  53.910  51.452  0.00  0.00    +0.000 C 
BRANCH  31  32
ATOM     32  C   UNL     1      -3.791  54.300  52.798  0.00  0.00    +0.000 C 
ATOM     33  C   UNL     1      -3.300  53.089  53.574  0.00  0.00    +0.000 C 
ENDBRANCH  31  32
ENDBRANCH  30  31
ENDBRANCH  28  30
ENDBRANCH   5  28
TORSDOF 6
ENDMDL
MODEL 2
REMARK VINA RESULT:      -7.8      2.576      8.109
REMARK  Name = 
REMARK  7 active torsions:
REMARK  status: ('A' for Active; 'I' for Inactive)
REMARK    1  A    between atoms: C_6  and  C_10
REMARK    2  A    between atoms: C_14  and  O_18
REMARK    3  A    between atoms: N_17  and  N_20
REMARK    4  A    between atoms: N_20  and  C_23
REMARK    5  A    between atoms: C_23  and  C_26
REMARK    6  A    between atoms: C_26  and  C_28
REMARK    7  A    between atoms: C_28  and  C_29
REMARK                            x       y       z     vdW  Elec       q    Type
REMARK                         _______ _______ _______ _____ _____    ______ ____
ROOT
ATOM      1  C   UNL     1     -10.162  55.193  50.433  0.00  0.00    +0.000 A 
ATOM      2  C   UNL     1     -11.237  55.294  51.465  0.00  0.00    +0.000 A 
ATOM      3  C   UNL     1     -10.417  55.511  49.154  0.00  0.00    +0.000 A 
ATOM      4  O   UNL     1     -10.952  54.934  52.612  0.00  0.00    +0.000 OA
ATOM      5  N   UNL     1     -12.479  55.807  51.078  0.00  0.00    +0.000 N 
ATOM      6  C   UNL     1     -11.744  56.007  48.756  0.00  0.00    +0.000 A 
ATOM      7  C   UNL     1     -12.757  56.147  49.720  0.00  0.00    +0.000 A 
ATOM      8  C   UNL     1     -12.007  56.360  47.419  0.00  0.00    +0.000 A 
ATOM      9  C   UNL     1     -14.018  56.625  49.323  0.00  0.00    +0.000 A 
ATOM     10  C   UNL     1     -13.255  56.845  47.040  0.00  0.00    +0.000 A 
ATOM     11  C   UNL     1     -14.263  56.972  47.991  0.00  0.00    +0.000 A 
ENDROOT
BRANCH   1  17
ATOM     12  S   UNL     1      -6.697  53.339  50.538  0.00  0.00    +0.000 S 
ATOM     13  O   UNL     1      -5.749  53.885  49.588  0.00  0.00    +0.000 OA
ATOM     14  O   UNL     1      -6.809  51.904  50.722  0.00  0.00    +0.000 OA
ATOM     15  N   UNL     1      -8.167  53.903  50.135  0.00  0.00    +0.000 N 
ATOM     16  C   UNL     1      -6.260  54.001  52.101  0.00  0.00    +0.000 A 
ATOM     17  C   UNL     1      -8.772  54.781  50.877  0.00  0.00    +0.000 C 
ATOM     18  C   UNL     1      -7.110  54.931  52.673  0.00  0.00    +0.000 A 
ATOM     19  C   UNL     1      -5.091  53.572  52.737  0.00  0.00    +0.000 A 
ATOM     20  N   UNL     1      -8.265  55.357  52.023  0.00  0.00    +0.000 N 
ATOM     21  C   UNL     1      -6.735  55.506  53.895  0.00  0.00    +0.000 A 
ATOM     22  C   UNL     1      -4.746  54.125  53.966  0.00  0.00    +0.000 A 
ATOM     23  C   UNL     1      -5.564  55.100  54.541  0.00  0.00    +0.000 A 
ATOM     24  H   UNL     1      -8.605  53.574  49.317  0.00  0.00    +0.000 HD
ATOM     25  H   UNL     1      -8.751  56.122  52.406  0.00  0.00    +0.000 HD
ENDBRANCH   1  17
BRANCH   3  26
ATOM     26  O   UNL     1      -9.488  55.439  48.132  0.00  0.00    +0.000 OA
ATOM     27  H   UNL     1      -8.788  56.061  48.091  0.00  0.00    +0.000 HD
ENDBRANCH   3  26
BRANCH   5  28
ATOM     28  N   UNL     1     -13.556  55.898  52.033  0.00  0.00    +0.000 N 
ATOM     29  H   UNL     1     -14.202  55.171  52.185  0.00  0.00    +0.000 HD
BRANCH  28  30
ATOM     30  C   UNL     1     -13.603  57.176  52.759  0.00  0.00    +0.000 C 
BRANCH  30  31
ATOM     31  C   UNL     1     -15.039  57.667  52.953  0.00  0.00    +0.000 C 
BRANCH  31  32
ATOM     32  C   UNL     1     -15.126  59.162  52.621  0.00  0.00    +0.000 C 
ATOM     33  C   UNL     1     -14.945  59.430  51.136  0.00  0.00    +0.000 C 
ENDBRANCH  31  32
ENDBRANCH  30  31
ENDBRANCH  28  30
ENDBRANCH   5  28
TORSDOF 6
ENDMDL
MODEL 3
REMARK VINA RESULT:      -7.8      2.682      8.341
REMARK  Name = 
REMARK  7 active torsions:
REMARK  status: ('A' for Active; 'I' for Inactive)
REMARK    1  A    between atoms: C_6  and  C_10
REMARK    2  A    between atoms: C_14  and  O_18
REMARK    3  A    between atoms: N_17  and  N_20
REMARK    4  A    between atoms: N_20  and  C_23
REMARK    5  A    between atoms: C_23  and  C_26
REMARK    6  A    between atoms: C_26  and  C_28
REMARK    7  A    between atoms: C_28  and  C_29
REMARK                            x       y       z     vdW  Elec       q    Type
REMARK                         _______ _______ _______ _____ _____    ______ ____
ROOT
ATOM      1  C   UNL     1      -9.926  55.255  50.884  0.00  0.00    +0.000 A 
ATOM      2  C   UNL     1     -11.118  55.379  51.775  0.00  0.00    +0.000 A 
ATOM      3  C   UNL     1     -10.043  55.454  49.562  0.00  0.00    +0.000 A 
ATOM      4  O   UNL     1     -10.953  55.128  52.974  0.00  0.00    +0.000 OA
ATOM      5  N   UNL     1     -12.328  55.790  51.208  0.00  0.00    +0.000 N 
ATOM      6  C   UNL     1     -11.336  55.844  48.975  0.00  0.00    +0.000 A 
ATOM      7  C   UNL     1     -12.461  56.005  49.803  0.00  0.00    +0.000 A 
ATOM      8  C   UNL     1     -11.457  56.073  47.592  0.00  0.00    +0.000 A 
ATOM      9  C   UNL     1     -13.687  56.380  49.227  0.00  0.00    +0.000 A 
ATOM     10  C   UNL     1     -12.672  56.457  47.034  0.00  0.00    +0.000 A 
ATOM     11  C   UNL     1     -13.789  56.605  47.851  0.00  0.00    +0.000 A 
ENDROOT
BRANCH   1  17
ATOM     12  S   UNL     1      -6.918  55.316  53.415  0.00  0.00    +0.000 S 
ATOM     13  O   UNL     1      -7.149  54.468  54.567  0.00  0.00    +0.000 OA
ATOM     14  O   UNL     1      -6.318  56.626  53.576  0.00  0.00    +0.000 OA
ATOM     15  N   UNL     1      -8.346  55.513  52.665  0.00  0.00    +0.000 N 
ATOM     16  C   UNL     1      -5.855  54.417  52.351  0.00  0.00    +0.000 A 
ATOM     17  C   UNL     1      -8.581  54.956  51.515  0.00  0.00    +0.000 C 
ATOM     18  C   UNL     1      -6.378  53.936  51.163  0.00  0.00    +0.000 A 
ATOM     19  C   UNL     1      -4.517  54.220  52.707  0.00  0.00    +0.000 A 
ATOM     20  N   UNL     1      -7.715  54.131  50.827  0.00  0.00    +0.000 N 
ATOM     21  C   UNL     1      -5.547  53.168  50.337  0.00  0.00    +0.000 A 
ATOM     22  C   UNL     1      -3.693  53.483  51.862  0.00  0.00    +0.000 A 
ATOM     23  C   UNL     1      -4.211  52.948  50.681  0.00  0.00    +0.000 A 
ATOM     24  H   UNL     1      -9.044  56.063  53.088  0.00  0.00    +0.000 HD
ATOM     25  H   UNL     1      -8.067  53.647  50.046  0.00  0.00    +0.000 HD
ENDBRANCH   1  17
BRANCH   3  26
ATOM     26  O   UNL     1      -9.000  55.352  48.662  0.00  0.00    +0.000 OA
ATOM     27  H   UNL     1      -8.756  54.514  48.320  0.00  0.00    +0.000 HD
ENDBRANCH   3  26
BRANCH   5  28
ATOM     28  N   UNL     1     -13.513  55.899  52.024  0.00  0.00    +0.000 N 
ATOM     29  H   UNL     1     -14.191  55.188  52.082  0.00  0.00    +0.000 HD
BRANCH  28  30
ATOM     30  C   UNL     1     -13.615  57.166  52.761  0.00  0.00    +0.000 C 
BRANCH  30  31
ATOM     31  C   UNL     1     -15.051  57.693  52.790  0.00  0.00    +0.000 C 
BRANCH  31  32
ATOM     32  C   UNL     1     -15.068  59.178  52.404  0.00  0.00    +0.000 C 
ATOM     33  C   UNL     1     -15.095  59.377  50.898  0.00  0.00    +0.000 C 
ENDBRANCH  31  32
ENDBRANCH  30  31
ENDBRANCH  28  30
ENDBRANCH   5  28
TORSDOF 6
ENDMDL
MODEL 4
REMARK VINA RESULT:      -7.7      2.749      7.935
REMARK  Name = 
REMARK  7 active torsions:
REMARK  status: ('A' for Active; 'I' for Inactive)
REMARK    1  A    between atoms: C_6  and  C_10
REMARK    2  A    between atoms: C_14  and  O_18
REMARK    3  A    between atoms: N_17  and  N_20
REMARK    4  A    between atoms: N_20  and  C_23
REMARK    5  A    between atoms: C_23  and  C_26
REMARK    6  A    between atoms: C_26  and  C_28
REMARK    7  A    between atoms: C_28  and  C_29
REMARK                            x       y       z     vdW  Elec       q    Type
REMARK                         _______ _______ _______ _____ _____    ______ ____
ROOT
ATOM      1  C   UNL     1     -10.039  54.586  50.973  0.00  0.00    +0.000 A 
ATOM      2  C   UNL     1     -11.205  55.424  51.382  0.00  0.00    +0.000 A 
ATOM      3  C   UNL     1      -9.814  54.322  49.676  0.00  0.00    +0.000 A 
ATOM      4  O   UNL     1     -11.387  55.582  52.594  0.00  0.00    +0.000 OA
ATOM      5  N   UNL     1     -11.996  55.992  50.378  0.00  0.00    +0.000 N 
ATOM      6  C   UNL     1     -10.684  54.892  48.634  0.00  0.00    +0.000 A 
ATOM      7  C   UNL     1     -11.763  55.717  48.997  0.00  0.00    +0.000 A 
ATOM      8  C   UNL     1     -10.438  54.634  47.273  0.00  0.00    +0.000 A 
ATOM      9  C   UNL     1     -12.582  56.255  47.989  0.00  0.00    +0.000 A 
ATOM     10  C   UNL     1     -11.247  55.183  46.283  0.00  0.00    +0.000 A 
ATOM     11  C   UNL     1     -12.323  55.990  46.642  0.00  0.00    +0.000 A 
ENDROOT
BRANCH   1  17
ATOM     12  S   UNL     1      -6.786  54.142  53.135  0.00  0.00    +0.000 S 
ATOM     13  O   UNL     1      -6.611  55.213  54.096  0.00  0.00    +0.000 OA
ATOM     14  O   UNL     1      -5.652  53.636  52.386  0.00  0.00    +0.000 OA
ATOM     15  N   UNL     1      -7.909  54.629  52.067  0.00  0.00    +0.000 N 
ATOM     16  C   UNL     1      -7.429  52.780  54.032  0.00  0.00    +0.000 A 
ATOM     17  C   UNL     1      -9.092  54.092  52.049  0.00  0.00    +0.000 C 
ATOM     18  C   UNL     1      -8.744  52.415  53.804  0.00  0.00    +0.000 A 
ATOM     19  C   UNL     1      -6.611  52.091  54.932  0.00  0.00    +0.000 A 
ATOM     20  N   UNL     1      -9.549  53.118  52.912  0.00  0.00    +0.000 N 
ATOM     21  C   UNL     1      -9.280  51.363  54.560  0.00  0.00    +0.000 A 
ATOM     22  C   UNL     1      -7.144  51.027  55.654  0.00  0.00    +0.000 A 
ATOM     23  C   UNL     1      -8.482  50.670  55.475  0.00  0.00    +0.000 A 
ATOM     24  H   UNL     1      -7.690  55.341  51.423  0.00  0.00    +0.000 HD
ATOM     25  H   UNL     1     -10.510  52.907  52.897  0.00  0.00    +0.000 HD
ENDBRANCH   1  17
BRANCH   3  26
ATOM     26  O   UNL     1      -8.768  53.550  49.206  0.00  0.00    +0.000 OA
ATOM     27  H   UNL     1      -8.081  53.288  49.788  0.00  0.00    +0.000 HD
ENDBRANCH   3  26
BRANCH   5  28
ATOM     28  N   UNL     1     -13.149  56.787  50.725  0.00  0.00    +0.000 N 
ATOM     29  H   UNL     1     -13.145  57.771  50.711  0.00  0.00    +0.000 HD
BRANCH  28  30
ATOM     30  C   UNL     1     -14.327  55.994  51.102  0.00  0.00    +0.000 C 
BRANCH  30  31
ATOM     31  C   UNL     1     -15.112  56.649  52.241  0.00  0.00    +0.000 C 
BRANCH  31  32
ATOM     32  C   UNL     1     -14.302  57.810  52.832  0.00  0.00    +0.000 C 
ATOM     33  C   UNL     1     -15.009  59.144  52.665  0.00  0.00    +0.000 C 
ENDBRANCH  31  32
ENDBRANCH  30  31
ENDBRANCH  28  30
ENDBRANCH   5  28
TORSDOF 6
ENDMDL
MODEL 5
REMARK VINA RESULT:      -7.7      2.078      2.914
REMARK  Name = 
REMARK  7 active torsions:
REMARK  status: ('A' for Active; 'I' for Inactive)
REMARK    1  A    between atoms: C_6  and  C_10
REMARK    2  A    between atoms: C_14  and  O_18
REMARK    3  A    between atoms: N_17  and  N_20
REMARK    4  A    between atoms: N_20  and  C_23
REMARK    5  A    between atoms: C_23  and  C_26
REMARK    6  A    between atoms: C_26  and  C_28
REMARK    7  A    between atoms: C_28  and  C_29
REMARK                            x       y       z     vdW  Elec       q    Type
REMARK                         _______ _______ _______ _____ _____    ______ ____
ROOT
ATOM      1  C   UNL     1     -11.642  54.092  51.319  0.00  0.00    +0.000 A 
ATOM      2  C   UNL     1     -10.742  54.172  52.508  0.00  0.00    +0.000 A 
ATOM      3  C   UNL     1     -11.707  52.966  50.592  0.00  0.00    +0.000 A 
ATOM      4  O   UNL     1     -10.689  55.255  53.101  0.00  0.00    +0.000 OA
ATOM      5  N   UNL     1     -10.042  53.022  52.888  0.00  0.00    +0.000 N 
ATOM      6  C   UNL     1     -10.929  51.778  50.979  0.00  0.00    +0.000 A 
ATOM      7  C   UNL     1     -10.106  51.821  52.118  0.00  0.00    +0.000 A 
ATOM      8  C   UNL     1     -11.010  50.590  50.229  0.00  0.00    +0.000 A 
ATOM      9  C   UNL     1      -9.372  50.677  52.476  0.00  0.00    +0.000 A 
ATOM     10  C   UNL     1     -10.289  49.459  50.600  0.00  0.00    +0.000 A 
ATOM     11  C   UNL     1      -9.465  49.505  51.721  0.00  0.00    +0.000 A 
ENDROOT
BRANCH   1  17
ATOM     12  S   UNL     1     -13.357  56.995  49.297  0.00  0.00    +0.000 S 
ATOM     13  O   UNL     1     -14.464  56.526  48.488  0.00  0.00    +0.000 OA
ATOM     14  O   UNL     1     -12.421  57.968  48.767  0.00  0.00    +0.000 OA
ATOM     15  N   UNL     1     -12.506  55.690  49.758  0.00  0.00    +0.000 N 
ATOM     16  C   UNL     1     -14.067  57.724  50.724  0.00  0.00    +0.000 A 
ATOM     17  C   UNL     1     -12.516  55.287  50.993  0.00  0.00    +0.000 C 
ATOM     18  C   UNL     1     -13.914  57.070  51.933  0.00  0.00    +0.000 A 
ATOM     19  C   UNL     1     -14.748  58.941  50.618  0.00  0.00    +0.000 A 
ATOM     20  N   UNL     1     -13.242  55.854  52.021  0.00  0.00    +0.000 N 
ATOM     21  C   UNL     1     -14.530  57.619  53.066  0.00  0.00    +0.000 A 
ATOM     22  C   UNL     1     -15.328  59.494  51.756  0.00  0.00    +0.000 A 
ATOM     23  C   UNL     1     -15.227  58.828  52.979  0.00  0.00    +0.000 A 
ATOM     24  H   UNL     1     -11.975  55.196  49.092  0.00  0.00    +0.000 HD
ATOM     25  H   UNL     1     -13.289  55.364  52.873  0.00  0.00    +0.000 HD
ENDBRANCH   1  17
BRANCH   3  26
ATOM     26  O   UNL     1     -12.502  52.804  49.473  0.00  0.00    +0.000 OA
ATOM     27  H   UNL     1     -12.455  53.424  48.771  0.00  0.00    +0.000 HD
ENDBRANCH   3  26
BRANCH   5  28
ATOM     28  N   UNL     1      -9.141  53.059  54.013  0.00  0.00    +0.000 N 
ATOM     29  H   UNL     1      -9.405  52.786  54.921  0.00  0.00    +0.000 HD
BRANCH  28  30
ATOM     30  C   UNL     1      -7.793  53.542  53.681  0.00  0.00    +0.000 C 
BRANCH  30  31
ATOM     31  C   UNL     1      -7.540  54.947  54.232  0.00  0.00    +0.000 C 
BRANCH  31  32
ATOM     32  C   UNL     1      -6.679  55.745  53.245  0.00  0.00    +0.000 C 
ATOM     33  C   UNL     1      -7.455  56.141  52.000  0.00  0.00    +0.000 C 
ENDBRANCH  31  32
ENDBRANCH  30  31
ENDBRANCH  28  30
ENDBRANCH   5  28
TORSDOF 6
ENDMDL
MODEL 6
REMARK VINA RESULT:      -7.7      3.848      5.364
REMARK  Name = 
REMARK  7 active torsions:
REMARK  status: ('A' for Active; 'I' for Inactive)
REMARK    1  A    between atoms: C_6  and  C_10
REMARK    2  A    between atoms: C_14  and  O_18
REMARK    3  A    between atoms: N_17  and  N_20
REMARK    4  A    between atoms: N_20  and  C_23
REMARK    5  A    between atoms: C_23  and  C_26
REMARK    6  A    between atoms: C_26  and  C_28
REMARK    7  A    between atoms: C_28  and  C_29
REMARK                            x       y       z     vdW  Elec       q    Type
REMARK                         _______ _______ _______ _____ _____    ______ ____
ROOT
ATOM      1  C   UNL     1     -10.676  55.639  48.140  0.00  0.00    +0.000 A 
ATOM      2  C   UNL     1      -9.212  55.750  48.410  0.00  0.00    +0.000 A 
ATOM      3  C   UNL     1     -11.119  54.983  47.056  0.00  0.00    +0.000 A 
ATOM      4  O   UNL     1      -8.869  56.414  49.394  0.00  0.00    +0.000 OA
ATOM      5  N   UNL     1      -8.328  55.082  47.555  0.00  0.00    +0.000 N 
ATOM      6  C   UNL     1     -10.173  54.324  46.141  0.00  0.00    +0.000 A 
ATOM      7  C   UNL     1      -8.792  54.383  46.400  0.00  0.00    +0.000 A 
ATOM      8  C   UNL     1     -10.636  53.619  45.015  0.00  0.00    +0.000 A 
ATOM      9  C   UNL     1      -7.903  53.745  45.518  0.00  0.00    +0.000 A 
ATOM     10  C   UNL     1      -9.747  52.980  44.156  0.00  0.00    +0.000 A 
ATOM     11  C   UNL     1      -8.379  53.048  44.404  0.00  0.00    +0.000 A 
ENDROOT
BRANCH   1  17
ATOM     12  S   UNL     1     -13.078  55.963  51.236  0.00  0.00    +0.000 S 
ATOM     13  O   UNL     1     -12.356  56.165  52.476  0.00  0.00    +0.000 OA
ATOM     14  O   UNL     1     -14.216  55.065  51.187  0.00  0.00    +0.000 OA
ATOM     15  N   UNL     1     -12.003  55.460  50.126  0.00  0.00    +0.000 N 
ATOM     16  C   UNL     1     -13.675  57.539  50.753  0.00  0.00    +0.000 A 
ATOM     17  C   UNL     1     -11.642  56.233  49.146  0.00  0.00    +0.000 C 
ATOM     18  C   UNL     1     -13.103  58.138  49.645  0.00  0.00    +0.000 A 
ATOM     19  C   UNL     1     -14.710  58.141  51.474  0.00  0.00    +0.000 A 
ATOM     20  N   UNL     1     -12.066  57.530  48.944  0.00  0.00    +0.000 N 
ATOM     21  C   UNL     1     -13.537  59.423  49.290  0.00  0.00    +0.000 A 
ATOM     22  C   UNL     1     -15.155  59.403  51.093  0.00  0.00    +0.000 A 
ATOM     23  C   UNL     1     -14.562  60.049  50.006  0.00  0.00    +0.000 A 
ATOM     24  H   UNL     1     -11.618  54.557  50.197  0.00  0.00    +0.000 HD
ATOM     25  H   UNL     1     -11.602  58.063  48.258  0.00  0.00    +0.000 HD
ENDBRANCH   1  17
BRANCH   3  26
ATOM     26  O   UNL     1     -12.452  54.839  46.722  0.00  0.00    +0.000 OA
ATOM     27  H   UNL     1     -13.007  54.287  47.238  0.00  0.00    +0.000 HD
ENDBRANCH   3  26
BRANCH   5  28
ATOM     28  N   UNL     1      -6.904  55.182  47.760  0.00  0.00    +0.000 N 
ATOM     29  H   UNL     1      -6.343  55.854  47.309  0.00  0.00    +0.000 HD
BRANCH  28  30
ATOM     30  C   UNL     1      -6.367  54.191  48.702  0.00  0.00    +0.000 C 
BRANCH  30  31
ATOM     31  C   UNL     1      -5.498  54.843  49.780  0.00  0.00    +0.000 C 
BRANCH  31  32
ATOM     32  C   UNL     1      -6.231  54.815  51.127  0.00  0.00    +0.000 C 
ATOM     33  C   UNL     1      -7.279  53.716  51.184  0.00  0.00    +0.000 C 
ENDBRANCH  31  32
ENDBRANCH  30  31
ENDBRANCH  28  30
ENDBRANCH   5  28
TORSDOF 6
ENDMDL
MODEL 7
REMARK VINA RESULT:      -7.6      3.277      7.583
REMARK  Name = 
REMARK  7 active torsions:
REMARK  status: ('A' for Active; 'I' for Inactive)
REMARK    1  A    between atoms: C_6  and  C_10
REMARK    2  A    between atoms: C_14  and  O_18
REMARK    3  A    between atoms: N_17  and  N_20
REMARK    4  A    between atoms: N_20  and  C_23
REMARK    5  A    between atoms: C_23  and  C_26
REMARK    6  A    between atoms: C_26  and  C_28
REMARK    7  A    between atoms: C_28  and  C_29
REMARK                            x       y       z     vdW  Elec       q    Type
REMARK                         _______ _______ _______ _____ _____    ______ ____
ROOT
ATOM      1  C   UNL     1     -10.214  55.228  50.700  0.00  0.00    +0.000 A 
ATOM      2  C   UNL     1      -9.787  55.138  49.272  0.00  0.00    +0.000 A 
ATOM      3  C   UNL     1     -11.417  55.730  51.019  0.00  0.00    +0.000 A 
ATOM      4  O   UNL     1      -8.646  54.717  49.050  0.00  0.00    +0.000 OA
ATOM      5  N   UNL     1     -10.704  55.508  48.283  0.00  0.00    +0.000 N 
ATOM      6  C   UNL     1     -12.352  56.157  49.966  0.00  0.00    +0.000 A 
ATOM      7  C   UNL     1     -11.985  56.043  48.614  0.00  0.00    +0.000 A 
ATOM      8  C   UNL     1     -13.623  56.666  50.297  0.00  0.00    +0.000 A 
ATOM      9  C   UNL     1     -12.892  56.453  47.621  0.00  0.00    +0.000 A 
ATOM     10  C   UNL     1     -14.518  57.055  49.306  0.00  0.00    +0.000 A 
ATOM     11  C   UNL     1     -14.150  56.954  47.967  0.00  0.00    +0.000 A 
ENDROOT
BRANCH   1  17
ATOM     12  S   UNL     1      -7.028  54.764  52.957  0.00  0.00    +0.000 S 
ATOM     13  O   UNL     1      -6.957  55.746  54.020  0.00  0.00    +0.000 OA
ATOM     14  O   UNL     1      -5.837  54.396  52.216  0.00  0.00    +0.000 OA
ATOM     15  N   UNL     1      -8.135  55.286  51.888  0.00  0.00    +0.000 N 
ATOM     16  C   UNL     1      -7.623  53.288  53.693  0.00  0.00    +0.000 A 
ATOM     17  C   UNL     1      -9.282  54.688  51.767  0.00  0.00    +0.000 C 
ATOM     18  C   UNL     1      -8.903  52.873  53.372  0.00  0.00    +0.000 A 
ATOM     19  C   UNL     1      -6.801  52.563  54.561  0.00  0.00    +0.000 A 
ATOM     20  N   UNL     1      -9.713  53.611  52.514  0.00  0.00    +0.000 N 
ATOM     21  C   UNL     1      -9.404  51.725  54.003  0.00  0.00    +0.000 A 
ATOM     22  C   UNL     1      -7.298  51.407  55.156  0.00  0.00    +0.000 A 
ATOM     23  C   UNL     1      -8.603  50.993  54.884  0.00  0.00    +0.000 A 
ATOM     24  H   UNL     1      -7.934  56.067  51.325  0.00  0.00    +0.000 HD
ATOM     25  H   UNL     1     -10.659  53.349  52.437  0.00  0.00    +0.000 HD
ENDBRANCH   1  17
BRANCH   3  26
ATOM     26  O   UNL     1     -11.891  55.860  52.311  0.00  0.00    +0.000 OA
ATOM     27  H   UNL     1     -12.128  55.098  52.802  0.00  0.00    +0.000 HD
ENDBRANCH   3  26
BRANCH   5  28
ATOM     28  N   UNL     1     -10.328  55.463  46.891  0.00  0.00    +0.000 N 
ATOM     29  H   UNL     1     -10.052  56.261  46.384  0.00  0.00    +0.000 HD
BRANCH  28  30
ATOM     30  C   UNL     1     -10.394  54.120  46.299  0.00  0.00    +0.000 C 
BRANCH  30  31
ATOM     31  C   UNL     1     -11.515  54.009  45.263  0.00  0.00    +0.000 C 
BRANCH  31  32
ATOM     32  C   UNL     1     -11.903  52.538  45.071  0.00  0.00    +0.000 C 
ATOM     33  C   UNL     1     -12.354  51.891  46.370  0.00  0.00    +0.000 C 
ENDBRANCH  31  32
ENDBRANCH  30  31
ENDBRANCH  28  30
ENDBRANCH   5  28
TORSDOF 6
ENDMDL
MODEL 8
REMARK VINA RESULT:      -7.3      3.339      4.958
REMARK  Name = 
REMARK  7 active torsions:
REMARK  status: ('A' for Active; 'I' for Inactive)
REMARK    1  A    between atoms: C_6  and  C_10
REMARK    2  A    between atoms: C_14  and  O_18
REMARK    3  A    between atoms: N_17  and  N_20
REMARK    4  A    between atoms: N_20  and  C_23
REMARK    5  A    between atoms: C_23  and  C_26
REMARK    6  A    between atoms: C_26  and  C_28
REMARK    7  A    between atoms: C_28  and  C_29
REMARK                            x       y       z     vdW  Elec       q    Type
REMARK                         _______ _______ _______ _____ _____    ______ ____
ROOT
ATOM      1  C   UNL     1     -11.334  56.090  48.807  0.00  0.00    +0.000 A 
ATOM      2  C   UNL     1     -10.193  55.617  49.646  0.00  0.00    +0.000 A 
ATOM      3  C   UNL     1     -11.474  55.655  47.544  0.00  0.00    +0.000 A 
ATOM      4  O   UNL     1     -10.091  56.097  50.780  0.00  0.00    +0.000 OA
ATOM      5  N   UNL     1      -9.335  54.650  49.112  0.00  0.00    +0.000 N 
ATOM      6  C   UNL     1     -10.534  54.672  46.982  0.00  0.00    +0.000 A 
ATOM      7  C   UNL     1      -9.477  54.184  47.770  0.00  0.00    +0.000 A 
ATOM      8  C   UNL     1     -10.691  54.200  45.666  0.00  0.00    +0.000 A 
ATOM      9  C   UNL     1      -8.591  53.243  47.219  0.00  0.00    +0.000 A 
ATOM     10  C   UNL     1      -9.815  53.258  45.135  0.00  0.00    +0.000 A 
ATOM     11  C   UNL     1      -8.761  52.783  45.910  0.00  0.00    +0.000 A 
ENDROOT
BRANCH   1  17
ATOM     12  S   UNL     1     -13.539  59.279  49.459  0.00  0.00    +0.000 S 
ATOM     13  O   UNL     1     -14.676  59.356  48.564  0.00  0.00    +0.000 OA
ATOM     14  O   UNL     1     -12.769  60.466  49.772  0.00  0.00    +0.000 OA
ATOM     15  N   UNL     1     -12.518  58.171  48.850  0.00  0.00    +0.000 N 
ATOM     16  C   UNL     1     -14.159  58.679  50.985  0.00  0.00    +0.000 A 
ATOM     17  C   UNL     1     -12.353  57.022  49.432  0.00  0.00    +0.000 C 
ATOM     18  C   UNL     1     -13.810  57.397  51.370  0.00  0.00    +0.000 A 
ATOM     19  C   UNL     1     -14.965  59.500  51.780  0.00  0.00    +0.000 A 
ATOM     20  N   UNL     1     -13.015  56.587  50.562  0.00  0.00    +0.000 N 
ATOM     21  C   UNL     1     -14.349  56.892  52.561  0.00  0.00    +0.000 A 
ATOM     22  C   UNL     1     -15.468  59.000  52.977  0.00  0.00    +0.000 A 
ATOM     23  C   UNL     1     -15.168  57.692  53.363  0.00  0.00    +0.000 A 
ATOM     24  H   UNL     1     -12.017  58.374  48.027  0.00  0.00    +0.000 HD
ATOM     25  H   UNL     1     -12.919  55.641  50.814  0.00  0.00    +0.000 HD
ENDBRANCH   1  17
BRANCH   3  26
ATOM     26  O   UNL     1     -12.491  56.046  46.693  0.00  0.00    +0.000 OA
ATOM     27  H   UNL     1     -12.593  55.626  45.861  0.00  0.00    +0.000 HD
ENDBRANCH   3  26
BRANCH   5  28
ATOM     28  N   UNL     1      -8.204  54.183  49.875  0.00  0.00    +0.000 N 
ATOM     29  H   UNL     1      -7.322  54.619  49.849  0.00  0.00    +0.000 HD
BRANCH  28  30
ATOM     30  C   UNL     1      -8.487  52.996  50.693  0.00  0.00    +0.000 C 
BRANCH  30  31
ATOM     31  C   UNL     1      -8.704  53.358  52.164  0.00  0.00    +0.000 C 
BRANCH  31  32
ATOM     32  C   UNL     1      -7.607  54.324  52.629  0.00  0.00    +0.000 C 
ATOM     33  C   UNL     1      -8.058  55.180  53.800  0.00  0.00    +0.000 C 
ENDBRANCH  31  32
ENDBRANCH  30  31
ENDBRANCH  28  30
ENDBRANCH   5  28
TORSDOF 6
ENDMDL
MODEL 9
REMARK VINA RESULT:      -7.2      1.627      2.334
REMARK  Name = 
REMARK  7 active torsions:
REMARK  status: ('A' for Active; 'I' for Inactive)
REMARK    1  A    between atoms: C_6  and  C_10
REMARK    2  A    between atoms: C_14  and  O_18
REMARK    3  A    between atoms: N_17  and  N_20
REMARK    4  A    between atoms: N_20  and  C_23
REMARK    5  A    between atoms: C_23  and  C_26
REMARK    6  A    between atoms: C_26  and  C_28
REMARK    7  A    between atoms: C_28  and  C_29
REMARK                            x       y       z     vdW  Elec       q    Type
REMARK                         _______ _______ _______ _____ _____    ______ ____
ROOT
ATOM      1  C   UNL     1     -10.141  54.517  52.145  0.00  0.00    +0.000 A 
ATOM      2  C   UNL     1      -8.746  55.044  52.077  0.00  0.00    +0.000 A 
ATOM      3  C   UNL     1     -10.416  53.412  52.855  0.00  0.00    +0.000 A 
ATOM      4  O   UNL     1      -8.551  56.033  51.361  0.00  0.00    +0.000 OA
ATOM      5  N   UNL     1      -7.760  54.408  52.838  0.00  0.00    +0.000 N 
ATOM      6  C   UNL     1      -9.357  52.728  53.615  0.00  0.00    +0.000 A 
ATOM      7  C   UNL     1      -8.045  53.232  53.596  0.00  0.00    +0.000 A 
ATOM      8  C   UNL     1      -9.647  51.580  54.377  0.00  0.00    +0.000 A 
ATOM      9  C   UNL     1      -7.047  52.568  54.330  0.00  0.00    +0.000 A 
ATOM     10  C   UNL     1      -8.654  50.939  55.110  0.00  0.00    +0.000 A 
ATOM     11  C   UNL     1      -7.352  51.430  55.083  0.00  0.00    +0.000 A 
ENDROOT
BRANCH   1  17
ATOM     12  S   UNL     1     -13.501  56.467  51.534  0.00  0.00    +0.000 S 
ATOM     13  O   UNL     1     -13.431  57.842  51.985  0.00  0.00    +0.000 OA
ATOM     14  O   UNL     1     -14.689  55.673  51.780  0.00  0.00    +0.000 OA
ATOM     15  N   UNL     1     -12.235  55.680  52.181  0.00  0.00    +0.000 N 
ATOM     16  C   UNL     1     -13.292  56.511  49.794  0.00  0.00    +0.000 A 
ATOM     17  C   UNL     1     -11.240  55.291  51.442  0.00  0.00    +0.000 C 
ATOM     18  C   UNL     1     -12.114  56.013  49.267  0.00  0.00    +0.000 A 
ATOM     19  C   UNL     1     -14.310  57.024  48.984  0.00  0.00    +0.000 A 
ATOM     20  N   UNL     1     -11.105  55.515  50.088  0.00  0.00    +0.000 N 
ATOM     21  C   UNL     1     -11.919  56.099  47.882  0.00  0.00    +0.000 A 
ATOM     22  C   UNL     1     -14.119  57.074  47.606  0.00  0.00    +0.000 A 
ATOM     23  C   UNL     1     -12.918  56.621  47.056  0.00  0.00    +0.000 A 
ATOM     24  H   UNL     1     -12.222  55.495  53.148  0.00  0.00    +0.000 HD
ATOM     25  H   UNL     1     -10.236  55.310  49.673  0.00  0.00    +0.000 HD
ENDBRANCH   1  17
BRANCH   3  26
ATOM     26  O   UNL     1     -11.673  52.848  52.966  0.00  0.00    +0.000 OA
ATOM     27  H   UNL     1     -11.873  52.055  52.508  0.00  0.00    +0.000 HD
ENDBRANCH   3  26
BRANCH   5  28
ATOM     28  N   UNL     1      -6.393  54.864  52.784  0.00  0.00    +0.000 N 
ATOM     29  H   UNL     1      -5.947  55.313  53.538  0.00  0.00    +0.000 HD
BRANCH  28  30
ATOM     30  C   UNL     1      -5.727  54.599  51.502  0.00  0.00    +0.000 C 
BRANCH  30  31
ATOM     31  C   UNL     1      -5.108  53.200  51.461  0.00  0.00    +0.000 C 
BRANCH  31  32
ATOM     32  C   UNL     1      -3.679  53.247  52.014  0.00  0.00    +0.000 C 
ATOM     33  C   UNL     1      -3.411  52.126  53.004  0.00  0.00    +0.000 C 
ENDBRANCH  31  32
ENDBRANCH  30  31
ENDBRANCH  28  30
ENDBRANCH   5  28
TORSDOF 6
ENDMDL
