MODEL 1
REMARK VINA RESULT:      -8.5      0.000      0.000
REMARK  Name = 
REMARK  5 active torsions:
REMARK  status: ('A' for Active; 'I' for Inactive)
REMARK    1  A    between atoms: C_6  and  C_10
REMARK    2  A    between atoms: C_14  and  O_18
REMARK    3  A    between atoms: N_17  and  N_20
REMARK    4  A    between atoms: N_20  and  C_23
REMARK    5  A    between atoms: C_23  and  C_26
REMARK                            x       y       z     vdW  Elec       q    Type
REMARK                         _______ _______ _______ _____ _____    ______ ____
ROOT
ATOM      1  C   UNL     1     -10.123  54.570  52.186  0.00  0.00    +0.000 A 
ATOM      2  C   UNL     1      -8.758  55.140  51.981  0.00  0.00    +0.000 A 
ATOM      3  C   UNL     1     -10.292  53.467  52.935  0.00  0.00    +0.000 A 
ATOM      4  O   UNL     1      -8.663  56.140  51.260  0.00  0.00    +0.000 OA
ATOM      5  N   UNL     1      -7.681  54.533  52.632  0.00  0.00    +0.000 N 
ATOM      6  C   UNL     1      -9.145  52.829  53.597  0.00  0.00    +0.000 A 
ATOM      7  C   UNL     1      -7.854  53.366  53.436  0.00  0.00    +0.000 A 
ATOM      8  C   UNL     1      -9.323  51.690  54.406  0.00  0.00    +0.000 A 
ATOM      9  C   UNL     1      -6.771  52.745  54.078  0.00  0.00    +0.000 A 
ATOM     10  C   UNL     1      -8.242  51.092  55.049  0.00  0.00    +0.000 A 
ATOM     11  C   UNL     1      -6.968  51.617  54.881  0.00  0.00    +0.000 A 
ENDROOT
BRANCH   1  17
ATOM     12  S   UNL     1     -12.584  56.077  49.520  0.00  0.00    +0.000 S 
ATOM     13  O   UNL     1     -13.482  55.076  48.981  0.00  0.00    +0.000 OA
ATOM     14  O   UNL     1     -11.985  57.070  48.649  0.00  0.00    +0.000 OA
ATOM     15  N   UNL     1     -11.386  55.299  50.285  0.00  0.00    +0.000 N 
ATOM     16  C   UNL     1     -13.510  56.974  50.711  0.00  0.00    +0.000 A 
ATOM     17  C   UNL     1     -11.310  55.297  51.582  0.00  0.00    +0.000 C 
ATOM     18  C   UNL     1     -13.200  56.785  52.047  0.00  0.00    +0.000 A 
ATOM     19  C   UNL     1     -14.514  57.855  50.300  0.00  0.00    +0.000 A 
ATOM     20  N   UNL     1     -12.204  55.896  52.444  0.00  0.00    +0.000 N 
ATOM     21  C   UNL     1     -13.977  57.447  53.006  0.00  0.00    +0.000 A 
ATOM     22  C   UNL     1     -15.254  58.537  51.265  0.00  0.00    +0.000 A 
ATOM     23  C   UNL     1     -14.992  58.325  52.616  0.00  0.00    +0.000 A 
ATOM     24  H   UNL     1     -10.705  54.821  49.759  0.00  0.00    +0.000 HD
ATOM     25  H   UNL     1     -12.132  55.683  53.402  0.00  0.00    +0.000 HD
ENDBRANCH   1  17
BRANCH   3  26
ATOM     26  O   UNL     1     -11.516  52.868  53.174  0.00  0.00    +0.000 OA
ATOM     27  H   UNL     1     -12.306  53.362  53.077  0.00  0.00    +0.000 HD
ENDBRANCH   3  26
BRANCH   5  28
ATOM     28  N   UNL     1      -6.337  55.021  52.424  0.00  0.00    +0.000 N 
ATOM     29  H   UNL     1      -5.831  55.504  53.118  0.00  0.00    +0.000 HD
BRANCH  28  30
ATOM     30  C   UNL     1      -5.789  54.736  51.091  0.00  0.00    +0.000 C 
BRANCH  30  31
ATOM     31  C   UNL     1      -4.961  53.498  51.144  0.00  0.00    +0.000 A 
ATOM     32  C   UNL     1      -5.266  52.282  50.560  0.00  0.00    +0.000 A 
ATOM     33  C   UNL     1      -3.677  53.319  51.731  0.00  0.00    +0.000 A 
ATOM     34  O   UNL     1      -4.265  51.388  50.748  0.00  0.00    +0.000 OA
ATOM     35  C   UNL     1      -3.301  52.025  51.460  0.00  0.00    +0.000 A 
ENDBRANCH  30  31
ENDBRANCH  28  30
ENDBRANCH   5  28
TORSDOF 5
ENDMDL
MODEL 2
REMARK VINA RESULT:      -8.4      2.396      3.309
REMARK  Name = 
REMARK  5 active torsions:
REMARK  status: ('A' for Active; 'I' for Inactive)
REMARK    1  A    between atoms: C_6  and  C_10
REMARK    2  A    between atoms: C_14  and  O_18
REMARK    3  A    between atoms: N_17  and  N_20
REMARK    4  A    between atoms: N_20  and  C_23
REMARK    5  A    between atoms: C_23  and  C_26
REMARK                            x       y       z     vdW  Elec       q    Type
REMARK                         _______ _______ _______ _____ _____    ______ ____
ROOT
ATOM      1  C   UNL     1     -11.705  54.015  51.297  0.00  0.00    +0.000 A 
ATOM      2  C   UNL     1     -10.864  54.023  52.530  0.00  0.00    +0.000 A 
ATOM      3  C   UNL     1     -11.755  52.922  50.517  0.00  0.00    +0.000 A 
ATOM      4  O   UNL     1     -10.838  55.066  53.193  0.00  0.00    +0.000 OA
ATOM      5  N   UNL     1     -10.183  52.853  52.877  0.00  0.00    +0.000 N 
ATOM      6  C   UNL     1     -11.016  51.706  50.885  0.00  0.00    +0.000 A 
ATOM      7  C   UNL     1     -10.238  51.686  52.057  0.00  0.00    +0.000 A 
ATOM      8  C   UNL     1     -11.090  50.550  50.084  0.00  0.00    +0.000 A 
ATOM      9  C   UNL     1      -9.541  50.514  52.393  0.00  0.00    +0.000 A 
ATOM     10  C   UNL     1     -10.405  49.389  50.438  0.00  0.00    +0.000 A 
ATOM     11  C   UNL     1      -9.629  49.374  51.589  0.00  0.00    +0.000 A 
ENDROOT
BRANCH   1  17
ATOM     12  S   UNL     1     -13.276  57.029  49.325  0.00  0.00    +0.000 S 
ATOM     13  O   UNL     1     -14.362  56.608  48.463  0.00  0.00    +0.000 OA
ATOM     14  O   UNL     1     -12.310  58.008  48.864  0.00  0.00    +0.000 OA
ATOM     15  N   UNL     1     -12.462  55.701  49.771  0.00  0.00    +0.000 N 
ATOM     16  C   UNL     1     -14.025  57.723  50.752  0.00  0.00    +0.000 A 
ATOM     17  C   UNL     1     -12.542  55.241  50.984  0.00  0.00    +0.000 C 
ATOM     18  C   UNL     1     -13.944  57.011  51.937  0.00  0.00    +0.000 A 
ATOM     19  C   UNL     1     -14.666  58.963  50.675  0.00  0.00    +0.000 A 
ATOM     20  N   UNL     1     -13.312  55.771  51.998  0.00  0.00    +0.000 N 
ATOM     21  C   UNL     1     -14.595  57.526  53.064  0.00  0.00    +0.000 A 
ATOM     22  C   UNL     1     -15.277  59.483  51.815  0.00  0.00    +0.000 A 
ATOM     23  C   UNL     1     -15.250  58.760  53.005  0.00  0.00    +0.000 A 
ATOM     24  H   UNL     1     -11.898  55.234  49.113  0.00  0.00    +0.000 HD
ATOM     25  H   UNL     1     -13.420  55.240  52.819  0.00  0.00    +0.000 HD
ENDBRANCH   1  17
BRANCH   3  26
ATOM     26  O   UNL     1     -12.501  52.828  49.356  0.00  0.00    +0.000 OA
ATOM     27  H   UNL     1     -12.200  52.294  48.648  0.00  0.00    +0.000 HD
ENDBRANCH   3  26
BRANCH   5  28
ATOM     28  N   UNL     1      -9.319  52.830  54.035  0.00  0.00    +0.000 N 
ATOM     29  H   UNL     1      -9.662  52.755  54.955  0.00  0.00    +0.000 HD
BRANCH  28  30
ATOM     30  C   UNL     1      -7.887  52.927  53.723  0.00  0.00    +0.000 C 
BRANCH  30  31
ATOM     31  C   UNL     1      -7.551  54.329  53.341  0.00  0.00    +0.000 A 
ATOM     32  C   UNL     1      -7.336  55.385  54.207  0.00  0.00    +0.000 A 
ATOM     33  C   UNL     1      -7.315  54.857  52.041  0.00  0.00    +0.000 A 
ATOM     34  O   UNL     1      -6.987  56.505  53.529  0.00  0.00    +0.000 OA
ATOM     35  C   UNL     1      -6.975  56.178  52.213  0.00  0.00    +0.000 A 
ENDBRANCH  30  31
ENDBRANCH  28  30
ENDBRANCH   5  28
TORSDOF 5
ENDMDL
MODEL 3
REMARK VINA RESULT:      -8.3      4.263      5.347
REMARK  Name = 
REMARK  5 active torsions:
REMARK  status: ('A' for Active; 'I' for Inactive)
REMARK    1  A    between atoms: C_6  and  C_10
REMARK    2  A    between atoms: C_14  and  O_18
REMARK    3  A    between atoms: N_17  and  N_20
REMARK    4  A    between atoms: N_20  and  C_23
REMARK    5  A    between atoms: C_23  and  C_26
REMARK                            x       y       z     vdW  Elec       q    Type
REMARK                         _______ _______ _______ _____ _____    ______ ____
ROOT
ATOM      1  C   UNL     1     -12.336  54.246  49.947  0.00  0.00    +0.000 A 
ATOM      2  C   UNL     1     -11.987  54.001  48.516  0.00  0.00    +0.000 A 
ATOM      3  C   UNL     1     -11.868  53.432  50.908  0.00  0.00    +0.000 A 
ATOM      4  O   UNL     1     -12.469  54.768  47.675  0.00  0.00    +0.000 OA
ATOM      5  N   UNL     1     -11.119  52.947  48.215  0.00  0.00    +0.000 N 
ATOM      6  C   UNL     1     -10.973  52.315  50.573  0.00  0.00    +0.000 A 
ATOM      7  C   UNL     1     -10.611  52.084  49.233  0.00  0.00    +0.000 A 
ATOM      8  C   UNL     1     -10.458  51.479  51.582  0.00  0.00    +0.000 A 
ATOM      9  C   UNL     1      -9.754  51.014  48.932  0.00  0.00    +0.000 A 
ATOM     10  C   UNL     1      -9.595  50.430  51.271  0.00  0.00    +0.000 A 
ATOM     11  C   UNL     1      -9.248  50.196  49.947  0.00  0.00    +0.000 A 
ENDROOT
BRANCH   1  17
ATOM     12  S   UNL     1     -15.322  56.443  51.249  0.00  0.00    +0.000 S 
ATOM     13  O   UNL     1     -15.291  56.605  52.689  0.00  0.00    +0.000 OA
ATOM     14  O   UNL     1     -16.578  56.209  50.564  0.00  0.00    +0.000 OA
ATOM     15  N   UNL     1     -14.316  55.231  50.871  0.00  0.00    +0.000 N 
ATOM     16  C   UNL     1     -14.674  57.929  50.576  0.00  0.00    +0.000 A 
ATOM     17  C   UNL     1     -13.177  55.461  50.289  0.00  0.00    +0.000 C 
ATOM     18  C   UNL     1     -13.419  57.882  49.993  0.00  0.00    +0.000 A 
ATOM     19  C   UNL     1     -15.424  59.108  50.628  0.00  0.00    +0.000 A 
ATOM     20  N   UNL     1     -12.678  56.703  49.958  0.00  0.00    +0.000 N 
ATOM     21  C   UNL     1     -12.868  59.076  49.513  0.00  0.00    +0.000 A 
ATOM     22  C   UNL     1     -14.878  60.281  50.111  0.00  0.00    +0.000 A 
ATOM     23  C   UNL     1     -13.598  60.267  49.563  0.00  0.00    +0.000 A 
ATOM     24  H   UNL     1     -14.571  54.304  51.085  0.00  0.00    +0.000 HD
ATOM     25  H   UNL     1     -11.736  56.760  49.676  0.00  0.00    +0.000 HD
ENDBRANCH   1  17
BRANCH   3  26
ATOM     26  O   UNL     1     -12.144  53.579  52.256  0.00  0.00    +0.000 OA
ATOM     27  H   UNL     1     -12.013  54.408  52.673  0.00  0.00    +0.000 HD
ENDBRANCH   3  26
BRANCH   5  28
ATOM     28  N   UNL     1     -10.792  52.644  46.841  0.00  0.00    +0.000 N 
ATOM     29  H   UNL     1     -11.270  51.961  46.317  0.00  0.00    +0.000 HD
BRANCH  28  30
ATOM     30  C   UNL     1      -9.687  53.441  46.292  0.00  0.00    +0.000 C 
BRANCH  30  31
ATOM     31  C   UNL     1      -9.548  53.168  44.833  0.00  0.00    +0.000 A 
ATOM     32  C   UNL     1      -8.428  53.404  44.057  0.00  0.00    +0.000 A 
ATOM     33  C   UNL     1     -10.488  52.555  43.956  0.00  0.00    +0.000 A 
ATOM     34  O   UNL     1      -8.620  52.979  42.785  0.00  0.00    +0.000 OA
ATOM     35  C   UNL     1      -9.874  52.463  42.730  0.00  0.00    +0.000 A 
ENDBRANCH  30  31
ENDBRANCH  28  30
ENDBRANCH   5  28
TORSDOF 5
ENDMDL
MODEL 4
REMARK VINA RESULT:      -8.3      3.259      4.835
REMARK  Name = 
REMARK  5 active torsions:
REMARK  status: ('A' for Active; 'I' for Inactive)
REMARK    1  A    between atoms: C_6  and  C_10
REMARK    2  A    between atoms: C_14  and  O_18
REMARK    3  A    between atoms: N_17  and  N_20
REMARK    4  A    between atoms: N_20  and  C_23
REMARK    5  A    between atoms: C_23  and  C_26
REMARK                            x       y       z     vdW  Elec       q    Type
REMARK                         _______ _______ _______ _____ _____    ______ ____
ROOT
ATOM      1  C   UNL     1     -11.468  56.050  48.822  0.00  0.00    +0.000 A 
ATOM      2  C   UNL     1     -10.390  55.478  49.682  0.00  0.00    +0.000 A 
ATOM      3  C   UNL     1     -11.583  55.673  47.537  0.00  0.00    +0.000 A 
ATOM      4  O   UNL     1     -10.319  55.883  50.848  0.00  0.00    +0.000 OA
ATOM      5  N   UNL     1      -9.549  54.505  49.133  0.00  0.00    +0.000 N 
ATOM      6  C   UNL     1     -10.677  54.664  46.970  0.00  0.00    +0.000 A 
ATOM      7  C   UNL     1      -9.671  54.095  47.771  0.00  0.00    +0.000 A 
ATOM      8  C   UNL     1     -10.814  54.247  45.631  0.00  0.00    +0.000 A 
ATOM      9  C   UNL     1      -8.817  53.131  47.213  0.00  0.00    +0.000 A 
ATOM     10  C   UNL     1      -9.969  53.278  45.094  0.00  0.00    +0.000 A 
ATOM     11  C   UNL     1      -8.970  52.725  45.883  0.00  0.00    +0.000 A 
ENDROOT
BRANCH   1  17
ATOM     12  S   UNL     1     -13.572  59.304  49.474  0.00  0.00    +0.000 S 
ATOM     13  O   UNL     1     -14.707  59.406  48.580  0.00  0.00    +0.000 OA
ATOM     14  O   UNL     1     -12.776  60.476  49.787  0.00  0.00    +0.000 OA
ATOM     15  N   UNL     1     -12.577  58.173  48.875  0.00  0.00    +0.000 N 
ATOM     16  C   UNL     1     -14.205  58.727  51.006  0.00  0.00    +0.000 A 
ATOM     17  C   UNL     1     -12.459  57.013  49.448  0.00  0.00    +0.000 C 
ATOM     18  C   UNL     1     -13.906  57.429  51.382  0.00  0.00    +0.000 A 
ATOM     19  C   UNL     1     -14.975  59.573  51.810  0.00  0.00    +0.000 A 
ATOM     20  N   UNL     1     -13.147  56.592  50.567  0.00  0.00    +0.000 N 
ATOM     21  C   UNL     1     -14.461  56.940  52.571  0.00  0.00    +0.000 A 
ATOM     22  C   UNL     1     -15.489  59.085  53.010  0.00  0.00    +0.000 A 
ATOM     23  C   UNL     1     -15.241  57.767  53.384  0.00  0.00    +0.000 A 
ATOM     24  H   UNL     1     -12.054  58.369  48.064  0.00  0.00    +0.000 HD
ATOM     25  H   UNL     1     -13.097  55.638  50.805  0.00  0.00    +0.000 HD
ENDBRANCH   1  17
BRANCH   3  26
ATOM     26  O   UNL     1     -12.545  56.154  46.668  0.00  0.00    +0.000 OA
ATOM     27  H   UNL     1     -12.420  56.079  45.743  0.00  0.00    +0.000 HD
ENDBRANCH   3  26
BRANCH   5  28
ATOM     28  N   UNL     1      -8.463  53.959  49.913  0.00  0.00    +0.000 N 
ATOM     29  H   UNL     1      -8.522  53.093  50.378  0.00  0.00    +0.000 HD
BRANCH  28  30
ATOM     30  C   UNL     1      -7.262  54.805  49.953  0.00  0.00    +0.000 C 
BRANCH  30  31
ATOM     31  C   UNL     1      -6.772  54.913  51.357  0.00  0.00    +0.000 A 
ATOM     32  C   UNL     1      -5.627  54.334  51.872  0.00  0.00    +0.000 A 
ATOM     33  C   UNL     1      -7.320  55.673  52.428  0.00  0.00    +0.000 A 
ATOM     34  O   UNL     1      -5.444  54.688  53.167  0.00  0.00    +0.000 OA
ATOM     35  C   UNL     1      -6.476  55.504  53.499  0.00  0.00    +0.000 A 
ENDBRANCH  30  31
ENDBRANCH  28  30
ENDBRANCH   5  28
TORSDOF 5
ENDMDL
MODEL 5
REMARK VINA RESULT:      -8.3      2.031      2.399
REMARK  Name = 
REMARK  5 active torsions:
REMARK  status: ('A' for Active; 'I' for Inactive)
REMARK    1  A    between atoms: C_6  and  C_10
REMARK    2  A    between atoms: C_14  and  O_18
REMARK    3  A    between atoms: N_17  and  N_20
REMARK    4  A    between atoms: N_20  and  C_23
REMARK    5  A    between atoms: C_23  and  C_26
REMARK                            x       y       z     vdW  Elec       q    Type
REMARK                         _______ _______ _______ _____ _____    ______ ____
ROOT
ATOM      1  C   UNL     1     -11.137  54.624  50.919  0.00  0.00    +0.000 A 
ATOM      2  C   UNL     1      -9.732  55.039  50.629  0.00  0.00    +0.000 A 
ATOM      3  C   UNL     1     -11.404  53.371  51.324  0.00  0.00    +0.000 A 
ATOM      4  O   UNL     1      -9.552  56.197  50.235  0.00  0.00    +0.000 OA
ATOM      5  N   UNL     1      -8.708  54.114  50.848  0.00  0.00    +0.000 N 
ATOM      6  C   UNL     1     -10.317  52.403  51.528  0.00  0.00    +0.000 A 
ATOM      7  C   UNL     1      -8.984  52.783  51.286  0.00  0.00    +0.000 A 
ATOM      8  C   UNL     1     -10.592  51.098  51.981  0.00  0.00    +0.000 A 
ATOM      9  C   UNL     1      -7.959  51.846  51.489  0.00  0.00    +0.000 A 
ATOM     10  C   UNL     1      -9.564  50.182  52.193  0.00  0.00    +0.000 A 
ATOM     11  C   UNL     1      -8.250  50.556  51.942  0.00  0.00    +0.000 A 
ENDROOT
BRANCH   1  17
ATOM     12  S   UNL     1     -13.599  57.261  49.362  0.00  0.00    +0.000 S 
ATOM     13  O   UNL     1     -14.727  56.631  48.705  0.00  0.00    +0.000 OA
ATOM     14  O   UNL     1     -12.944  58.404  48.757  0.00  0.00    +0.000 OA
ATOM     15  N   UNL     1     -12.477  56.119  49.610  0.00  0.00    +0.000 N 
ATOM     16  C   UNL     1     -14.185  57.808  50.922  0.00  0.00    +0.000 A 
ATOM     17  C   UNL     1     -12.237  55.662  50.802  0.00  0.00    +0.000 C 
ATOM     18  C   UNL     1     -13.747  57.134  52.050  0.00  0.00    +0.000 A 
ATOM     19  C   UNL     1     -15.055  58.899  51.002  0.00  0.00    +0.000 A 
ATOM     20  N   UNL     1     -12.888  56.042  51.957  0.00  0.00    +0.000 N 
ATOM     21  C   UNL     1     -14.260  57.523  53.294  0.00  0.00    +0.000 A 
ATOM     22  C   UNL     1     -15.527  59.300  52.251  0.00  0.00    +0.000 A 
ATOM     23  C   UNL     1     -15.138  58.606  53.393  0.00  0.00    +0.000 A 
ATOM     24  H   UNL     1     -11.968  55.765  48.844  0.00  0.00    +0.000 HD
ATOM     25  H   UNL     1     -12.736  55.506  52.768  0.00  0.00    +0.000 HD
ENDBRANCH   1  17
BRANCH   3  26
ATOM     26  O   UNL     1     -12.673  52.899  51.608  0.00  0.00    +0.000 OA
ATOM     27  H   UNL     1     -13.288  53.448  52.053  0.00  0.00    +0.000 HD
ENDBRANCH   3  26
BRANCH   5  28
ATOM     28  N   UNL     1      -7.340  54.456  50.535  0.00  0.00    +0.000 N 
ATOM     29  H   UNL     1      -6.832  54.019  49.812  0.00  0.00    +0.000 HD
BRANCH  28  30
ATOM     30  C   UNL     1      -6.770  55.509  51.387  0.00  0.00    +0.000 C 
BRANCH  30  31
ATOM     31  C   UNL     1      -6.397  54.935  52.711  0.00  0.00    +0.000 A 
ATOM     32  C   UNL     1      -5.289  54.152  52.983  0.00  0.00    +0.000 A 
ATOM     33  C   UNL     1      -7.041  55.119  53.967  0.00  0.00    +0.000 A 
ATOM     34  O   UNL     1      -5.217  53.855  54.303  0.00  0.00    +0.000 OA
ATOM     35  C   UNL     1      -6.284  54.446  54.896  0.00  0.00    +0.000 A 
ENDBRANCH  30  31
ENDBRANCH  28  30
ENDBRANCH   5  28
TORSDOF 5
ENDMDL
MODEL 6
REMARK VINA RESULT:      -8.3      3.878      4.692
REMARK  Name = 
REMARK  5 active torsions:
REMARK  status: ('A' for Active; 'I' for Inactive)
REMARK    1  A    between atoms: C_6  and  C_10
REMARK    2  A    between atoms: C_14  and  O_18
REMARK    3  A    between atoms: N_17  and  N_20
REMARK    4  A    between atoms: N_20  and  C_23
REMARK    5  A    between atoms: C_23  and  C_26
REMARK                            x       y       z     vdW  Elec       q    Type
REMARK                         _______ _______ _______ _____ _____    ______ ____
ROOT
ATOM      1  C   UNL     1     -12.490  54.315  49.564  0.00  0.00    +0.000 A 
ATOM      2  C   UNL     1     -12.004  54.279  48.153  0.00  0.00    +0.000 A 
ATOM      3  C   UNL     1     -12.177  53.323  50.415  0.00  0.00    +0.000 A 
ATOM      4  O   UNL     1     -12.346  55.206  47.410  0.00  0.00    +0.000 OA
ATOM      5  N   UNL     1     -11.172  53.225  47.764  0.00  0.00    +0.000 N 
ATOM      6  C   UNL     1     -11.319  52.210  49.984  0.00  0.00    +0.000 A 
ATOM      7  C   UNL     1     -10.830  52.172  48.665  0.00  0.00    +0.000 A 
ATOM      8  C   UNL     1     -10.966  51.185  50.882  0.00  0.00    +0.000 A 
ATOM      9  C   UNL     1     -10.010  51.103  48.272  0.00  0.00    +0.000 A 
ATOM     10  C   UNL     1     -10.139  50.137  50.483  0.00  0.00    +0.000 A 
ATOM     11  C   UNL     1      -9.666  50.095  49.179  0.00  0.00    +0.000 A 
ENDROOT
BRANCH   1  17
ATOM     12  S   UNL     1     -15.352  56.473  51.175  0.00  0.00    +0.000 S 
ATOM     13  O   UNL     1     -15.223  56.559  52.615  0.00  0.00    +0.000 OA
ATOM     14  O   UNL     1     -16.654  56.286  50.565  0.00  0.00    +0.000 OA
ATOM     15  N   UNL     1     -14.390  55.271  50.669  0.00  0.00    +0.000 N 
ATOM     16  C   UNL     1     -14.731  57.984  50.536  0.00  0.00    +0.000 A 
ATOM     17  C   UNL     1     -13.289  55.520  50.024  0.00  0.00    +0.000 C 
ATOM     18  C   UNL     1     -13.518  57.955  49.868  0.00  0.00    +0.000 A 
ATOM     19  C   UNL     1     -15.459  59.166  50.698  0.00  0.00    +0.000 A 
ATOM     20  N   UNL     1     -12.797  56.772  49.723  0.00  0.00    +0.000 N 
ATOM     21  C   UNL     1     -12.984  59.166  49.413  0.00  0.00    +0.000 A 
ATOM     22  C   UNL     1     -14.933  60.360  50.206  0.00  0.00    +0.000 A 
ATOM     23  C   UNL     1     -13.693  60.361  49.573  0.00  0.00    +0.000 A 
ATOM     24  H   UNL     1     -14.643  54.337  50.852  0.00  0.00    +0.000 HD
ATOM     25  H   UNL     1     -11.875  56.834  49.382  0.00  0.00    +0.000 HD
ENDBRANCH   1  17
BRANCH   3  26
ATOM     26  O   UNL     1     -12.588  53.271  51.735  0.00  0.00    +0.000 OA
ATOM     27  H   UNL     1     -13.416  53.633  51.982  0.00  0.00    +0.000 HD
ENDBRANCH   3  26
BRANCH   5  28
ATOM     28  N   UNL     1     -10.718  53.124  46.396  0.00  0.00    +0.000 N 
ATOM     29  H   UNL     1     -10.936  52.358  45.817  0.00  0.00    +0.000 HD
BRANCH  28  30
ATOM     30  C   UNL     1      -9.903  54.260  45.944  0.00  0.00    +0.000 C 
BRANCH  30  31
ATOM     31  C   UNL     1      -8.579  54.232  46.630  0.00  0.00    +0.000 A 
ATOM     32  C   UNL     1      -7.486  53.465  46.271  0.00  0.00    +0.000 A 
ATOM     33  C   UNL     1      -8.139  55.018  47.732  0.00  0.00    +0.000 A 
ATOM     34  O   UNL     1      -6.424  53.731  47.069  0.00  0.00    +0.000 OA
ATOM     35  C   UNL     1      -6.826  54.677  47.954  0.00  0.00    +0.000 A 
ENDBRANCH  30  31
ENDBRANCH  28  30
ENDBRANCH   5  28
TORSDOF 5
ENDMDL
MODEL 7
REMARK VINA RESULT:      -8.1      2.722      8.445
REMARK  Name = 
REMARK  5 active torsions:
REMARK  status: ('A' for Active; 'I' for Inactive)
REMARK    1  A    between atoms: C_6  and  C_10
REMARK    2  A    between atoms: C_14  and  O_18
REMARK    3  A    between atoms: N_17  and  N_20
REMARK    4  A    between atoms: N_20  and  C_23
REMARK    5  A    between atoms: C_23  and  C_26
REMARK                            x       y       z     vdW  Elec       q    Type
REMARK                         _______ _______ _______ _____ _____    ______ ____
ROOT
ATOM      1  C   UNL     1     -10.116  54.849  50.931  0.00  0.00    +0.000 A 
ATOM      2  C   UNL     1     -11.434  55.355  51.417  0.00  0.00    +0.000 A 
ATOM      3  C   UNL     1      -9.853  54.799  49.614  0.00  0.00    +0.000 A 
ATOM      4  O   UNL     1     -11.628  55.352  52.638  0.00  0.00    +0.000 OA
ATOM      5  N   UNL     1     -12.353  55.825  50.474  0.00  0.00    +0.000 N 
ATOM      6  C   UNL     1     -10.839  55.278  48.634  0.00  0.00    +0.000 A 
ATOM      7  C   UNL     1     -12.077  55.782  49.074  0.00  0.00    +0.000 A 
ATOM      8  C   UNL     1     -10.553  55.253  47.255  0.00  0.00    +0.000 A 
ATOM      9  C   UNL     1     -13.005  56.237  48.125  0.00  0.00    +0.000 A 
ATOM     10  C   UNL     1     -11.478  55.722  46.325  0.00  0.00    +0.000 A 
ATOM     11  C   UNL     1     -12.703  56.209  46.760  0.00  0.00    +0.000 A 
ENDROOT
BRANCH   1  17
ATOM     12  S   UNL     1      -6.758  54.792  52.970  0.00  0.00    +0.000 S 
ATOM     13  O   UNL     1      -6.714  55.835  53.975  0.00  0.00    +0.000 OA
ATOM     14  O   UNL     1      -5.583  54.489  52.176  0.00  0.00    +0.000 OA
ATOM     15  N   UNL     1      -7.969  55.144  51.952  0.00  0.00    +0.000 N 
ATOM     16  C   UNL     1      -7.164  53.311  53.819  0.00  0.00    +0.000 A 
ATOM     17  C   UNL     1      -9.070  54.454  51.955  0.00  0.00    +0.000 C 
ATOM     18  C   UNL     1      -8.427  52.778  53.623  0.00  0.00    +0.000 A 
ATOM     19  C   UNL     1      -6.222  52.700  54.653  0.00  0.00    +0.000 A 
ATOM     20  N   UNL     1      -9.359  53.402  52.799  0.00  0.00    +0.000 N 
ATOM     21  C   UNL     1      -8.781  51.633  54.347  0.00  0.00    +0.000 A 
ATOM     22  C   UNL     1      -6.576  51.539  55.337  0.00  0.00    +0.000 A 
ATOM     23  C   UNL     1      -7.857  51.012  55.193  0.00  0.00    +0.000 A 
ATOM     24  H   UNL     1      -7.869  55.894  51.321  0.00  0.00    +0.000 HD
ATOM     25  H   UNL     1     -10.286  53.071  52.819  0.00  0.00    +0.000 HD
ENDBRANCH   1  17
BRANCH   3  26
ATOM     26  O   UNL     1      -8.664  54.341  49.075  0.00  0.00    +0.000 OA
ATOM     27  H   UNL     1      -7.880  54.359  49.587  0.00  0.00    +0.000 HD
ENDBRANCH   3  26
BRANCH   5  28
ATOM     28  N   UNL     1     -13.659  56.278  50.895  0.00  0.00    +0.000 N 
ATOM     29  H   UNL     1     -14.489  55.797  50.670  0.00  0.00    +0.000 HD
BRANCH  28  30
ATOM     30  C   UNL     1     -13.644  57.515  51.687  0.00  0.00    +0.000 C 
BRANCH  30  31
ATOM     31  C   UNL     1     -14.101  58.656  50.842  0.00  0.00    +0.000 A 
ATOM     32  C   UNL     1     -15.294  59.343  50.969  0.00  0.00    +0.000 A 
ATOM     33  C   UNL     1     -13.398  59.316  49.796  0.00  0.00    +0.000 A 
ATOM     34  O   UNL     1     -15.362  60.365  50.082  0.00  0.00    +0.000 OA
ATOM     35  C   UNL     1     -14.206  60.345  49.372  0.00  0.00    +0.000 A 
ENDBRANCH  30  31
ENDBRANCH  28  30
ENDBRANCH   5  28
TORSDOF 5
ENDMDL
MODEL 8
REMARK VINA RESULT:      -8.1      4.084      5.541
REMARK  Name = 
REMARK  5 active torsions:
REMARK  status: ('A' for Active; 'I' for Inactive)
REMARK    1  A    between atoms: C_6  and  C_10
REMARK    2  A    between atoms: C_14  and  O_18
REMARK    3  A    between atoms: N_17  and  N_20
REMARK    4  A    between atoms: N_20  and  C_23
REMARK    5  A    between atoms: C_23  and  C_26
REMARK                            x       y       z     vdW  Elec       q    Type
REMARK                         _______ _______ _______ _____ _____    ______ ____
ROOT
ATOM      1  C   UNL     1     -10.355  54.901  47.765  0.00  0.00    +0.000 A 
ATOM      2  C   UNL     1      -8.866  55.005  47.760  0.00  0.00    +0.000 A 
ATOM      3  C   UNL     1     -11.002  54.365  46.715  0.00  0.00    +0.000 A 
ATOM      4  O   UNL     1      -8.331  55.531  48.742  0.00  0.00    +0.000 OA
ATOM      5  N   UNL     1      -8.168  54.479  46.669  0.00  0.00    +0.000 N 
ATOM      6  C   UNL     1     -10.253  53.836  45.566  0.00  0.00    +0.000 A 
ATOM      7  C   UNL     1      -8.848  53.902  45.554  0.00  0.00    +0.000 A 
ATOM      8  C   UNL     1     -10.927  53.248  44.478  0.00  0.00    +0.000 A 
ATOM      9  C   UNL     1      -8.150  53.389  44.449  0.00  0.00    +0.000 A 
ATOM     10  C   UNL     1     -10.221  52.729  43.395  0.00  0.00    +0.000 A 
ATOM     11  C   UNL     1      -8.835  52.805  43.380  0.00  0.00    +0.000 A 
ENDROOT
BRANCH   1  17
ATOM     12  S   UNL     1     -11.782  54.968  51.426  0.00  0.00    +0.000 S 
ATOM     13  O   UNL     1     -10.805  55.450  52.381  0.00  0.00    +0.000 OA
ATOM     14  O   UNL     1     -12.636  53.843  51.753  0.00  0.00    +0.000 OA
ATOM     15  N   UNL     1     -10.992  54.610  50.057  0.00  0.00    +0.000 N 
ATOM     16  C   UNL     1     -12.859  56.315  51.105  0.00  0.00    +0.000 A 
ATOM     17  C   UNL     1     -11.109  55.357  49.000  0.00  0.00    +0.000 C 
ATOM     18  C   UNL     1     -12.777  56.929  49.866  0.00  0.00    +0.000 A 
ATOM     19  C   UNL     1     -13.770  56.732  52.080  0.00  0.00    +0.000 A 
ATOM     20  N   UNL     1     -11.857  56.511  48.908  0.00  0.00    +0.000 N 
ATOM     21  C   UNL     1     -13.587  58.045  49.627  0.00  0.00    +0.000 A 
ATOM     22  C   UNL     1     -14.598  57.821  51.813  0.00  0.00    +0.000 A 
ATOM     23  C   UNL     1     -14.499  58.483  50.592  0.00  0.00    +0.000 A 
ATOM     24  H   UNL     1     -10.413  53.813  50.025  0.00  0.00    +0.000 HD
ATOM     25  H   UNL     1     -11.733  57.077  48.112  0.00  0.00    +0.000 HD
ENDBRANCH   1  17
BRANCH   3  26
ATOM     26  O   UNL     1     -12.376  54.234  46.631  0.00  0.00    +0.000 OA
ATOM     27  H   UNL     1     -12.857  54.732  46.000  0.00  0.00    +0.000 HD
ENDBRANCH   3  26
BRANCH   5  28
ATOM     28  N   UNL     1      -6.730  54.601  46.599  0.00  0.00    +0.000 N 
ATOM     29  H   UNL     1      -6.279  55.407  46.256  0.00  0.00    +0.000 HD
BRANCH  28  30
ATOM     30  C   UNL     1      -5.999  53.422  47.084  0.00  0.00    +0.000 C 
BRANCH  30  31
ATOM     31  C   UNL     1      -5.700  53.580  48.536  0.00  0.00    +0.000 A 
ATOM     32  C   UNL     1      -6.175  52.785  49.562  0.00  0.00    +0.000 A 
ATOM     33  C   UNL     1      -4.827  54.515  49.161  0.00  0.00    +0.000 A 
ATOM     34  O   UNL     1      -5.655  53.167  50.753  0.00  0.00    +0.000 OA
ATOM     35  C   UNL     1      -4.835  54.218  50.503  0.00  0.00    +0.000 A 
ENDBRANCH  30  31
ENDBRANCH  28  30
ENDBRANCH   5  28
TORSDOF 5
ENDMDL
MODEL 9
REMARK VINA RESULT:      -8.1      2.928      8.325
REMARK  Name = 
REMARK  5 active torsions:
REMARK  status: ('A' for Active; 'I' for Inactive)
REMARK    1  A    between atoms: C_6  and  C_10
REMARK    2  A    between atoms: C_14  and  O_18
REMARK    3  A    between atoms: N_17  and  N_20
REMARK    4  A    between atoms: N_20  and  C_23
REMARK    5  A    between atoms: C_23  and  C_26
REMARK                            x       y       z     vdW  Elec       q    Type
REMARK                         _______ _______ _______ _____ _____    ______ ____
ROOT
ATOM      1  C   UNL     1      -9.906  54.403  50.713  0.00  0.00    +0.000 A 
ATOM      2  C   UNL     1     -11.228  55.030  51.013  0.00  0.00    +0.000 A 
ATOM      3  C   UNL     1      -9.529  54.191  49.440  0.00  0.00    +0.000 A 
ATOM      4  O   UNL     1     -11.530  55.175  52.202  0.00  0.00    +0.000 OA
ATOM      5  N   UNL     1     -12.026  55.440  49.941  0.00  0.00    +0.000 N 
ATOM      6  C   UNL     1     -10.391  54.609  48.325  0.00  0.00    +0.000 A 
ATOM      7  C   UNL     1     -11.628  55.225  48.587  0.00  0.00    +0.000 A 
ATOM      8  C   UNL     1      -9.984  54.414  46.990  0.00  0.00    +0.000 A 
ATOM      9  C   UNL     1     -12.436  55.620  47.509  0.00  0.00    +0.000 A 
ATOM     10  C   UNL     1     -10.790  54.825  45.930  0.00  0.00    +0.000 A 
ATOM     11  C   UNL     1     -12.015  55.423  46.191  0.00  0.00    +0.000 A 
ENDROOT
BRANCH   1  17
ATOM     12  S   UNL     1      -6.816  54.496  53.138  0.00  0.00    +0.000 S 
ATOM     13  O   UNL     1      -6.909  55.577  54.097  0.00  0.00    +0.000 OA
ATOM     14  O   UNL     1      -5.550  54.187  52.502  0.00  0.00    +0.000 OA
ATOM     15  N   UNL     1      -7.902  54.783  51.969  0.00  0.00    +0.000 N 
ATOM     16  C   UNL     1      -7.296  53.040  53.992  0.00  0.00    +0.000 A 
ATOM     17  C   UNL     1      -8.983  54.070  51.870  0.00  0.00    +0.000 C 
ATOM     18  C   UNL     1      -8.517  52.473  53.669  0.00  0.00    +0.000 A 
ATOM     19  C   UNL     1      -6.451  52.482  54.956  0.00  0.00    +0.000 A 
ATOM     20  N   UNL     1      -9.355  53.046  52.715  0.00  0.00    +0.000 N 
ATOM     21  C   UNL     1      -8.936  51.350  54.392  0.00  0.00    +0.000 A 
ATOM     22  C   UNL     1      -6.864  51.340  55.640  0.00  0.00    +0.000 A 
ATOM     23  C   UNL     1      -8.110  50.781  55.366  0.00  0.00    +0.000 A 
ATOM     24  H   UNL     1      -7.739  55.509  51.324  0.00  0.00    +0.000 HD
ATOM     25  H   UNL     1     -10.272  52.696  52.638  0.00  0.00    +0.000 HD
ENDBRANCH   1  17
BRANCH   3  26
ATOM     26  O   UNL     1      -8.328  53.612  49.070  0.00  0.00    +0.000 OA
ATOM     27  H   UNL     1      -7.865  53.932  48.321  0.00  0.00    +0.000 HD
ENDBRANCH   3  26
BRANCH   5  28
ATOM     28  N   UNL     1     -13.333  56.007  50.184  0.00  0.00    +0.000 N 
ATOM     29  H   UNL     1     -14.139  55.455  50.310  0.00  0.00    +0.000 HD
BRANCH  28  30
ATOM     30  C   UNL     1     -13.357  57.475  50.226  0.00  0.00    +0.000 C 
BRANCH  30  31
ATOM     31  C   UNL     1     -14.162  57.929  51.396  0.00  0.00    +0.000 A 
ATOM     32  C   UNL     1     -14.503  57.171  52.501  0.00  0.00    +0.000 A 
ATOM     33  C   UNL     1     -14.683  59.228  51.660  0.00  0.00    +0.000 A 
ATOM     34  O   UNL     1     -15.185  57.912  53.407  0.00  0.00    +0.000 OA
ATOM     35  C   UNL     1     -15.290  59.162  52.891  0.00  0.00    +0.000 A 
ENDBRANCH  30  31
ENDBRANCH  28  30
ENDBRANCH   5  28
TORSDOF 5
ENDMDL
