MODEL 1
REMARK VINA RESULT:      -8.8      0.000      0.000
REMARK  Name = 
REMARK  4 active torsions:
REMARK  status: ('A' for Active; 'I' for Inactive)
REMARK    1  A    between atoms: C_6  and  C_10
REMARK    2  A    between atoms: C_14  and  O_18
REMARK    3  A    between atoms: N_17  and  N_20
REMARK    4  A    between atoms: N_20  and  C_23
REMARK                            x       y       z     vdW  Elec       q    Type
REMARK                         _______ _______ _______ _____ _____    ______ ____
ROOT
ATOM      1  C   UNL     1      -9.953  54.184  52.478  0.00  0.00    +0.000 A 
ATOM      2  C   UNL     1      -8.543  54.686  52.505  0.00  0.00    +0.000 A 
ATOM      3  C   UNL     1     -10.285  53.068  53.148  0.00  0.00    +0.000 A 
ATOM      4  O   UNL     1      -8.331  55.824  52.076  0.00  0.00    +0.000 OA
ATOM      5  N   UNL     1      -7.544  53.827  53.010  0.00  0.00    +0.000 N 
ATOM      6  C   UNL     1      -9.275  52.340  53.926  0.00  0.00    +0.000 A 
ATOM      7  C   UNL     1      -7.920  52.712  53.839  0.00  0.00    +0.000 A 
ATOM      8  C   UNL     1      -9.665  51.324  54.820  0.00  0.00    +0.000 A 
ATOM      9  C   UNL     1      -6.989  52.027  54.640  0.00  0.00    +0.000 A 
ATOM     10  C   UNL     1      -8.731  50.691  55.640  0.00  0.00    +0.000 A 
ATOM     11  C   UNL     1      -7.392  51.039  55.542  0.00  0.00    +0.000 A 
ENDROOT
BRANCH   1  17
ATOM     12  S   UNL     1     -12.118  55.544  49.495  0.00  0.00    +0.000 S 
ATOM     13  O   UNL     1     -12.907  54.503  48.874  0.00  0.00    +0.000 OA
ATOM     14  O   UNL     1     -11.460  56.561  48.706  0.00  0.00    +0.000 OA
ATOM     15  N   UNL     1     -10.991  54.853  50.442  0.00  0.00    +0.000 N 
ATOM     16  C   UNL     1     -13.238  56.414  50.555  0.00  0.00    +0.000 A 
ATOM     17  C   UNL     1     -11.014  54.980  51.734  0.00  0.00    +0.000 C 
ATOM     18  C   UNL     1     -13.014  56.387  51.923  0.00  0.00    +0.000 A 
ATOM     19  C   UNL     1     -14.335  57.087  49.991  0.00  0.00    +0.000 A 
ATOM     20  N   UNL     1     -11.890  55.750  52.462  0.00  0.00    +0.000 N 
ATOM     21  C   UNL     1     -13.907  57.078  52.746  0.00  0.00    +0.000 A 
ATOM     22  C   UNL     1     -15.222  57.761  50.824  0.00  0.00    +0.000 A 
ATOM     23  C   UNL     1     -15.011  57.758  52.202  0.00  0.00    +0.000 A 
ATOM     24  H   UNL     1     -10.273  54.325  50.025  0.00  0.00    +0.000 HD
ATOM     25  H   UNL     1     -11.716  55.861  53.425  0.00  0.00    +0.000 HD
ENDBRANCH   1  17
BRANCH   3  26
ATOM     26  O   UNL     1     -11.566  52.544  53.208  0.00  0.00    +0.000 OA
ATOM     27  H   UNL     1     -11.697  51.657  53.481  0.00  0.00    +0.000 HD
ENDBRANCH   3  26
BRANCH   5  28
ATOM     28  N   UNL     1      -6.268  54.425  53.198  0.00  0.00    +0.000 N 
ATOM     29  H   UNL     1      -6.130  54.996  53.989  0.00  0.00    +0.000 HD
BRANCH  28  30
ATOM     30  C   UNL     1      -5.148  54.238  52.272  0.00  0.00    +0.000 C 
ATOM     31  C   UNL     1      -5.235  53.113  51.226  0.00  0.00    +0.000 C 
ATOM     32  C   UNL     1      -3.740  54.260  52.882  0.00  0.00    +0.000 C 
ATOM     33  C   UNL     1      -4.745  51.746  51.690  0.00  0.00    +0.000 C 
ATOM     34  C   UNL     1      -3.300  52.925  53.465  0.00  0.00    +0.000 C 
ATOM     35  C   UNL     1      -3.437  51.769  52.480  0.00  0.00    +0.000 C 
ENDBRANCH  28  30
ENDBRANCH   5  28
TORSDOF 4
ENDMDL
MODEL 2
REMARK VINA RESULT:      -8.6      1.883      2.611
REMARK  Name = 
REMARK  4 active torsions:
REMARK  status: ('A' for Active; 'I' for Inactive)
REMARK    1  A    between atoms: C_6  and  C_10
REMARK    2  A    between atoms: C_14  and  O_18
REMARK    3  A    between atoms: N_17  and  N_20
REMARK    4  A    between atoms: N_20  and  C_23
REMARK                            x       y       z     vdW  Elec       q    Type
REMARK                         _______ _______ _______ _____ _____    ______ ____
ROOT
ATOM      1  C   UNL     1     -11.100  53.934  51.693  0.00  0.00    +0.000 A 
ATOM      2  C   UNL     1     -10.133  54.006  52.833  0.00  0.00    +0.000 A 
ATOM      3  C   UNL     1     -11.301  52.771  51.051  0.00  0.00    +0.000 A 
ATOM      4  O   UNL     1     -10.149  55.021  53.536  0.00  0.00    +0.000 OA
ATOM      5  N   UNL     1      -9.257  52.917  53.029  0.00  0.00    +0.000 N 
ATOM      6  C   UNL     1     -10.589  51.558  51.470  0.00  0.00    +0.000 A 
ATOM      7  C   UNL     1      -9.568  51.642  52.437  0.00  0.00    +0.000 A 
ATOM      8  C   UNL     1     -10.974  50.299  50.970  0.00  0.00    +0.000 A 
ATOM      9  C   UNL     1      -8.944  50.452  52.853  0.00  0.00    +0.000 A 
ATOM     10  C   UNL     1     -10.376  49.128  51.432  0.00  0.00    +0.000 A 
ATOM     11  C   UNL     1      -9.355  49.207  52.368  0.00  0.00    +0.000 A 
ENDROOT
BRANCH   1  17
ATOM     12  S   UNL     1     -12.739  56.702  49.439  0.00  0.00    +0.000 S 
ATOM     13  O   UNL     1     -13.750  56.161  48.557  0.00  0.00    +0.000 OA
ATOM     14  O   UNL     1     -11.815  57.719  48.989  0.00  0.00    +0.000 OA
ATOM     15  N   UNL     1     -11.862  55.475  50.046  0.00  0.00    +0.000 N 
ATOM     16  C   UNL     1     -13.630  57.432  50.784  0.00  0.00    +0.000 A 
ATOM     17  C   UNL     1     -11.895  55.173  51.308  0.00  0.00    +0.000 C 
ATOM     18  C   UNL     1     -13.467  56.901  52.054  0.00  0.00    +0.000 A 
ATOM     19  C   UNL     1     -14.497  58.508  50.531  0.00  0.00    +0.000 A 
ATOM     20  N   UNL     1     -12.565  55.857  52.294  0.00  0.00    +0.000 N 
ATOM     21  C   UNL     1     -14.178  57.486  53.105  0.00  0.00    +0.000 A 
ATOM     22  C   UNL     1     -15.206  59.075  51.585  0.00  0.00    +0.000 A 
ATOM     23  C   UNL     1     -15.048  58.565  52.874  0.00  0.00    +0.000 A 
ATOM     24  H   UNL     1     -11.292  54.949  49.441  0.00  0.00    +0.000 HD
ATOM     25  H   UNL     1     -12.399  55.597  53.229  0.00  0.00    +0.000 HD
ENDBRANCH   1  17
BRANCH   3  26
ATOM     26  O   UNL     1     -12.196  52.598  50.008  0.00  0.00    +0.000 OA
ATOM     27  H   UNL     1     -13.099  52.820  50.124  0.00  0.00    +0.000 HD
ENDBRANCH   3  26
BRANCH   5  28
ATOM     28  N   UNL     1      -8.507  52.952  54.235  0.00  0.00    +0.000 N 
ATOM     29  H   UNL     1      -8.955  52.693  55.073  0.00  0.00    +0.000 HD
BRANCH  28  30
ATOM     30  C   UNL     1      -7.099  53.356  54.296  0.00  0.00    +0.000 C 
ATOM     31  C   UNL     1      -6.758  54.854  54.213  0.00  0.00    +0.000 C 
ATOM     32  C   UNL     1      -6.117  52.559  53.428  0.00  0.00    +0.000 C 
ATOM     33  C   UNL     1      -6.590  55.411  52.804  0.00  0.00    +0.000 C 
ATOM     34  C   UNL     1      -6.046  53.033  51.983  0.00  0.00    +0.000 C 
ATOM     35  C   UNL     1      -5.777  54.528  51.858  0.00  0.00    +0.000 C 
ENDBRANCH  28  30
ENDBRANCH   5  28
TORSDOF 4
ENDMDL
MODEL 3
REMARK VINA RESULT:      -8.4      3.640      4.680
REMARK  Name = 
REMARK  4 active torsions:
REMARK  status: ('A' for Active; 'I' for Inactive)
REMARK    1  A    between atoms: C_6  and  C_10
REMARK    2  A    between atoms: C_14  and  O_18
REMARK    3  A    between atoms: N_17  and  N_20
REMARK    4  A    between atoms: N_20  and  C_23
REMARK                            x       y       z     vdW  Elec       q    Type
REMARK                         _______ _______ _______ _____ _____    ______ ____
ROOT
ATOM      1  C   UNL     1     -11.546  54.877  50.428  0.00  0.00    +0.000 A 
ATOM      2  C   UNL     1     -10.239  55.247  49.799  0.00  0.00    +0.000 A 
ATOM      3  C   UNL     1     -11.782  53.606  50.793  0.00  0.00    +0.000 A 
ATOM      4  O   UNL     1      -9.974  56.449  49.694  0.00  0.00    +0.000 OA
ATOM      5  N   UNL     1      -9.396  54.206  49.359  0.00  0.00    +0.000 N 
ATOM      6  C   UNL     1     -10.758  52.573  50.595  0.00  0.00    +0.000 A 
ATOM      7  C   UNL     1      -9.588  52.873  49.871  0.00  0.00    +0.000 A 
ATOM      8  C   UNL     1     -10.902  51.306  51.194  0.00  0.00    +0.000 A 
ATOM      9  C   UNL     1      -8.606  51.876  49.747  0.00  0.00    +0.000 A 
ATOM     10  C   UNL     1      -9.894  50.348  51.100  0.00  0.00    +0.000 A 
ATOM     11  C   UNL     1      -8.749  50.632  50.370  0.00  0.00    +0.000 A 
ENDROOT
BRANCH   1  17
ATOM     12  S   UNL     1     -14.228  57.003  52.357  0.00  0.00    +0.000 S 
ATOM     13  O   UNL     1     -13.664  57.685  53.502  0.00  0.00    +0.000 OA
ATOM     14  O   UNL     1     -15.535  56.388  52.416  0.00  0.00    +0.000 OA
ATOM     15  N   UNL     1     -13.175  55.871  51.851  0.00  0.00    +0.000 N 
ATOM     16  C   UNL     1     -14.336  58.230  51.085  0.00  0.00    +0.000 A 
ATOM     17  C   UNL     1     -12.577  55.961  50.702  0.00  0.00    +0.000 C 
ATOM     18  C   UNL     1     -13.576  58.065  49.937  0.00  0.00    +0.000 A 
ATOM     19  C   UNL     1     -15.164  59.348  51.278  0.00  0.00    +0.000 A 
ATOM     20  N   UNL     1     -12.792  56.922  49.744  0.00  0.00    +0.000 N 
ATOM     21  C   UNL     1     -13.672  59.043  48.943  0.00  0.00    +0.000 A 
ATOM     22  C   UNL     1     -15.242  60.319  50.284  0.00  0.00    +0.000 A 
ATOM     23  C   UNL     1     -14.496  60.168  49.115  0.00  0.00    +0.000 A 
ATOM     24  H   UNL     1     -12.988  55.099  52.431  0.00  0.00    +0.000 HD
ATOM     25  H   UNL     1     -12.366  56.799  48.864  0.00  0.00    +0.000 HD
ENDBRANCH   1  17
BRANCH   3  26
ATOM     26  O   UNL     1     -12.945  53.172  51.409  0.00  0.00    +0.000 OA
ATOM     27  H   UNL     1     -13.401  53.737  52.000  0.00  0.00    +0.000 HD
ENDBRANCH   3  26
BRANCH   5  28
ATOM     28  N   UNL     1      -8.093  54.608  48.959  0.00  0.00    +0.000 N 
ATOM     29  H   UNL     1      -7.402  54.711  49.652  0.00  0.00    +0.000 HD
BRANCH  28  30
ATOM     30  C   UNL     1      -7.727  54.879  47.565  0.00  0.00    +0.000 C 
ATOM     31  C   UNL     1      -8.847  55.191  46.557  0.00  0.00    +0.000 C 
ATOM     32  C   UNL     1      -6.712  53.925  46.923  0.00  0.00    +0.000 C 
ATOM     33  C   UNL     1      -9.481  53.979  45.885  0.00  0.00    +0.000 C 
ATOM     34  C   UNL     1      -7.330  52.650  46.367  0.00  0.00    +0.000 C 
ATOM     35  C   UNL     1      -8.491  52.915  45.414  0.00  0.00    +0.000 C 
ENDBRANCH  28  30
ENDBRANCH   5  28
TORSDOF 4
ENDMDL
MODEL 4
REMARK VINA RESULT:      -8.3      2.817      8.302
REMARK  Name = 
REMARK  4 active torsions:
REMARK  status: ('A' for Active; 'I' for Inactive)
REMARK    1  A    between atoms: C_6  and  C_10
REMARK    2  A    between atoms: C_14  and  O_18
REMARK    3  A    between atoms: N_17  and  N_20
REMARK    4  A    between atoms: N_20  and  C_23
REMARK                            x       y       z     vdW  Elec       q    Type
REMARK                         _______ _______ _______ _____ _____    ______ ____
ROOT
ATOM      1  C   UNL     1      -9.785  53.891  50.638  0.00  0.00    +0.000 A 
ATOM      2  C   UNL     1     -10.682  55.023  51.030  0.00  0.00    +0.000 A 
ATOM      3  C   UNL     1      -9.731  53.486  49.358  0.00  0.00    +0.000 A 
ATOM      4  O   UNL     1     -10.531  55.511  52.154  0.00  0.00    +0.000 OA
ATOM      5  N   UNL     1     -11.648  55.457  50.098  0.00  0.00    +0.000 N 
ATOM      6  C   UNL     1     -10.536  54.158  48.331  0.00  0.00    +0.000 A 
ATOM      7  C   UNL     1     -11.493  55.120  48.706  0.00  0.00    +0.000 A 
ATOM      8  C   UNL     1     -10.300  53.904  46.965  0.00  0.00    +0.000 A 
ATOM      9  C   UNL     1     -12.207  55.781  47.692  0.00  0.00    +0.000 A 
ATOM     10  C   UNL     1     -10.985  54.606  45.975  0.00  0.00    +0.000 A 
ATOM     11  C   UNL     1     -11.943  55.540  46.341  0.00  0.00    +0.000 A 
ENDROOT
BRANCH   1  17
ATOM     12  S   UNL     1      -6.554  53.022  52.695  0.00  0.00    +0.000 S 
ATOM     13  O   UNL     1      -6.038  54.168  53.413  0.00  0.00    +0.000 OA
ATOM     14  O   UNL     1      -5.670  52.087  52.036  0.00  0.00    +0.000 OA
ATOM     15  N   UNL     1      -7.634  53.536  51.594  0.00  0.00    +0.000 N 
ATOM     16  C   UNL     1      -7.437  52.072  53.900  0.00  0.00    +0.000 A 
ATOM     17  C   UNL     1      -8.895  53.244  51.689  0.00  0.00    +0.000 C 
ATOM     18  C   UNL     1      -8.806  51.913  53.746  0.00  0.00    +0.000 A 
ATOM     19  C   UNL     1      -6.741  51.526  54.991  0.00  0.00    +0.000 A 
ATOM     20  N   UNL     1      -9.475  52.426  52.628  0.00  0.00    +0.000 N 
ATOM     21  C   UNL     1      -9.490  51.162  54.705  0.00  0.00    +0.000 A 
ATOM     22  C   UNL     1      -7.436  50.789  55.944  0.00  0.00    +0.000 A 
ATOM     23  C   UNL     1      -8.811  50.605  55.804  0.00  0.00    +0.000 A 
ATOM     24  H   UNL     1      -7.323  54.082  50.837  0.00  0.00    +0.000 HD
ATOM     25  H   UNL     1     -10.423  52.185  52.508  0.00  0.00    +0.000 HD
ENDBRANCH   1  17
BRANCH   3  26
ATOM     26  O   UNL     1      -8.911  52.470  48.893  0.00  0.00    +0.000 OA
ATOM     27  H   UNL     1      -8.947  52.214  47.992  0.00  0.00    +0.000 HD
ENDBRANCH   3  26
BRANCH   5  28
ATOM     28  N   UNL     1     -12.329  56.656  50.443  0.00  0.00    +0.000 N 
ATOM     29  H   UNL     1     -11.803  57.483  50.537  0.00  0.00    +0.000 HD
BRANCH  28  30
ATOM     30  C   UNL     1     -13.776  56.722  50.670  0.00  0.00    +0.000 C 
ATOM     31  C   UNL     1     -14.572  57.868  50.020  0.00  0.00    +0.000 C 
ATOM     32  C   UNL     1     -14.254  56.522  52.114  0.00  0.00    +0.000 C 
ATOM     33  C   UNL     1     -14.645  59.157  50.829  0.00  0.00    +0.000 C 
ATOM     34  C   UNL     1     -14.204  57.785  52.962  0.00  0.00    +0.000 C 
ATOM     35  C   UNL     1     -14.924  58.965  52.319  0.00  0.00    +0.000 C 
ENDBRANCH  28  30
ENDBRANCH   5  28
TORSDOF 4
ENDMDL
MODEL 5
REMARK VINA RESULT:      -8.3      1.557      2.210
REMARK  Name = 
REMARK  4 active torsions:
REMARK  status: ('A' for Active; 'I' for Inactive)
REMARK    1  A    between atoms: C_6  and  C_10
REMARK    2  A    between atoms: C_14  and  O_18
REMARK    3  A    between atoms: N_17  and  N_20
REMARK    4  A    between atoms: N_20  and  C_23
REMARK                            x       y       z     vdW  Elec       q    Type
REMARK                         _______ _______ _______ _____ _____    ______ ____
ROOT
ATOM      1  C   UNL     1     -10.298  54.290  52.075  0.00  0.00    +0.000 A 
ATOM      2  C   UNL     1      -8.901  54.825  52.017  0.00  0.00    +0.000 A 
ATOM      3  C   UNL     1     -10.571  53.196  52.806  0.00  0.00    +0.000 A 
ATOM      4  O   UNL     1      -8.738  55.949  51.532  0.00  0.00    +0.000 OA
ATOM      5  N   UNL     1      -7.859  54.012  52.509  0.00  0.00    +0.000 N 
ATOM      6  C   UNL     1      -9.509  52.524  53.565  0.00  0.00    +0.000 A 
ATOM      7  C   UNL     1      -8.168  52.923  53.400  0.00  0.00    +0.000 A 
ATOM      8  C   UNL     1      -9.831  51.538  54.517  0.00  0.00    +0.000 A 
ATOM      9  C   UNL     1      -7.185  52.295  54.183  0.00  0.00    +0.000 A 
ATOM     10  C   UNL     1      -8.846  50.962  55.317  0.00  0.00    +0.000 A 
ATOM     11  C   UNL     1      -7.522  51.336  55.143  0.00  0.00    +0.000 A 
ENDROOT
BRANCH   1  17
ATOM     12  S   UNL     1     -13.508  56.487  51.525  0.00  0.00    +0.000 S 
ATOM     13  O   UNL     1     -13.322  57.849  51.976  0.00  0.00    +0.000 OA
ATOM     14  O   UNL     1     -14.749  55.782  51.752  0.00  0.00    +0.000 OA
ATOM     15  N   UNL     1     -12.306  55.568  52.122  0.00  0.00    +0.000 N 
ATOM     16  C   UNL     1     -13.307  56.543  49.766  0.00  0.00    +0.000 A 
ATOM     17  C   UNL     1     -11.412  55.029  51.350  0.00  0.00    +0.000 C 
ATOM     18  C   UNL     1     -12.247  55.854  49.197  0.00  0.00    +0.000 A 
ATOM     19  C   UNL     1     -14.205  57.300  48.996  0.00  0.00    +0.000 A 
ATOM     20  N   UNL     1     -11.390  55.068  49.976  0.00  0.00    +0.000 N 
ATOM     21  C   UNL     1     -12.101  55.908  47.808  0.00  0.00    +0.000 A 
ATOM     22  C   UNL     1     -14.042  57.354  47.615  0.00  0.00    +0.000 A 
ATOM     23  C   UNL     1     -12.990  56.659  47.019  0.00  0.00    +0.000 A 
ATOM     24  H   UNL     1     -12.256  55.418  53.093  0.00  0.00    +0.000 HD
ATOM     25  H   UNL     1     -10.728  54.507  49.510  0.00  0.00    +0.000 HD
ENDBRANCH   1  17
BRANCH   3  26
ATOM     26  O   UNL     1     -11.834  52.644  52.947  0.00  0.00    +0.000 OA
ATOM     27  H   UNL     1     -11.941  51.713  52.956  0.00  0.00    +0.000 HD
ENDBRANCH   3  26
BRANCH   5  28
ATOM     28  N   UNL     1      -6.592  54.647  52.612  0.00  0.00    +0.000 N 
ATOM     29  H   UNL     1      -6.455  55.305  53.332  0.00  0.00    +0.000 HD
BRANCH  28  30
ATOM     30  C   UNL     1      -5.478  54.373  51.700  0.00  0.00    +0.000 C 
ATOM     31  C   UNL     1      -5.660  53.296  50.616  0.00  0.00    +0.000 C 
ATOM     32  C   UNL     1      -4.088  54.229  52.335  0.00  0.00    +0.000 C 
ATOM     33  C   UNL     1      -5.324  51.872  51.042  0.00  0.00    +0.000 C 
ATOM     34  C   UNL     1      -3.801  52.837  52.880  0.00  0.00    +0.000 C 
ATOM     35  C   UNL     1      -4.037  51.733  51.855  0.00  0.00    +0.000 C 
ENDBRANCH  28  30
ENDBRANCH   5  28
TORSDOF 4
ENDMDL
MODEL 6
REMARK VINA RESULT:      -8.3      4.396      6.020
REMARK  Name = 
REMARK  4 active torsions:
REMARK  status: ('A' for Active; 'I' for Inactive)
REMARK    1  A    between atoms: C_6  and  C_10
REMARK    2  A    between atoms: C_14  and  O_18
REMARK    3  A    between atoms: N_17  and  N_20
REMARK    4  A    between atoms: N_20  and  C_23
REMARK                            x       y       z     vdW  Elec       q    Type
REMARK                         _______ _______ _______ _____ _____    ______ ____
ROOT
ATOM      1  C   UNL     1     -12.321  54.289  49.922  0.00  0.00    +0.000 A 
ATOM      2  C   UNL     1     -11.927  53.892  48.533  0.00  0.00    +0.000 A 
ATOM      3  C   UNL     1     -11.820  53.629  50.979  0.00  0.00    +0.000 A 
ATOM      4  O   UNL     1     -12.220  54.660  47.612  0.00  0.00    +0.000 OA
ATOM      5  N   UNL     1     -11.253  52.665  48.361  0.00  0.00    +0.000 N 
ATOM      6  C   UNL     1     -10.871  52.525  50.786  0.00  0.00    +0.000 A 
ATOM      7  C   UNL     1     -10.609  52.044  49.489  0.00  0.00    +0.000 A 
ATOM      8  C   UNL     1     -10.161  51.999  51.883  0.00  0.00    +0.000 A 
ATOM      9  C   UNL     1      -9.654  51.023  49.338  0.00  0.00    +0.000 A 
ATOM     10  C   UNL     1      -9.185  51.021  51.704  0.00  0.00    +0.000 A 
ATOM     11  C   UNL     1      -8.938  50.529  50.431  0.00  0.00    +0.000 A 
ENDROOT
BRANCH   1  17
ATOM     12  S   UNL     1     -15.373  56.403  51.204  0.00  0.00    +0.000 S 
ATOM     13  O   UNL     1     -15.361  56.564  52.642  0.00  0.00    +0.000 OA
ATOM     14  O   UNL     1     -16.603  56.157  50.485  0.00  0.00    +0.000 OA
ATOM     15  N   UNL     1     -14.325  55.228  50.800  0.00  0.00    +0.000 N 
ATOM     16  C   UNL     1     -14.739  57.924  50.555  0.00  0.00    +0.000 A 
ATOM     17  C   UNL     1     -13.245  55.480  50.124  0.00  0.00    +0.000 C 
ATOM     18  C   UNL     1     -13.543  57.898  49.853  0.00  0.00    +0.000 A 
ATOM     19  C   UNL     1     -15.443  59.117  50.787  0.00  0.00    +0.000 A 
ATOM     20  N   UNL     1     -12.879  56.694  49.594  0.00  0.00    +0.000 N 
ATOM     21  C   UNL     1     -13.055  59.106  49.348  0.00  0.00    +0.000 A 
ATOM     22  C   UNL     1     -14.940  60.314  50.287  0.00  0.00    +0.000 A 
ATOM     23  C   UNL     1     -13.746  60.311  49.568  0.00  0.00    +0.000 A 
ATOM     24  H   UNL     1     -14.515  54.302  51.074  0.00  0.00    +0.000 HD
ATOM     25  H   UNL     1     -12.100  56.718  48.992  0.00  0.00    +0.000 HD
ENDBRANCH   1  17
BRANCH   3  26
ATOM     26  O   UNL     1     -12.100  53.940  52.300  0.00  0.00    +0.000 OA
ATOM     27  H   UNL     1     -11.438  54.321  52.842  0.00  0.00    +0.000 HD
ENDBRANCH   3  26
BRANCH   5  28
ATOM     28  N   UNL     1     -10.730  52.438  47.059  0.00  0.00    +0.000 N 
ATOM     29  H   UNL     1      -9.775  52.621  46.900  0.00  0.00    +0.000 HD
BRANCH  28  30
ATOM     30  C   UNL     1     -11.539  51.946  45.940  0.00  0.00    +0.000 C 
ATOM     31  C   UNL     1     -11.355  50.489  45.482  0.00  0.00    +0.000 C 
ATOM     32  C   UNL     1     -11.641  52.860  44.712  0.00  0.00    +0.000 C 
ATOM     33  C   UNL     1     -10.256  50.260  44.451  0.00  0.00    +0.000 C 
ATOM     34  C   UNL     1     -10.474  52.725  43.745  0.00  0.00    +0.000 C 
ATOM     35  C   UNL     1     -10.215  51.285  43.318  0.00  0.00    +0.000 C 
ENDBRANCH  28  30
ENDBRANCH   5  28
TORSDOF 4
ENDMDL
MODEL 7
REMARK VINA RESULT:      -8.3      3.125      8.487
REMARK  Name = 
REMARK  4 active torsions:
REMARK  status: ('A' for Active; 'I' for Inactive)
REMARK    1  A    between atoms: C_6  and  C_10
REMARK    2  A    between atoms: C_14  and  O_18
REMARK    3  A    between atoms: N_17  and  N_20
REMARK    4  A    between atoms: N_20  and  C_23
REMARK                            x       y       z     vdW  Elec       q    Type
REMARK                         _______ _______ _______ _____ _____    ______ ____
ROOT
ATOM      1  C   UNL     1      -9.063  54.448  49.903  0.00  0.00    +0.000 A 
ATOM      2  C   UNL     1     -10.183  55.431  50.041  0.00  0.00    +0.000 A 
ATOM      3  C   UNL     1      -8.936  53.724  48.778  0.00  0.00    +0.000 A 
ATOM      4  O   UNL     1     -10.130  56.233  50.978  0.00  0.00    +0.000 OA
ATOM      5  N   UNL     1     -11.232  55.376  49.099  0.00  0.00    +0.000 N 
ATOM      6  C   UNL     1      -9.882  53.900  47.670  0.00  0.00    +0.000 A 
ATOM      7  C   UNL     1     -11.024  54.705  47.842  0.00  0.00    +0.000 A 
ATOM      8  C   UNL     1      -9.613  53.332  46.409  0.00  0.00    +0.000 A 
ATOM      9  C   UNL     1     -11.879  54.894  46.743  0.00  0.00    +0.000 A 
ATOM     10  C   UNL     1     -10.449  53.571  45.320  0.00  0.00    +0.000 A 
ATOM     11  C   UNL     1     -11.586  54.347  45.490  0.00  0.00    +0.000 A 
ENDROOT
BRANCH   1  17
ATOM     12  S   UNL     1      -7.599  54.016  53.522  0.00  0.00    +0.000 S 
ATOM     13  O   UNL     1      -7.920  52.724  54.091  0.00  0.00    +0.000 OA
ATOM     14  O   UNL     1      -7.639  55.220  54.321  0.00  0.00    +0.000 OA
ATOM     15  N   UNL     1      -8.538  54.261  52.217  0.00  0.00    +0.000 N 
ATOM     16  C   UNL     1      -5.928  53.877  52.954  0.00  0.00    +0.000 A 
ATOM     17  C   UNL     1      -8.039  54.320  51.020  0.00  0.00    +0.000 C 
ATOM     18  C   UNL     1      -5.678  53.991  51.595  0.00  0.00    +0.000 A 
ATOM     19  C   UNL     1      -4.904  53.632  53.883  0.00  0.00    +0.000 A 
ATOM     20  N   UNL     1      -6.705  54.279  50.689  0.00  0.00    +0.000 N 
ATOM     21  C   UNL     1      -4.354  53.878  51.161  0.00  0.00    +0.000 A 
ATOM     22  C   UNL     1      -3.592  53.513  53.436  0.00  0.00    +0.000 A 
ATOM     23  C   UNL     1      -3.314  53.635  52.075  0.00  0.00    +0.000 A 
ATOM     24  H   UNL     1      -9.508  54.367  52.339  0.00  0.00    +0.000 HD
ATOM     25  H   UNL     1      -6.457  54.466  49.754  0.00  0.00    +0.000 HD
ENDBRANCH   1  17
BRANCH   3  26
ATOM     26  O   UNL     1      -7.918  52.814  48.544  0.00  0.00    +0.000 OA
ATOM     27  H   UNL     1      -7.497  52.786  47.707  0.00  0.00    +0.000 HD
ENDBRANCH   3  26
BRANCH   5  28
ATOM     28  N   UNL     1     -12.158  56.453  49.160  0.00  0.00    +0.000 N 
ATOM     29  H   UNL     1     -11.874  57.334  48.822  0.00  0.00    +0.000 HD
BRANCH  28  30
ATOM     30  C   UNL     1     -13.514  56.320  49.701  0.00  0.00    +0.000 C 
ATOM     31  C   UNL     1     -14.478  57.513  49.576  0.00  0.00    +0.000 C 
ATOM     32  C   UNL     1     -13.637  55.708  51.102  0.00  0.00    +0.000 C 
ATOM     33  C   UNL     1     -14.405  58.536  50.703  0.00  0.00    +0.000 C 
ATOM     34  C   UNL     1     -13.434  56.707  52.232  0.00  0.00    +0.000 C 
ATOM     35  C   UNL     1     -14.324  57.939  52.107  0.00  0.00    +0.000 C 
ENDBRANCH  28  30
ENDBRANCH   5  28
TORSDOF 4
ENDMDL
MODEL 8
REMARK VINA RESULT:      -8.3      4.591      6.675
REMARK  Name = 
REMARK  4 active torsions:
REMARK  status: ('A' for Active; 'I' for Inactive)
REMARK    1  A    between atoms: C_6  and  C_10
REMARK    2  A    between atoms: C_14  and  O_18
REMARK    3  A    between atoms: N_17  and  N_20
REMARK    4  A    between atoms: N_20  and  C_23
REMARK                            x       y       z     vdW  Elec       q    Type
REMARK                         _______ _______ _______ _____ _____    ______ ____
ROOT
ATOM      1  C   UNL     1     -10.976  55.545  48.497  0.00  0.00    +0.000 A 
ATOM      2  C   UNL     1     -11.238  55.064  47.104  0.00  0.00    +0.000 A 
ATOM      3  C   UNL     1      -9.757  55.399  49.042  0.00  0.00    +0.000 A 
ATOM      4  O   UNL     1     -12.289  55.421  46.562  0.00  0.00    +0.000 OA
ATOM      5  N   UNL     1     -10.276  54.229  46.499  0.00  0.00    +0.000 N 
ATOM      6  C   UNL     1      -8.667  54.785  48.274  0.00  0.00    +0.000 A 
ATOM      7  C   UNL     1      -8.936  54.194  47.024  0.00  0.00    +0.000 A 
ATOM      8  C   UNL     1      -7.341  54.854  48.743  0.00  0.00    +0.000 A 
ATOM      9  C   UNL     1      -7.859  53.663  46.293  0.00  0.00    +0.000 A 
ATOM     10  C   UNL     1      -6.283  54.364  47.979  0.00  0.00    +0.000 A 
ATOM     11  C   UNL     1      -6.544  53.762  46.758  0.00  0.00    +0.000 A 
ENDROOT
BRANCH   1  17
ATOM     12  S   UNL     1     -13.577  56.300  51.342  0.00  0.00    +0.000 S 
ATOM     13  O   UNL     1     -12.935  56.606  52.602  0.00  0.00    +0.000 OA
ATOM     14  O   UNL     1     -14.768  55.483  51.284  0.00  0.00    +0.000 OA
ATOM     15  N   UNL     1     -12.478  55.640  50.341  0.00  0.00    +0.000 N 
ATOM     16  C   UNL     1     -14.041  57.867  50.659  0.00  0.00    +0.000 A 
ATOM     17  C   UNL     1     -12.084  56.249  49.265  0.00  0.00    +0.000 C 
ATOM     18  C   UNL     1     -13.455  58.272  49.469  0.00  0.00    +0.000 A 
ATOM     19  C   UNL     1     -14.967  58.669  51.346  0.00  0.00    +0.000 A 
ATOM     20  N   UNL     1     -12.569  57.439  48.776  0.00  0.00    +0.000 N 
ATOM     21  C   UNL     1     -13.831  59.511  48.944  0.00  0.00    +0.000 A 
ATOM     22  C   UNL     1     -15.325  59.904  50.816  0.00  0.00    +0.000 A 
ATOM     23  C   UNL     1     -14.757  60.328  49.615  0.00  0.00    +0.000 A 
ATOM     24  H   UNL     1     -12.104  54.756  50.557  0.00  0.00    +0.000 HD
ATOM     25  H   UNL     1     -12.274  57.725  47.881  0.00  0.00    +0.000 HD
ENDBRANCH   1  17
BRANCH   3  26
ATOM     26  O   UNL     1      -9.409  55.839  50.309  0.00  0.00    +0.000 OA
ATOM     27  H   UNL     1      -9.734  55.391  51.066  0.00  0.00    +0.000 HD
ENDBRANCH   3  26
BRANCH   5  28
ATOM     28  N   UNL     1     -10.480  53.970  45.116  0.00  0.00    +0.000 N 
ATOM     29  H   UNL     1     -10.176  54.644  44.465  0.00  0.00    +0.000 HD
BRANCH  28  30
ATOM     30  C   UNL     1     -11.122  52.754  44.610  0.00  0.00    +0.000 C 
ATOM     31  C   UNL     1     -12.192  52.069  45.479  0.00  0.00    +0.000 C 
ATOM     32  C   UNL     1     -10.197  51.689  44.005  0.00  0.00    +0.000 C 
ATOM     33  C   UNL     1     -11.666  51.061  46.495  0.00  0.00    +0.000 C 
ATOM     34  C   UNL     1      -9.568  50.762  45.035  0.00  0.00    +0.000 C 
ATOM     35  C   UNL     1     -10.591  50.116  45.962  0.00  0.00    +0.000 C 
ENDBRANCH  28  30
ENDBRANCH   5  28
TORSDOF 4
ENDMDL
MODEL 9
REMARK VINA RESULT:      -8.0      2.148      2.846
REMARK  Name = 
REMARK  4 active torsions:
REMARK  status: ('A' for Active; 'I' for Inactive)
REMARK    1  A    between atoms: C_6  and  C_10
REMARK    2  A    between atoms: C_14  and  O_18
REMARK    3  A    between atoms: N_17  and  N_20
REMARK    4  A    between atoms: N_20  and  C_23
REMARK                            x       y       z     vdW  Elec       q    Type
REMARK                         _______ _______ _______ _____ _____    ______ ____
ROOT
ATOM      1  C   UNL     1      -9.329  55.352  51.267  0.00  0.00    +0.000 A 
ATOM      2  C   UNL     1      -8.198  55.579  50.313  0.00  0.00    +0.000 A 
ATOM      3  C   UNL     1      -9.079  54.986  52.535  0.00  0.00    +0.000 A 
ATOM      4  O   UNL     1      -8.455  56.134  49.240  0.00  0.00    +0.000 OA
ATOM      5  N   UNL     1      -6.912  55.141  50.693  0.00  0.00    +0.000 N 
ATOM      6  C   UNL     1      -7.697  54.820  53.002  0.00  0.00    +0.000 A 
ATOM      7  C   UNL     1      -6.632  54.882  52.082  0.00  0.00    +0.000 A 
ATOM      8  C   UNL     1      -7.424  54.680  54.376  0.00  0.00    +0.000 A 
ATOM      9  C   UNL     1      -5.320  54.773  52.573  0.00  0.00    +0.000 A 
ATOM     10  C   UNL     1      -6.113  54.622  54.846  0.00  0.00    +0.000 A 
ATOM     11  C   UNL     1      -5.062  54.661  53.942  0.00  0.00    +0.000 A 
ENDROOT
BRANCH   1  17
ATOM     12  S   UNL     1     -12.512  55.303  48.965  0.00  0.00    +0.000 S 
ATOM     13  O   UNL     1     -12.997  53.960  48.732  0.00  0.00    +0.000 OA
ATOM     14  O   UNL     1     -12.489  56.289  47.908  0.00  0.00    +0.000 OA
ATOM     15  N   UNL     1     -11.013  55.217  49.589  0.00  0.00    +0.000 N 
ATOM     16  C   UNL     1     -13.569  55.974  50.217  0.00  0.00    +0.000 A 
ATOM     17  C   UNL     1     -10.757  55.597  50.804  0.00  0.00    +0.000 C 
ATOM     18  C   UNL     1     -13.016  56.305  51.445  0.00  0.00    +0.000 A 
ATOM     19  C   UNL     1     -14.939  56.130  49.949  0.00  0.00    +0.000 A 
ATOM     20  N   UNL     1     -11.641  56.183  51.678  0.00  0.00    +0.000 N 
ATOM     21  C   UNL     1     -13.862  56.831  52.424  0.00  0.00    +0.000 A 
ATOM     22  C   UNL     1     -15.772  56.647  50.936  0.00  0.00    +0.000 A 
ATOM     23  C   UNL     1     -15.236  56.998  52.175  0.00  0.00    +0.000 A 
ATOM     24  H   UNL     1     -10.281  54.870  49.030  0.00  0.00    +0.000 HD
ATOM     25  H   UNL     1     -11.283  56.542  52.523  0.00  0.00    +0.000 HD
ENDBRANCH   1  17
BRANCH   3  26
ATOM     26  O   UNL     1     -10.054  54.782  53.497  0.00  0.00    +0.000 OA
ATOM     27  H   UNL     1     -10.668  54.081  53.401  0.00  0.00    +0.000 HD
ENDBRANCH   3  26
BRANCH   5  28
ATOM     28  N   UNL     1      -5.852  55.560  49.844  0.00  0.00    +0.000 N 
ATOM     29  H   UNL     1      -5.520  56.483  49.932  0.00  0.00    +0.000 HD
BRANCH  28  30
ATOM     30  C   UNL     1      -5.231  54.689  48.842  0.00  0.00    +0.000 C 
ATOM     31  C   UNL     1      -6.100  54.152  47.691  0.00  0.00    +0.000 C 
ATOM     32  C   UNL     1      -4.332  53.564  49.372  0.00  0.00    +0.000 C 
ATOM     33  C   UNL     1      -6.845  52.855  47.982  0.00  0.00    +0.000 C 
ATOM     34  C   UNL     1      -5.091  52.312  49.786  0.00  0.00    +0.000 C 
ATOM     35  C   UNL     1      -6.017  51.786  48.696  0.00  0.00    +0.000 C 
ENDBRANCH  28  30
ENDBRANCH   5  28
TORSDOF 4
ENDMDL
