MODEL 1
REMARK VINA RESULT:      -9.1      0.000      0.000
REMARK  Name = 
REMARK  5 active torsions:
REMARK  status: ('A' for Active; 'I' for Inactive)
REMARK    1  A    between atoms: C_6  and  C_10
REMARK    2  A    between atoms: C_14  and  O_18
REMARK    3  A    between atoms: N_17  and  N_20
REMARK    4  A    between atoms: N_20  and  C_23
REMARK    5  A    between atoms: C_23  and  C_26
REMARK                            x       y       z     vdW  Elec       q    Type
REMARK                         _______ _______ _______ _____ _____    ______ ____
ROOT
ATOM      1  C   UNL     1      -9.536  54.117  50.719  0.00  0.00    +0.000 A 
ATOM      2  C   UNL     1     -10.775  54.470  51.471  0.00  0.00    +0.000 A 
ATOM      3  C   UNL     1      -9.480  54.263  49.385  0.00  0.00    +0.000 A 
ATOM      4  O   UNL     1     -10.741  54.271  52.688  0.00  0.00    +0.000 OA
ATOM      5  N   UNL     1     -11.875  54.969  50.749  0.00  0.00    +0.000 N 
ATOM      6  C   UNL     1     -10.599  54.865  48.654  0.00  0.00    +0.000 A 
ATOM      7  C   UNL     1     -11.783  55.210  49.333  0.00  0.00    +0.000 A 
ATOM      8  C   UNL     1     -10.482  55.111  47.273  0.00  0.00    +0.000 A 
ATOM      9  C   UNL     1     -12.821  55.808  48.592  0.00  0.00    +0.000 A 
ATOM     10  C   UNL     1     -11.509  55.727  46.565  0.00  0.00    +0.000 A 
ATOM     11  C   UNL     1     -12.675  56.082  47.227  0.00  0.00    +0.000 A 
ENDROOT
BRANCH   1  17
ATOM     12  S   UNL     1      -7.490  51.671  52.998  0.00  0.00    +0.000 S 
ATOM     13  O   UNL     1      -7.272  50.407  52.324  0.00  0.00    +0.000 OA
ATOM     14  O   UNL     1      -7.834  51.703  54.411  0.00  0.00    +0.000 OA
ATOM     15  N   UNL     1      -8.649  52.478  52.210  0.00  0.00    +0.000 N 
ATOM     16  C   UNL     1      -5.996  52.573  52.844  0.00  0.00    +0.000 A 
ATOM     17  C   UNL     1      -8.369  53.510  51.470  0.00  0.00    +0.000 C 
ATOM     18  C   UNL     1      -5.971  53.650  51.972  0.00  0.00    +0.000 A 
ATOM     19  C   UNL     1      -4.878  52.186  53.585  0.00  0.00    +0.000 A 
ATOM     20  N   UNL     1      -7.125  54.079  51.324  0.00  0.00    +0.000 N 
ATOM     21  C   UNL     1      -4.774  54.357  51.835  0.00  0.00    +0.000 A 
ATOM     22  C   UNL     1      -3.694  52.899  53.441  0.00  0.00    +0.000 A 
ATOM     23  C   UNL     1      -3.639  53.982  52.562  0.00  0.00    +0.000 A 
ATOM     24  H   UNL     1      -9.584  52.182  52.293  0.00  0.00    +0.000 HD
ATOM     25  H   UNL     1      -7.045  54.848  50.715  0.00  0.00    +0.000 HD
ENDBRANCH   1  17
BRANCH   3  26
ATOM     26  O   UNL     1      -8.410  53.872  48.601  0.00  0.00    +0.000 OA
ATOM     27  H   UNL     1      -8.165  54.383  47.854  0.00  0.00    +0.000 HD
ENDBRANCH   3  26
BRANCH   5  28
ATOM     28  N   UNL     1     -13.192  55.069  51.373  0.00  0.00    +0.000 N 
ATOM     29  H   UNL     1     -13.858  54.346  51.308  0.00  0.00    +0.000 HD
BRANCH  28  30
ATOM     30  C   UNL     1     -13.459  56.316  52.104  0.00  0.00    +0.000 C 
BRANCH  30  31
ATOM     31  C   UNL     1     -14.955  56.723  52.105  0.00  0.00    +0.000 C 
ATOM     32  C   UNL     1     -15.532  57.050  50.723  0.00  0.00    +0.000 C 
ATOM     33  C   UNL     1     -15.166  57.926  53.049  0.00  0.00    +0.000 C 
ATOM     34  C   UNL     1     -14.925  58.319  50.135  0.00  0.00    +0.000 C 
ATOM     35  C   UNL     1     -14.607  59.232  52.479  0.00  0.00    +0.000 C 
ATOM     36  C   UNL     1     -15.123  59.510  51.069  0.00  0.00    +0.000 C 
ENDBRANCH  30  31
ENDBRANCH  28  30
ENDBRANCH   5  28
TORSDOF 5
ENDMDL
MODEL 2
REMARK VINA RESULT:      -8.8      2.898      8.233
REMARK  Name = 
REMARK  5 active torsions:
REMARK  status: ('A' for Active; 'I' for Inactive)
REMARK    1  A    between atoms: C_6  and  C_10
REMARK    2  A    between atoms: C_14  and  O_18
REMARK    3  A    between atoms: N_17  and  N_20
REMARK    4  A    between atoms: N_20  and  C_23
REMARK    5  A    between atoms: C_23  and  C_26
REMARK                            x       y       z     vdW  Elec       q    Type
REMARK                         _______ _______ _______ _____ _____    ______ ____
ROOT
ATOM      1  C   UNL     1     -11.294  53.921  51.746  0.00  0.00    +0.000 A 
ATOM      2  C   UNL     1     -10.283  54.065  52.834  0.00  0.00    +0.000 A 
ATOM      3  C   UNL     1     -11.442  52.752  51.100  0.00  0.00    +0.000 A 
ATOM      4  O   UNL     1     -10.199  55.185  53.344  0.00  0.00    +0.000 OA
ATOM      5  N   UNL     1      -9.501  52.945  53.172  0.00  0.00    +0.000 N 
ATOM      6  C   UNL     1     -10.685  51.569  51.519  0.00  0.00    +0.000 A 
ATOM      7  C   UNL     1      -9.724  51.671  52.543  0.00  0.00    +0.000 A 
ATOM      8  C   UNL     1     -10.932  50.327  50.905  0.00  0.00    +0.000 A 
ATOM      9  C   UNL     1      -9.040  50.500  52.926  0.00  0.00    +0.000 A 
ATOM     10  C   UNL     1     -10.265  49.178  51.317  0.00  0.00    +0.000 A 
ATOM     11  C   UNL     1      -9.324  49.265  52.333  0.00  0.00    +0.000 A 
ENDROOT
BRANCH   1  17
ATOM     12  S   UNL     1     -12.805  56.721  49.456  0.00  0.00    +0.000 S 
ATOM     13  O   UNL     1     -13.819  56.171  48.579  0.00  0.00    +0.000 OA
ATOM     14  O   UNL     1     -11.851  57.699  48.958  0.00  0.00    +0.000 OA
ATOM     15  N   UNL     1     -11.948  55.498  50.078  0.00  0.00    +0.000 N 
ATOM     16  C   UNL     1     -13.663  57.506  50.765  0.00  0.00    +0.000 A 
ATOM     17  C   UNL     1     -12.092  55.136  51.319  0.00  0.00    +0.000 C 
ATOM     18  C   UNL     1     -13.653  56.897  52.011  0.00  0.00    +0.000 A 
ATOM     19  C   UNL     1     -14.338  58.705  50.526  0.00  0.00    +0.000 A 
ATOM     20  N   UNL     1     -12.890  55.759  52.250  0.00  0.00    +0.000 N 
ATOM     21  C   UNL     1     -14.355  57.515  53.050  0.00  0.00    +0.000 A 
ATOM     22  C   UNL     1     -15.029  59.310  51.569  0.00  0.00    +0.000 A 
ATOM     23  C   UNL     1     -15.043  58.713  52.830  0.00  0.00    +0.000 A 
ATOM     24  H   UNL     1     -11.306  55.019  49.506  0.00  0.00    +0.000 HD
ATOM     25  H   UNL     1     -12.924  55.370  53.153  0.00  0.00    +0.000 HD
ENDBRANCH   1  17
BRANCH   3  26
ATOM     26  O   UNL     1     -12.285  52.559  50.021  0.00  0.00    +0.000 OA
ATOM     27  H   UNL     1     -11.933  52.294  49.193  0.00  0.00    +0.000 HD
ENDBRANCH   3  26
BRANCH   5  28
ATOM     28  N   UNL     1      -8.321  53.089  54.020  0.00  0.00    +0.000 N 
ATOM     29  H   UNL     1      -8.388  53.211  54.995  0.00  0.00    +0.000 HD
BRANCH  28  30
ATOM     30  C   UNL     1      -7.027  53.040  53.324  0.00  0.00    +0.000 C 
BRANCH  30  31
ATOM     31  C   UNL     1      -6.580  54.411  52.754  0.00  0.00    +0.000 C 
ATOM     32  C   UNL     1      -5.437  54.340  51.733  0.00  0.00    +0.000 C 
ATOM     33  C   UNL     1      -6.177  55.350  53.911  0.00  0.00    +0.000 C 
ATOM     34  C   UNL     1      -4.127  53.891  52.371  0.00  0.00    +0.000 C 
ATOM     35  C   UNL     1      -4.844  54.962  54.555  0.00  0.00    +0.000 C 
ATOM     36  C   UNL     1      -3.730  54.812  53.522  0.00  0.00    +0.000 C 
ENDBRANCH  30  31
ENDBRANCH  28  30
ENDBRANCH   5  28
TORSDOF 5
ENDMDL
MODEL 3
REMARK VINA RESULT:      -8.7      1.857      2.694
REMARK  Name = 
REMARK  5 active torsions:
REMARK  status: ('A' for Active; 'I' for Inactive)
REMARK    1  A    between atoms: C_6  and  C_10
REMARK    2  A    between atoms: C_14  and  O_18
REMARK    3  A    between atoms: N_17  and  N_20
REMARK    4  A    between atoms: N_20  and  C_23
REMARK    5  A    between atoms: C_23  and  C_26
REMARK                            x       y       z     vdW  Elec       q    Type
REMARK                         _______ _______ _______ _____ _____    ______ ____
ROOT
ATOM      1  C   UNL     1      -9.685  54.105  50.574  0.00  0.00    +0.000 A 
ATOM      2  C   UNL     1     -10.914  54.899  50.863  0.00  0.00    +0.000 A 
ATOM      3  C   UNL     1      -9.395  53.723  49.319  0.00  0.00    +0.000 A 
ATOM      4  O   UNL     1     -11.110  55.173  52.050  0.00  0.00    +0.000 OA
ATOM      5  N   UNL     1     -11.754  55.245  49.788  0.00  0.00    +0.000 N 
ATOM      6  C   UNL     1     -10.229  54.164  48.197  0.00  0.00    +0.000 A 
ATOM      7  C   UNL     1     -11.396  54.914  48.435  0.00  0.00    +0.000 A 
ATOM      8  C   UNL     1      -9.852  53.847  46.878  0.00  0.00    +0.000 A 
ATOM      9  C   UNL     1     -12.151  55.334  47.322  0.00  0.00    +0.000 A 
ATOM     10  C   UNL     1     -10.596  54.295  45.792  0.00  0.00    +0.000 A 
ATOM     11  C   UNL     1     -11.742  55.045  46.015  0.00  0.00    +0.000 A 
ENDROOT
BRANCH   1  17
ATOM     12  S   UNL     1      -6.607  53.874  52.991  0.00  0.00    +0.000 S 
ATOM     13  O   UNL     1      -6.531  55.050  53.834  0.00  0.00    +0.000 OA
ATOM     14  O   UNL     1      -5.401  53.304  52.410  0.00  0.00    +0.000 OA
ATOM     15  N   UNL     1      -7.620  54.185  51.769  0.00  0.00    +0.000 N 
ATOM     16  C   UNL     1      -7.313  52.609  53.976  0.00  0.00    +0.000 A 
ATOM     17  C   UNL     1      -8.809  53.660  51.728  0.00  0.00    +0.000 C 
ATOM     18  C   UNL     1      -8.620  52.230  53.712  0.00  0.00    +0.000 A 
ATOM     19  C   UNL     1      -6.558  52.027  54.996  0.00  0.00    +0.000 A 
ATOM     20  N   UNL     1      -9.316  52.750  52.626  0.00  0.00    +0.000 N 
ATOM     21  C   UNL     1      -9.189  51.235  54.511  0.00  0.00    +0.000 A 
ATOM     22  C   UNL     1      -7.136  51.036  55.782  0.00  0.00    +0.000 A 
ATOM     23  C   UNL     1      -8.453  50.643  55.544  0.00  0.00    +0.000 A 
ATOM     24  H   UNL     1      -7.330  54.784  51.043  0.00  0.00    +0.000 HD
ATOM     25  H   UNL     1     -10.242  52.445  52.491  0.00  0.00    +0.000 HD
ENDBRANCH   1  17
BRANCH   3  26
ATOM     26  O   UNL     1      -8.331  52.909  48.976  0.00  0.00    +0.000 OA
ATOM     27  H   UNL     1      -7.619  53.255  48.474  0.00  0.00    +0.000 HD
ENDBRANCH   3  26
BRANCH   5  28
ATOM     28  N   UNL     1     -13.095  55.770  50.030  0.00  0.00    +0.000 N 
ATOM     29  H   UNL     1     -13.886  55.184  50.079  0.00  0.00    +0.000 HD
BRANCH  28  30
ATOM     30  C   UNL     1     -13.189  57.227  50.197  0.00  0.00    +0.000 C 
BRANCH  30  31
ATOM     31  C   UNL     1     -14.647  57.751  50.238  0.00  0.00    +0.000 C 
ATOM     32  C   UNL     1     -14.802  59.177  50.782  0.00  0.00    +0.000 C 
ATOM     33  C   UNL     1     -15.524  56.788  51.067  0.00  0.00    +0.000 C 
ATOM     34  C   UNL     1     -14.459  59.265  52.265  0.00  0.00    +0.000 C 
ATOM     35  C   UNL     1     -15.242  56.872  52.569  0.00  0.00    +0.000 C 
ATOM     36  C   UNL     1     -15.317  58.306  53.087  0.00  0.00    +0.000 C 
ENDBRANCH  30  31
ENDBRANCH  28  30
ENDBRANCH   5  28
TORSDOF 5
ENDMDL
MODEL 4
REMARK VINA RESULT:      -8.7      1.801      2.145
REMARK  Name = 
REMARK  5 active torsions:
REMARK  status: ('A' for Active; 'I' for Inactive)
REMARK    1  A    between atoms: C_6  and  C_10
REMARK    2  A    between atoms: C_14  and  O_18
REMARK    3  A    between atoms: N_17  and  N_20
REMARK    4  A    between atoms: N_20  and  C_23
REMARK    5  A    between atoms: C_23  and  C_26
REMARK                            x       y       z     vdW  Elec       q    Type
REMARK                         _______ _______ _______ _____ _____    ______ ____
ROOT
ATOM      1  C   UNL     1      -9.008  54.839  50.367  0.00  0.00    +0.000 A 
ATOM      2  C   UNL     1     -10.411  54.826  50.874  0.00  0.00    +0.000 A 
ATOM      3  C   UNL     1      -8.753  54.743  49.052  0.00  0.00    +0.000 A 
ATOM      4  O   UNL     1     -10.541  54.886  52.099  0.00  0.00    +0.000 OA
ATOM      5  N   UNL     1     -11.457  54.720  49.939  0.00  0.00    +0.000 N 
ATOM      6  C   UNL     1      -9.852  54.722  48.082  0.00  0.00    +0.000 A 
ATOM      7  C   UNL     1     -11.187  54.708  48.525  0.00  0.00    +0.000 A 
ATOM      8  C   UNL     1      -9.568  54.732  46.703  0.00  0.00    +0.000 A 
ATOM      9  C   UNL     1     -12.208  54.713  47.554  0.00  0.00    +0.000 A 
ATOM     10  C   UNL     1     -10.590  54.764  45.760  0.00  0.00    +0.000 A 
ATOM     11  C   UNL     1     -11.910  54.762  46.187  0.00  0.00    +0.000 A 
ENDROOT
BRANCH   1  17
ATOM     12  S   UNL     1      -6.911  55.801  53.537  0.00  0.00    +0.000 S 
ATOM     13  O   UNL     1      -7.478  55.197  54.727  0.00  0.00    +0.000 OA
ATOM     14  O   UNL     1      -6.423  57.171  53.567  0.00  0.00    +0.000 OA
ATOM     15  N   UNL     1      -8.005  55.715  52.349  0.00  0.00    +0.000 N 
ATOM     16  C   UNL     1      -5.540  54.809  53.089  0.00  0.00    +0.000 A 
ATOM     17  C   UNL     1      -7.867  54.877  51.364  0.00  0.00    +0.000 C 
ATOM     18  C   UNL     1      -5.660  53.995  51.973  0.00  0.00    +0.000 A 
ATOM     19  C   UNL     1      -4.377  54.850  53.860  0.00  0.00    +0.000 A 
ATOM     20  N   UNL     1      -6.788  54.048  51.161  0.00  0.00    +0.000 N 
ATOM     21  C   UNL     1      -4.572  53.189  51.627  0.00  0.00    +0.000 A 
ATOM     22  C   UNL     1      -3.301  54.045  53.504  0.00  0.00    +0.000 A 
ATOM     23  C   UNL     1      -3.400  53.210  52.390  0.00  0.00    +0.000 A 
ATOM     24  H   UNL     1      -8.790  56.309  52.372  0.00  0.00    +0.000 HD
ATOM     25  H   UNL     1      -6.818  53.445  50.384  0.00  0.00    +0.000 HD
ENDBRANCH   1  17
BRANCH   3  26
ATOM     26  O   UNL     1      -7.486  54.653  48.506  0.00  0.00    +0.000 OA
ATOM     27  H   UNL     1      -6.737  54.588  49.067  0.00  0.00    +0.000 HD
ENDBRANCH   3  26
BRANCH   5  28
ATOM     28  N   UNL     1     -12.819  54.423  50.375  0.00  0.00    +0.000 N 
ATOM     29  H   UNL     1     -13.238  53.545  50.222  0.00  0.00    +0.000 HD
BRANCH  28  30
ATOM     30  C   UNL     1     -13.523  55.518  51.058  0.00  0.00    +0.000 C 
BRANCH  30  31
ATOM     31  C   UNL     1     -14.664  56.140  50.213  0.00  0.00    +0.000 C 
ATOM     32  C   UNL     1     -14.211  57.202  49.204  0.00  0.00    +0.000 C 
ATOM     33  C   UNL     1     -15.735  56.743  51.148  0.00  0.00    +0.000 C 
ATOM     34  C   UNL     1     -13.690  58.460  49.892  0.00  0.00    +0.000 C 
ATOM     35  C   UNL     1     -15.270  58.032  51.829  0.00  0.00    +0.000 C 
ATOM     36  C   UNL     1     -14.742  59.054  50.825  0.00  0.00    +0.000 C 
ENDBRANCH  30  31
ENDBRANCH  28  30
ENDBRANCH   5  28
TORSDOF 5
ENDMDL
MODEL 5
REMARK VINA RESULT:      -8.5      3.160      5.837
REMARK  Name = 
REMARK  5 active torsions:
REMARK  status: ('A' for Active; 'I' for Inactive)
REMARK    1  A    between atoms: C_6  and  C_10
REMARK    2  A    between atoms: C_14  and  O_18
REMARK    3  A    between atoms: N_17  and  N_20
REMARK    4  A    between atoms: N_20  and  C_23
REMARK    5  A    between atoms: C_23  and  C_26
REMARK                            x       y       z     vdW  Elec       q    Type
REMARK                         _______ _______ _______ _____ _____    ______ ____
ROOT
ATOM      1  C   UNL     1     -10.062  53.446  49.326  0.00  0.00    +0.000 A 
ATOM      2  C   UNL     1     -11.289  53.748  50.120  0.00  0.00    +0.000 A 
ATOM      3  C   UNL     1      -8.843  53.722  49.819  0.00  0.00    +0.000 A 
ATOM      4  O   UNL     1     -12.362  53.489  49.569  0.00  0.00    +0.000 OA
ATOM      5  N   UNL     1     -11.134  54.317  51.398  0.00  0.00    +0.000 N 
ATOM      6  C   UNL     1      -8.690  54.232  51.184  0.00  0.00    +0.000 A 
ATOM      7  C   UNL     1      -9.827  54.527  51.960  0.00  0.00    +0.000 A 
ATOM      8  C   UNL     1      -7.403  54.412  51.724  0.00  0.00    +0.000 A 
ATOM      9  C   UNL     1      -9.628  54.993  53.275  0.00  0.00    +0.000 A 
ATOM     10  C   UNL     1      -7.229  54.847  53.034  0.00  0.00    +0.000 A 
ATOM     11  C   UNL     1      -8.342  55.129  53.811  0.00  0.00    +0.000 A 
ENDROOT
BRANCH   1  17
ATOM     12  S   UNL     1     -11.327  51.246  46.338  0.00  0.00    +0.000 S 
ATOM     13  O   UNL     1     -12.682  51.609  45.975  0.00  0.00    +0.000 OA
ATOM     14  O   UNL     1     -10.925  49.849  46.381  0.00  0.00    +0.000 OA
ATOM     15  N   UNL     1     -11.001  51.877  47.791  0.00  0.00    +0.000 N 
ATOM     16  C   UNL     1     -10.281  52.015  45.163  0.00  0.00    +0.000 A 
ATOM     17  C   UNL     1     -10.211  52.903  47.920  0.00  0.00    +0.000 C 
ATOM     18  C   UNL     1      -9.532  53.107  45.571  0.00  0.00    +0.000 A 
ATOM     19  C   UNL     1     -10.235  51.524  43.856  0.00  0.00    +0.000 A 
ATOM     20  N   UNL     1      -9.516  53.513  46.902  0.00  0.00    +0.000 N 
ATOM     21  C   UNL     1      -8.712  53.732  44.627  0.00  0.00    +0.000 A 
ATOM     22  C   UNL     1      -9.414  52.154  42.928  0.00  0.00    +0.000 A 
ATOM     23  C   UNL     1      -8.656  53.261  43.311  0.00  0.00    +0.000 A 
ATOM     24  H   UNL     1     -11.407  51.476  48.594  0.00  0.00    +0.000 HD
ATOM     25  H   UNL     1      -8.966  54.296  47.132  0.00  0.00    +0.000 HD
ENDBRANCH   1  17
BRANCH   3  26
ATOM     26  O   UNL     1      -7.663  53.563  49.115  0.00  0.00    +0.000 OA
ATOM     27  H   UNL     1      -7.666  53.126  48.286  0.00  0.00    +0.000 HD
ENDBRANCH   3  26
BRANCH   5  28
ATOM     28  N   UNL     1     -12.279  54.887  52.102  0.00  0.00    +0.000 N 
ATOM     29  H   UNL     1     -12.728  54.415  52.841  0.00  0.00    +0.000 HD
BRANCH  28  30
ATOM     30  C   UNL     1     -12.718  56.211  51.639  0.00  0.00    +0.000 C 
BRANCH  30  31
ATOM     31  C   UNL     1     -14.237  56.288  51.337  0.00  0.00    +0.000 C 
ATOM     32  C   UNL     1     -14.594  56.966  50.008  0.00  0.00    +0.000 C 
ATOM     33  C   UNL     1     -14.962  57.010  52.493  0.00  0.00    +0.000 C 
ATOM     34  C   UNL     1     -14.262  58.454  50.017  0.00  0.00    +0.000 C 
ATOM     35  C   UNL     1     -14.690  58.515  52.516  0.00  0.00    +0.000 C 
ATOM     36  C   UNL     1     -14.969  59.170  51.165  0.00  0.00    +0.000 C 
ENDBRANCH  30  31
ENDBRANCH  28  30
ENDBRANCH   5  28
TORSDOF 5
ENDMDL
MODEL 6
REMARK VINA RESULT:      -8.5      3.730      8.428
REMARK  Name = 
REMARK  5 active torsions:
REMARK  status: ('A' for Active; 'I' for Inactive)
REMARK    1  A    between atoms: C_6  and  C_10
REMARK    2  A    between atoms: C_14  and  O_18
REMARK    3  A    between atoms: N_17  and  N_20
REMARK    4  A    between atoms: N_20  and  C_23
REMARK    5  A    between atoms: C_23  and  C_26
REMARK                            x       y       z     vdW  Elec       q    Type
REMARK                         _______ _______ _______ _____ _____    ______ ____
ROOT
ATOM      1  C   UNL     1     -12.068  54.313  50.123  0.00  0.00    +0.000 A 
ATOM      2  C   UNL     1     -11.751  53.865  48.735  0.00  0.00    +0.000 A 
ATOM      3  C   UNL     1     -11.605  53.634  51.185  0.00  0.00    +0.000 A 
ATOM      4  O   UNL     1     -12.250  54.534  47.827  0.00  0.00    +0.000 OA
ATOM      5  N   UNL     1     -10.947  52.722  48.571  0.00  0.00    +0.000 N 
ATOM      6  C   UNL     1     -10.696  52.498  51.002  0.00  0.00    +0.000 A 
ATOM      7  C   UNL     1     -10.376  52.049  49.707  0.00  0.00    +0.000 A 
ATOM      8  C   UNL     1     -10.132  51.866  52.126  0.00  0.00    +0.000 A 
ATOM      9  C   UNL     1      -9.480  50.969  49.583  0.00  0.00    +0.000 A 
ATOM     10  C   UNL     1      -9.228  50.819  51.981  0.00  0.00    +0.000 A 
ATOM     11  C   UNL     1      -8.897  50.376  50.709  0.00  0.00    +0.000 A 
ENDROOT
BRANCH   1  17
ATOM     12  S   UNL     1     -15.214  56.399  51.184  0.00  0.00    +0.000 S 
ATOM     13  O   UNL     1     -15.254  56.564  52.624  0.00  0.00    +0.000 OA
ATOM     14  O   UNL     1     -16.430  56.111  50.441  0.00  0.00    +0.000 OA
ATOM     15  N   UNL     1     -14.157  55.226  50.834  0.00  0.00    +0.000 N 
ATOM     16  C   UNL     1     -14.594  57.903  50.535  0.00  0.00    +0.000 A 
ATOM     17  C   UNL     1     -12.994  55.497  50.319  0.00  0.00    +0.000 C 
ATOM     18  C   UNL     1     -13.301  57.915  50.037  0.00  0.00    +0.000 A 
ATOM     19  C   UNL     1     -15.402  59.042  50.544  0.00  0.00    +0.000 A 
ATOM     20  N   UNL     1     -12.553  56.746  49.944  0.00  0.00    +0.000 N 
ATOM     21  C   UNL     1     -12.800  59.120  49.537  0.00  0.00    +0.000 A 
ATOM     22  C   UNL     1     -14.892  60.234  50.042  0.00  0.00    +0.000 A 
ATOM     23  C   UNL     1     -13.590  60.275  49.543  0.00  0.00    +0.000 A 
ATOM     24  H   UNL     1     -14.399  54.288  51.014  0.00  0.00    +0.000 HD
ATOM     25  H   UNL     1     -11.640  56.817  49.584  0.00  0.00    +0.000 HD
ENDBRANCH   1  17
BRANCH   3  26
ATOM     26  O   UNL     1     -11.927  53.923  52.498  0.00  0.00    +0.000 OA
ATOM     27  H   UNL     1     -12.103  53.228  53.102  0.00  0.00    +0.000 HD
ENDBRANCH   3  26
BRANCH   5  28
ATOM     28  N   UNL     1     -10.831  52.075  47.266  0.00  0.00    +0.000 N 
ATOM     29  H   UNL     1     -11.505  51.437  46.937  0.00  0.00    +0.000 HD
BRANCH  28  30
ATOM     30  C   UNL     1      -9.646  52.439  46.477  0.00  0.00    +0.000 C 
BRANCH  30  31
ATOM     31  C   UNL     1      -9.934  53.499  45.383  0.00  0.00    +0.000 C 
ATOM     32  C   UNL     1     -11.178  53.219  44.530  0.00  0.00    +0.000 C 
ATOM     33  C   UNL     1      -8.703  53.645  44.462  0.00  0.00    +0.000 C 
ATOM     34  C   UNL     1     -11.004  51.986  43.650  0.00  0.00    +0.000 C 
ATOM     35  C   UNL     1      -8.513  52.447  43.530  0.00  0.00    +0.000 C 
ATOM     36  C   UNL     1      -9.782  52.123  42.745  0.00  0.00    +0.000 C 
ENDBRANCH  30  31
ENDBRANCH  28  30
ENDBRANCH   5  28
TORSDOF 5
ENDMDL
MODEL 7
REMARK VINA RESULT:      -8.4      2.995      8.423
REMARK  Name = 
REMARK  5 active torsions:
REMARK  status: ('A' for Active; 'I' for Inactive)
REMARK    1  A    between atoms: C_6  and  C_10
REMARK    2  A    between atoms: C_14  and  O_18
REMARK    3  A    between atoms: N_17  and  N_20
REMARK    4  A    between atoms: N_20  and  C_23
REMARK    5  A    between atoms: C_23  and  C_26
REMARK                            x       y       z     vdW  Elec       q    Type
REMARK                         _______ _______ _______ _____ _____    ______ ____
ROOT
ATOM      1  C   UNL     1     -10.723  55.717  48.500  0.00  0.00    +0.000 A 
ATOM      2  C   UNL     1      -9.319  55.740  49.004  0.00  0.00    +0.000 A 
ATOM      3  C   UNL     1     -11.009  55.195  47.296  0.00  0.00    +0.000 A 
ATOM      4  O   UNL     1      -9.152  56.269  50.106  0.00  0.00    +0.000 OA
ATOM      5  N   UNL     1      -8.309  55.192  48.193  0.00  0.00    +0.000 N 
ATOM      6  C   UNL     1      -9.964  54.548  46.498  0.00  0.00    +0.000 A 
ATOM      7  C   UNL     1      -8.629  54.552  46.945  0.00  0.00    +0.000 A 
ATOM      8  C   UNL     1     -10.300  53.910  45.289  0.00  0.00    +0.000 A 
ATOM      9  C   UNL     1      -7.664  53.896  46.154  0.00  0.00    +0.000 A 
ATOM     10  C   UNL     1      -9.337  53.244  44.537  0.00  0.00    +0.000 A 
ATOM     11  C   UNL     1      -8.021  53.232  44.975  0.00  0.00    +0.000 A 
ENDROOT
BRANCH   1  17
ATOM     12  S   UNL     1     -13.389  56.248  51.324  0.00  0.00    +0.000 S 
ATOM     13  O   UNL     1     -12.742  56.510  52.594  0.00  0.00    +0.000 OA
ATOM     14  O   UNL     1     -14.551  55.376  51.255  0.00  0.00    +0.000 OA
ATOM     15  N   UNL     1     -12.287  55.651  50.302  0.00  0.00    +0.000 N 
ATOM     16  C   UNL     1     -13.915  57.803  50.712  0.00  0.00    +0.000 A 
ATOM     17  C   UNL     1     -11.812  56.369  49.327  0.00  0.00    +0.000 C 
ATOM     18  C   UNL     1     -13.223  58.351  49.643  0.00  0.00    +0.000 A 
ATOM     19  C   UNL     1     -14.995  58.451  51.314  0.00  0.00    +0.000 A 
ATOM     20  N   UNL     1     -12.218  57.641  48.995  0.00  0.00    +0.000 N 
ATOM     21  C   UNL     1     -13.631  59.600  49.168  0.00  0.00    +0.000 A 
ATOM     22  C   UNL     1     -15.392  59.692  50.829  0.00  0.00    +0.000 A 
ATOM     23  C   UNL     1     -14.707  60.270  49.760  0.00  0.00    +0.000 A 
ATOM     24  H   UNL     1     -11.970  54.726  50.421  0.00  0.00    +0.000 HD
ATOM     25  H   UNL     1     -11.761  58.083  48.243  0.00  0.00    +0.000 HD
ENDBRANCH   1  17
BRANCH   3  26
ATOM     26  O   UNL     1     -12.263  55.218  46.713  0.00  0.00    +0.000 OA
ATOM     27  H   UNL     1     -12.733  56.027  46.645  0.00  0.00    +0.000 HD
ENDBRANCH   3  26
BRANCH   5  28
ATOM     28  N   UNL     1      -6.900  55.429  48.495  0.00  0.00    +0.000 N 
ATOM     29  H   UNL     1      -6.375  56.124  48.035  0.00  0.00    +0.000 HD
BRANCH  28  30
ATOM     30  C   UNL     1      -6.316  54.565  49.531  0.00  0.00    +0.000 C 
BRANCH  30  31
ATOM     31  C   UNL     1      -4.795  54.325  49.350  0.00  0.00    +0.000 C 
ATOM     32  C   UNL     1      -4.409  53.601  48.054  0.00  0.00    +0.000 C 
ATOM     33  C   UNL     1      -4.243  53.541  50.560  0.00  0.00    +0.000 C 
ATOM     34  C   UNL     1      -4.897  52.157  48.038  0.00  0.00    +0.000 C 
ATOM     35  C   UNL     1      -4.675  52.073  50.562  0.00  0.00    +0.000 C 
ATOM     36  C   UNL     1      -4.363  51.381  49.239  0.00  0.00    +0.000 C 
ENDBRANCH  30  31
ENDBRANCH  28  30
ENDBRANCH   5  28
TORSDOF 5
ENDMDL
MODEL 8
REMARK VINA RESULT:      -8.3      3.676      8.542
REMARK  Name = 
REMARK  5 active torsions:
REMARK  status: ('A' for Active; 'I' for Inactive)
REMARK    1  A    between atoms: C_6  and  C_10
REMARK    2  A    between atoms: C_14  and  O_18
REMARK    3  A    between atoms: N_17  and  N_20
REMARK    4  A    between atoms: N_20  and  C_23
REMARK    5  A    between atoms: C_23  and  C_26
REMARK                            x       y       z     vdW  Elec       q    Type
REMARK                         _______ _______ _______ _____ _____    ______ ____
ROOT
ATOM      1  C   UNL     1     -11.463  56.298  48.456  0.00  0.00    +0.000 A 
ATOM      2  C   UNL     1     -10.044  56.162  48.895  0.00  0.00    +0.000 A 
ATOM      3  C   UNL     1     -11.889  55.713  47.324  0.00  0.00    +0.000 A 
ATOM      4  O   UNL     1      -9.741  56.762  49.930  0.00  0.00    +0.000 OA
ATOM      5  N   UNL     1      -9.170  55.397  48.101  0.00  0.00    +0.000 N 
ATOM      6  C   UNL     1     -10.993  54.847  46.552  0.00  0.00    +0.000 A 
ATOM      7  C   UNL     1      -9.648  54.696  46.939  0.00  0.00    +0.000 A 
ATOM      8  C   UNL     1     -11.485  54.154  45.430  0.00  0.00    +0.000 A 
ATOM      9  C   UNL     1      -8.833  53.834  46.178  0.00  0.00    +0.000 A 
ATOM     10  C   UNL     1     -10.672  53.286  44.709  0.00  0.00    +0.000 A 
ATOM     11  C   UNL     1      -9.347  53.121  45.089  0.00  0.00    +0.000 A 
ENDROOT
BRANCH   1  17
ATOM     12  S   UNL     1     -13.613  59.405  49.500  0.00  0.00    +0.000 S 
ATOM     13  O   UNL     1     -14.778  59.530  48.647  0.00  0.00    +0.000 OA
ATOM     14  O   UNL     1     -12.855  60.584  49.889  0.00  0.00    +0.000 OA
ATOM     15  N   UNL     1     -12.574  58.383  48.800  0.00  0.00    +0.000 N 
ATOM     16  C   UNL     1     -14.173  58.678  50.992  0.00  0.00    +0.000 A 
ATOM     17  C   UNL     1     -12.400  57.178  49.259  0.00  0.00    +0.000 C 
ATOM     18  C   UNL     1     -13.836  57.356  51.239  0.00  0.00    +0.000 A 
ATOM     19  C   UNL     1     -14.943  59.431  51.880  0.00  0.00    +0.000 A 
ATOM     20  N   UNL     1     -12.983  56.658  50.391  0.00  0.00    +0.000 N 
ATOM     21  C   UNL     1     -14.300  56.770  52.420  0.00  0.00    +0.000 A 
ATOM     22  C   UNL     1     -15.395  58.836  53.052  0.00  0.00    +0.000 A 
ATOM     23  C   UNL     1     -15.079  57.504  53.321  0.00  0.00    +0.000 A 
ATOM     24  H   UNL     1     -12.063  58.679  48.012  0.00  0.00    +0.000 HD
ATOM     25  H   UNL     1     -12.782  55.722  50.617  0.00  0.00    +0.000 HD
ENDBRANCH   1  17
BRANCH   3  26
ATOM     26  O   UNL     1     -13.158  55.866  46.796  0.00  0.00    +0.000 OA
ATOM     27  H   UNL     1     -13.291  56.412  46.046  0.00  0.00    +0.000 HD
ENDBRANCH   3  26
BRANCH   5  28
ATOM     28  N   UNL     1      -7.727  55.451  48.317  0.00  0.00    +0.000 N 
ATOM     29  H   UNL     1      -7.150  56.094  47.842  0.00  0.00    +0.000 HD
BRANCH  28  30
ATOM     30  C   UNL     1      -7.190  54.488  49.290  0.00  0.00    +0.000 C 
BRANCH  30  31
ATOM     31  C   UNL     1      -5.684  54.184  49.091  0.00  0.00    +0.000 C 
ATOM     32  C   UNL     1      -5.328  53.563  47.734  0.00  0.00    +0.000 C 
ATOM     33  C   UNL     1      -5.185  53.261  50.224  0.00  0.00    +0.000 C 
ATOM     34  C   UNL     1      -5.893  52.156  47.582  0.00  0.00    +0.000 C 
ATOM     35  C   UNL     1      -5.695  51.825  50.088  0.00  0.00    +0.000 C 
ATOM     36  C   UNL     1      -5.411  51.243  48.706  0.00  0.00    +0.000 C 
ENDBRANCH  30  31
ENDBRANCH  28  30
ENDBRANCH   5  28
TORSDOF 5
ENDMDL
MODEL 9
REMARK VINA RESULT:      -8.3      2.630      5.454
REMARK  Name = 
REMARK  5 active torsions:
REMARK  status: ('A' for Active; 'I' for Inactive)
REMARK    1  A    between atoms: C_6  and  C_10
REMARK    2  A    between atoms: C_14  and  O_18
REMARK    3  A    between atoms: N_17  and  N_20
REMARK    4  A    between atoms: N_20  and  C_23
REMARK    5  A    between atoms: C_23  and  C_26
REMARK                            x       y       z     vdW  Elec       q    Type
REMARK                         _______ _______ _______ _____ _____    ______ ____
ROOT
ATOM      1  C   UNL     1     -10.206  54.932  50.734  0.00  0.00    +0.000 A 
ATOM      2  C   UNL     1      -9.833  54.831  49.293  0.00  0.00    +0.000 A 
ATOM      3  C   UNL     1     -11.343  55.542  51.105  0.00  0.00    +0.000 A 
ATOM      4  O   UNL     1      -8.754  54.282  49.054  0.00  0.00    +0.000 OA
ATOM      5  N   UNL     1     -10.707  55.379  48.337  0.00  0.00    +0.000 N 
ATOM      6  C   UNL     1     -12.288  56.032  50.098  0.00  0.00    +0.000 A 
ATOM      7  C   UNL     1     -11.968  55.951  48.730  0.00  0.00    +0.000 A 
ATOM      8  C   UNL     1     -13.525  56.569  50.501  0.00  0.00    +0.000 A 
ATOM      9  C   UNL     1     -12.919  56.413  47.798  0.00  0.00    +0.000 A 
ATOM     10  C   UNL     1     -14.462  56.994  49.565  0.00  0.00    +0.000 A 
ATOM     11  C   UNL     1     -14.160  56.909  48.213  0.00  0.00    +0.000 A 
ENDROOT
BRANCH   1  17
ATOM     12  S   UNL     1      -7.022  54.668  53.007  0.00  0.00    +0.000 S 
ATOM     13  O   UNL     1      -7.033  55.702  54.022  0.00  0.00    +0.000 OA
ATOM     14  O   UNL     1      -5.790  54.328  52.313  0.00  0.00    +0.000 OA
ATOM     15  N   UNL     1      -8.112  55.052  51.875  0.00  0.00    +0.000 N 
ATOM     16  C   UNL     1      -7.553  53.198  53.798  0.00  0.00    +0.000 A 
ATOM     17  C   UNL     1      -9.241  54.413  51.781  0.00  0.00    +0.000 C 
ATOM     18  C   UNL     1      -8.824  52.725  53.511  0.00  0.00    +0.000 A 
ATOM     19  C   UNL     1      -6.700  52.552  54.696  0.00  0.00    +0.000 A 
ATOM     20  N   UNL     1      -9.614  53.326  52.538  0.00  0.00    +0.000 N 
ATOM     21  C   UNL     1      -9.253  51.563  54.158  0.00  0.00    +0.000 A 
ATOM     22  C   UNL     1      -7.139  51.396  55.330  0.00  0.00    +0.000 A 
ATOM     23  C   UNL     1      -8.418  50.903  55.066  0.00  0.00    +0.000 A 
ATOM     24  H   UNL     1      -7.916  55.782  51.244  0.00  0.00    +0.000 HD
ATOM     25  H   UNL     1     -10.509  52.947  52.380  0.00  0.00    +0.000 HD
ENDBRANCH   1  17
BRANCH   3  26
ATOM     26  O   UNL     1     -11.718  55.763  52.418  0.00  0.00    +0.000 OA
ATOM     27  H   UNL     1     -12.584  56.063  52.615  0.00  0.00    +0.000 HD
ENDBRANCH   3  26
BRANCH   5  28
ATOM     28  N   UNL     1     -10.278  55.562  46.953  0.00  0.00    +0.000 N 
ATOM     29  H   UNL     1     -10.124  56.455  46.565  0.00  0.00    +0.000 HD
BRANCH  28  30
ATOM     30  C   UNL     1     -10.088  54.328  46.176  0.00  0.00    +0.000 C 
BRANCH  30  31
ATOM     31  C   UNL     1     -11.417  53.682  45.708  0.00  0.00    +0.000 C 
ATOM     32  C   UNL     1     -11.975  52.608  46.650  0.00  0.00    +0.000 C 
ATOM     33  C   UNL     1     -11.237  53.084  44.296  0.00  0.00    +0.000 C 
ATOM     34  C   UNL     1     -11.090  51.366  46.691  0.00  0.00    +0.000 C 
ATOM     35  C   UNL     1     -10.388  51.811  44.295  0.00  0.00    +0.000 C 
ATOM     36  C   UNL     1     -10.901  50.778  45.295  0.00  0.00    +0.000 C 
ENDBRANCH  30  31
ENDBRANCH  28  30
ENDBRANCH   5  28
TORSDOF 5
ENDMDL
