MODEL 1
REMARK VINA RESULT:      -8.9      0.000      0.000
REMARK  Name = 
REMARK  5 active torsions:
REMARK  status: ('A' for Active; 'I' for Inactive)
REMARK    1  A    between atoms: C_6  and  C_10
REMARK    2  A    between atoms: C_14  and  O_18
REMARK    3  A    between atoms: N_17  and  O_20
REMARK    4  A    between atoms: O_20  and  C_23
REMARK    5  A    between atoms: C_23  and  C_26
REMARK                            x       y       z     vdW  Elec       q    Type
REMARK                         _______ _______ _______ _____ _____    ______ ____
ROOT
ATOM      1  C   UNL     1     -10.486  55.135  50.901  0.00  0.00    +0.000 A 
ATOM      2  C   UNL     1     -10.227  54.974  49.440  0.00  0.00    +0.000 A 
ATOM      3  C   UNL     1     -11.654  55.650  51.325  0.00  0.00    +0.000 A 
ATOM      4  O   UNL     1      -9.142  54.483  49.113  0.00  0.00    +0.000 OA
ATOM      5  N   UNL     1     -11.214  55.364  48.569  0.00  0.00    +0.000 N 
ATOM      6  C   UNL     1     -12.661  56.098  50.356  0.00  0.00    +0.000 A 
ATOM      7  C   UNL     1     -12.426  55.972  48.981  0.00  0.00    +0.000 A 
ATOM      8  C   UNL     1     -13.850  56.709  50.772  0.00  0.00    +0.000 A 
ATOM      9  N   UNL     1     -13.306  56.419  48.049  0.00  0.00    +0.000 NA
ATOM     10  C   UNL     1     -14.750  57.186  49.827  0.00  0.00    +0.000 A 
ATOM     11  C   UNL     1     -14.433  57.022  48.492  0.00  0.00    +0.000 A 
ENDROOT
BRANCH   1  17
ATOM     12  S   UNL     1      -7.045  54.974  52.777  0.00  0.00    +0.000 S 
ATOM     13  O   UNL     1      -6.930  55.988  53.807  0.00  0.00    +0.000 OA
ATOM     14  O   UNL     1      -5.921  54.674  51.914  0.00  0.00    +0.000 OA
ATOM     15  N   UNL     1      -8.301  55.375  51.836  0.00  0.00    +0.000 N 
ATOM     16  C   UNL     1      -7.435  53.477  53.604  0.00  0.00    +0.000 A 
ATOM     17  C   UNL     1      -9.414  54.703  51.881  0.00  0.00    +0.000 C 
ATOM     18  C   UNL     1      -8.716  52.969  53.458  0.00  0.00    +0.000 A 
ATOM     19  C   UNL     1      -6.462  52.829  54.368  0.00  0.00    +0.000 A 
ATOM     20  N   UNL     1      -9.681  53.638  52.709  0.00  0.00    +0.000 N 
ATOM     21  C   UNL     1      -9.048  51.804  54.154  0.00  0.00    +0.000 A 
ATOM     22  C   UNL     1      -6.799  51.652  55.032  0.00  0.00    +0.000 A 
ATOM     23  C   UNL     1      -8.094  51.143  54.933  0.00  0.00    +0.000 A 
ATOM     24  H   UNL     1      -8.220  56.139  51.222  0.00  0.00    +0.000 HD
ATOM     25  H   UNL     1     -10.612  53.329  52.777  0.00  0.00    +0.000 HD
ENDBRANCH   1  17
BRANCH   3  26
ATOM     26  O   UNL     1     -11.999  55.824  52.651  0.00  0.00    +0.000 OA
ATOM     27  H   UNL     1     -11.615  56.519  53.149  0.00  0.00    +0.000 HD
ENDBRANCH   3  26
BRANCH   5  28
ATOM     28  O   UNL     1     -10.935  55.439  47.173  0.00  0.00    +0.000 OA
BRANCH  28  29
ATOM     29  C   UNL     1     -11.466  54.324  46.442  0.00  0.00    +0.000 C 
BRANCH  29  30
ATOM     30  C   UNL     1     -10.491  53.818  45.406  0.00  0.00    +0.000 A 
ATOM     31  C   UNL     1     -10.960  53.049  44.325  0.00  0.00    +0.000 A 
ATOM     32  C   UNL     1      -9.127  54.125  45.475  0.00  0.00    +0.000 A 
ATOM     33  C   UNL     1     -10.080  52.566  43.357  0.00  0.00    +0.000 A 
ATOM     34  C   UNL     1      -8.248  53.641  44.507  0.00  0.00    +0.000 A 
ATOM     35  C   UNL     1      -8.722  52.857  43.455  0.00  0.00    +0.000 A 
ENDBRANCH  29  30
ENDBRANCH  28  29
ENDBRANCH   5  28
TORSDOF 5
ENDMDL
MODEL 2
REMARK VINA RESULT:      -8.9      2.072      5.549
REMARK  Name = 
REMARK  5 active torsions:
REMARK  status: ('A' for Active; 'I' for Inactive)
REMARK    1  A    between atoms: C_6  and  C_10
REMARK    2  A    between atoms: C_14  and  O_18
REMARK    3  A    between atoms: N_17  and  O_20
REMARK    4  A    between atoms: O_20  and  C_23
REMARK    5  A    between atoms: C_23  and  C_26
REMARK                            x       y       z     vdW  Elec       q    Type
REMARK                         _______ _______ _______ _____ _____    ______ ____
ROOT
ATOM      1  C   UNL     1      -9.005  54.478  49.775  0.00  0.00    +0.000 A 
ATOM      2  C   UNL     1     -10.032  55.558  49.858  0.00  0.00    +0.000 A 
ATOM      3  C   UNL     1      -8.897  53.736  48.659  0.00  0.00    +0.000 A 
ATOM      4  O   UNL     1     -10.074  56.214  50.903  0.00  0.00    +0.000 OA
ATOM      5  N   UNL     1     -10.840  55.756  48.766  0.00  0.00    +0.000 N 
ATOM      6  C   UNL     1      -9.816  53.951  47.535  0.00  0.00    +0.000 A 
ATOM      7  C   UNL     1     -10.797  54.948  47.603  0.00  0.00    +0.000 A 
ATOM      8  C   UNL     1      -9.773  53.139  46.395  0.00  0.00    +0.000 A 
ATOM      9  N   UNL     1     -11.699  55.149  46.609  0.00  0.00    +0.000 NA
ATOM     10  C   UNL     1     -10.703  53.325  45.379  0.00  0.00    +0.000 A 
ATOM     11  C   UNL     1     -11.638  54.330  45.534  0.00  0.00    +0.000 A 
ENDROOT
BRANCH   1  17
ATOM     12  S   UNL     1      -7.810  54.102  53.492  0.00  0.00    +0.000 S 
ATOM     13  O   UNL     1      -8.084  52.783  54.029  0.00  0.00    +0.000 OA
ATOM     14  O   UNL     1      -8.032  55.283  54.301  0.00  0.00    +0.000 OA
ATOM     15  N   UNL     1      -8.673  54.263  52.132  0.00  0.00    +0.000 N 
ATOM     16  C   UNL     1      -6.108  54.115  53.068  0.00  0.00    +0.000 A 
ATOM     17  C   UNL     1      -8.096  54.247  50.965  0.00  0.00    +0.000 C 
ATOM     18  C   UNL     1      -5.774  54.114  51.723  0.00  0.00    +0.000 A 
ATOM     19  C   UNL     1      -5.139  54.140  54.073  0.00  0.00    +0.000 A 
ATOM     20  N   UNL     1      -6.752  54.069  50.733  0.00  0.00    +0.000 N 
ATOM     21  C   UNL     1      -4.421  54.075  51.378  0.00  0.00    +0.000 A 
ATOM     22  C   UNL     1      -3.794  54.130  53.714  0.00  0.00    +0.000 A 
ATOM     23  C   UNL     1      -3.434  54.089  52.367  0.00  0.00    +0.000 A 
ATOM     24  H   UNL     1      -9.649  54.374  52.188  0.00  0.00    +0.000 HD
ATOM     25  H   UNL     1      -6.463  53.899  49.808  0.00  0.00    +0.000 HD
ENDBRANCH   1  17
BRANCH   3  26
ATOM     26  O   UNL     1      -7.972  52.727  48.474  0.00  0.00    +0.000 OA
ATOM     27  H   UNL     1      -7.451  52.430  49.195  0.00  0.00    +0.000 HD
ENDBRANCH   3  26
BRANCH   5  28
ATOM     28  O   UNL     1     -11.973  56.616  48.873  0.00  0.00    +0.000 OA
BRANCH  28  29
ATOM     29  C   UNL     1     -13.036  56.036  49.641  0.00  0.00    +0.000 C 
BRANCH  29  30
ATOM     30  C   UNL     1     -13.590  57.011  50.654  0.00  0.00    +0.000 A 
ATOM     31  C   UNL     1     -14.176  58.212  50.215  0.00  0.00    +0.000 A 
ATOM     32  C   UNL     1     -13.563  56.732  52.026  0.00  0.00    +0.000 A 
ATOM     33  C   UNL     1     -14.691  59.131  51.130  0.00  0.00    +0.000 A 
ATOM     34  C   UNL     1     -14.077  57.653  52.939  0.00  0.00    +0.000 A 
ATOM     35  C   UNL     1     -14.633  58.852  52.493  0.00  0.00    +0.000 A 
ENDBRANCH  29  30
ENDBRANCH  28  29
ENDBRANCH   5  28
TORSDOF 5
ENDMDL
MODEL 3
REMARK VINA RESULT:      -8.8      2.837      7.488
REMARK  Name = 
REMARK  5 active torsions:
REMARK  status: ('A' for Active; 'I' for Inactive)
REMARK    1  A    between atoms: C_6  and  C_10
REMARK    2  A    between atoms: C_14  and  O_18
REMARK    3  A    between atoms: N_17  and  O_20
REMARK    4  A    between atoms: O_20  and  C_23
REMARK    5  A    between atoms: C_23  and  C_26
REMARK                            x       y       z     vdW  Elec       q    Type
REMARK                         _______ _______ _______ _____ _____    ______ ____
ROOT
ATOM      1  C   UNL     1     -11.389  55.864  49.082  0.00  0.00    +0.000 A 
ATOM      2  C   UNL     1     -10.438  55.240  50.049  0.00  0.00    +0.000 A 
ATOM      3  C   UNL     1     -11.324  55.549  47.776  0.00  0.00    +0.000 A 
ATOM      4  O   UNL     1     -10.555  55.559  51.236  0.00  0.00    +0.000 OA
ATOM      5  N   UNL     1      -9.520  54.347  49.555  0.00  0.00    +0.000 N 
ATOM      6  C   UNL     1     -10.293  54.627  47.287  0.00  0.00    +0.000 A 
ATOM      7  C   UNL     1      -9.381  54.046  48.178  0.00  0.00    +0.000 A 
ATOM      8  C   UNL     1     -10.157  54.345  45.922  0.00  0.00    +0.000 A 
ATOM      9  N   UNL     1      -8.381  53.228  47.764  0.00  0.00    +0.000 NA
ATOM     10  C   UNL     1      -9.126  53.522  45.486  0.00  0.00    +0.000 A 
ATOM     11  C   UNL     1      -8.271  52.997  46.435  0.00  0.00    +0.000 A 
ENDROOT
BRANCH   1  17
ATOM     12  S   UNL     1     -13.512  59.141  49.456  0.00  0.00    +0.000 S 
ATOM     13  O   UNL     1     -14.615  59.194  48.516  0.00  0.00    +0.000 OA
ATOM     14  O   UNL     1     -12.720  60.324  49.726  0.00  0.00    +0.000 OA
ATOM     15  N   UNL     1     -12.506  57.973  48.960  0.00  0.00    +0.000 N 
ATOM     16  C   UNL     1     -14.201  58.656  50.994  0.00  0.00    +0.000 A 
ATOM     17  C   UNL     1     -12.417  56.846  49.605  0.00  0.00    +0.000 C 
ATOM     18  C   UNL     1     -13.921  57.381  51.458  0.00  0.00    +0.000 A 
ATOM     19  C   UNL     1     -14.992  59.552  51.717  0.00  0.00    +0.000 A 
ATOM     20  N   UNL     1     -13.147  56.493  50.716  0.00  0.00    +0.000 N 
ATOM     21  C   UNL     1     -14.507  56.971  52.658  0.00  0.00    +0.000 A 
ATOM     22  C   UNL     1     -15.546  59.139  52.926  0.00  0.00    +0.000 A 
ATOM     23  C   UNL     1     -15.311  57.846  53.394  0.00  0.00    +0.000 A 
ATOM     24  H   UNL     1     -11.953  58.118  48.159  0.00  0.00    +0.000 HD
ATOM     25  H   UNL     1     -13.120  55.553  51.005  0.00  0.00    +0.000 HD
ENDBRANCH   1  17
BRANCH   3  26
ATOM     26  O   UNL     1     -12.166  56.056  46.804  0.00  0.00    +0.000 OA
ATOM     27  H   UNL     1     -13.095  56.022  46.924  0.00  0.00    +0.000 HD
ENDBRANCH   3  26
BRANCH   5  28
ATOM     28  O   UNL     1      -8.455  53.895  50.391  0.00  0.00    +0.000 OA
BRANCH  28  29
ATOM     29  C   UNL     1      -7.427  54.883  50.559  0.00  0.00    +0.000 C 
BRANCH  29  30
ATOM     30  C   UNL     1      -6.845  54.851  51.952  0.00  0.00    +0.000 A 
ATOM     31  C   UNL     1      -7.648  55.211  53.050  0.00  0.00    +0.000 A 
ATOM     32  C   UNL     1      -5.527  54.440  52.184  0.00  0.00    +0.000 A 
ATOM     33  C   UNL     1      -7.134  55.195  54.347  0.00  0.00    +0.000 A 
ATOM     34  C   UNL     1      -5.014  54.425  53.481  0.00  0.00    +0.000 A 
ATOM     35  C   UNL     1      -5.814  54.809  54.558  0.00  0.00    +0.000 A 
ENDBRANCH  29  30
ENDBRANCH  28  29
ENDBRANCH   5  28
TORSDOF 5
ENDMDL
MODEL 4
REMARK VINA RESULT:      -8.7      3.751      7.559
REMARK  Name = 
REMARK  5 active torsions:
REMARK  status: ('A' for Active; 'I' for Inactive)
REMARK    1  A    between atoms: C_6  and  C_10
REMARK    2  A    between atoms: C_14  and  O_18
REMARK    3  A    between atoms: N_17  and  O_20
REMARK    4  A    between atoms: O_20  and  C_23
REMARK    5  A    between atoms: C_23  and  C_26
REMARK                            x       y       z     vdW  Elec       q    Type
REMARK                         _______ _______ _______ _____ _____    ______ ____
ROOT
ATOM      1  C   UNL     1     -11.201  54.564  50.877  0.00  0.00    +0.000 A 
ATOM      2  C   UNL     1      -9.810  54.940  50.484  0.00  0.00    +0.000 A 
ATOM      3  C   UNL     1     -11.461  53.321  51.320  0.00  0.00    +0.000 A 
ATOM      4  O   UNL     1      -9.631  56.100  50.099  0.00  0.00    +0.000 OA
ATOM      5  N   UNL     1      -8.833  53.983  50.596  0.00  0.00    +0.000 N 
ATOM      6  C   UNL     1     -10.393  52.316  51.376  0.00  0.00    +0.000 A 
ATOM      7  C   UNL     1      -9.087  52.647  50.993  0.00  0.00    +0.000 A 
ATOM      8  C   UNL     1     -10.657  50.994  51.758  0.00  0.00    +0.000 A 
ATOM      9  N   UNL     1      -8.080  51.738  50.981  0.00  0.00    +0.000 NA
ATOM     10  C   UNL     1      -9.637  50.051  51.733  0.00  0.00    +0.000 A 
ATOM     11  C   UNL     1      -8.380  50.467  51.338  0.00  0.00    +0.000 A 
ENDROOT
BRANCH   1  17
ATOM     12  S   UNL     1     -13.600  57.255  49.333  0.00  0.00    +0.000 S 
ATOM     13  O   UNL     1     -14.738  56.659  48.661  0.00  0.00    +0.000 OA
ATOM     14  O   UNL     1     -12.910  58.385  48.745  0.00  0.00    +0.000 OA
ATOM     15  N   UNL     1     -12.510  56.082  49.579  0.00  0.00    +0.000 N 
ATOM     16  C   UNL     1     -14.182  57.799  50.895  0.00  0.00    +0.000 A 
ATOM     17  C   UNL     1     -12.294  55.607  50.770  0.00  0.00    +0.000 C 
ATOM     18  C   UNL     1     -13.769  57.105  52.021  0.00  0.00    +0.000 A 
ATOM     19  C   UNL     1     -15.024  58.911  50.976  0.00  0.00    +0.000 A 
ATOM     20  N   UNL     1     -12.945  55.987  51.921  0.00  0.00    +0.000 N 
ATOM     21  C   UNL     1     -14.269  57.503  53.263  0.00  0.00    +0.000 A 
ATOM     22  C   UNL     1     -15.491  59.314  52.225  0.00  0.00    +0.000 A 
ATOM     23  C   UNL     1     -15.120  58.606  53.368  0.00  0.00    +0.000 A 
ATOM     24  H   UNL     1     -12.004  55.724  48.815  0.00  0.00    +0.000 HD
ATOM     25  H   UNL     1     -12.822  55.433  52.725  0.00  0.00    +0.000 HD
ENDBRANCH   1  17
BRANCH   3  26
ATOM     26  O   UNL     1     -12.705  52.877  51.724  0.00  0.00    +0.000 OA
ATOM     27  H   UNL     1     -13.447  52.984  51.161  0.00  0.00    +0.000 HD
ENDBRANCH   3  26
BRANCH   5  28
ATOM     28  O   UNL     1      -7.546  54.219  50.030  0.00  0.00    +0.000 OA
BRANCH  28  29
ATOM     29  C   UNL     1      -6.815  55.241  50.725  0.00  0.00    +0.000 C 
BRANCH  29  30
ATOM     30  C   UNL     1      -6.530  54.849  52.155  0.00  0.00    +0.000 A 
ATOM     31  C   UNL     1      -5.550  53.876  52.428  0.00  0.00    +0.000 A 
ATOM     32  C   UNL     1      -7.196  55.456  53.226  0.00  0.00    +0.000 A 
ATOM     33  C   UNL     1      -5.270  53.493  53.740  0.00  0.00    +0.000 A 
ATOM     34  C   UNL     1      -6.916  55.071  54.537  0.00  0.00    +0.000 A 
ATOM     35  C   UNL     1      -5.960  54.087  54.792  0.00  0.00    +0.000 A 
ENDBRANCH  29  30
ENDBRANCH  28  29
ENDBRANCH   5  28
TORSDOF 5
ENDMDL
MODEL 5
REMARK VINA RESULT:      -8.6      1.447      5.236
REMARK  Name = 
REMARK  5 active torsions:
REMARK  status: ('A' for Active; 'I' for Inactive)
REMARK    1  A    between atoms: C_6  and  C_10
REMARK    2  A    between atoms: C_14  and  O_18
REMARK    3  A    between atoms: N_17  and  O_20
REMARK    4  A    between atoms: O_20  and  C_23
REMARK    5  A    between atoms: C_23  and  C_26
REMARK                            x       y       z     vdW  Elec       q    Type
REMARK                         _______ _______ _______ _____ _____    ______ ____
ROOT
ATOM      1  C   UNL     1      -9.508  54.373  50.191  0.00  0.00    +0.000 A 
ATOM      2  C   UNL     1     -10.830  55.044  50.368  0.00  0.00    +0.000 A 
ATOM      3  C   UNL     1      -9.096  54.014  48.962  0.00  0.00    +0.000 A 
ATOM      4  O   UNL     1     -11.148  55.361  51.519  0.00  0.00    +0.000 OA
ATOM      5  N   UNL     1     -11.586  55.274  49.246  0.00  0.00    +0.000 N 
ATOM      6  C   UNL     1      -9.960  54.237  47.796  0.00  0.00    +0.000 A 
ATOM      7  C   UNL     1     -11.211  54.847  47.949  0.00  0.00    +0.000 A 
ATOM      8  C   UNL     1      -9.586  53.800  46.519  0.00  0.00    +0.000 A 
ATOM      9  N   UNL     1     -12.064  55.027  46.908  0.00  0.00    +0.000 NA
ATOM     10  C   UNL     1     -10.458  53.964  45.450  0.00  0.00    +0.000 A 
ATOM     11  C   UNL     1     -11.674  54.573  45.694  0.00  0.00    +0.000 A 
ENDROOT
BRANCH   1  17
ATOM     12  S   UNL     1      -6.517  54.590  52.718  0.00  0.00    +0.000 S 
ATOM     13  O   UNL     1      -6.620  55.737  53.599  0.00  0.00    +0.000 OA
ATOM     14  O   UNL     1      -5.239  54.217  52.147  0.00  0.00    +0.000 OA
ATOM     15  N   UNL     1      -7.559  54.816  51.500  0.00  0.00    +0.000 N 
ATOM     16  C   UNL     1      -7.055  53.205  53.651  0.00  0.00    +0.000 A 
ATOM     17  C   UNL     1      -8.653  54.117  51.414  0.00  0.00    +0.000 C 
ATOM     18  C   UNL     1      -8.276  52.637  53.326  0.00  0.00    +0.000 A 
ATOM     19  C   UNL     1      -6.252  52.701  54.677  0.00  0.00    +0.000 A 
ATOM     20  N   UNL     1      -9.074  53.164  52.313  0.00  0.00    +0.000 N 
ATOM     21  C   UNL     1      -8.733  51.566  54.097  0.00  0.00    +0.000 A 
ATOM     22  C   UNL     1      -6.707  51.614  55.418  0.00  0.00    +0.000 A 
ATOM     23  C   UNL     1      -7.951  51.051  55.134  0.00  0.00    +0.000 A 
ATOM     24  H   UNL     1      -7.361  55.492  50.813  0.00  0.00    +0.000 HD
ATOM     25  H   UNL     1      -9.998  52.834  52.236  0.00  0.00    +0.000 HD
ENDBRANCH   1  17
BRANCH   3  26
ATOM     26  O   UNL     1      -7.886  53.406  48.687  0.00  0.00    +0.000 OA
ATOM     27  H   UNL     1      -7.819  52.793  47.981  0.00  0.00    +0.000 HD
ENDBRANCH   3  26
BRANCH   5  28
ATOM     28  O   UNL     1     -12.939  55.705  49.382  0.00  0.00    +0.000 OA
BRANCH  28  29
ATOM     29  C   UNL     1     -13.068  57.134  49.371  0.00  0.00    +0.000 C 
BRANCH  29  30
ATOM     30  C   UNL     1     -13.822  57.637  50.579  0.00  0.00    +0.000 A 
ATOM     31  C   UNL     1     -14.330  58.949  50.585  0.00  0.00    +0.000 A 
ATOM     32  C   UNL     1     -14.059  56.815  51.687  0.00  0.00    +0.000 A 
ATOM     33  C   UNL     1     -15.026  59.440  51.690  0.00  0.00    +0.000 A 
ATOM     34  C   UNL     1     -14.754  57.307  52.791  0.00  0.00    +0.000 A 
ATOM     35  C   UNL     1     -15.230  58.619  52.795  0.00  0.00    +0.000 A 
ENDBRANCH  29  30
ENDBRANCH  28  29
ENDBRANCH   5  28
TORSDOF 5
ENDMDL
MODEL 6
REMARK VINA RESULT:      -8.5      2.707      7.745
REMARK  Name = 
REMARK  5 active torsions:
REMARK  status: ('A' for Active; 'I' for Inactive)
REMARK    1  A    between atoms: C_6  and  C_10
REMARK    2  A    between atoms: C_14  and  O_18
REMARK    3  A    between atoms: N_17  and  O_20
REMARK    4  A    between atoms: O_20  and  C_23
REMARK    5  A    between atoms: C_23  and  C_26
REMARK                            x       y       z     vdW  Elec       q    Type
REMARK                         _______ _______ _______ _____ _____    ______ ____
ROOT
ATOM      1  C   UNL     1     -10.319  55.951  49.077  0.00  0.00    +0.000 A 
ATOM      2  C   UNL     1      -9.051  55.759  49.841  0.00  0.00    +0.000 A 
ATOM      3  C   UNL     1     -10.393  55.568  47.790  0.00  0.00    +0.000 A 
ATOM      4  O   UNL     1      -9.049  56.118  51.023  0.00  0.00    +0.000 OA
ATOM      5  N   UNL     1      -7.991  55.185  49.186  0.00  0.00    +0.000 N 
ATOM      6  C   UNL     1      -9.218  55.003  47.116  0.00  0.00    +0.000 A 
ATOM      7  C   UNL     1      -8.015  54.834  47.814  0.00  0.00    +0.000 A 
ATOM      8  C   UNL     1      -9.248  54.671  45.756  0.00  0.00    +0.000 A 
ATOM      9  N   UNL     1      -6.890  54.363  47.219  0.00  0.00    +0.000 NA
ATOM     10  C   UNL     1      -8.098  54.204  45.133  0.00  0.00    +0.000 A 
ATOM     11  C   UNL     1      -6.955  54.072  45.899  0.00  0.00    +0.000 A 
ENDROOT
BRANCH   1  17
ATOM     12  S   UNL     1     -13.409  56.350  51.459  0.00  0.00    +0.000 S 
ATOM     13  O   UNL     1     -13.020  56.665  52.820  0.00  0.00    +0.000 OA
ATOM     14  O   UNL     1     -14.474  55.402  51.202  0.00  0.00    +0.000 OA
ATOM     15  N   UNL     1     -12.086  55.835  50.681  0.00  0.00    +0.000 N 
ATOM     16  C   UNL     1     -13.920  57.863  50.733  0.00  0.00    +0.000 A 
ATOM     17  C   UNL     1     -11.506  56.575  49.782  0.00  0.00    +0.000 C 
ATOM     18  C   UNL     1     -13.101  58.430  49.770  0.00  0.00    +0.000 A 
ATOM     19  C   UNL     1     -15.127  58.450  51.120  0.00  0.00    +0.000 A 
ATOM     20  N   UNL     1     -11.891  57.842  49.410  0.00  0.00    +0.000 N 
ATOM     21  C   UNL     1     -13.476  59.660  49.223  0.00  0.00    +0.000 A 
ATOM     22  C   UNL     1     -15.503  59.661  50.545  0.00  0.00    +0.000 A 
ATOM     23  C   UNL     1     -14.675  60.270  49.602  0.00  0.00    +0.000 A 
ATOM     24  H   UNL     1     -11.716  54.948  50.891  0.00  0.00    +0.000 HD
ATOM     25  H   UNL     1     -11.272  58.367  48.853  0.00  0.00    +0.000 HD
ENDBRANCH   1  17
BRANCH   3  26
ATOM     26  O   UNL     1     -11.521  55.685  47.000  0.00  0.00    +0.000 OA
ATOM     27  H   UNL     1     -12.342  55.921  47.387  0.00  0.00    +0.000 HD
ENDBRANCH   3  26
BRANCH   5  28
ATOM     28  O   UNL     1      -6.702  55.182  49.796  0.00  0.00    +0.000 OA
BRANCH  28  29
ATOM     29  C   UNL     1      -6.471  54.013  50.596  0.00  0.00    +0.000 C 
BRANCH  29  30
ATOM     30  C   UNL     1      -5.614  54.320  51.801  0.00  0.00    +0.000 A 
ATOM     31  C   UNL     1      -6.208  54.847  52.962  0.00  0.00    +0.000 A 
ATOM     32  C   UNL     1      -4.237  54.063  51.803  0.00  0.00    +0.000 A 
ATOM     33  C   UNL     1      -5.438  55.144  54.087  0.00  0.00    +0.000 A 
ATOM     34  C   UNL     1      -3.469  54.361  52.928  0.00  0.00    +0.000 A 
ATOM     35  C   UNL     1      -4.067  54.907  54.064  0.00  0.00    +0.000 A 
ENDBRANCH  29  30
ENDBRANCH  28  29
ENDBRANCH   5  28
TORSDOF 5
ENDMDL
MODEL 7
REMARK VINA RESULT:      -8.3      2.924      6.342
REMARK  Name = 
REMARK  5 active torsions:
REMARK  status: ('A' for Active; 'I' for Inactive)
REMARK    1  A    between atoms: C_6  and  C_10
REMARK    2  A    between atoms: C_14  and  O_18
REMARK    3  A    between atoms: N_17  and  O_20
REMARK    4  A    between atoms: O_20  and  C_23
REMARK    5  A    between atoms: C_23  and  C_26
REMARK                            x       y       z     vdW  Elec       q    Type
REMARK                         _______ _______ _______ _____ _____    ______ ____
ROOT
ATOM      1  C   UNL     1     -11.872  53.829  50.822  0.00  0.00    +0.000 A 
ATOM      2  C   UNL     1     -11.874  52.826  49.716  0.00  0.00    +0.000 A 
ATOM      3  C   UNL     1     -11.158  53.597  51.938  0.00  0.00    +0.000 A 
ATOM      4  O   UNL     1     -12.537  53.100  48.711  0.00  0.00    +0.000 OA
ATOM      5  N   UNL     1     -11.129  51.685  49.886  0.00  0.00    +0.000 N 
ATOM      6  C   UNL     1     -10.416  52.341  52.096  0.00  0.00    +0.000 A 
ATOM      7  C   UNL     1     -10.423  51.381  51.075  0.00  0.00    +0.000 A 
ATOM      8  C   UNL     1      -9.730  52.044  53.280  0.00  0.00    +0.000 A 
ATOM      9  N   UNL     1      -9.793  50.186  51.198  0.00  0.00    +0.000 NA
ATOM     10  C   UNL     1      -9.097  50.816  53.423  0.00  0.00    +0.000 A 
ATOM     11  C   UNL     1      -9.159  49.929  52.366  0.00  0.00    +0.000 A 
ENDROOT
BRANCH   1  17
ATOM     12  S   UNL     1     -13.329  57.092  49.206  0.00  0.00    +0.000 S 
ATOM     13  O   UNL     1     -14.432  56.817  48.306  0.00  0.00    +0.000 OA
ATOM     14  O   UNL     1     -12.321  58.071  48.854  0.00  0.00    +0.000 OA
ATOM     15  N   UNL     1     -12.576  55.688  49.497  0.00  0.00    +0.000 N 
ATOM     16  C   UNL     1     -14.047  57.651  50.706  0.00  0.00    +0.000 A 
ATOM     17  C   UNL     1     -12.680  55.099  50.653  0.00  0.00    +0.000 C 
ATOM     18  C   UNL     1     -13.997  56.809  51.804  0.00  0.00    +0.000 A 
ATOM     19  C   UNL     1     -14.632  58.918  50.768  0.00  0.00    +0.000 A 
ATOM     20  N   UNL     1     -13.427  55.541  51.720  0.00  0.00    +0.000 N 
ATOM     21  C   UNL     1     -14.611  57.227  52.987  0.00  0.00    +0.000 A 
ATOM     22  C   UNL     1     -15.214  59.334  51.962  0.00  0.00    +0.000 A 
ATOM     23  C   UNL     1     -15.211  58.487  53.070  0.00  0.00    +0.000 A 
ATOM     24  H   UNL     1     -12.032  55.275  48.790  0.00  0.00    +0.000 HD
ATOM     25  H   UNL     1     -13.568  54.922  52.472  0.00  0.00    +0.000 HD
ENDBRANCH   1  17
BRANCH   3  26
ATOM     26  O   UNL     1     -11.074  54.465  53.010  0.00  0.00    +0.000 OA
ATOM     27  H   UNL     1     -11.712  54.427  53.695  0.00  0.00    +0.000 HD
ENDBRANCH   3  26
BRANCH   5  28
ATOM     28  O   UNL     1     -11.272  50.605  48.965  0.00  0.00    +0.000 OA
BRANCH  28  29
ATOM     29  C   UNL     1     -10.205  50.550  48.008  0.00  0.00    +0.000 C 
BRANCH  29  30
ATOM     30  C   UNL     1     -10.499  51.400  46.794  0.00  0.00    +0.000 A 
ATOM     31  C   UNL     1      -9.665  52.491  46.490  0.00  0.00    +0.000 A 
ATOM     32  C   UNL     1     -11.568  51.107  45.939  0.00  0.00    +0.000 A 
ATOM     33  C   UNL     1      -9.917  53.295  45.378  0.00  0.00    +0.000 A 
ATOM     34  C   UNL     1     -11.819  51.912  44.827  0.00  0.00    +0.000 A 
ATOM     35  C   UNL     1     -10.999  53.007  44.552  0.00  0.00    +0.000 A 
ENDBRANCH  29  30
ENDBRANCH  28  29
ENDBRANCH   5  28
TORSDOF 5
ENDMDL
MODEL 8
REMARK VINA RESULT:      -8.2      2.145      7.103
REMARK  Name = 
REMARK  5 active torsions:
REMARK  status: ('A' for Active; 'I' for Inactive)
REMARK    1  A    between atoms: C_6  and  C_10
REMARK    2  A    between atoms: C_14  and  O_18
REMARK    3  A    between atoms: N_17  and  O_20
REMARK    4  A    between atoms: O_20  and  C_23
REMARK    5  A    between atoms: C_23  and  C_26
REMARK                            x       y       z     vdW  Elec       q    Type
REMARK                         _______ _______ _______ _____ _____    ______ ____
ROOT
ATOM      1  C   UNL     1     -10.890  55.049  48.275  0.00  0.00    +0.000 A 
ATOM      2  C   UNL     1     -10.318  54.994  49.652  0.00  0.00    +0.000 A 
ATOM      3  C   UNL     1     -12.056  55.684  48.056  0.00  0.00    +0.000 A 
ATOM      4  O   UNL     1      -9.239  54.409  49.788  0.00  0.00    +0.000 OA
ATOM      5  N   UNL     1     -11.017  55.609  50.660  0.00  0.00    +0.000 N 
ATOM      6  C   UNL     1     -12.793  56.285  49.173  0.00  0.00    +0.000 A 
ATOM      7  C   UNL     1     -12.279  56.226  50.474  0.00  0.00    +0.000 A 
ATOM      8  C   UNL     1     -14.046  56.882  48.981  0.00  0.00    +0.000 A 
ATOM      9  N   UNL     1     -12.950  56.723  51.544  0.00  0.00    +0.000 NA
ATOM     10  C   UNL     1     -14.748  57.379  50.071  0.00  0.00    +0.000 A 
ATOM     11  C   UNL     1     -14.166  57.274  51.320  0.00  0.00    +0.000 A 
ENDROOT
BRANCH   1  17
ATOM     12  S   UNL     1      -8.025  54.247  45.720  0.00  0.00    +0.000 S 
ATOM     13  O   UNL     1      -6.993  53.405  46.294  0.00  0.00    +0.000 OA
ATOM     14  O   UNL     1      -7.669  55.364  44.869  0.00  0.00    +0.000 OA
ATOM     15  N   UNL     1      -8.922  54.819  46.941  0.00  0.00    +0.000 N 
ATOM     16  C   UNL     1      -9.032  53.194  44.744  0.00  0.00    +0.000 A 
ATOM     17  C   UNL     1     -10.131  54.384  47.145  0.00  0.00    +0.000 C 
ATOM     18  C   UNL     1     -10.308  52.908  45.202  0.00  0.00    +0.000 A 
ATOM     19  C   UNL     1      -8.544  52.683  43.540  0.00  0.00    +0.000 A 
ATOM     20  N   UNL     1     -10.772  53.410  46.416  0.00  0.00    +0.000 N 
ATOM     21  C   UNL     1     -11.098  52.030  44.456  0.00  0.00    +0.000 A 
ATOM     22  C   UNL     1      -9.354  51.832  42.791  0.00  0.00    +0.000 A 
ATOM     23  C   UNL     1     -10.627  51.499  43.251  0.00  0.00    +0.000 A 
ATOM     24  H   UNL     1      -8.546  55.506  47.537  0.00  0.00    +0.000 HD
ATOM     25  H   UNL     1     -11.612  53.043  46.775  0.00  0.00    +0.000 HD
ENDBRANCH   1  17
BRANCH   3  26
ATOM     26  O   UNL     1     -12.661  55.808  46.820  0.00  0.00    +0.000 OA
ATOM     27  H   UNL     1     -13.410  56.362  46.718  0.00  0.00    +0.000 HD
ENDBRANCH   3  26
BRANCH   5  28
ATOM     28  O   UNL     1     -10.633  55.398  52.017  0.00  0.00    +0.000 OA
BRANCH  28  29
ATOM     29  C   UNL     1     -10.996  54.095  52.498  0.00  0.00    +0.000 C 
BRANCH  29  30
ATOM     30  C   UNL     1      -9.829  53.397  53.155  0.00  0.00    +0.000 A 
ATOM     31  C   UNL     1     -10.004  52.111  53.698  0.00  0.00    +0.000 A 
ATOM     32  C   UNL     1      -8.560  53.987  53.210  0.00  0.00    +0.000 A 
ATOM     33  C   UNL     1      -8.944  51.446  54.315  0.00  0.00    +0.000 A 
ATOM     34  C   UNL     1      -7.502  53.321  53.827  0.00  0.00    +0.000 A 
ATOM     35  C   UNL     1      -7.695  52.057  54.385  0.00  0.00    +0.000 A 
ENDBRANCH  29  30
ENDBRANCH  28  29
ENDBRANCH   5  28
TORSDOF 5
ENDMDL
MODEL 9
REMARK VINA RESULT:      -8.2      2.823      7.119
REMARK  Name = 
REMARK  5 active torsions:
REMARK  status: ('A' for Active; 'I' for Inactive)
REMARK    1  A    between atoms: C_6  and  C_10
REMARK    2  A    between atoms: C_14  and  O_18
REMARK    3  A    between atoms: N_17  and  O_20
REMARK    4  A    between atoms: O_20  and  C_23
REMARK    5  A    between atoms: C_23  and  C_26
REMARK                            x       y       z     vdW  Elec       q    Type
REMARK                         _______ _______ _______ _____ _____    ______ ____
ROOT
ATOM      1  C   UNL     1     -11.320  56.026  48.803  0.00  0.00    +0.000 A 
ATOM      2  C   UNL     1     -10.157  55.610  49.642  0.00  0.00    +0.000 A 
ATOM      3  C   UNL     1     -11.434  55.576  47.541  0.00  0.00    +0.000 A 
ATOM      4  O   UNL     1     -10.114  56.045  50.796  0.00  0.00    +0.000 OA
ATOM      5  N   UNL     1      -9.234  54.763  49.080  0.00  0.00    +0.000 N 
ATOM      6  C   UNL     1     -10.397  54.711  46.966  0.00  0.00    +0.000 A 
ATOM      7  C   UNL     1      -9.290  54.327  47.733  0.00  0.00    +0.000 A 
ATOM      8  C   UNL     1     -10.455  54.295  45.630  0.00  0.00    +0.000 A 
ATOM      9  N   UNL     1      -8.283  53.570  47.228  0.00  0.00    +0.000 NA
ATOM     10  C   UNL     1      -9.421  53.535  45.098  0.00  0.00    +0.000 A 
ATOM     11  C   UNL     1      -8.366  53.205  45.927  0.00  0.00    +0.000 A 
ENDROOT
BRANCH   1  17
ATOM     12  S   UNL     1     -13.508  59.225  49.407  0.00  0.00    +0.000 S 
ATOM     13  O   UNL     1     -14.640  59.298  48.503  0.00  0.00    +0.000 OA
ATOM     14  O   UNL     1     -12.737  60.412  49.714  0.00  0.00    +0.000 OA
ATOM     15  N   UNL     1     -12.490  58.109  48.823  0.00  0.00    +0.000 N 
ATOM     16  C   UNL     1     -14.139  58.644  50.937  0.00  0.00    +0.000 A 
ATOM     17  C   UNL     1     -12.355  56.954  49.405  0.00  0.00    +0.000 C 
ATOM     18  C   UNL     1     -13.816  57.355  51.326  0.00  0.00    +0.000 A 
ATOM     19  C   UNL     1     -14.930  59.482  51.727  0.00  0.00    +0.000 A 
ATOM     20  N   UNL     1     -13.043  56.526  50.517  0.00  0.00    +0.000 N 
ATOM     21  C   UNL     1     -14.356  56.869  52.519  0.00  0.00    +0.000 A 
ATOM     22  C   UNL     1     -15.437  58.994  52.928  0.00  0.00    +0.000 A 
ATOM     23  C   UNL     1     -15.158  57.686  53.322  0.00  0.00    +0.000 A 
ATOM     24  H   UNL     1     -11.965  58.309  48.015  0.00  0.00    +0.000 HD
ATOM     25  H   UNL     1     -12.985  55.573  50.756  0.00  0.00    +0.000 HD
ENDBRANCH   1  17
BRANCH   3  26
ATOM     26  O   UNL     1     -12.477  55.886  46.689  0.00  0.00    +0.000 OA
ATOM     27  H   UNL     1     -13.361  55.852  46.999  0.00  0.00    +0.000 HD
ENDBRANCH   3  26
BRANCH   5  28
ATOM     28  O   UNL     1      -8.002  54.514  49.754  0.00  0.00    +0.000 OA
BRANCH  28  29
ATOM     29  C   UNL     1      -7.926  53.187  50.295  0.00  0.00    +0.000 C 
BRANCH  29  30
ATOM     30  C   UNL     1      -8.932  52.977  51.402  0.00  0.00    +0.000 A 
ATOM     31  C   UNL     1     -10.067  52.179  51.168  0.00  0.00    +0.000 A 
ATOM     32  C   UNL     1      -8.746  53.533  52.673  0.00  0.00    +0.000 A 
ATOM     33  C   UNL     1     -11.013  51.972  52.173  0.00  0.00    +0.000 A 
ATOM     34  C   UNL     1      -9.693  53.326  53.676  0.00  0.00    +0.000 A 
ATOM     35  C   UNL     1     -10.827  52.553  53.423  0.00  0.00    +0.000 A 
ENDBRANCH  29  30
ENDBRANCH  28  29
ENDBRANCH   5  28
TORSDOF 5
ENDMDL
