300958
Actelion Java MolfileCreator 2.0

  0  0  0  0  0  0              0 V3000
M  V30 BEGIN CTAB
M  V30 COUNTS 28 31 0 0 0
M  V30 BEGIN ATOM
M  V30 1 S 0.0 0.0 0.0 0
M  V30 2 O -1.3091 0.7736 0.0 0
M  V30 3 O 1.2853 0.7736 0.0 0
M  V30 4 N -1.3091 -0.7378 0.0 0
M  V30 5 C 1.3091 -0.7378 0.0 0
M  V30 6 C -1.321 -2.2374 0.0 0
M  V30 7 C 1.2972 -2.2374 0.0 0
M  V30 8 C 2.5945 0.0238 0.0 0
M  V30 9 N -0.0357 -2.9753 0.0 0
M  V30 10 C -2.6302 -2.9753 0.0 0
M  V30 11 C 2.5826 -2.9753 0.0 0
M  V30 12 C 3.8799 -0.714 0.0 0
M  V30 13 C -2.6421 -4.463 0.0 0
M  V30 14 C -3.9632 -2.2136 0.0 0
M  V30 15 C 3.868 -2.2136 0.0 0
M  V30 16 O -1.3567 -5.2128 0.0 0
M  V30 17 N -3.9751 -5.2009 0.0 0
M  V30 18 O -3.9751 -0.7021 0.0 0
M  V30 19 C -5.2723 -2.9515 0.0 0
M  V30 20 C -5.2842 -4.4392 0.0 0
M  V30 21 C -3.987 -6.6886 0.0 0
M  V30 22 C -6.5815 -2.1898 0.0 0
M  V30 23 C -6.5934 -5.1771 0.0 0
M  V30 24 C -2.7016 -7.4265 0.0 0
M  V30 25 C -7.8907 -2.9277 0.0 0
M  V30 26 C -7.9026 -4.4154 0.0 0
M  V30 27 C -2.7135 -8.9142 0.0 0
M  V30 28 C -1.4281 -9.6521 0.0 0
M  V30 END ATOM
M  V30 BEGIN BOND
M  V30 1 2 1 2
M  V30 2 2 1 3
M  V30 3 1 1 4
M  V30 4 1 1 5
M  V30 5 2 4 6
M  V30 6 2 5 7
M  V30 7 1 5 8
M  V30 8 1 6 9
M  V30 9 1 6 10
M  V30 10 1 7 11
M  V30 11 2 8 12
M  V30 12 1 10 13
M  V30 13 2 10 14
M  V30 14 2 11 15
M  V30 15 2 13 16
M  V30 16 1 13 17
M  V30 17 1 14 18
M  V30 18 1 14 19
M  V30 19 1 17 20
M  V30 20 1 17 21
M  V30 21 1 19 22
M  V30 22 1 20 23
M  V30 23 1 21 24
M  V30 24 2 22 25
M  V30 25 2 23 26
M  V30 26 1 24 27
M  V30 27 1 27 28
M  V30 28 1 7 9
M  V30 29 1 12 15
M  V30 30 2 19 20
M  V30 31 1 25 26
M  V30 END BOND
M  V30 END CTAB
M  END
>  <MolRegNo>
300958

>  <m>
=

>  <Value>
200

>  <Unit>
nM

>  <Type>
IC50

>  <pValue>
6.7

>  <Ligand Efficiency>
0.33

>  <Binding Efficiency>
16.85

>  <Surface Efficiency>
6.65

>  <Assay Index>
256538

>  <Assay Category>


>  <Assay Organism>
Hepatitis C virus subtype 1b

>  <Target ID>
12097

>  <Target Name>
Hepatitis C virus NS5B RNA-dependent RNA polymerase

>  <Target Organism>
Hepatitis C virus

>  <Target Description>
Target is a single protein chain

>  <Sequence Accession>
Q8JXU8

>  <Reference>
J. Med. Chem. 49 (3), 971-983 (2006)

>  <Pubmed ID>
16451063

>  <DOI>
10.1021/jm050855s

$$$$
338168
Actelion Java MolfileCreator 2.0

  0  0  0  0  0  0              0 V3000
M  V30 BEGIN CTAB
M  V30 COUNTS 30 34 0 0 0
M  V30 BEGIN ATOM
M  V30 1 S 0.0 0.0 0.0 0
M  V30 2 O 0.6988 1.3385 0.0 0
M  V30 3 O -0.7225 1.3385 0.0 0
M  V30 4 N -1.3148 -0.7343 0.0 0
M  V30 5 C 1.2911 -0.7343 0.0 0
M  V30 6 C -1.3266 -2.2268 0.0 0
M  V30 7 C 1.2792 -2.2268 0.0 0
M  V30 8 C 2.5822 0.0236 0.0 0
M  V30 9 N -0.0355 -2.9612 0.0 0
M  V30 10 C -2.6414 -2.9612 0.0 0
M  V30 11 C 2.5703 -2.9612 0.0 0
M  V30 12 C 3.8733 -0.7107 0.0 0
M  V30 13 C -2.6533 -4.4537 0.0 0
M  V30 14 C -3.9562 -2.2031 0.0 0
M  V30 15 C 3.8615 -2.2031 0.0 0
M  V30 16 O -1.3621 -5.1881 0.0 0
M  V30 17 N -3.9681 -5.1881 0.0 0
M  V30 18 O -3.9681 -0.687 0.0 0
M  V30 19 C -5.271 -2.9375 0.0 0
M  V30 20 C -5.2829 -4.43 0.0 0
M  V30 21 C -3.9799 -6.6806 0.0 0
M  V30 22 C -6.5859 -2.1795 0.0 0
M  V30 23 C -6.5977 -5.1644 0.0 0
M  V30 24 C -2.6888 -7.415 0.0 0
M  V30 25 C -7.9007 -2.9139 0.0 0
M  V30 26 C -7.9125 -4.4063 0.0 0
M  V30 27 C -2.7006 -8.9075 0.0 0
M  V30 28 F -9.2155 -2.1558 0.0 0
M  V30 29 C -1.9662 -10.1986 0.0 0
M  V30 30 C -3.4587 -10.1986 0.0 0
M  V30 END ATOM
M  V30 BEGIN BOND
M  V30 1 2 1 2
M  V30 2 2 1 3
M  V30 3 1 1 4
M  V30 4 1 1 5
M  V30 5 1 4 6
M  V30 6 2 5 7
M  V30 7 1 5 8
M  V30 8 2 6 9
M  V30 9 1 6 10
M  V30 10 1 7 11
M  V30 11 2 8 12
M  V30 12 1 10 13
M  V30 13 2 10 14
M  V30 14 2 11 15
M  V30 15 2 13 16
M  V30 16 1 13 17
M  V30 17 1 14 18
M  V30 18 1 14 19
M  V30 19 1 17 20
M  V30 20 1 17 21
M  V30 21 1 19 22
M  V30 22 1 20 23
M  V30 23 1 21 24
M  V30 24 2 22 25
M  V30 25 2 23 26
M  V30 26 1 24 27
M  V30 27 1 25 28
M  V30 28 1 27 29
M  V30 29 1 27 30
M  V30 30 1 7 9
M  V30 31 1 12 15
M  V30 32 2 19 20
M  V30 33 1 25 26
M  V30 34 1 29 30
M  V30 END BOND
M  V30 END CTAB
M  END
>  <MolRegNo>
338168

>  <m>
=

>  <Value>
10

>  <Unit>
nM

>  <Type>
IC50

>  <pValue>
8

>  <Ligand Efficiency>
0.36

>  <Binding Efficiency>
18.72

>  <Surface Efficiency>
7.94

>  <Assay Index>
256538

>  <Assay Category>


>  <Assay Organism>
Hepatitis C virus subtype 1b

>  <Target ID>
12097

>  <Target Name>
Hepatitis C virus NS5B RNA-dependent RNA polymerase

>  <Target Organism>
Hepatitis C virus

>  <Target Description>
Target is a single protein chain

>  <Sequence Accession>
Q8JXU8

>  <Reference>
J. Med. Chem. 49 (3), 971-983 (2006)

>  <Pubmed ID>
16451063

>  <DOI>
10.1021/jm050855s

$$$$
338257
Actelion Java MolfileCreator 2.0

  0  0  0  0  0  0              0 V3000
M  V30 BEGIN CTAB
M  V30 COUNTS 30 34 0 0 0
M  V30 BEGIN ATOM
M  V30 1 S 0.0 0.0 0.0 0
M  V30 2 O -1.3235 0.7631 0.0 0
M  V30 3 O 1.2877 0.775 0.0 0
M  V30 4 N -1.2997 -0.7512 0.0 0
M  V30 5 C 1.2997 -0.7273 0.0 0
M  V30 6 C -1.2997 -2.2297 0.0 0
M  V30 7 C 1.2997 -2.2178 0.0 0
M  V30 8 C 2.5755 0.0357 0.0 0
M  V30 9 N -0.0119 -2.969 0.0 0
M  V30 10 C -2.6113 -2.9809 0.0 0
M  V30 11 C 2.5874 -2.9451 0.0 0
M  V30 12 C 3.8633 -0.6915 0.0 0
M  V30 13 C -2.6113 -4.4833 0.0 0
M  V30 14 C -3.9348 -2.2297 0.0 0
M  V30 15 C 3.8752 -2.1701 0.0 0
M  V30 16 O -1.3116 -5.2226 0.0 0
M  V30 17 N -3.9229 -5.2226 0.0 0
M  V30 18 O -3.9587 -0.7154 0.0 0
M  V30 19 C -5.2465 -2.969 0.0 0
M  V30 20 C -5.2345 -4.4595 0.0 0
M  V30 21 C -3.9348 -6.7131 0.0 0
M  V30 22 C -6.5581 -2.2059 0.0 0
M  V30 23 C -6.5462 -5.2107 0.0 0
M  V30 24 C -2.647 -7.4524 0.0 0
M  V30 25 C -7.8697 -2.9451 0.0 0
M  V30 26 C -7.8578 -4.4476 0.0 0
M  V30 27 C -2.659 -8.9429 0.0 0
M  V30 28 N -9.1813 -2.182 0.0 0
M  V30 29 C -3.4102 -10.2306 0.0 0
M  V30 30 C -1.9078 -10.2306 0.0 0
M  V30 END ATOM
M  V30 BEGIN BOND
M  V30 1 2 1 2
M  V30 2 2 1 3
M  V30 3 1 1 4
M  V30 4 1 1 5
M  V30 5 2 4 6
M  V30 6 2 5 7
M  V30 7 1 5 8
M  V30 8 1 6 9
M  V30 9 1 6 10
M  V30 10 1 7 11
M  V30 11 2 8 12
M  V30 12 1 10 13
M  V30 13 2 10 14
M  V30 14 2 11 15
M  V30 15 2 13 16
M  V30 16 1 13 17
M  V30 17 1 14 18
M  V30 18 1 14 19
M  V30 19 1 17 20
M  V30 20 1 17 21
M  V30 21 1 19 22
M  V30 22 1 20 23
M  V30 23 1 21 24
M  V30 24 2 22 25
M  V30 25 2 23 26
M  V30 26 1 24 27
M  V30 27 1 25 28
M  V30 28 1 27 29
M  V30 29 1 27 30
M  V30 30 1 7 9
M  V30 31 1 12 15
M  V30 32 2 19 20
M  V30 33 1 25 26
M  V30 34 1 29 30
M  V30 END BOND
M  V30 END CTAB
M  END
>  <MolRegNo>
338257

>  <m>
=

>  <Value>
32

>  <Unit>
nM

>  <Type>
IC50

>  <pValue>
7.5

>  <Ligand Efficiency>
0.34

>  <Binding Efficiency>
17.66

>  <Surface Efficiency>
5.91

>  <Assay Index>
256538

>  <Assay Category>


>  <Assay Organism>
Hepatitis C virus subtype 1b

>  <Target ID>
12097

>  <Target Name>
Hepatitis C virus NS5B RNA-dependent RNA polymerase

>  <Target Organism>
Hepatitis C virus

>  <Target Description>
Target is a single protein chain

>  <Sequence Accession>
Q8JXU8

>  <Reference>
J. Med. Chem. 49 (3), 971-983 (2006)

>  <Pubmed ID>
16451063

>  <DOI>
10.1021/jm050855s

$$$$
338256
Actelion Java MolfileCreator 2.0

  0  0  0  0  0  0              0 V3000
M  V30 BEGIN CTAB
M  V30 COUNTS 30 33 0 0 0
M  V30 BEGIN ATOM
M  V30 1 S 0.0 0.0 0.0 0
M  V30 2 O -1.3241 0.7634 0.0 0
M  V30 3 O 1.2883 0.7753 0.0 0
M  V30 4 N -1.3002 -0.7515 0.0 0
M  V30 5 C 1.3002 -0.7276 0.0 0
M  V30 6 C -1.3002 -2.2306 0.0 0
M  V30 7 C 1.3002 -2.2187 0.0 0
M  V30 8 C 2.5766 0.0357 0.0 0
M  V30 9 N -0.0119 -2.9702 0.0 0
M  V30 10 C -2.6124 -2.9822 0.0 0
M  V30 11 C 2.5885 -2.9464 0.0 0
M  V30 12 C 3.8649 -0.6918 0.0 0
M  V30 13 C -0.0119 -4.4613 0.0 0
M  V30 14 C -2.6124 -4.4852 0.0 0
M  V30 15 C -3.9365 -2.2306 0.0 0
M  V30 16 C 3.8768 -2.171 0.0 0
M  V30 17 O -1.3121 -5.2248 0.0 0
M  V30 18 N -3.9245 -5.2248 0.0 0
M  V30 19 O -3.9603 -0.7157 0.0 0
M  V30 20 C -5.2486 -2.9702 0.0 0
M  V30 21 C -5.2367 -4.4613 0.0 0
M  V30 22 C -3.9365 -6.7159 0.0 0
M  V30 23 C -6.5608 -2.2068 0.0 0
M  V30 24 C -6.5489 -5.2129 0.0 0
M  V30 25 C -2.6482 -7.4555 0.0 0
M  V30 26 C -7.873 -2.9464 0.0 0
M  V30 27 C -7.8611 -4.4494 0.0 0
M  V30 28 C -2.6601 -8.9466 0.0 0
M  V30 29 C -1.3718 -9.6862 0.0 0
M  V30 30 C -3.9723 -9.6862 0.0 0
M  V30 END ATOM
M  V30 BEGIN BOND
M  V30 1 2 1 2
M  V30 2 2 1 3
M  V30 3 1 1 4
M  V30 4 1 1 5
M  V30 5 2 4 6
M  V30 6 2 5 7
M  V30 7 1 5 8
M  V30 8 1 6 9
M  V30 9 1 6 10
M  V30 10 1 7 11
M  V30 11 2 8 12
M  V30 12 1 9 13
M  V30 13 1 10 14
M  V30 14 2 10 15
M  V30 15 2 11 16
M  V30 16 2 14 17
M  V30 17 1 14 18
M  V30 18 1 15 19
M  V30 19 1 15 20
M  V30 20 1 18 21
M  V30 21 1 18 22
M  V30 22 1 20 23
M  V30 23 1 21 24
M  V30 24 1 22 25
M  V30 25 2 23 26
M  V30 26 2 24 27
M  V30 27 1 25 28
M  V30 28 1 28 29
M  V30 29 1 28 30
M  V30 30 1 7 9
M  V30 31 1 12 16
M  V30 32 2 20 21
M  V30 33 1 26 27
M  V30 END BOND
M  V30 END CTAB
M  END
>  <MolRegNo>
338256

>  <m>
>

>  <Value>
2429

>  <Unit>
nM

>  <Type>
IC50

>  <pValue>
0

>  <Ligand Efficiency>
0

>  <Binding Efficiency>
0

>  <Surface Efficiency>
0

>  <Assay Index>
256538

>  <Assay Category>


>  <Assay Organism>
Hepatitis C virus subtype 1b

>  <Target ID>
12097

>  <Target Name>
Hepatitis C virus NS5B RNA-dependent RNA polymerase

>  <Target Organism>
Hepatitis C virus

>  <Target Description>
Target is a single protein chain

>  <Sequence Accession>
Q8JXU8

>  <Reference>
J. Med. Chem. 49 (3), 971-983 (2006)

>  <Pubmed ID>
16451063

>  <DOI>
10.1021/jm050855s

$$$$
338251
Actelion Java MolfileCreator 2.0

  0  0  0  0  0  0              0 V3000
M  V30 BEGIN CTAB
M  V30 COUNTS 29 33 0 0 0
M  V30 BEGIN ATOM
M  V30 1 F 0.0 0.0 0.0 0
M  V30 2 C 1.2912 -0.7412 0.0 0
M  V30 3 C 2.5825 0.0239 0.0 0
M  V30 4 C 1.2793 -2.2477 0.0 0
M  V30 5 C 3.8738 -0.7173 0.0 0
M  V30 6 C 2.5706 -2.989 0.0 0
M  V30 7 C 5.1651 0.0478 0.0 0
M  V30 8 C 3.8618 -2.2238 0.0 0
M  V30 9 O 5.1412 1.5662 0.0 0
M  V30 10 C 6.4683 -0.6815 0.0 0
M  V30 11 N 5.1531 -2.9651 0.0 0
M  V30 12 C 7.7596 0.0956 0.0 0
M  V30 13 C 6.4683 -2.188 0.0 0
M  V30 14 C 5.1412 -4.4597 0.0 0
M  V30 15 N 7.7357 1.6021 0.0 0
M  V30 16 N 9.0509 -0.6456 0.0 0
M  V30 17 O 7.7716 -2.9292 0.0 0
M  V30 18 C 6.4325 -5.2009 0.0 0
M  V30 19 C 9.015 2.3793 0.0 0
M  V30 20 C 10.3422 0.1315 0.0 0
M  V30 21 C 6.4205 -6.6955 0.0 0
M  V30 22 O 8.9911 3.8977 0.0 0
M  V30 23 C 10.3183 1.6499 0.0 0
M  V30 24 C 11.6335 -0.5978 0.0 0
M  V30 25 C 5.6672 -7.9868 0.0 0
M  V30 26 C 7.1737 -7.9868 0.0 0
M  V30 27 C 11.5976 2.4151 0.0 0
M  V30 28 C 12.9247 0.1793 0.0 0
M  V30 29 C 12.8889 1.6858 0.0 0
M  V30 END ATOM
M  V30 BEGIN BOND
M  V30 1 1 1 2
M  V30 2 2 2 3
M  V30 3 1 2 4
M  V30 4 1 3 5
M  V30 5 2 4 6
M  V30 6 1 5 7
M  V30 7 2 5 8
M  V30 8 1 7 9
M  V30 9 2 7 10
M  V30 10 1 8 11
M  V30 11 1 10 12
M  V30 12 1 10 13
M  V30 13 1 11 14
M  V30 14 1 12 15
M  V30 15 2 12 16
M  V30 16 2 13 17
M  V30 17 1 14 18
M  V30 18 2 15 19
M  V30 19 1 16 20
M  V30 20 1 18 21
M  V30 21 1 19 22
M  V30 22 1 19 23
M  V30 23 2 20 24
M  V30 24 1 21 25
M  V30 25 1 21 26
M  V30 26 2 23 27
M  V30 27 1 24 28
M  V30 28 1 27 29
M  V30 29 1 6 8
M  V30 30 1 11 13
M  V30 31 1 20 23
M  V30 32 1 25 26
M  V30 33 2 28 29
M  V30 END BOND
M  V30 END CTAB
M  END
>  <MolRegNo>
338251

>  <m>
>

>  <Value>
10000

>  <Unit>
nM

>  <Type>
IC50

>  <pValue>
0

>  <Ligand Efficiency>
0

>  <Binding Efficiency>
0

>  <Surface Efficiency>
0

>  <Assay Index>
256538

>  <Assay Category>


>  <Assay Organism>
Hepatitis C virus subtype 1b

>  <Target ID>
12097

>  <Target Name>
Hepatitis C virus NS5B RNA-dependent RNA polymerase

>  <Target Organism>
Hepatitis C virus

>  <Target Description>
Target is a single protein chain

>  <Sequence Accession>
Q8JXU8

>  <Reference>
J. Med. Chem. 49 (3), 971-983 (2006)

>  <Pubmed ID>
16451063

>  <DOI>
10.1021/jm050855s

$$$$
338250
Actelion Java MolfileCreator 2.0

  0  0  0  0  0  0              0 V3000
M  V30 BEGIN CTAB
M  V30 COUNTS 25 28 0 0 0
M  V30 BEGIN ATOM
M  V30 1 O 0.0 0.0 0.0 0
M  V30 2 C -1.3193 0.7606 0.0 0
M  V30 3 N -2.6267 0.0237 0.0 0
M  V30 4 C -1.343 2.282 0.0 0
M  V30 5 C -3.9341 0.7844 0.0 0
M  V30 6 C -2.6386 -1.4619 0.0 0
M  V30 7 C -2.6623 3.0308 0.0 0
M  V30 8 C -0.0594 3.0546 0.0 0
M  V30 9 C -3.946 2.3058 0.0 0
M  V30 10 C -5.2415 0.0356 0.0 0
M  V30 11 C -1.3549 -2.1988 0.0 0
M  V30 12 O -2.6861 4.5403 0.0 0
M  V30 13 N 1.2836 2.4722 0.0 0
M  V30 14 N 0.0713 4.5759 0.0 0
M  V30 15 C -5.2534 3.0664 0.0 0
M  V30 16 C -6.5489 0.7963 0.0 0
M  V30 17 C -1.3668 -3.6845 0.0 0
M  V30 18 C 2.2701 3.6013 0.0 0
M  V30 19 C 1.5213 4.8968 0.0 0
M  V30 20 C -6.5608 2.3295 0.0 0
M  V30 21 C -0.0831 -4.4214 0.0 0
M  V30 22 C 3.7558 3.6251 0.0 0
M  V30 23 C 2.2463 6.2042 0.0 0
M  V30 24 C 4.4808 4.9325 0.0 0
M  V30 25 C 3.7201 6.228 0.0 0
M  V30 END ATOM
M  V30 BEGIN BOND
M  V30 1 2 1 2
M  V30 2 1 2 3
M  V30 3 1 2 4
M  V30 4 1 3 5
M  V30 5 1 3 6
M  V30 6 2 4 7
M  V30 7 1 4 8
M  V30 8 2 5 9
M  V30 9 1 5 10
M  V30 10 1 6 11
M  V30 11 1 7 12
M  V30 12 2 8 13
M  V30 13 1 8 14
M  V30 14 1 9 15
M  V30 15 2 10 16
M  V30 16 1 11 17
M  V30 17 1 13 18
M  V30 18 1 14 19
M  V30 19 2 15 20
M  V30 20 1 17 21
M  V30 21 1 18 22
M  V30 22 1 19 23
M  V30 23 2 22 24
M  V30 24 2 23 25
M  V30 25 1 7 9
M  V30 26 1 16 20
M  V30 27 2 18 19
M  V30 28 1 24 25
M  V30 END BOND
M  V30 END CTAB
M  END
>  <MolRegNo>
338250

>  <m>
>

>  <Value>
10000

>  <Unit>
nM

>  <Type>
IC50

>  <pValue>
0

>  <Ligand Efficiency>
0

>  <Binding Efficiency>
0

>  <Surface Efficiency>
0

>  <Assay Index>
256538

>  <Assay Category>


>  <Assay Organism>
Hepatitis C virus subtype 1b

>  <Target ID>
12097

>  <Target Name>
Hepatitis C virus NS5B RNA-dependent RNA polymerase

>  <Target Organism>
Hepatitis C virus

>  <Target Description>
Target is a single protein chain

>  <Sequence Accession>
Q8JXU8

>  <Reference>
J. Med. Chem. 49 (3), 971-983 (2006)

>  <Pubmed ID>
16451063

>  <DOI>
10.1021/jm050855s

$$$$
338609
Actelion Java MolfileCreator 2.0

  0  0  0  0  0  0              0 V3000
M  V30 BEGIN CTAB
M  V30 COUNTS 29 32 0 0 0
M  V30 BEGIN ATOM
M  V30 1 S 0.0 0.0 0.0 0
M  V30 2 O -1.3238 0.7633 0.0 0
M  V30 3 O 1.288 0.7752 0.0 0
M  V30 4 N -1.3 -0.7513 0.0 0
M  V30 5 C 1.3 -0.7275 0.0 0
M  V30 6 C -1.3 -2.2302 0.0 0
M  V30 7 C 1.3 -2.2183 0.0 0
M  V30 8 C 2.5761 0.0357 0.0 0
M  V30 9 N -2.6119 -2.9816 0.0 0
M  V30 10 N -0.0119 -2.9697 0.0 0
M  V30 11 C 2.588 -2.9458 0.0 0
M  V30 12 C 3.8642 -0.6917 0.0 0
M  V30 13 C -2.6119 -4.4844 0.0 0
M  V30 14 C -3.9357 -2.2302 0.0 0
M  V30 15 C 3.8761 -2.1706 0.0 0
M  V30 16 O -1.3119 -5.2238 0.0 0
M  V30 17 N -3.9238 -5.2238 0.0 0
M  V30 18 O -3.9596 -0.7155 0.0 0
M  V30 19 C -5.2477 -2.9697 0.0 0
M  V30 20 C -5.2357 -4.4605 0.0 0
M  V30 21 C -3.9357 -6.7146 0.0 0
M  V30 22 C -6.5596 -2.2064 0.0 0
M  V30 23 C -6.5477 -5.2119 0.0 0
M  V30 24 C -2.6477 -7.4541 0.0 0
M  V30 25 C -7.8715 -2.9458 0.0 0
M  V30 26 C -7.8596 -4.4486 0.0 0
M  V30 27 C -2.6596 -8.9449 0.0 0
M  V30 28 C -1.3715 -9.6844 0.0 0
M  V30 29 C -3.9715 -9.6844 0.0 0
M  V30 END ATOM
M  V30 BEGIN BOND
M  V30 1 2 1 2
M  V30 2 2 1 3
M  V30 3 1 1 4
M  V30 4 1 1 5
M  V30 5 2 4 6
M  V30 6 2 5 7
M  V30 7 1 5 8
M  V30 8 1 6 9
M  V30 9 1 6 10
M  V30 10 1 7 11
M  V30 11 2 8 12
M  V30 12 1 9 13
M  V30 13 1 9 14
M  V30 14 2 11 15
M  V30 15 2 13 16
M  V30 16 1 13 17
M  V30 17 2 14 18
M  V30 18 1 14 19
M  V30 19 1 17 20
M  V30 20 1 17 21
M  V30 21 1 19 22
M  V30 22 1 20 23
M  V30 23 1 21 24
M  V30 24 2 22 25
M  V30 25 2 23 26
M  V30 26 1 24 27
M  V30 27 1 27 28
M  V30 28 1 27 29
M  V30 29 1 7 10
M  V30 30 1 12 15
M  V30 31 2 19 20
M  V30 32 1 25 26
M  V30 END BOND
M  V30 END CTAB
M  END
>  <MolRegNo>
338609

>  <m>
=

>  <Value>
9940

>  <Unit>
nM

>  <Type>
IC50

>  <pValue>
5

>  <Ligand Efficiency>
0.24

>  <Binding Efficiency>
12.13

>  <Surface Efficiency>
4.88

>  <Assay Index>
256538

>  <Assay Category>


>  <Assay Organism>
Hepatitis C virus subtype 1b

>  <Target ID>
12097

>  <Target Name>
Hepatitis C virus NS5B RNA-dependent RNA polymerase

>  <Target Organism>
Hepatitis C virus

>  <Target Description>
Target is a single protein chain

>  <Sequence Accession>
Q8JXU8

>  <Reference>
J. Med. Chem. 49 (3), 971-983 (2006)

>  <Pubmed ID>
16451063

>  <DOI>
10.1021/jm050855s

$$$$
338520
Actelion Java MolfileCreator 2.0

  0  0  0  0  0  0              0 V3000
M  V30 BEGIN CTAB
M  V30 COUNTS 29 32 0 0 0
M  V30 BEGIN ATOM
M  V30 1 S 0.0 0.0 0.0 0
M  V30 2 O -1.3238 0.7633 0.0 0
M  V30 3 O 1.288 0.7752 0.0 0
M  V30 4 N -1.3 -0.7513 0.0 0
M  V30 5 C 1.3 -0.7275 0.0 0
M  V30 6 C -1.3 -2.2302 0.0 0
M  V30 7 C 1.3 -2.2183 0.0 0
M  V30 8 C 2.5761 0.0357 0.0 0
M  V30 9 N -0.0119 -2.9697 0.0 0
M  V30 10 C -2.6119 -2.9816 0.0 0
M  V30 11 C 2.588 -2.9458 0.0 0
M  V30 12 C 3.8642 -0.6917 0.0 0
M  V30 13 C -2.6119 -4.4844 0.0 0
M  V30 14 C -3.9357 -2.2302 0.0 0
M  V30 15 C 3.8761 -2.1706 0.0 0
M  V30 16 O -1.3119 -5.2238 0.0 0
M  V30 17 N -3.9238 -5.2238 0.0 0
M  V30 18 N -3.9596 -0.7155 0.0 0
M  V30 19 C -5.2477 -2.9697 0.0 0
M  V30 20 C -5.2357 -4.4605 0.0 0
M  V30 21 C -3.9357 -6.7146 0.0 0
M  V30 22 C -6.5596 -2.2064 0.0 0
M  V30 23 C -6.5477 -5.2119 0.0 0
M  V30 24 C -2.6477 -7.4541 0.0 0
M  V30 25 C -7.8715 -2.9458 0.0 0
M  V30 26 C -7.8596 -4.4486 0.0 0
M  V30 27 C -2.6596 -8.9449 0.0 0
M  V30 28 C -1.3715 -9.6844 0.0 0
M  V30 29 C -3.9715 -9.6844 0.0 0
M  V30 END ATOM
M  V30 BEGIN BOND
M  V30 1 2 1 2
M  V30 2 2 1 3
M  V30 3 1 1 4
M  V30 4 1 1 5
M  V30 5 2 4 6
M  V30 6 2 5 7
M  V30 7 1 5 8
M  V30 8 1 6 9
M  V30 9 1 6 10
M  V30 10 1 7 11
M  V30 11 2 8 12
M  V30 12 1 10 13
M  V30 13 2 10 14
M  V30 14 2 11 15
M  V30 15 2 13 16
M  V30 16 1 13 17
M  V30 17 1 14 18
M  V30 18 1 14 19
M  V30 19 1 17 20
M  V30 20 1 17 21
M  V30 21 1 19 22
M  V30 22 1 20 23
M  V30 23 1 21 24
M  V30 24 2 22 25
M  V30 25 2 23 26
M  V30 26 1 24 27
M  V30 27 1 27 28
M  V30 28 1 27 29
M  V30 29 1 7 9
M  V30 30 1 12 15
M  V30 31 2 19 20
M  V30 32 1 25 26
M  V30 END BOND
M  V30 END CTAB
M  END
>  <MolRegNo>
338520

>  <m>
>

>  <Value>
10000

>  <Unit>
nM

>  <Type>
IC50

>  <pValue>
0

>  <Ligand Efficiency>
0

>  <Binding Efficiency>
0

>  <Surface Efficiency>
0

>  <Assay Index>
256538

>  <Assay Category>


>  <Assay Organism>
Hepatitis C virus subtype 1b

>  <Target ID>
12097

>  <Target Name>
Hepatitis C virus NS5B RNA-dependent RNA polymerase

>  <Target Organism>
Hepatitis C virus

>  <Target Description>
Target is a single protein chain

>  <Sequence Accession>
Q8JXU8

>  <Reference>
J. Med. Chem. 49 (3), 971-983 (2006)

>  <Pubmed ID>
16451063

>  <DOI>
10.1021/jm050855s

$$$$
338642
Actelion Java MolfileCreator 2.0

  0  0  0  0  0  0              0 V3000
M  V30 BEGIN CTAB
M  V30 COUNTS 28 31 0 0 0
M  V30 BEGIN ATOM
M  V30 1 S 0.0 0.0 0.0 0
M  V30 2 O -1.4295 0.405 0.0 0
M  V30 3 O 1.0602 1.0721 0.0 0
M  V30 4 N -1.3104 -0.7386 0.0 0
M  V30 5 C 1.2985 -0.7386 0.0 0
M  V30 6 C -1.3223 -2.2396 0.0 0
M  V30 7 C 1.2866 -2.2396 0.0 0
M  V30 8 C 2.5851 0.0238 0.0 0
M  V30 9 N -0.0357 -2.9782 0.0 0
M  V30 10 C -2.6327 -2.9782 0.0 0
M  V30 11 C 2.5732 -2.9782 0.0 0
M  V30 12 C 3.8717 -0.7147 0.0 0
M  V30 13 C -3.9432 -2.2158 0.0 0
M  V30 14 C -2.6446 -4.4673 0.0 0
M  V30 15 C 3.8717 -2.2158 0.0 0
M  V30 16 O -3.9551 -0.7028 0.0 0
M  V30 17 C -5.2536 -2.9544 0.0 0
M  V30 18 N -3.967 -5.2059 0.0 0
M  V30 19 C -5.2655 -4.4435 0.0 0
M  V30 20 C -6.564 -2.1919 0.0 0
M  V30 21 C -3.9789 -6.6951 0.0 0
M  V30 22 C -6.5759 -5.1821 0.0 0
M  V30 23 C -7.8745 -2.9306 0.0 0
M  V30 24 C -2.6923 -7.4337 0.0 0
M  V30 25 C -7.8983 -4.4197 0.0 0
M  V30 26 C -2.7042 -8.9347 0.0 0
M  V30 27 C -4.0146 -9.6733 0.0 0
M  V30 28 C -1.4176 -9.6733 0.0 0
M  V30 END ATOM
M  V30 BEGIN BOND
M  V30 1 2 1 2
M  V30 2 2 1 3
M  V30 3 1 1 4
M  V30 4 1 1 5
M  V30 5 2 4 6
M  V30 6 2 5 7
M  V30 7 1 5 8
M  V30 8 1 6 9
M  V30 9 1 6 10
M  V30 10 1 7 11
M  V30 11 2 8 12
M  V30 12 1 10 13
M  V30 13 2 10 14
M  V30 14 2 11 15
M  V30 15 2 13 16
M  V30 16 1 13 17
M  V30 17 1 14 18
M  V30 18 2 17 19
M  V30 19 1 17 20
M  V30 20 1 18 21
M  V30 21 1 19 22
M  V30 22 2 20 23
M  V30 23 1 21 24
M  V30 24 2 22 25
M  V30 25 1 24 26
M  V30 26 1 26 27
M  V30 27 1 26 28
M  V30 28 1 7 9
M  V30 29 1 12 15
M  V30 30 1 18 19
M  V30 31 1 23 25
M  V30 END BOND
M  V30 END CTAB
M  END
>  <MolRegNo>
338642

>  <m>
>

>  <Value>
10000

>  <Unit>
nM

>  <Type>
IC50

>  <pValue>
0

>  <Ligand Efficiency>
0

>  <Binding Efficiency>
0

>  <Surface Efficiency>
0

>  <Assay Index>
256538

>  <Assay Category>


>  <Assay Organism>
Hepatitis C virus subtype 1b

>  <Target ID>
12097

>  <Target Name>
Hepatitis C virus NS5B RNA-dependent RNA polymerase

>  <Target Organism>
Hepatitis C virus

>  <Target Description>
Target is a single protein chain

>  <Sequence Accession>
Q8JXU8

>  <Reference>
J. Med. Chem. 49 (3), 971-983 (2006)

>  <Pubmed ID>
16451063

>  <DOI>
10.1021/jm050855s

$$$$
338641
Actelion Java MolfileCreator 2.0

  0  0  0  0  0  0              0 V3000
M  V30 BEGIN CTAB
M  V30 COUNTS 28 31 0 0 0
M  V30 BEGIN ATOM
M  V30 1 S 0.0 0.0 0.0 0
M  V30 2 O -1.4294 0.405 0.0 0
M  V30 3 O 1.0601 1.072 0.0 0
M  V30 4 N -1.3103 -0.7385 0.0 0
M  V30 5 C 1.2984 -0.7385 0.0 0
M  V30 6 C -1.3222 -2.2394 0.0 0
M  V30 7 C 1.2865 -2.2394 0.0 0
M  V30 8 C 2.5849 0.0238 0.0 0
M  V30 9 N -0.0357 -2.978 0.0 0
M  V30 10 C -2.6325 -2.978 0.0 0
M  V30 11 C 2.573 -2.978 0.0 0
M  V30 12 C 3.8714 -0.7147 0.0 0
M  V30 13 C -2.6444 -4.467 0.0 0
M  V30 14 C -3.9429 -2.2156 0.0 0
M  V30 15 C 3.8714 -2.2156 0.0 0
M  V30 16 O -1.346 -5.2294 0.0 0
M  V30 17 N -3.9667 -5.2056 0.0 0
M  V30 18 C -5.2532 -2.9542 0.0 0
M  V30 19 C -5.277 -4.4432 0.0 0
M  V30 20 C -3.9786 -6.6946 0.0 0
M  V30 21 C -6.5635 -2.1918 0.0 0
M  V30 22 C -6.5874 -5.1817 0.0 0
M  V30 23 C -2.6921 -7.4331 0.0 0
M  V30 24 C -7.8739 -2.9303 0.0 0
M  V30 25 C -7.9096 -4.4194 0.0 0
M  V30 26 C -2.704 -8.934 0.0 0
M  V30 27 C -4.0143 -9.6726 0.0 0
M  V30 28 C -1.4175 -9.6726 0.0 0
M  V30 END ATOM
M  V30 BEGIN BOND
M  V30 1 2 1 2
M  V30 2 2 1 3
M  V30 3 1 1 4
M  V30 4 1 1 5
M  V30 5 2 4 6
M  V30 6 2 5 7
M  V30 7 1 5 8
M  V30 8 1 6 9
M  V30 9 1 6 10
M  V30 10 1 7 11
M  V30 11 2 8 12
M  V30 12 1 10 13
M  V30 13 2 10 14
M  V30 14 2 11 15
M  V30 15 2 13 16
M  V30 16 1 13 17
M  V30 17 1 14 18
M  V30 18 1 17 19
M  V30 19 1 17 20
M  V30 20 1 18 21
M  V30 21 1 19 22
M  V30 22 1 20 23
M  V30 23 2 21 24
M  V30 24 2 22 25
M  V30 25 1 23 26
M  V30 26 1 26 27
M  V30 27 1 26 28
M  V30 28 1 7 9
M  V30 29 1 12 15
M  V30 30 2 18 19
M  V30 31 1 24 25
M  V30 END BOND
M  V30 END CTAB
M  END
>  <MolRegNo>
338641

>  <m>
>

>  <Value>
10000

>  <Unit>
nM

>  <Type>
IC50

>  <pValue>
0

>  <Ligand Efficiency>
0

>  <Binding Efficiency>
0

>  <Surface Efficiency>
0

>  <Assay Index>
256538

>  <Assay Category>


>  <Assay Organism>
Hepatitis C virus subtype 1b

>  <Target ID>
12097

>  <Target Name>
Hepatitis C virus NS5B RNA-dependent RNA polymerase

>  <Target Organism>
Hepatitis C virus

>  <Target Description>
Target is a single protein chain

>  <Sequence Accession>
Q8JXU8

>  <Reference>
J. Med. Chem. 49 (3), 971-983 (2006)

>  <Pubmed ID>
16451063

>  <DOI>
10.1021/jm050855s

$$$$
338530
Actelion Java MolfileCreator 2.0

  0  0  0  0  0  0              0 V3000
M  V30 BEGIN CTAB
M  V30 COUNTS 32 35 0 0 0
M  V30 BEGIN ATOM
M  V30 1 S 0.0 0.0 0.0 0
M  V30 2 O -1.324 0.7633 0.0 0
M  V30 3 O 1.2882 0.7753 0.0 0
M  V30 4 N -1.3001 -0.7514 0.0 0
M  V30 5 C 1.3001 -0.7276 0.0 0
M  V30 6 C -1.3001 -2.2305 0.0 0
M  V30 7 C 1.3001 -2.2186 0.0 0
M  V30 8 C 2.5764 0.0357 0.0 0
M  V30 9 N -0.0119 -2.97 0.0 0
M  V30 10 C -2.6122 -2.9819 0.0 0
M  V30 11 C 2.5883 -2.9462 0.0 0
M  V30 12 C 3.8646 -0.6918 0.0 0
M  V30 13 C -2.6122 -4.4849 0.0 0
M  V30 14 C -3.9362 -2.2305 0.0 0
M  V30 15 C 3.8765 -2.1708 0.0 0
M  V30 16 O -1.312 -5.2244 0.0 0
M  V30 17 N -3.9243 -5.2244 0.0 0
M  V30 18 O -3.96 -0.7156 0.0 0
M  V30 19 C -5.2483 -2.97 0.0 0
M  V30 20 C -5.2363 -4.461 0.0 0
M  V30 21 C -3.9362 -6.7154 0.0 0
M  V30 22 C -6.5603 -2.2066 0.0 0
M  V30 23 C -6.5484 -5.2125 0.0 0
M  V30 24 C -2.648 -7.4549 0.0 0
M  V30 25 C -7.8724 -2.9462 0.0 0
M  V30 26 N -6.5603 -6.7154 0.0 0 CHG=1
M  V30 27 C -7.8605 -4.4491 0.0 0
M  V30 28 C -2.6599 -8.9459 0.0 0
M  V30 29 O -5.2721 -7.4549 0.0 0
M  V30 30 O -7.8724 -7.4549 0.0 0 CHG=-1
M  V30 31 C -1.3717 -9.6855 0.0 0
M  V30 32 C -3.972 -9.6855 0.0 0
M  V30 END ATOM
M  V30 BEGIN BOND
M  V30 1 2 1 2
M  V30 2 2 1 3
M  V30 3 1 1 4
M  V30 4 1 1 5
M  V30 5 2 4 6
M  V30 6 2 5 7
M  V30 7 1 5 8
M  V30 8 1 6 9
M  V30 9 1 6 10
M  V30 10 1 7 11
M  V30 11 2 8 12
M  V30 12 1 10 13
M  V30 13 2 10 14
M  V30 14 2 11 15
M  V30 15 2 13 16
M  V30 16 1 13 17
M  V30 17 1 14 18
M  V30 18 1 14 19
M  V30 19 1 17 20
M  V30 20 1 17 21
M  V30 21 1 19 22
M  V30 22 1 20 23
M  V30 23 1 21 24
M  V30 24 2 22 25
M  V30 25 1 23 26
M  V30 26 2 23 27
M  V30 27 1 24 28
M  V30 28 2 26 29
M  V30 29 1 26 30
M  V30 30 1 28 31
M  V30 31 1 28 32
M  V30 32 1 7 9
M  V30 33 1 12 15
M  V30 34 2 19 20
M  V30 35 1 25 27
M  V30 END BOND
M  V30 END CTAB
M  END
>  <MolRegNo>
338530

>  <m>
>

>  <Value>
10000

>  <Unit>
nM

>  <Type>
IC50

>  <pValue>
0

>  <Ligand Efficiency>
0

>  <Binding Efficiency>
0

>  <Surface Efficiency>
0

>  <Assay Index>
256538

>  <Assay Category>


>  <Assay Organism>
Hepatitis C virus subtype 1b

>  <Target ID>
12097

>  <Target Name>
Hepatitis C virus NS5B RNA-dependent RNA polymerase

>  <Target Organism>
Hepatitis C virus

>  <Target Description>
Target is a single protein chain

>  <Sequence Accession>
Q8JXU8

>  <Reference>
J. Med. Chem. 49 (3), 971-983 (2006)

>  <Pubmed ID>
16451063

>  <DOI>
10.1021/jm050855s

$$$$
338506
Actelion Java MolfileCreator 2.0

  0  0  0  0  0  0              0 V3000
M  V30 BEGIN CTAB
M  V30 COUNTS 30 34 0 0 0
M  V30 BEGIN ATOM
M  V30 1 S 0.0 0.0 0.0 0
M  V30 2 O -1.3232 0.7629 0.0 0
M  V30 3 O 1.2874 0.7748 0.0 0
M  V30 4 N -1.2994 -0.751 0.0 0
M  V30 5 C 1.2994 -0.7271 0.0 0
M  V30 6 C -1.2994 -2.2292 0.0 0
M  V30 7 C 1.2994 -2.2173 0.0 0
M  V30 8 C 2.5749 0.0357 0.0 0
M  V30 9 N -0.0119 -2.9683 0.0 0
M  V30 10 C -2.6107 -2.9802 0.0 0
M  V30 11 C 2.5868 -2.9445 0.0 0
M  V30 12 C 3.8624 -0.6914 0.0 0
M  V30 13 C -2.6107 -4.4823 0.0 0
M  V30 14 C -3.9339 -2.2292 0.0 0
M  V30 15 C 3.8743 -2.1696 0.0 0
M  V30 16 O -1.3113 -5.2214 0.0 0
M  V30 17 N -3.922 -5.2214 0.0 0
M  V30 18 O -3.9578 -0.7152 0.0 0
M  V30 19 C -5.2453 -2.9683 0.0 0
M  V30 20 C -5.2333 -4.4585 0.0 0
M  V30 21 C -3.9339 -6.7116 0.0 0
M  V30 22 C -6.5566 -2.2054 0.0 0
M  V30 23 C -6.5447 -5.2095 0.0 0
M  V30 24 C -2.6464 -7.4507 0.0 0
M  V30 25 C -7.8679 -2.9445 0.0 0
M  V30 26 F -6.5566 -6.6996 0.0 0
M  V30 27 C -7.856 -4.4465 0.0 0
M  V30 28 C -2.6584 -8.9408 0.0 0
M  V30 29 C -3.4213 -10.2402 0.0 0
M  V30 30 C -1.9073 -10.2402 0.0 0
M  V30 END ATOM
M  V30 BEGIN BOND
M  V30 1 2 1 2
M  V30 2 2 1 3
M  V30 3 1 1 4
M  V30 4 1 1 5
M  V30 5 2 4 6
M  V30 6 2 5 7
M  V30 7 1 5 8
M  V30 8 1 6 9
M  V30 9 1 6 10
M  V30 10 1 7 11
M  V30 11 2 8 12
M  V30 12 1 10 13
M  V30 13 2 10 14
M  V30 14 2 11 15
M  V30 15 2 13 16
M  V30 16 1 13 17
M  V30 17 1 14 18
M  V30 18 1 14 19
M  V30 19 1 17 20
M  V30 20 1 17 21
M  V30 21 1 19 22
M  V30 22 1 20 23
M  V30 23 1 21 24
M  V30 24 2 22 25
M  V30 25 1 23 26
M  V30 26 2 23 27
M  V30 27 1 24 28
M  V30 28 1 28 29
M  V30 29 1 28 30
M  V30 30 1 7 9
M  V30 31 1 12 15
M  V30 32 2 19 20
M  V30 33 1 25 27
M  V30 34 1 29 30
M  V30 END BOND
M  V30 END CTAB
M  END
>  <MolRegNo>
338506

>  <m>
=

>  <Value>
90

>  <Unit>
nM

>  <Type>
IC50

>  <pValue>
7.05

>  <Ligand Efficiency>
0.32

>  <Binding Efficiency>
16.48

>  <Surface Efficiency>
6.99

>  <Assay Index>
256538

>  <Assay Category>


>  <Assay Organism>
Hepatitis C virus subtype 1b

>  <Target ID>
12097

>  <Target Name>
Hepatitis C virus NS5B RNA-dependent RNA polymerase

>  <Target Organism>
Hepatitis C virus

>  <Target Description>
Target is a single protein chain

>  <Sequence Accession>
Q8JXU8

>  <Reference>
J. Med. Chem. 49 (3), 971-983 (2006)

>  <Pubmed ID>
16451063

>  <DOI>
10.1021/jm050855s

$$$$
338498
Actelion Java MolfileCreator 2.0

  0  0  0  0  0  0              0 V3000
M  V30 BEGIN CTAB
M  V30 COUNTS 34 37 0 0 0
M  V30 BEGIN ATOM
M  V30 1 S 0.0 0.0 0.0 0
M  V30 2 O -1.3229 0.7627 0.0 0
M  V30 3 O 1.2871 0.7746 0.0 0
M  V30 4 N -1.2991 -0.7508 0.0 0
M  V30 5 C 1.2991 -0.727 0.0 0
M  V30 6 C -1.2991 -2.2287 0.0 0
M  V30 7 C 1.2991 -2.2168 0.0 0
M  V30 8 C 2.5743 0.0357 0.0 0
M  V30 9 N -0.0119 -2.9676 0.0 0
M  V30 10 C -2.6101 -2.9795 0.0 0
M  V30 11 C 2.5862 -2.9438 0.0 0
M  V30 12 C 3.8615 -0.6912 0.0 0
M  V30 13 C -2.6101 -4.4813 0.0 0
M  V30 14 C -3.933 -2.2287 0.0 0
M  V30 15 C 3.8734 -2.1691 0.0 0
M  V30 16 O -1.311 -5.2202 0.0 0
M  V30 17 N -3.9211 -5.2202 0.0 0
M  V30 18 O -3.9568 -0.7151 0.0 0
M  V30 19 C -5.244 -2.9676 0.0 0
M  V30 20 C -5.2321 -4.4574 0.0 0
M  V30 21 C -3.933 -6.71 0.0 0
M  V30 22 C -6.5551 -2.2048 0.0 0
M  V30 23 C -6.5431 -5.2083 0.0 0
M  V30 24 C -2.6458 -7.4489 0.0 0
M  V30 25 C -7.8661 -2.9438 0.0 0
M  V30 26 C -7.8542 -4.4455 0.0 0
M  V30 27 C -2.6577 -8.9387 0.0 0
M  V30 28 C -9.1652 -5.1844 0.0 0
M  V30 29 C -1.3706 -9.6777 0.0 0
M  V30 30 C -3.9688 -9.6777 0.0 0
M  V30 31 C -10.4762 -4.4217 0.0 0
M  V30 32 C -11.7872 -5.1606 0.0 0
M  V30 33 O -11.7991 -6.6504 0.0 0
M  V30 34 N -13.0982 -4.3978 0.0 0
M  V30 END ATOM
M  V30 BEGIN BOND
M  V30 1 2 1 2
M  V30 2 2 1 3
M  V30 3 1 1 4
M  V30 4 1 1 5
M  V30 5 2 4 6
M  V30 6 2 5 7
M  V30 7 1 5 8
M  V30 8 1 6 9
M  V30 9 1 6 10
M  V30 10 1 7 11
M  V30 11 2 8 12
M  V30 12 1 10 13
M  V30 13 2 10 14
M  V30 14 2 11 15
M  V30 15 2 13 16
M  V30 16 1 13 17
M  V30 17 1 14 18
M  V30 18 1 14 19
M  V30 19 1 17 20
M  V30 20 1 17 21
M  V30 21 1 19 22
M  V30 22 1 20 23
M  V30 23 1 21 24
M  V30 24 2 22 25
M  V30 25 2 23 26
M  V30 26 1 24 27
M  V30 27 1 26 28
M  V30 28 1 27 29
M  V30 29 1 27 30
M  V30 30 2 28 31
M  V30 31 1 31 32
M  V30 32 2 32 33
M  V30 33 1 32 34
M  V30 34 1 7 9
M  V30 35 1 12 15
M  V30 36 2 19 20
M  V30 37 1 25 26
M  V30 END BOND
M  V30 END CTAB
M  END
>  <MolRegNo>
338498

>  <m>
>

>  <Value>
10000

>  <Unit>
nM

>  <Type>
IC50

>  <pValue>
0

>  <Ligand Efficiency>
0

>  <Binding Efficiency>
0

>  <Surface Efficiency>
0

>  <Assay Index>
256538

>  <Assay Category>


>  <Assay Organism>
Hepatitis C virus subtype 1b

>  <Target ID>
12097

>  <Target Name>
Hepatitis C virus NS5B RNA-dependent RNA polymerase

>  <Target Organism>
Hepatitis C virus

>  <Target Description>
Target is a single protein chain

>  <Sequence Accession>
Q8JXU8

>  <Reference>
J. Med. Chem. 49 (3), 971-983 (2006)

>  <Pubmed ID>
16451063

>  <DOI>
10.1021/jm050855s

$$$$
338625
Actelion Java MolfileCreator 2.0

  0  0  0  0  0  0              0 V3000
M  V30 BEGIN CTAB
M  V30 COUNTS 32 35 0 0 0
M  V30 BEGIN ATOM
M  V30 1 S 0.0 0.0 0.0 0
M  V30 2 O -1.3234 0.763 0.0 0
M  V30 3 O 1.2877 0.775 0.0 0
M  V30 4 N -1.2996 -0.7511 0.0 0
M  V30 5 C 1.2996 -0.7273 0.0 0
M  V30 6 C -1.2996 -2.2296 0.0 0
M  V30 7 C 1.2996 -2.2177 0.0 0
M  V30 8 C 2.5754 0.0357 0.0 0
M  V30 9 N -0.0119 -2.9688 0.0 0
M  V30 10 C -2.6112 -2.9808 0.0 0
M  V30 11 C 2.5873 -2.945 0.0 0
M  V30 12 C 3.8631 -0.6915 0.0 0
M  V30 13 C -2.6112 -4.4831 0.0 0
M  V30 14 C -3.9346 -2.2296 0.0 0
M  V30 15 C 3.875 -2.17 0.0 0
M  V30 16 O -1.3115 -5.2224 0.0 0
M  V30 17 N -3.9227 -5.2224 0.0 0
M  V30 18 O -3.9585 -0.7153 0.0 0
M  V30 19 C -5.2462 -2.9688 0.0 0
M  V30 20 C -5.2343 -4.4593 0.0 0
M  V30 21 C -3.9346 -6.7128 0.0 0
M  V30 22 C -6.5578 -2.2058 0.0 0
M  V30 23 C -6.5458 -5.2104 0.0 0
M  V30 24 C -2.6469 -7.452 0.0 0
M  V30 25 C -7.8693 -2.945 0.0 0
M  V30 26 C -7.8574 -4.4473 0.0 0
M  V30 27 C -2.6588 -8.9424 0.0 0
M  V30 28 C -9.169 -5.1866 0.0 0
M  V30 29 C -1.3711 -9.6817 0.0 0
M  V30 30 C -3.9704 -9.6817 0.0 0
M  V30 31 O -9.1809 -6.677 0.0 0
M  V30 32 O -10.4805 -4.4235 0.0 0
M  V30 END ATOM
M  V30 BEGIN BOND
M  V30 1 2 1 2
M  V30 2 2 1 3
M  V30 3 1 1 4
M  V30 4 1 1 5
M  V30 5 2 4 6
M  V30 6 2 5 7
M  V30 7 1 5 8
M  V30 8 1 6 9
M  V30 9 1 6 10
M  V30 10 1 7 11
M  V30 11 2 8 12
M  V30 12 1 10 13
M  V30 13 2 10 14
M  V30 14 2 11 15
M  V30 15 2 13 16
M  V30 16 1 13 17
M  V30 17 1 14 18
M  V30 18 1 14 19
M  V30 19 1 17 20
M  V30 20 1 17 21
M  V30 21 1 19 22
M  V30 22 1 20 23
M  V30 23 1 21 24
M  V30 24 2 22 25
M  V30 25 2 23 26
M  V30 26 1 24 27
M  V30 27 1 26 28
M  V30 28 1 27 29
M  V30 29 1 27 30
M  V30 30 2 28 31
M  V30 31 1 28 32
M  V30 32 1 7 9
M  V30 33 1 12 15
M  V30 34 2 19 20
M  V30 35 1 25 26
M  V30 END BOND
M  V30 END CTAB
M  END
>  <MolRegNo>
338625

>  <m>
>

>  <Value>
10000

>  <Unit>
nM

>  <Type>
IC50

>  <pValue>
0

>  <Ligand Efficiency>
0

>  <Binding Efficiency>
0

>  <Surface Efficiency>
0

>  <Assay Index>
256538

>  <Assay Category>


>  <Assay Organism>
Hepatitis C virus subtype 1b

>  <Target ID>
12097

>  <Target Name>
Hepatitis C virus NS5B RNA-dependent RNA polymerase

>  <Target Organism>
Hepatitis C virus

>  <Target Description>
Target is a single protein chain

>  <Sequence Accession>
Q8JXU8

>  <Reference>
J. Med. Chem. 49 (3), 971-983 (2006)

>  <Pubmed ID>
16451063

>  <DOI>
10.1021/jm050855s

$$$$
338497
Actelion Java MolfileCreator 2.0

  0  0  0  0  0  0              0 V3000
M  V30 BEGIN CTAB
M  V30 COUNTS 34 37 0 0 0
M  V30 BEGIN ATOM
M  V30 1 S 0.0 0.0 0.0 0
M  V30 2 O -1.3227 0.7626 0.0 0
M  V30 3 O 1.2869 0.7745 0.0 0
M  V30 4 N -1.2988 -0.7507 0.0 0
M  V30 5 C 1.2988 -0.7269 0.0 0
M  V30 6 C -1.2988 -2.2283 0.0 0
M  V30 7 C 1.2988 -2.2164 0.0 0
M  V30 8 C 2.5739 0.0357 0.0 0
M  V30 9 N -0.0119 -2.9672 0.0 0
M  V30 10 C -2.6097 -2.9791 0.0 0
M  V30 11 C 2.5858 -2.9433 0.0 0
M  V30 12 C 3.8609 -0.6911 0.0 0
M  V30 13 C -2.6097 -4.4805 0.0 0
M  V30 14 C -3.9324 -2.2283 0.0 0
M  V30 15 C 3.8728 -2.1688 0.0 0
M  V30 16 O -1.3108 -5.2194 0.0 0
M  V30 17 N -3.9205 -5.2194 0.0 0
M  V30 18 O -3.9562 -0.7149 0.0 0
M  V30 19 C -5.2432 -2.9672 0.0 0
M  V30 20 C -5.2313 -4.4567 0.0 0
M  V30 21 C -3.9324 -6.7089 0.0 0
M  V30 22 C -6.554 -2.2045 0.0 0
M  V30 23 C -6.5421 -5.2075 0.0 0
M  V30 24 C -2.6454 -7.4478 0.0 0
M  V30 25 C -7.8648 -2.9433 0.0 0
M  V30 26 C -7.8529 -4.4448 0.0 0
M  V30 27 C -2.6573 -8.9373 0.0 0
M  V30 28 C -9.1637 -5.1836 0.0 0
M  V30 29 C -1.3703 -9.6761 0.0 0
M  V30 30 C -3.9681 -9.6761 0.0 0
M  V30 31 O -9.1756 -6.6732 0.0 0
M  V30 32 O -10.4745 -4.421 0.0 0
M  V30 33 C -10.4865 -2.9076 0.0 0
M  V30 34 C -11.7973 -2.1449 0.0 0
M  V30 END ATOM
M  V30 BEGIN BOND
M  V30 1 2 1 2
M  V30 2 2 1 3
M  V30 3 1 1 4
M  V30 4 1 1 5
M  V30 5 2 4 6
M  V30 6 2 5 7
M  V30 7 1 5 8
M  V30 8 1 6 9
M  V30 9 1 6 10
M  V30 10 1 7 11
M  V30 11 2 8 12
M  V30 12 1 10 13
M  V30 13 2 10 14
M  V30 14 2 11 15
M  V30 15 2 13 16
M  V30 16 1 13 17
M  V30 17 1 14 18
M  V30 18 1 14 19
M  V30 19 1 17 20
M  V30 20 1 17 21
M  V30 21 1 19 22
M  V30 22 1 20 23
M  V30 23 1 21 24
M  V30 24 2 22 25
M  V30 25 2 23 26
M  V30 26 1 24 27
M  V30 27 1 26 28
M  V30 28 1 27 29
M  V30 29 1 27 30
M  V30 30 2 28 31
M  V30 31 1 28 32
M  V30 32 1 32 33
M  V30 33 1 33 34
M  V30 34 1 7 9
M  V30 35 1 12 15
M  V30 36 2 19 20
M  V30 37 1 25 26
M  V30 END BOND
M  V30 END CTAB
M  END
>  <MolRegNo>
338497

>  <m>
>

>  <Value>
10000

>  <Unit>
nM

>  <Type>
IC50

>  <pValue>
0

>  <Ligand Efficiency>
0

>  <Binding Efficiency>
0

>  <Surface Efficiency>
0

>  <Assay Index>
256538

>  <Assay Category>


>  <Assay Organism>
Hepatitis C virus subtype 1b

>  <Target ID>
12097

>  <Target Name>
Hepatitis C virus NS5B RNA-dependent RNA polymerase

>  <Target Organism>
Hepatitis C virus

>  <Target Description>
Target is a single protein chain

>  <Sequence Accession>
Q8JXU8

>  <Reference>
J. Med. Chem. 49 (3), 971-983 (2006)

>  <Pubmed ID>
16451063

>  <DOI>
10.1021/jm050855s

$$$$
338488
Actelion Java MolfileCreator 2.0

  0  0  0  0  0  0              0 V3000
M  V30 BEGIN CTAB
M  V30 COUNTS 32 35 0 0 0
M  V30 BEGIN ATOM
M  V30 1 S 0.0 0.0 0.0 0
M  V30 2 O -1.3232 0.7629 0.0 0
M  V30 3 O 1.2874 0.7748 0.0 0
M  V30 4 N -1.2993 -0.751 0.0 0
M  V30 5 C 1.2993 -0.7271 0.0 0
M  V30 6 C -1.2993 -2.2292 0.0 0
M  V30 7 C 1.2993 -2.2172 0.0 0
M  V30 8 C 2.5749 0.0357 0.0 0
M  V30 9 N -0.0119 -2.9683 0.0 0
M  V30 10 C -2.6106 -2.9802 0.0 0
M  V30 11 C 2.5868 -2.9444 0.0 0
M  V30 12 C 3.8623 -0.6914 0.0 0
M  V30 13 C -2.6106 -4.4822 0.0 0
M  V30 14 C -3.9339 -2.2292 0.0 0
M  V30 15 C 3.8743 -2.1696 0.0 0
M  V30 16 O -1.3113 -5.2213 0.0 0
M  V30 17 N -3.9219 -5.2213 0.0 0
M  V30 18 O -3.9577 -0.7152 0.0 0
M  V30 19 C -5.2452 -2.9683 0.0 0
M  V30 20 C -5.2332 -4.4584 0.0 0
M  V30 21 C -3.9339 -6.7114 0.0 0
M  V30 22 C -6.5565 -2.2053 0.0 0
M  V30 23 C -6.5445 -5.2094 0.0 0
M  V30 24 C -2.6464 -7.4505 0.0 0
M  V30 25 C -7.8678 -2.9444 0.0 0
M  V30 26 C -7.8558 -4.4465 0.0 0
M  V30 27 C -2.6583 -8.9406 0.0 0
M  V30 28 N -9.1791 -5.1856 0.0 0 CHG=1
M  V30 29 C -1.3709 -9.6797 0.0 0
M  V30 30 C -3.9696 -9.6797 0.0 0
M  V30 31 O -9.191 -6.6757 0.0 0
M  V30 32 O -10.4904 -4.4226 0.0 0 CHG=-1
M  V30 END ATOM
M  V30 BEGIN BOND
M  V30 1 2 1 2
M  V30 2 2 1 3
M  V30 3 1 1 4
M  V30 4 1 1 5
M  V30 5 2 4 6
M  V30 6 2 5 7
M  V30 7 1 5 8
M  V30 8 1 6 9
M  V30 9 1 6 10
M  V30 10 1 7 11
M  V30 11 2 8 12
M  V30 12 1 10 13
M  V30 13 2 10 14
M  V30 14 2 11 15
M  V30 15 2 13 16
M  V30 16 1 13 17
M  V30 17 1 14 18
M  V30 18 1 14 19
M  V30 19 1 17 20
M  V30 20 1 17 21
M  V30 21 1 19 22
M  V30 22 1 20 23
M  V30 23 1 21 24
M  V30 24 2 22 25
M  V30 25 2 23 26
M  V30 26 1 24 27
M  V30 27 1 26 28
M  V30 28 1 27 29
M  V30 29 1 27 30
M  V30 30 2 28 31
M  V30 31 1 28 32
M  V30 32 1 7 9
M  V30 33 1 12 15
M  V30 34 2 19 20
M  V30 35 1 25 26
M  V30 END BOND
M  V30 END CTAB
M  END
>  <MolRegNo>
338488

>  <m>
>

>  <Value>
10000

>  <Unit>
nM

>  <Type>
IC50

>  <pValue>
0

>  <Ligand Efficiency>
0

>  <Binding Efficiency>
0

>  <Surface Efficiency>
0

>  <Assay Index>
256538

>  <Assay Category>


>  <Assay Organism>
Hepatitis C virus subtype 1b

>  <Target ID>
12097

>  <Target Name>
Hepatitis C virus NS5B RNA-dependent RNA polymerase

>  <Target Organism>
Hepatitis C virus

>  <Target Description>
Target is a single protein chain

>  <Sequence Accession>
Q8JXU8

>  <Reference>
J. Med. Chem. 49 (3), 971-983 (2006)

>  <Pubmed ID>
16451063

>  <DOI>
10.1021/jm050855s

$$$$
338273
Actelion Java MolfileCreator 2.0

  0  0  0  0  0  0              0 V3000
M  V30 BEGIN CTAB
M  V30 COUNTS 30 33 0 0 0
M  V30 BEGIN ATOM
M  V30 1 Br 0.0 0.0 0.0 0
M  V30 2 C 1.2895 0.7641 0.0 0
M  V30 3 C 2.5791 0.0238 0.0 0
M  V30 4 C 1.2776 2.2925 0.0 0
M  V30 5 C 3.8687 0.8 0.0 0
M  V30 6 C 2.5672 3.0567 0.0 0
M  V30 7 N 5.1583 0.0597 0.0 0
M  V30 8 C 3.8567 2.3284 0.0 0
M  V30 9 C 6.4478 0.8238 0.0 0
M  V30 10 C 5.1463 -1.4328 0.0 0
M  V30 11 C 5.1463 3.0926 0.0 0
M  V30 12 O 7.7494 0.0835 0.0 0
M  V30 13 C 6.424 2.3522 0.0 0
M  V30 14 C 6.4359 -2.1731 0.0 0
M  V30 15 O 5.1224 4.609 0.0 0
M  V30 16 C 7.7135 3.1284 0.0 0
M  V30 17 C 6.424 -3.6657 0.0 0
M  V30 18 N 7.6897 4.6329 0.0 0
M  V30 19 N 9.0031 2.3881 0.0 0
M  V30 20 C 7.7135 -4.406 0.0 0
M  V30 21 C 5.1105 -4.406 0.0 0
M  V30 22 S 8.9673 5.409 0.0 0
M  V30 23 C 10.2927 3.1642 0.0 0
M  V30 24 O 7.6419 6.1732 0.0 0
M  V30 25 O 10.2569 6.1852 0.0 0
M  V30 26 C 10.2688 4.6806 0.0 0
M  V30 27 C 11.5823 2.4358 0.0 0
M  V30 28 C 11.5465 5.4448 0.0 0
M  V30 29 C 12.8719 3.212 0.0 0
M  V30 30 C 12.836 4.7165 0.0 0
M  V30 END ATOM
M  V30 BEGIN BOND
M  V30 1 1 1 2
M  V30 2 2 2 3
M  V30 3 1 2 4
M  V30 4 1 3 5
M  V30 5 2 4 6
M  V30 6 1 5 7
M  V30 7 2 5 8
M  V30 8 1 7 9
M  V30 9 1 7 10
M  V30 10 1 8 11
M  V30 11 2 9 12
M  V30 12 1 9 13
M  V30 13 1 10 14
M  V30 14 1 11 15
M  V30 15 1 13 16
M  V30 16 1 14 17
M  V30 17 2 16 18
M  V30 18 1 16 19
M  V30 19 1 17 20
M  V30 20 1 17 21
M  V30 21 1 18 22
M  V30 22 1 19 23
M  V30 23 2 22 24
M  V30 24 2 22 25
M  V30 25 1 22 26
M  V30 26 1 23 27
M  V30 27 1 26 28
M  V30 28 2 27 29
M  V30 29 2 28 30
M  V30 30 1 6 8
M  V30 31 2 11 13
M  V30 32 2 23 26
M  V30 33 1 29 30
M  V30 END BOND
M  V30 END CTAB
M  END
>  <MolRegNo>
338273

>  <m>
>

>  <Value>
10000

>  <Unit>
nM

>  <Type>
IC50

>  <pValue>
0

>  <Ligand Efficiency>
0

>  <Binding Efficiency>
0

>  <Surface Efficiency>
0

>  <Assay Index>
256538

>  <Assay Category>


>  <Assay Organism>
Hepatitis C virus subtype 1b

>  <Target ID>
12097

>  <Target Name>
Hepatitis C virus NS5B RNA-dependent RNA polymerase

>  <Target Organism>
Hepatitis C virus

>  <Target Description>
Target is a single protein chain

>  <Sequence Accession>
Q8JXU8

>  <Reference>
J. Med. Chem. 49 (3), 971-983 (2006)

>  <Pubmed ID>
16451063

>  <DOI>
10.1021/jm050855s

$$$$
338236
Actelion Java MolfileCreator 2.0

  0  0  0  0  0  0              0 V3000
M  V30 BEGIN CTAB
M  V30 COUNTS 30 33 0 0 0
M  V30 BEGIN ATOM
M  V30 1 Cl 0.0 0.0 0.0 0
M  V30 2 C 1.2895 0.7641 0.0 0
M  V30 3 C 2.5791 0.0238 0.0 0
M  V30 4 C 1.2776 2.2925 0.0 0
M  V30 5 C 3.8687 0.8 0.0 0
M  V30 6 C 2.5672 3.0567 0.0 0
M  V30 7 N 5.1583 0.0597 0.0 0
M  V30 8 C 3.8567 2.3284 0.0 0
M  V30 9 C 6.4478 0.8238 0.0 0
M  V30 10 C 5.1463 -1.4328 0.0 0
M  V30 11 C 5.1463 3.0926 0.0 0
M  V30 12 O 7.7494 0.0835 0.0 0
M  V30 13 C 6.424 2.3522 0.0 0
M  V30 14 C 6.4359 -2.1731 0.0 0
M  V30 15 O 5.1224 4.609 0.0 0
M  V30 16 C 7.7135 3.1284 0.0 0
M  V30 17 C 6.424 -3.6657 0.0 0
M  V30 18 N 7.6897 4.6329 0.0 0
M  V30 19 N 9.0031 2.3881 0.0 0
M  V30 20 C 7.7135 -4.406 0.0 0
M  V30 21 C 5.1105 -4.406 0.0 0
M  V30 22 S 8.9673 5.409 0.0 0
M  V30 23 C 10.2927 3.1642 0.0 0
M  V30 24 O 7.6419 6.1732 0.0 0
M  V30 25 O 10.2569 6.1852 0.0 0
M  V30 26 C 10.2688 4.6806 0.0 0
M  V30 27 C 11.5823 2.4358 0.0 0
M  V30 28 C 11.5465 5.4448 0.0 0
M  V30 29 C 12.8719 3.212 0.0 0
M  V30 30 C 12.836 4.7165 0.0 0
M  V30 END ATOM
M  V30 BEGIN BOND
M  V30 1 1 1 2
M  V30 2 2 2 3
M  V30 3 1 2 4
M  V30 4 1 3 5
M  V30 5 2 4 6
M  V30 6 1 5 7
M  V30 7 2 5 8
M  V30 8 1 7 9
M  V30 9 1 7 10
M  V30 10 1 8 11
M  V30 11 2 9 12
M  V30 12 1 9 13
M  V30 13 1 10 14
M  V30 14 1 11 15
M  V30 15 1 13 16
M  V30 16 1 14 17
M  V30 17 2 16 18
M  V30 18 1 16 19
M  V30 19 1 17 20
M  V30 20 1 17 21
M  V30 21 1 18 22
M  V30 22 1 19 23
M  V30 23 2 22 24
M  V30 24 2 22 25
M  V30 25 1 22 26
M  V30 26 1 23 27
M  V30 27 1 26 28
M  V30 28 2 27 29
M  V30 29 2 28 30
M  V30 30 1 6 8
M  V30 31 2 11 13
M  V30 32 2 23 26
M  V30 33 1 29 30
M  V30 END BOND
M  V30 END CTAB
M  END
>  <MolRegNo>
338236

>  <m>
>

>  <Value>
10000

>  <Unit>
nM

>  <Type>
IC50

>  <pValue>
0

>  <Ligand Efficiency>
0

>  <Binding Efficiency>
0

>  <Surface Efficiency>
0

>  <Assay Index>
256538

>  <Assay Category>


>  <Assay Organism>
Hepatitis C virus subtype 1b

>  <Target ID>
12097

>  <Target Name>
Hepatitis C virus NS5B RNA-dependent RNA polymerase

>  <Target Organism>
Hepatitis C virus

>  <Target Description>
Target is a single protein chain

>  <Sequence Accession>
Q8JXU8

>  <Reference>
J. Med. Chem. 49 (3), 971-983 (2006)

>  <Pubmed ID>
16451063

>  <DOI>
10.1021/jm050855s

$$$$
338583
Actelion Java MolfileCreator 2.0

  0  0  0  0  0  0              0 V3000
M  V30 BEGIN CTAB
M  V30 COUNTS 30 33 0 0 0
M  V30 BEGIN ATOM
M  V30 1 S 0.0 0.0 0.0 0
M  V30 2 O -1.3236 0.7632 0.0 0
M  V30 3 O 1.2879 0.7751 0.0 0
M  V30 4 N -1.2998 -0.7512 0.0 0
M  V30 5 C 1.2998 -0.7274 0.0 0
M  V30 6 C -1.2998 -2.23 0.0 0
M  V30 7 C 1.2998 -2.218 0.0 0
M  V30 8 C 2.5758 0.0357 0.0 0
M  V30 9 N -0.0119 -2.9693 0.0 0
M  V30 10 C -2.6116 -2.9812 0.0 0
M  V30 11 C 2.5877 -2.9455 0.0 0
M  V30 12 C 3.8637 -0.6916 0.0 0
M  V30 13 C -2.6116 -4.4838 0.0 0
M  V30 14 C -3.9353 -2.23 0.0 0
M  V30 15 C 3.8756 -2.1703 0.0 0
M  V30 16 O -1.3117 -5.2232 0.0 0
M  V30 17 N -3.9233 -5.2232 0.0 0
M  V30 18 O -3.9591 -0.7155 0.0 0
M  V30 19 C -5.247 -2.9693 0.0 0
M  V30 20 C -5.2351 -4.46 0.0 0
M  V30 21 C -3.9353 -6.7138 0.0 0
M  V30 22 C -6.5588 -2.2061 0.0 0
M  V30 23 C -6.5469 -5.2113 0.0 0
M  V30 24 C -2.6473 -7.4532 0.0 0
M  V30 25 C -7.8706 -2.9455 0.0 0
M  V30 26 C -7.8586 -4.448 0.0 0
M  V30 27 C -2.6593 -8.9438 0.0 0
M  V30 28 F -9.1704 -5.1874 0.0 0
M  V30 29 C -1.3713 -9.6832 0.0 0
M  V30 30 C -3.971 -9.6832 0.0 0
M  V30 END ATOM
M  V30 BEGIN BOND
M  V30 1 2 1 2
M  V30 2 2 1 3
M  V30 3 1 1 4
M  V30 4 1 1 5
M  V30 5 2 4 6
M  V30 6 2 5 7
M  V30 7 1 5 8
M  V30 8 1 6 9
M  V30 9 1 6 10
M  V30 10 1 7 11
M  V30 11 2 8 12
M  V30 12 1 10 13
M  V30 13 2 10 14
M  V30 14 2 11 15
M  V30 15 2 13 16
M  V30 16 1 13 17
M  V30 17 1 14 18
M  V30 18 1 14 19
M  V30 19 1 17 20
M  V30 20 1 17 21
M  V30 21 1 19 22
M  V30 22 1 20 23
M  V30 23 1 21 24
M  V30 24 2 22 25
M  V30 25 2 23 26
M  V30 26 1 24 27
M  V30 27 1 26 28
M  V30 28 1 27 29
M  V30 29 1 27 30
M  V30 30 1 7 9
M  V30 31 1 12 15
M  V30 32 2 19 20
M  V30 33 1 25 26
M  V30 END BOND
M  V30 END CTAB
M  END
>  <MolRegNo>
338583

>  <m>
=

>  <Value>
554

>  <Unit>
nM

>  <Type>
IC50

>  <pValue>
6.26

>  <Ligand Efficiency>
0.28

>  <Binding Efficiency>
14.57

>  <Surface Efficiency>
6.21

>  <Assay Index>
256538

>  <Assay Category>


>  <Assay Organism>
Hepatitis C virus subtype 1b

>  <Target ID>
12097

>  <Target Name>
Hepatitis C virus NS5B RNA-dependent RNA polymerase

>  <Target Organism>
Hepatitis C virus

>  <Target Description>
Target is a single protein chain

>  <Sequence Accession>
Q8JXU8

>  <Reference>
J. Med. Chem. 49 (3), 971-983 (2006)

>  <Pubmed ID>
16451063

>  <DOI>
10.1021/jm050855s

$$$$
338576
Actelion Java MolfileCreator 2.0

  0  0  0  0  0  0              0 V3000
M  V30 BEGIN CTAB
M  V30 COUNTS 38 42 0 0 0
M  V30 BEGIN ATOM
M  V30 1 S 0.0 0.0 0.0 0
M  V30 2 O -1.3217 0.7621 0.0 0
M  V30 3 O 1.286 0.774 0.0 0
M  V30 4 N -1.2979 -0.7501 0.0 0
M  V30 5 C 1.2979 -0.7263 0.0 0
M  V30 6 C -1.2979 -2.2267 0.0 0
M  V30 7 C 1.2979 -2.2148 0.0 0
M  V30 8 C 2.5721 0.0357 0.0 0
M  V30 9 N -0.0119 -2.965 0.0 0
M  V30 10 C -2.6078 -2.9769 0.0 0
M  V30 11 C 2.584 -2.9412 0.0 0
M  V30 12 C 3.8581 -0.6906 0.0 0
M  V30 13 C -2.6078 -4.4773 0.0 0
M  V30 14 C -3.9296 -2.2267 0.0 0
M  V30 15 C 3.87 -2.1672 0.0 0
M  V30 16 O -1.3098 -5.2156 0.0 0
M  V30 17 N -3.9176 -5.2156 0.0 0
M  V30 18 O -3.9534 -0.7144 0.0 0
M  V30 19 C -5.2394 -2.965 0.0 0
M  V30 20 C -5.2275 -4.4535 0.0 0
M  V30 21 C -3.9296 -6.7041 0.0 0
M  V30 22 C -6.5493 -2.2029 0.0 0
M  V30 23 C -6.5374 -5.2037 0.0 0
M  V30 24 C -2.6435 -7.4424 0.0 0
M  V30 25 C -7.8592 -2.9412 0.0 0
M  V30 26 C -7.8473 -4.4416 0.0 0
M  V30 27 C -2.6554 -8.9309 0.0 0
M  V30 28 N -9.169 -2.1791 0.0 0
M  V30 29 C -1.3694 -9.6692 0.0 0
M  V30 30 C -3.9653 -9.6692 0.0 0
M  V30 31 C -10.4789 -2.9174 0.0 0
M  V30 32 O -10.4908 -4.4059 0.0 0
M  V30 33 C -11.7888 -2.1553 0.0 0
M  V30 34 C -11.7888 -0.643 0.0 0
M  V30 35 C -13.0867 -2.8936 0.0 0
M  V30 36 C -13.0986 0.119 0.0 0
M  V30 37 C -14.3966 -2.1315 0.0 0
M  V30 38 C -14.4085 -0.6192 0.0 0
M  V30 END ATOM
M  V30 BEGIN BOND
M  V30 1 2 1 2
M  V30 2 2 1 3
M  V30 3 1 1 4
M  V30 4 1 1 5
M  V30 5 2 4 6
M  V30 6 2 5 7
M  V30 7 1 5 8
M  V30 8 1 6 9
M  V30 9 1 6 10
M  V30 10 1 7 11
M  V30 11 2 8 12
M  V30 12 1 10 13
M  V30 13 2 10 14
M  V30 14 2 11 15
M  V30 15 2 13 16
M  V30 16 1 13 17
M  V30 17 1 14 18
M  V30 18 1 14 19
M  V30 19 1 17 20
M  V30 20 1 17 21
M  V30 21 1 19 22
M  V30 22 1 20 23
M  V30 23 1 21 24
M  V30 24 2 22 25
M  V30 25 2 23 26
M  V30 26 1 24 27
M  V30 27 1 25 28
M  V30 28 1 27 29
M  V30 29 1 27 30
M  V30 30 1 28 31
M  V30 31 2 31 32
M  V30 32 1 31 33
M  V30 33 2 33 34
M  V30 34 1 33 35
M  V30 35 1 34 36
M  V30 36 2 35 37
M  V30 37 2 36 38
M  V30 38 1 7 9
M  V30 39 1 12 15
M  V30 40 2 19 20
M  V30 41 1 25 26
M  V30 42 1 37 38
M  V30 END BOND
M  V30 END CTAB
M  END
>  <MolRegNo>
338576

>  <m>
=

>  <Value>
4235

>  <Unit>
nM

>  <Type>
IC50

>  <pValue>
5.37

>  <Ligand Efficiency>
0.19

>  <Binding Efficiency>
10.13

>  <Surface Efficiency>
4.14

>  <Assay Index>
256538

>  <Assay Category>


>  <Assay Organism>
Hepatitis C virus subtype 1b

>  <Target ID>
12097

>  <Target Name>
Hepatitis C virus NS5B RNA-dependent RNA polymerase

>  <Target Organism>
Hepatitis C virus

>  <Target Description>
Target is a single protein chain

>  <Sequence Accession>
Q8JXU8

>  <Reference>
J. Med. Chem. 49 (3), 971-983 (2006)

>  <Pubmed ID>
16451063

>  <DOI>
10.1021/jm050855s

$$$$
338615
Actelion Java MolfileCreator 2.0

  0  0  0  0  0  0              0 V3000
M  V30 BEGIN CTAB
M  V30 COUNTS 37 41 0 0 0
M  V30 BEGIN ATOM
M  V30 1 S 0.0 0.0 0.0 0
M  V30 2 O -1.3217 0.762 0.0 0
M  V30 3 O 1.286 0.7739 0.0 0
M  V30 4 N -1.2979 -0.7501 0.0 0
M  V30 5 C 1.2979 -0.7263 0.0 0
M  V30 6 C -1.2979 -2.2267 0.0 0
M  V30 7 C 1.2979 -2.2148 0.0 0
M  V30 8 C 2.572 0.0357 0.0 0
M  V30 9 N -0.0119 -2.9649 0.0 0
M  V30 10 C -2.6077 -2.9768 0.0 0
M  V30 11 C 2.5839 -2.9411 0.0 0
M  V30 12 C 3.858 -0.6906 0.0 0
M  V30 13 C -2.6077 -4.4772 0.0 0
M  V30 14 C -3.9295 -2.2267 0.0 0
M  V30 15 C 3.8699 -2.1671 0.0 0
M  V30 16 O -1.3098 -5.2155 0.0 0
M  V30 17 N -3.9175 -5.2155 0.0 0
M  V30 18 O -3.9533 -0.7144 0.0 0
M  V30 19 C -5.2393 -2.9649 0.0 0
M  V30 20 C -5.2274 -4.4534 0.0 0
M  V30 21 C -3.9295 -6.7039 0.0 0
M  V30 22 C -6.5491 -2.2029 0.0 0
M  V30 23 C -6.5372 -5.2036 0.0 0
M  V30 24 C -2.6434 -7.4422 0.0 0
M  V30 25 C -7.859 -2.9411 0.0 0
M  V30 26 C -7.8471 -4.4415 0.0 0
M  V30 27 C -2.6553 -8.9306 0.0 0
M  V30 28 N -9.1688 -2.179 0.0 0
M  V30 29 C -1.3693 -9.6689 0.0 0
M  V30 30 C -3.9652 -9.6689 0.0 0
M  V30 31 C -10.4786 -2.9173 0.0 0
M  V30 32 O -10.4905 -4.4058 0.0 0
M  V30 33 C -11.7885 -2.1552 0.0 0
M  V30 34 C -11.9552 -0.643 0.0 0
M  V30 35 C -13.1697 -2.7506 0.0 0
M  V30 36 C -13.4317 -0.3215 0.0 0
M  V30 37 C -14.1819 -1.6194 0.0 0
M  V30 END ATOM
M  V30 BEGIN BOND
M  V30 1 2 1 2
M  V30 2 2 1 3
M  V30 3 1 1 4
M  V30 4 1 1 5
M  V30 5 2 4 6
M  V30 6 2 5 7
M  V30 7 1 5 8
M  V30 8 1 6 9
M  V30 9 1 6 10
M  V30 10 1 7 11
M  V30 11 2 8 12
M  V30 12 1 10 13
M  V30 13 2 10 14
M  V30 14 2 11 15
M  V30 15 2 13 16
M  V30 16 1 13 17
M  V30 17 1 14 18
M  V30 18 1 14 19
M  V30 19 1 17 20
M  V30 20 1 17 21
M  V30 21 1 19 22
M  V30 22 1 20 23
M  V30 23 1 21 24
M  V30 24 2 22 25
M  V30 25 2 23 26
M  V30 26 1 24 27
M  V30 27 1 25 28
M  V30 28 1 27 29
M  V30 29 1 27 30
M  V30 30 1 28 31
M  V30 31 2 31 32
M  V30 32 1 31 33
M  V30 33 1 33 34
M  V30 34 1 33 35
M  V30 35 1 34 36
M  V30 36 1 35 37
M  V30 37 1 7 9
M  V30 38 1 12 15
M  V30 39 2 19 20
M  V30 40 1 25 26
M  V30 41 1 36 37
M  V30 END BOND
M  V30 END CTAB
M  END
>  <MolRegNo>
338615

>  <m>
=

>  <Value>
973

>  <Unit>
nM

>  <Type>
IC50

>  <pValue>
6.01

>  <Ligand Efficiency>
0.22

>  <Binding Efficiency>
11.5

>  <Surface Efficiency>
4.63

>  <Assay Index>
256538

>  <Assay Category>


>  <Assay Organism>
Hepatitis C virus subtype 1b

>  <Target ID>
12097

>  <Target Name>
Hepatitis C virus NS5B RNA-dependent RNA polymerase

>  <Target Organism>
Hepatitis C virus

>  <Target Description>
Target is a single protein chain

>  <Sequence Accession>
Q8JXU8

>  <Reference>
J. Med. Chem. 49 (3), 971-983 (2006)

>  <Pubmed ID>
16451063

>  <DOI>
10.1021/jm050855s

$$$$
338461
Actelion Java MolfileCreator 2.0

  0  0  0  0  0  0              0 V3000
M  V30 BEGIN CTAB
M  V30 COUNTS 36 39 0 0 0
M  V30 BEGIN ATOM
M  V30 1 S 0.0 0.0 0.0 0
M  V30 2 O -1.3227 0.7626 0.0 0
M  V30 3 O 1.287 0.7746 0.0 0
M  V30 4 N -1.2989 -0.7507 0.0 0
M  V30 5 C 1.2989 -0.7269 0.0 0
M  V30 6 C -1.2989 -2.2284 0.0 0
M  V30 7 C 1.2989 -2.2165 0.0 0
M  V30 8 C 2.574 0.0357 0.0 0
M  V30 9 N -0.0119 -2.9673 0.0 0
M  V30 10 C -2.6098 -2.9792 0.0 0
M  V30 11 C 2.5859 -2.9435 0.0 0
M  V30 12 C 3.8611 -0.6911 0.0 0
M  V30 13 C -2.6098 -4.4807 0.0 0
M  V30 14 C -3.9326 -2.2284 0.0 0
M  V30 15 C 3.873 -2.1688 0.0 0
M  V30 16 O -1.3108 -5.2196 0.0 0
M  V30 17 N -3.9206 -5.2196 0.0 0
M  V30 18 O -3.9564 -0.715 0.0 0
M  V30 19 C -5.2434 -2.9673 0.0 0
M  V30 20 C -5.2315 -4.4569 0.0 0
M  V30 21 C -3.9326 -6.7092 0.0 0
M  V30 22 C -6.5543 -2.2046 0.0 0
M  V30 23 C -6.5424 -5.2077 0.0 0
M  V30 24 C -2.6455 -7.4481 0.0 0
M  V30 25 C -7.8652 -2.9435 0.0 0
M  V30 26 C -7.8533 -4.445 0.0 0
M  V30 27 C -2.6574 -8.9377 0.0 0
M  V30 28 N -9.1761 -2.1808 0.0 0
M  V30 29 C -1.3704 -9.6766 0.0 0
M  V30 30 C -3.9683 -9.6766 0.0 0
M  V30 31 C -10.4869 -2.9196 0.0 0
M  V30 32 O -10.4988 -4.4092 0.0 0
M  V30 33 C -11.7978 -2.1569 0.0 0
M  V30 34 N -13.1087 -2.8958 0.0 0
M  V30 35 C -14.4195 -2.1331 0.0 0
M  V30 36 C -13.1206 -4.3854 0.0 0
M  V30 END ATOM
M  V30 BEGIN BOND
M  V30 1 2 1 2
M  V30 2 2 1 3
M  V30 3 1 1 4
M  V30 4 1 1 5
M  V30 5 2 4 6
M  V30 6 2 5 7
M  V30 7 1 5 8
M  V30 8 1 6 9
M  V30 9 1 6 10
M  V30 10 1 7 11
M  V30 11 2 8 12
M  V30 12 1 10 13
M  V30 13 2 10 14
M  V30 14 2 11 15
M  V30 15 2 13 16
M  V30 16 1 13 17
M  V30 17 1 14 18
M  V30 18 1 14 19
M  V30 19 1 17 20
M  V30 20 1 17 21
M  V30 21 1 19 22
M  V30 22 1 20 23
M  V30 23 1 21 24
M  V30 24 2 22 25
M  V30 25 2 23 26
M  V30 26 1 24 27
M  V30 27 1 25 28
M  V30 28 1 27 29
M  V30 29 1 27 30
M  V30 30 1 28 31
M  V30 31 2 31 32
M  V30 32 1 31 33
M  V30 33 1 33 34
M  V30 34 1 34 35
M  V30 35 1 34 36
M  V30 36 1 7 9
M  V30 37 1 12 15
M  V30 38 2 19 20
M  V30 39 1 25 26
M  V30 END BOND
M  V30 END CTAB
M  END
>  <MolRegNo>
338461

>  <m>
=

>  <Value>
5805

>  <Unit>
nM

>  <Type>
IC50

>  <pValue>
5.24

>  <Ligand Efficiency>
0.2

>  <Binding Efficiency>
10.23

>  <Surface Efficiency>
3.93

>  <Assay Index>
256538

>  <Assay Category>


>  <Assay Organism>
Hepatitis C virus subtype 1b

>  <Target ID>
12097

>  <Target Name>
Hepatitis C virus NS5B RNA-dependent RNA polymerase

>  <Target Organism>
Hepatitis C virus

>  <Target Description>
Target is a single protein chain

>  <Sequence Accession>
Q8JXU8

>  <Reference>
J. Med. Chem. 49 (3), 971-983 (2006)

>  <Pubmed ID>
16451063

>  <DOI>
10.1021/jm050855s

$$$$
338454
Actelion Java MolfileCreator 2.0

  0  0  0  0  0  0              0 V3000
M  V30 BEGIN CTAB
M  V30 COUNTS 36 39 0 0 0
M  V30 BEGIN ATOM
M  V30 1 S 0.0 0.0 0.0 0
M  V30 2 O -1.3227 0.7626 0.0 0
M  V30 3 O 1.287 0.7746 0.0 0
M  V30 4 N -1.2989 -0.7507 0.0 0
M  V30 5 C 1.2989 -0.7269 0.0 0
M  V30 6 C -1.2989 -2.2284 0.0 0
M  V30 7 C 1.2989 -2.2165 0.0 0
M  V30 8 C 2.574 0.0357 0.0 0
M  V30 9 N -0.0119 -2.9673 0.0 0
M  V30 10 C -2.6098 -2.9792 0.0 0
M  V30 11 C 2.5859 -2.9435 0.0 0
M  V30 12 C 3.8611 -0.6911 0.0 0
M  V30 13 C -2.6098 -4.4807 0.0 0
M  V30 14 C -3.9326 -2.2284 0.0 0
M  V30 15 C 3.873 -2.1688 0.0 0
M  V30 16 O -1.3108 -5.2196 0.0 0
M  V30 17 N -3.9206 -5.2196 0.0 0
M  V30 18 O -3.9564 -0.715 0.0 0
M  V30 19 C -5.2434 -2.9673 0.0 0
M  V30 20 C -5.2315 -4.4569 0.0 0
M  V30 21 C -3.9326 -6.7092 0.0 0
M  V30 22 C -6.5543 -2.2046 0.0 0
M  V30 23 C -6.5424 -5.2077 0.0 0
M  V30 24 C -2.6455 -7.4481 0.0 0
M  V30 25 C -7.8652 -2.9435 0.0 0
M  V30 26 C -7.8533 -4.445 0.0 0
M  V30 27 C -2.6574 -8.9377 0.0 0
M  V30 28 N -9.1761 -2.1808 0.0 0
M  V30 29 C -1.3704 -9.6766 0.0 0
M  V30 30 C -3.9683 -9.6766 0.0 0
M  V30 31 C -10.4869 -2.9196 0.0 0
M  V30 32 O -10.4988 -4.4092 0.0 0
M  V30 33 C -11.7978 -2.1569 0.0 0
M  V30 34 C -13.1087 -2.8958 0.0 0
M  V30 35 C -14.4195 -2.1331 0.0 0
M  V30 36 C -13.1206 -4.3854 0.0 0
M  V30 END ATOM
M  V30 BEGIN BOND
M  V30 1 2 1 2
M  V30 2 2 1 3
M  V30 3 1 1 4
M  V30 4 1 1 5
M  V30 5 2 4 6
M  V30 6 2 5 7
M  V30 7 1 5 8
M  V30 8 1 6 9
M  V30 9 1 6 10
M  V30 10 1 7 11
M  V30 11 2 8 12
M  V30 12 1 10 13
M  V30 13 2 10 14
M  V30 14 2 11 15
M  V30 15 2 13 16
M  V30 16 1 13 17
M  V30 17 1 14 18
M  V30 18 1 14 19
M  V30 19 1 17 20
M  V30 20 1 17 21
M  V30 21 1 19 22
M  V30 22 1 20 23
M  V30 23 1 21 24
M  V30 24 2 22 25
M  V30 25 2 23 26
M  V30 26 1 24 27
M  V30 27 1 25 28
M  V30 28 1 27 29
M  V30 29 1 27 30
M  V30 30 1 28 31
M  V30 31 2 31 32
M  V30 32 1 31 33
M  V30 33 1 33 34
M  V30 34 1 34 35
M  V30 35 1 34 36
M  V30 36 1 7 9
M  V30 37 1 12 15
M  V30 38 2 19 20
M  V30 39 1 25 26
M  V30 END BOND
M  V30 END CTAB
M  END
>  <MolRegNo>
338454

>  <m>
=

>  <Value>
6503

>  <Unit>
nM

>  <Type>
IC50

>  <pValue>
5.19

>  <Ligand Efficiency>
0.2

>  <Binding Efficiency>
10.16

>  <Surface Efficiency>
3.99

>  <Assay Index>
256538

>  <Assay Category>


>  <Assay Organism>
Hepatitis C virus subtype 1b

>  <Target ID>
12097

>  <Target Name>
Hepatitis C virus NS5B RNA-dependent RNA polymerase

>  <Target Organism>
Hepatitis C virus

>  <Target Description>
Target is a single protein chain

>  <Sequence Accession>
Q8JXU8

>  <Reference>
J. Med. Chem. 49 (3), 971-983 (2006)

>  <Pubmed ID>
16451063

>  <DOI>
10.1021/jm050855s

$$$$
338350
Actelion Java MolfileCreator 2.0

  0  0  0  0  0  0              0 V3000
M  V30 BEGIN CTAB
M  V30 COUNTS 33 36 0 0 0
M  V30 BEGIN ATOM
M  V30 1 S 0.0 0.0 0.0 0
M  V30 2 O -1.323 0.7628 0.0 0
M  V30 3 O 1.2873 0.7747 0.0 0
M  V30 4 N -1.2992 -0.7509 0.0 0
M  V30 5 C 1.2992 -0.727 0.0 0
M  V30 6 C -1.2992 -2.2289 0.0 0
M  V30 7 C 1.2992 -2.217 0.0 0
M  V30 8 C 2.5746 0.0357 0.0 0
M  V30 9 N -0.0119 -2.9679 0.0 0
M  V30 10 C -2.6103 -2.9798 0.0 0
M  V30 11 C 2.5865 -2.9441 0.0 0
M  V30 12 C 3.8619 -0.6913 0.0 0
M  V30 13 C -2.6103 -4.4817 0.0 0
M  V30 14 C -3.9334 -2.2289 0.0 0
M  V30 15 C 3.8738 -2.1693 0.0 0
M  V30 16 O -1.3111 -5.2207 0.0 0
M  V30 17 N -3.9214 -5.2207 0.0 0
M  V30 18 O -3.9572 -0.7151 0.0 0
M  V30 19 C -5.2445 -2.9679 0.0 0
M  V30 20 C -5.2326 -4.4578 0.0 0
M  V30 21 C -3.9334 -6.7106 0.0 0
M  V30 22 C -6.5556 -2.205 0.0 0
M  V30 23 C -6.5437 -5.2088 0.0 0
M  V30 24 C -2.6461 -7.4496 0.0 0
M  V30 25 C -7.8668 -2.9441 0.0 0
M  V30 26 C -7.8549 -4.4459 0.0 0
M  V30 27 C -2.658 -8.9395 0.0 0
M  V30 28 N -9.1779 -2.1812 0.0 0
M  V30 29 C -1.3707 -9.6785 0.0 0
M  V30 30 C -3.9691 -9.6785 0.0 0
M  V30 31 C -10.4891 -2.9202 0.0 0
M  V30 32 O -10.501 -4.4101 0.0 0
M  V30 33 C -11.8002 -2.1574 0.0 0
M  V30 END ATOM
M  V30 BEGIN BOND
M  V30 1 2 1 2
M  V30 2 2 1 3
M  V30 3 1 1 4
M  V30 4 1 1 5
M  V30 5 2 4 6
M  V30 6 2 5 7
M  V30 7 1 5 8
M  V30 8 1 6 9
M  V30 9 1 6 10
M  V30 10 1 7 11
M  V30 11 2 8 12
M  V30 12 1 10 13
M  V30 13 2 10 14
M  V30 14 2 11 15
M  V30 15 2 13 16
M  V30 16 1 13 17
M  V30 17 1 14 18
M  V30 18 1 14 19
M  V30 19 1 17 20
M  V30 20 1 17 21
M  V30 21 1 19 22
M  V30 22 1 20 23
M  V30 23 1 21 24
M  V30 24 2 22 25
M  V30 25 2 23 26
M  V30 26 1 24 27
M  V30 27 1 25 28
M  V30 28 1 27 29
M  V30 29 1 27 30
M  V30 30 1 28 31
M  V30 31 2 31 32
M  V30 32 1 31 33
M  V30 33 1 7 9
M  V30 34 1 12 15
M  V30 35 2 19 20
M  V30 36 1 25 26
M  V30 END BOND
M  V30 END CTAB
M  END
>  <MolRegNo>
338350

>  <m>
>

>  <Value>
10000

>  <Unit>
nM

>  <Type>
IC50

>  <pValue>
0

>  <Ligand Efficiency>
0

>  <Binding Efficiency>
0

>  <Surface Efficiency>
0

>  <Assay Index>
256538

>  <Assay Category>


>  <Assay Organism>
Hepatitis C virus subtype 1b

>  <Target ID>
12097

>  <Target Name>
Hepatitis C virus NS5B RNA-dependent RNA polymerase

>  <Target Organism>
Hepatitis C virus

>  <Target Description>
Target is a single protein chain

>  <Sequence Accession>
Q8JXU8

>  <Reference>
J. Med. Chem. 49 (3), 971-983 (2006)

>  <Pubmed ID>
16451063

>  <DOI>
10.1021/jm050855s

$$$$
338328
Actelion Java MolfileCreator 2.0

  0  0  0  0  0  0              0 V3000
M  V30 BEGIN CTAB
M  V30 COUNTS 34 37 0 0 0
M  V30 BEGIN ATOM
M  V30 1 S 0.0 0.0 0.0 0
M  V30 2 O -1.3237 0.7632 0.0 0
M  V30 3 O 1.2879 0.7751 0.0 0
M  V30 4 N -1.2998 -0.7513 0.0 0
M  V30 5 C 1.2998 -0.7274 0.0 0
M  V30 6 C -1.2998 -2.23 0.0 0
M  V30 7 C 1.2998 -2.2181 0.0 0
M  V30 8 C 2.5759 0.0357 0.0 0
M  V30 9 N -0.0119 -2.9694 0.0 0
M  V30 10 C -2.6116 -2.9813 0.0 0
M  V30 11 C 2.5878 -2.9455 0.0 0
M  V30 12 C 3.8638 -0.6916 0.0 0
M  V30 13 C -2.6116 -4.4839 0.0 0
M  V30 14 C -3.9354 -2.23 0.0 0
M  V30 15 C 3.8757 -2.1704 0.0 0
M  V30 16 O -1.3118 -5.2233 0.0 0
M  V30 17 N -3.9234 -5.2233 0.0 0
M  V30 18 O -3.9592 -0.7155 0.0 0
M  V30 19 C -5.2472 -2.9694 0.0 0
M  V30 20 C -5.2352 -4.4601 0.0 0
M  V30 21 C -3.9354 -6.714 0.0 0
M  V30 22 C -6.559 -2.2062 0.0 0
M  V30 23 C -6.547 -5.2114 0.0 0
M  V30 24 C -2.6474 -7.4534 0.0 0
M  V30 25 C -7.8708 -2.9455 0.0 0
M  V30 26 C -7.8588 -4.4482 0.0 0
M  V30 27 C -2.6593 -8.9441 0.0 0
M  V30 28 N -9.1826 -2.1823 0.0 0
M  V30 29 C -2.6832 -10.4347 0.0 0
M  V30 30 C -1.1686 -8.9321 0.0 0
M  V30 31 C -4.1739 -8.9321 0.0 0
M  V30 32 C -10.4944 -2.9217 0.0 0
M  V30 33 C -10.5063 -4.4124 0.0 0
M  V30 34 O -9.2183 -5.1518 0.0 0
M  V30 END ATOM
M  V30 BEGIN BOND
M  V30 1 2 1 2
M  V30 2 2 1 3
M  V30 3 1 1 4
M  V30 4 1 1 5
M  V30 5 2 4 6
M  V30 6 2 5 7
M  V30 7 1 5 8
M  V30 8 1 6 9
M  V30 9 1 6 10
M  V30 10 1 7 11
M  V30 11 2 8 12
M  V30 12 1 10 13
M  V30 13 2 10 14
M  V30 14 2 11 15
M  V30 15 2 13 16
M  V30 16 1 13 17
M  V30 17 1 14 18
M  V30 18 1 14 19
M  V30 19 1 17 20
M  V30 20 1 17 21
M  V30 21 1 19 22
M  V30 22 1 20 23
M  V30 23 1 21 24
M  V30 24 2 22 25
M  V30 25 2 23 26
M  V30 26 1 24 27
M  V30 27 1 25 28
M  V30 28 1 27 29
M  V30 29 1 27 30
M  V30 30 1 27 31
M  V30 31 1 28 32
M  V30 32 1 32 33
M  V30 33 1 33 34
M  V30 34 1 7 9
M  V30 35 1 12 15
M  V30 36 2 19 20
M  V30 37 1 25 26
M  V30 END BOND
M  V30 END CTAB
M  END
>  <MolRegNo>
338328

>  <m>
=

>  <Value>
48

>  <Unit>
nM

>  <Type>
IC50

>  <pValue>
7.32

>  <Ligand Efficiency>
0.29

>  <Binding Efficiency>
15.1

>  <Surface Efficiency>
5.5

>  <Assay Index>
256538

>  <Assay Category>


>  <Assay Organism>
Hepatitis C virus subtype 1b

>  <Target ID>
12097

>  <Target Name>
Hepatitis C virus NS5B RNA-dependent RNA polymerase

>  <Target Organism>
Hepatitis C virus

>  <Target Description>
Target is a single protein chain

>  <Sequence Accession>
Q8JXU8

>  <Reference>
J. Med. Chem. 49 (3), 971-983 (2006)

>  <Pubmed ID>
16451063

>  <DOI>
10.1021/jm050855s

$$$$
338396
Actelion Java MolfileCreator 2.0

  0  0  0  0  0  0              0 V3000
M  V30 BEGIN CTAB
M  V30 COUNTS 36 39 0 0 0
M  V30 BEGIN ATOM
M  V30 1 S 0.0 0.0 0.0 0
M  V30 2 O -1.3229 0.7628 0.0 0
M  V30 3 O 1.2872 0.7747 0.0 0
M  V30 4 N -1.2991 -0.7508 0.0 0
M  V30 5 C 1.2991 -0.727 0.0 0
M  V30 6 C -1.2991 -2.2288 0.0 0
M  V30 7 C 1.2991 -2.2168 0.0 0
M  V30 8 C 2.5744 0.0357 0.0 0
M  V30 9 N -0.0119 -2.9677 0.0 0
M  V30 10 C -2.6102 -2.9797 0.0 0
M  V30 11 C 2.5863 -2.9439 0.0 0
M  V30 12 C 3.8616 -0.6912 0.0 0
M  V30 13 C -2.6102 -4.4814 0.0 0
M  V30 14 C -3.9332 -2.2288 0.0 0
M  V30 15 C 3.8736 -2.1692 0.0 0
M  V30 16 O -1.311 -5.2204 0.0 0
M  V30 17 N -3.9212 -5.2204 0.0 0
M  V30 18 O -3.957 -0.7151 0.0 0
M  V30 19 C -5.2442 -2.9677 0.0 0
M  V30 20 C -5.2323 -4.4576 0.0 0
M  V30 21 C -3.9332 -6.7102 0.0 0
M  V30 22 C -6.5553 -2.2049 0.0 0
M  V30 23 C -6.5434 -5.2085 0.0 0
M  V30 24 C -2.6459 -7.4492 0.0 0
M  V30 25 C -7.8664 -2.9439 0.0 0
M  V30 26 C -7.8544 -4.4457 0.0 0
M  V30 27 C -2.6578 -8.9391 0.0 0
M  V30 28 N -9.1774 -2.1811 0.0 0
M  V30 29 C -1.3706 -9.678 0.0 0
M  V30 30 C -3.9689 -9.678 0.0 0
M  V30 31 C -10.4885 -2.9201 0.0 0
M  V30 32 C -10.5004 -4.4099 0.0 0
M  V30 33 O -9.2132 -5.1489 0.0 0
M  V30 34 O -11.7996 -5.1489 0.0 0
M  V30 35 C -13.1226 -4.3861 0.0 0
M  V30 36 C -13.1345 -2.8724 0.0 0
M  V30 END ATOM
M  V30 BEGIN BOND
M  V30 1 2 1 2
M  V30 2 2 1 3
M  V30 3 1 1 4
M  V30 4 1 1 5
M  V30 5 2 4 6
M  V30 6 2 5 7
M  V30 7 1 5 8
M  V30 8 1 6 9
M  V30 9 1 6 10
M  V30 10 1 7 11
M  V30 11 2 8 12
M  V30 12 1 10 13
M  V30 13 2 10 14
M  V30 14 2 11 15
M  V30 15 2 13 16
M  V30 16 1 13 17
M  V30 17 1 14 18
M  V30 18 1 14 19
M  V30 19 1 17 20
M  V30 20 1 17 21
M  V30 21 1 19 22
M  V30 22 1 20 23
M  V30 23 1 21 24
M  V30 24 2 22 25
M  V30 25 2 23 26
M  V30 26 1 24 27
M  V30 27 1 25 28
M  V30 28 1 27 29
M  V30 29 1 27 30
M  V30 30 1 28 31
M  V30 31 1 31 32
M  V30 32 2 32 33
M  V30 33 1 32 34
M  V30 34 1 34 35
M  V30 35 1 35 36
M  V30 36 1 7 9
M  V30 37 1 12 15
M  V30 38 2 19 20
M  V30 39 1 25 26
M  V30 END BOND
M  V30 END CTAB
M  END
>  <MolRegNo>
338396

>  <m>
=

>  <Value>
115

>  <Unit>
nM

>  <Type>
IC50

>  <pValue>
6.94

>  <Ligand Efficiency>
0.26

>  <Binding Efficiency>
13.54

>  <Surface Efficiency>
4.99

>  <Assay Index>
256538

>  <Assay Category>


>  <Assay Organism>
Hepatitis C virus subtype 1b

>  <Target ID>
12097

>  <Target Name>
Hepatitis C virus NS5B RNA-dependent RNA polymerase

>  <Target Organism>
Hepatitis C virus

>  <Target Description>
Target is a single protein chain

>  <Sequence Accession>
Q8JXU8

>  <Reference>
J. Med. Chem. 49 (3), 971-983 (2006)

>  <Pubmed ID>
16451063

>  <DOI>
10.1021/jm050855s

$$$$
338598
Actelion Java MolfileCreator 2.0

  0  0  0  0  0  0              0 V3000
M  V30 BEGIN CTAB
M  V30 COUNTS 34 37 0 0 0
M  V30 BEGIN ATOM
M  V30 1 S 0.0 0.0 0.0 0
M  V30 2 O -1.3239 0.7633 0.0 0
M  V30 3 O 1.2881 0.7752 0.0 0
M  V30 4 N -1.3001 -0.7514 0.0 0
M  V30 5 C 1.3001 -0.7275 0.0 0
M  V30 6 C -1.3001 -2.2304 0.0 0
M  V30 7 C 1.3001 -2.2185 0.0 0
M  V30 8 C 2.5763 0.0357 0.0 0
M  V30 9 N -0.0119 -2.9699 0.0 0
M  V30 10 C -2.6121 -2.9818 0.0 0
M  V30 11 C 2.5882 -2.9461 0.0 0
M  V30 12 C 3.8645 -0.6918 0.0 0
M  V30 13 C -2.6121 -4.4847 0.0 0
M  V30 14 C -3.9361 -2.2304 0.0 0
M  V30 15 C 3.8764 -2.1708 0.0 0
M  V30 16 O -1.312 -5.2242 0.0 0
M  V30 17 N -3.9241 -5.2242 0.0 0
M  V30 18 O -3.9599 -0.7156 0.0 0
M  V30 19 C -5.2481 -2.9699 0.0 0
M  V30 20 C -5.2362 -4.4609 0.0 0
M  V30 21 C -3.9361 -6.7152 0.0 0
M  V30 22 C -6.5601 -2.2066 0.0 0
M  V30 23 C -6.5482 -5.2123 0.0 0
M  V30 24 C -2.6479 -7.4547 0.0 0
M  V30 25 C -7.8722 -2.9461 0.0 0
M  V30 26 C -7.8602 -4.4489 0.0 0
M  V30 27 C -2.6598 -8.9456 0.0 0
M  V30 28 N -9.1842 -2.1827 0.0 0
M  V30 29 C -1.3716 -9.6852 0.0 0
M  V30 30 C -3.9718 -9.6852 0.0 0
M  V30 31 C -10.4962 -2.9222 0.0 0
M  V30 32 C -10.5082 -4.4132 0.0 0
M  V30 33 O -9.22 -5.1527 0.0 0
M  V30 34 O -11.8083 -5.1527 0.0 0
M  V30 END ATOM
M  V30 BEGIN BOND
M  V30 1 2 1 2
M  V30 2 2 1 3
M  V30 3 1 1 4
M  V30 4 1 1 5
M  V30 5 2 4 6
M  V30 6 2 5 7
M  V30 7 1 5 8
M  V30 8 1 6 9
M  V30 9 1 6 10
M  V30 10 1 7 11
M  V30 11 2 8 12
M  V30 12 1 10 13
M  V30 13 2 10 14
M  V30 14 2 11 15
M  V30 15 2 13 16
M  V30 16 1 13 17
M  V30 17 1 14 18
M  V30 18 1 14 19
M  V30 19 1 17 20
M  V30 20 1 17 21
M  V30 21 1 19 22
M  V30 22 1 20 23
M  V30 23 1 21 24
M  V30 24 2 22 25
M  V30 25 2 23 26
M  V30 26 1 24 27
M  V30 27 1 25 28
M  V30 28 1 27 29
M  V30 29 1 27 30
M  V30 30 1 28 31
M  V30 31 1 31 32
M  V30 32 2 32 33
M  V30 33 1 32 34
M  V30 34 1 7 9
M  V30 35 1 12 15
M  V30 36 2 19 20
M  V30 37 1 25 26
M  V30 END BOND
M  V30 END CTAB
M  END
>  <MolRegNo>
338598

>  <m>
=

>  <Value>
21

>  <Unit>
nM

>  <Type>
IC50

>  <pValue>
7.68

>  <Ligand Efficiency>
0.31

>  <Binding Efficiency>
15.85

>  <Surface Efficiency>
5.12

>  <Assay Index>
256538

>  <Assay Category>


>  <Assay Organism>
Hepatitis C virus subtype 1b

>  <Target ID>
12097

>  <Target Name>
Hepatitis C virus NS5B RNA-dependent RNA polymerase

>  <Target Organism>
Hepatitis C virus

>  <Target Description>
Target is a single protein chain

>  <Sequence Accession>
Q8JXU8

>  <Reference>
J. Med. Chem. 49 (3), 971-983 (2006)

>  <Pubmed ID>
16451063

>  <DOI>
10.1021/jm050855s

$$$$
338327
Actelion Java MolfileCreator 2.0

  0  0  0  0  0  0              0 V3000
M  V30 BEGIN CTAB
M  V30 COUNTS 34 37 0 0 0
M  V30 BEGIN ATOM
M  V30 1 S 0.0 0.0 0.0 0
M  V30 2 O -1.3237 0.7632 0.0 0
M  V30 3 O 1.2879 0.7751 0.0 0
M  V30 4 N -1.2998 -0.7512 0.0 0
M  V30 5 C 1.2998 -0.7274 0.0 0
M  V30 6 C -1.2998 -2.23 0.0 0
M  V30 7 C 1.2998 -2.2181 0.0 0
M  V30 8 C 2.5758 0.0357 0.0 0
M  V30 9 N -0.0119 -2.9694 0.0 0
M  V30 10 C -2.6116 -2.9813 0.0 0
M  V30 11 C 2.5878 -2.9455 0.0 0
M  V30 12 C 3.8638 -0.6916 0.0 0
M  V30 13 C -2.6116 -4.4839 0.0 0
M  V30 14 C -3.9353 -2.23 0.0 0
M  V30 15 C 3.8757 -2.1704 0.0 0
M  V30 16 O -1.3117 -5.2233 0.0 0
M  V30 17 N -3.9234 -5.2233 0.0 0
M  V30 18 O -3.9592 -0.7155 0.0 0
M  V30 19 C -5.2471 -2.9694 0.0 0
M  V30 20 C -5.2352 -4.46 0.0 0
M  V30 21 C -3.9353 -6.7139 0.0 0
M  V30 22 C -6.5589 -2.2061 0.0 0
M  V30 23 C -6.547 -5.2113 0.0 0
M  V30 24 C -2.6474 -7.4533 0.0 0
M  V30 25 C -7.8707 -2.9455 0.0 0
M  V30 26 C -7.8588 -4.4481 0.0 0
M  V30 27 C -2.6593 -8.944 0.0 0
M  V30 28 O -9.1825 -2.1823 0.0 0
M  V30 29 C -1.3714 -9.6833 0.0 0
M  V30 30 C -3.9711 -9.6833 0.0 0
M  V30 31 C -10.4943 -2.9217 0.0 0
M  V30 32 C -10.5062 -4.4123 0.0 0
M  V30 33 O -9.2183 -5.1517 0.0 0
M  V30 34 N -11.818 -5.1517 0.0 0
M  V30 END ATOM
M  V30 BEGIN BOND
M  V30 1 2 1 2
M  V30 2 2 1 3
M  V30 3 1 1 4
M  V30 4 1 1 5
M  V30 5 2 4 6
M  V30 6 2 5 7
M  V30 7 1 5 8
M  V30 8 1 6 9
M  V30 9 1 6 10
M  V30 10 1 7 11
M  V30 11 2 8 12
M  V30 12 1 10 13
M  V30 13 2 10 14
M  V30 14 2 11 15
M  V30 15 2 13 16
M  V30 16 1 13 17
M  V30 17 1 14 18
M  V30 18 1 14 19
M  V30 19 1 17 20
M  V30 20 1 17 21
M  V30 21 1 19 22
M  V30 22 1 20 23
M  V30 23 1 21 24
M  V30 24 2 22 25
M  V30 25 2 23 26
M  V30 26 1 24 27
M  V30 27 1 25 28
M  V30 28 1 27 29
M  V30 29 1 27 30
M  V30 30 1 28 31
M  V30 31 1 31 32
M  V30 32 2 32 33
M  V30 33 1 32 34
M  V30 34 1 7 9
M  V30 35 1 12 15
M  V30 36 2 19 20
M  V30 37 1 25 26
M  V30 END BOND
M  V30 END CTAB
M  END
>  <MolRegNo>
338327

>  <m>
=

>  <Value>
24

>  <Unit>
nM

>  <Type>
IC50

>  <pValue>
7.62

>  <Ligand Efficiency>
0.31

>  <Binding Efficiency>
15.73

>  <Surface Efficiency>
4.98

>  <Assay Index>
256538

>  <Assay Category>


>  <Assay Organism>
Hepatitis C virus subtype 1b

>  <Target ID>
12097

>  <Target Name>
Hepatitis C virus NS5B RNA-dependent RNA polymerase

>  <Target Organism>
Hepatitis C virus

>  <Target Description>
Target is a single protein chain

>  <Sequence Accession>
Q8JXU8

>  <Reference>
J. Med. Chem. 49 (3), 971-983 (2006)

>  <Pubmed ID>
16451063

>  <DOI>
10.1021/jm050855s

$$$$
338445
Actelion Java MolfileCreator 2.0

  0  0  0  0  0  0              0 V3000
M  V30 BEGIN CTAB
M  V30 COUNTS 34 37 0 0 0
M  V30 BEGIN ATOM
M  V30 1 S 0.0 0.0 0.0 0
M  V30 2 O -1.3235 0.7631 0.0 0
M  V30 3 O 1.2878 0.775 0.0 0
M  V30 4 N -1.2997 -0.7512 0.0 0
M  V30 5 C 1.2997 -0.7273 0.0 0
M  V30 6 C -1.2997 -2.2298 0.0 0
M  V30 7 C 1.2997 -2.2178 0.0 0
M  V30 8 C 2.5756 0.0357 0.0 0
M  V30 9 N -0.0119 -2.9691 0.0 0
M  V30 10 C -2.6113 -2.981 0.0 0
M  V30 11 C 2.5875 -2.9452 0.0 0
M  V30 12 C 3.8634 -0.6916 0.0 0
M  V30 13 C -2.6113 -4.4834 0.0 0
M  V30 14 C -3.9349 -2.2298 0.0 0
M  V30 15 C 3.8753 -2.1701 0.0 0
M  V30 16 O -1.3116 -5.2227 0.0 0
M  V30 17 N -3.923 -5.2227 0.0 0
M  V30 18 O -3.9588 -0.7154 0.0 0
M  V30 19 C -5.2466 -2.9691 0.0 0
M  V30 20 C -5.2347 -4.4596 0.0 0
M  V30 21 C -3.9349 -6.7132 0.0 0
M  V30 22 C -6.5582 -2.2059 0.0 0
M  V30 23 C -6.5463 -5.2108 0.0 0
M  V30 24 C -2.6471 -7.4525 0.0 0
M  V30 25 C -7.8699 -2.9452 0.0 0
M  V30 26 C -7.858 -4.4477 0.0 0
M  V30 27 C -2.659 -8.9431 0.0 0
M  V30 28 O -9.1815 -2.1821 0.0 0
M  V30 29 C -1.3712 -9.6824 0.0 0
M  V30 30 C -3.9707 -9.6824 0.0 0
M  V30 31 C -10.4932 -2.9214 0.0 0
M  V30 32 C -10.5051 -4.4119 0.0 0
M  V30 33 O -11.8168 -5.1512 0.0 0
M  V30 34 C -11.8287 -6.6417 0.0 0
M  V30 END ATOM
M  V30 BEGIN BOND
M  V30 1 2 1 2
M  V30 2 2 1 3
M  V30 3 1 1 4
M  V30 4 1 1 5
M  V30 5 2 4 6
M  V30 6 2 5 7
M  V30 7 1 5 8
M  V30 8 1 6 9
M  V30 9 1 6 10
M  V30 10 1 7 11
M  V30 11 2 8 12
M  V30 12 1 10 13
M  V30 13 2 10 14
M  V30 14 2 11 15
M  V30 15 2 13 16
M  V30 16 1 13 17
M  V30 17 1 14 18
M  V30 18 1 14 19
M  V30 19 1 17 20
M  V30 20 1 17 21
M  V30 21 1 19 22
M  V30 22 1 20 23
M  V30 23 1 21 24
M  V30 24 2 22 25
M  V30 25 2 23 26
M  V30 26 1 24 27
M  V30 27 1 25 28
M  V30 28 1 27 29
M  V30 29 1 27 30
M  V30 30 1 28 31
M  V30 31 1 31 32
M  V30 32 1 32 33
M  V30 33 1 33 34
M  V30 34 1 7 9
M  V30 35 1 12 15
M  V30 36 2 19 20
M  V30 37 1 25 26
M  V30 END BOND
M  V30 END CTAB
M  END
>  <MolRegNo>
338445

>  <m>
=

>  <Value>
1741

>  <Unit>
nM

>  <Type>
IC50

>  <pValue>
5.76

>  <Ligand Efficiency>
0.23

>  <Binding Efficiency>
11.86

>  <Surface Efficiency>
4.83

>  <Assay Index>
256538

>  <Assay Category>


>  <Assay Organism>
Hepatitis C virus subtype 1b

>  <Target ID>
12097

>  <Target Name>
Hepatitis C virus NS5B RNA-dependent RNA polymerase

>  <Target Organism>
Hepatitis C virus

>  <Target Description>
Target is a single protein chain

>  <Sequence Accession>
Q8JXU8

>  <Reference>
J. Med. Chem. 49 (3), 971-983 (2006)

>  <Pubmed ID>
16451063

>  <DOI>
10.1021/jm050855s

$$$$
338121
Actelion Java MolfileCreator 2.0

  0  0  0  0  0  0              0 V3000
M  V30 BEGIN CTAB
M  V30 COUNTS 35 38 0 0 0
M  V30 BEGIN ATOM
M  V30 1 S 0.0 0.0 0.0 0
M  V30 2 O -1.3225 0.7625 0.0 0
M  V30 3 O 1.2868 0.7744 0.0 0
M  V30 4 N -1.2987 -0.7506 0.0 0
M  V30 5 C 1.2987 -0.7268 0.0 0
M  V30 6 C -1.2987 -2.228 0.0 0
M  V30 7 C 1.2987 -2.2161 0.0 0
M  V30 8 C 2.5736 0.0357 0.0 0
M  V30 9 N -0.0119 -2.9667 0.0 0
M  V30 10 C -2.6093 -2.9787 0.0 0
M  V30 11 C 2.5855 -2.9429 0.0 0
M  V30 12 C 3.8604 -0.691 0.0 0
M  V30 13 C -2.6093 -4.4799 0.0 0
M  V30 14 C -3.9319 -2.228 0.0 0
M  V30 15 C 3.8723 -2.1685 0.0 0
M  V30 16 O -1.3106 -5.2187 0.0 0
M  V30 17 N -3.9199 -5.2187 0.0 0
M  V30 18 O -3.9557 -0.7148 0.0 0
M  V30 19 C -5.2425 -2.9667 0.0 0
M  V30 20 C -5.2306 -4.4561 0.0 0
M  V30 21 C -3.9319 -6.708 0.0 0
M  V30 22 C -6.5531 -2.2042 0.0 0
M  V30 23 C -6.5412 -5.2067 0.0 0
M  V30 24 C -2.645 -7.4467 0.0 0
M  V30 25 C -7.8638 -2.9429 0.0 0
M  V30 26 C -7.8518 -4.4442 0.0 0
M  V30 27 C -2.657 -8.9361 0.0 0
M  V30 28 O -9.1744 -2.1804 0.0 0
M  V30 29 C -1.3702 -9.6748 0.0 0
M  V30 30 C -3.9676 -9.6748 0.0 0
M  V30 31 C -10.485 -2.9191 0.0 0
M  V30 32 C -10.4969 -4.4084 0.0 0
M  V30 33 C -11.8076 -5.1472 0.0 0
M  V30 34 C -13.1182 -4.3846 0.0 0
M  V30 35 N -14.4288 -3.6221 0.0 0
M  V30 END ATOM
M  V30 BEGIN BOND
M  V30 1 2 1 2
M  V30 2 2 1 3
M  V30 3 1 1 4
M  V30 4 1 1 5
M  V30 5 2 4 6
M  V30 6 2 5 7
M  V30 7 1 5 8
M  V30 8 1 6 9
M  V30 9 1 6 10
M  V30 10 1 7 11
M  V30 11 2 8 12
M  V30 12 1 10 13
M  V30 13 2 10 14
M  V30 14 2 11 15
M  V30 15 2 13 16
M  V30 16 1 13 17
M  V30 17 1 14 18
M  V30 18 1 14 19
M  V30 19 1 17 20
M  V30 20 1 17 21
M  V30 21 1 19 22
M  V30 22 1 20 23
M  V30 23 1 21 24
M  V30 24 2 22 25
M  V30 25 2 23 26
M  V30 26 1 24 27
M  V30 27 1 25 28
M  V30 28 1 27 29
M  V30 29 1 27 30
M  V30 30 1 28 31
M  V30 31 1 31 32
M  V30 32 1 32 33
M  V30 33 1 33 34
M  V30 34 3 34 35
M  V30 35 1 7 9
M  V30 36 1 12 15
M  V30 37 2 19 20
M  V30 38 1 25 26
M  V30 END BOND
M  V30 END CTAB
M  END
>  <MolRegNo>
338121

>  <m>
=

>  <Value>
4328

>  <Unit>
nM

>  <Type>
IC50

>  <pValue>
5.36

>  <Ligand Efficiency>
0.21

>  <Binding Efficiency>
10.85

>  <Surface Efficiency>
4.01

>  <Assay Index>
256538

>  <Assay Category>


>  <Assay Organism>
Hepatitis C virus subtype 1b

>  <Target ID>
12097

>  <Target Name>
Hepatitis C virus NS5B RNA-dependent RNA polymerase

>  <Target Organism>
Hepatitis C virus

>  <Target Description>
Target is a single protein chain

>  <Sequence Accession>
Q8JXU8

>  <Reference>
J. Med. Chem. 49 (3), 971-983 (2006)

>  <Pubmed ID>
16451063

>  <DOI>
10.1021/jm050855s

$$$$
338097
Actelion Java MolfileCreator 2.0

  0  0  0  0  0  0              0 V3000
M  V30 BEGIN CTAB
M  V30 COUNTS 33 36 0 0 0
M  V30 BEGIN ATOM
M  V30 1 S 0.0 0.0 0.0 0
M  V30 2 O -1.3221 0.7623 0.0 0
M  V30 3 O 1.2864 0.7742 0.0 0
M  V30 4 N -1.2983 -0.7504 0.0 0
M  V30 5 C 1.2983 -0.7265 0.0 0
M  V30 6 C -1.2983 -2.2274 0.0 0
M  V30 7 C 1.2983 -2.2154 0.0 0
M  V30 8 C 2.5728 0.0357 0.0 0
M  V30 9 N -0.0119 -2.9658 0.0 0
M  V30 10 C -2.6085 -2.9778 0.0 0
M  V30 11 C 2.5847 -2.942 0.0 0
M  V30 12 C 3.8592 -0.6908 0.0 0
M  V30 13 C -2.6085 -4.4786 0.0 0
M  V30 14 C -3.9307 -2.2274 0.0 0
M  V30 15 C 3.8711 -2.1678 0.0 0
M  V30 16 O -1.3102 -5.2171 0.0 0
M  V30 17 N -3.9187 -5.2171 0.0 0
M  V30 18 O -3.9545 -0.7146 0.0 0
M  V30 19 C -5.2409 -2.9658 0.0 0
M  V30 20 C -5.229 -4.4548 0.0 0
M  V30 21 C -3.9307 -6.706 0.0 0
M  V30 22 C -6.5511 -2.2035 0.0 0
M  V30 23 C -6.5392 -5.2052 0.0 0
M  V30 24 C -2.6442 -7.4445 0.0 0
M  V30 25 C -7.8614 -2.942 0.0 0
M  V30 26 C -7.8495 -4.4428 0.0 0
M  V30 27 C -2.6562 -8.9334 0.0 0
M  V30 28 O -9.1716 -2.1797 0.0 0
M  V30 29 C -1.3697 -9.6719 0.0 0
M  V30 30 C -3.9664 -9.6719 0.0 0
M  V30 31 C -10.4818 -2.9182 0.0 0
M  V30 32 C -11.7921 -2.1559 0.0 0
M  V30 33 N -13.1142 -1.3936 0.0 0
M  V30 END ATOM
M  V30 BEGIN BOND
M  V30 1 2 1 2
M  V30 2 2 1 3
M  V30 3 1 1 4
M  V30 4 1 1 5
M  V30 5 2 4 6
M  V30 6 2 5 7
M  V30 7 1 5 8
M  V30 8 1 6 9
M  V30 9 1 6 10
M  V30 10 1 7 11
M  V30 11 2 8 12
M  V30 12 1 10 13
M  V30 13 2 10 14
M  V30 14 2 11 15
M  V30 15 2 13 16
M  V30 16 1 13 17
M  V30 17 1 14 18
M  V30 18 1 14 19
M  V30 19 1 17 20
M  V30 20 1 17 21
M  V30 21 1 19 22
M  V30 22 1 20 23
M  V30 23 1 21 24
M  V30 24 2 22 25
M  V30 25 2 23 26
M  V30 26 1 24 27
M  V30 27 1 25 28
M  V30 28 1 27 29
M  V30 29 1 27 30
M  V30 30 1 28 31
M  V30 31 1 31 32
M  V30 32 3 32 33
M  V30 33 1 7 9
M  V30 34 1 12 15
M  V30 35 2 19 20
M  V30 36 1 25 26
M  V30 END BOND
M  V30 END CTAB
M  END
>  <MolRegNo>
338097

>  <m>
=

>  <Value>
34

>  <Unit>
nM

>  <Type>
IC50

>  <pValue>
7.47

>  <Ligand Efficiency>
0.31

>  <Binding Efficiency>
16.01

>  <Surface Efficiency>
5.58

>  <Assay Index>
256538

>  <Assay Category>


>  <Assay Organism>
Hepatitis C virus subtype 1b

>  <Target ID>
12097

>  <Target Name>
Hepatitis C virus NS5B RNA-dependent RNA polymerase

>  <Target Organism>
Hepatitis C virus

>  <Target Description>
Target is a single protein chain

>  <Sequence Accession>
Q8JXU8

>  <Reference>
J. Med. Chem. 49 (3), 971-983 (2006)

>  <Pubmed ID>
16451063

>  <DOI>
10.1021/jm050855s

$$$$
338030
Actelion Java MolfileCreator 2.0

  0  0  0  0  0  0              0 V3000
M  V30 BEGIN CTAB
M  V30 COUNTS 37 41 0 0 0
M  V30 BEGIN ATOM
M  V30 1 S 0.0 0.0 0.0 0
M  V30 2 O -1.3236 0.7631 0.0 0
M  V30 3 O 1.2878 0.7751 0.0 0
M  V30 4 N -1.2997 -0.7512 0.0 0
M  V30 5 C 1.2997 -0.7274 0.0 0
M  V30 6 C -1.2997 -2.2299 0.0 0
M  V30 7 C 1.2997 -2.2179 0.0 0
M  V30 8 C 2.5757 0.0357 0.0 0
M  V30 9 N -0.0119 -2.9692 0.0 0
M  V30 10 C -2.6115 -2.9811 0.0 0
M  V30 11 C 2.5876 -2.9453 0.0 0
M  V30 12 C 3.8635 -0.6916 0.0 0
M  V30 13 C -2.6115 -4.4836 0.0 0
M  V30 14 C -3.9351 -2.2299 0.0 0
M  V30 15 C 3.8755 -2.1702 0.0 0
M  V30 16 O -1.3117 -5.223 0.0 0
M  V30 17 N -3.9232 -5.223 0.0 0
M  V30 18 O -3.9589 -0.7154 0.0 0
M  V30 19 C -5.2468 -2.9692 0.0 0
M  V30 20 C -5.2349 -4.4598 0.0 0
M  V30 21 C -3.9351 -6.7135 0.0 0
M  V30 22 C -6.5585 -2.206 0.0 0
M  V30 23 C -6.5466 -5.211 0.0 0
M  V30 24 C -2.6472 -7.4529 0.0 0
M  V30 25 C -7.8702 -2.9453 0.0 0
M  V30 26 C -7.8583 -4.4479 0.0 0
M  V30 27 C -2.6592 -8.9435 0.0 0
M  V30 28 O -9.182 -2.1822 0.0 0
M  V30 29 C -1.3713 -9.6828 0.0 0
M  V30 30 C -3.9709 -9.6828 0.0 0
M  V30 31 C -10.4937 -2.9215 0.0 0
M  V30 32 C -10.5056 -4.4121 0.0 0
M  V30 33 C -11.8292 -5.1514 0.0 0
M  V30 34 C -9.2177 -5.1514 0.0 0
M  V30 35 C -11.8412 -6.642 0.0 0
M  V30 36 C -9.2177 -6.642 0.0 0
M  V30 37 C -10.5533 -7.3813 0.0 0
M  V30 END ATOM
M  V30 BEGIN BOND
M  V30 1 2 1 2
M  V30 2 2 1 3
M  V30 3 1 1 4
M  V30 4 1 1 5
M  V30 5 2 4 6
M  V30 6 2 5 7
M  V30 7 1 5 8
M  V30 8 1 6 9
M  V30 9 1 6 10
M  V30 10 1 7 11
M  V30 11 2 8 12
M  V30 12 1 10 13
M  V30 13 2 10 14
M  V30 14 2 11 15
M  V30 15 2 13 16
M  V30 16 1 13 17
M  V30 17 1 14 18
M  V30 18 1 14 19
M  V30 19 1 17 20
M  V30 20 1 17 21
M  V30 21 1 19 22
M  V30 22 1 20 23
M  V30 23 1 21 24
M  V30 24 2 22 25
M  V30 25 2 23 26
M  V30 26 1 24 27
M  V30 27 1 25 28
M  V30 28 1 27 29
M  V30 29 1 27 30
M  V30 30 1 28 31
M  V30 31 1 31 32
M  V30 32 2 32 33
M  V30 33 1 32 34
M  V30 34 1 33 35
M  V30 35 2 34 36
M  V30 36 2 35 37
M  V30 37 1 7 9
M  V30 38 1 12 15
M  V30 39 2 19 20
M  V30 40 1 25 26
M  V30 41 1 36 37
M  V30 END BOND
M  V30 END CTAB
M  END
>  <MolRegNo>
338030

>  <m>
=

>  <Value>
3950

>  <Unit>
nM

>  <Type>
IC50

>  <pValue>
5.4

>  <Ligand Efficiency>
0.2

>  <Binding Efficiency>
10.44

>  <Surface Efficiency>
4.91

>  <Assay Index>
256538

>  <Assay Category>


>  <Assay Organism>
Hepatitis C virus subtype 1b

>  <Target ID>
12097

>  <Target Name>
Hepatitis C virus NS5B RNA-dependent RNA polymerase

>  <Target Organism>
Hepatitis C virus

>  <Target Description>
Target is a single protein chain

>  <Sequence Accession>
Q8JXU8

>  <Reference>
J. Med. Chem. 49 (3), 971-983 (2006)

>  <Pubmed ID>
16451063

>  <DOI>
10.1021/jm050855s

$$$$
338117
Actelion Java MolfileCreator 2.0

  0  0  0  0  0  0              0 V3000
M  V30 BEGIN CTAB
M  V30 COUNTS 32 35 0 0 0
M  V30 BEGIN ATOM
M  V30 1 S 0.0 0.0 0.0 0
M  V30 2 O -1.3228 0.7627 0.0 0
M  V30 3 O 1.2871 0.7746 0.0 0
M  V30 4 N -1.299 -0.7508 0.0 0
M  V30 5 C 1.299 -0.7269 0.0 0
M  V30 6 C -1.299 -2.2286 0.0 0
M  V30 7 C 1.299 -2.2167 0.0 0
M  V30 8 C 2.5742 0.0357 0.0 0
M  V30 9 N -0.0119 -2.9675 0.0 0
M  V30 10 C -2.61 -2.9794 0.0 0
M  V30 11 C 2.5861 -2.9437 0.0 0
M  V30 12 C 3.8613 -0.6912 0.0 0
M  V30 13 C -2.61 -4.4811 0.0 0
M  V30 14 C -3.9329 -2.2286 0.0 0
M  V30 15 C 3.8733 -2.169 0.0 0
M  V30 16 O -1.3109 -5.22 0.0 0
M  V30 17 N -3.9209 -5.22 0.0 0
M  V30 18 O -3.9567 -0.715 0.0 0
M  V30 19 C -5.2438 -2.9675 0.0 0
M  V30 20 C -5.2319 -4.4572 0.0 0
M  V30 21 C -3.9329 -6.7097 0.0 0
M  V30 22 C -6.5548 -2.2048 0.0 0
M  V30 23 C -6.5429 -5.2081 0.0 0
M  V30 24 C -2.6457 -7.4486 0.0 0
M  V30 25 C -7.8658 -2.9437 0.0 0
M  V30 26 C -7.8538 -4.4453 0.0 0
M  V30 27 C -2.6576 -8.9384 0.0 0
M  V30 28 C -9.1767 -2.1809 0.0 0
M  V30 29 C -1.3705 -9.6773 0.0 0
M  V30 30 C -3.9686 -9.6773 0.0 0
M  V30 31 O -9.1886 -0.6674 0.0 0
M  V30 32 O -10.4877 -2.9198 0.0 0
M  V30 END ATOM
M  V30 BEGIN BOND
M  V30 1 2 1 2
M  V30 2 2 1 3
M  V30 3 1 1 4
M  V30 4 1 1 5
M  V30 5 2 4 6
M  V30 6 2 5 7
M  V30 7 1 5 8
M  V30 8 1 6 9
M  V30 9 1 6 10
M  V30 10 1 7 11
M  V30 11 2 8 12
M  V30 12 1 10 13
M  V30 13 2 10 14
M  V30 14 2 11 15
M  V30 15 2 13 16
M  V30 16 1 13 17
M  V30 17 1 14 18
M  V30 18 1 14 19
M  V30 19 1 17 20
M  V30 20 1 17 21
M  V30 21 1 19 22
M  V30 22 1 20 23
M  V30 23 1 21 24
M  V30 24 2 22 25
M  V30 25 2 23 26
M  V30 26 1 24 27
M  V30 27 1 25 28
M  V30 28 1 27 29
M  V30 29 1 27 30
M  V30 30 2 28 31
M  V30 31 1 28 32
M  V30 32 1 7 9
M  V30 33 1 12 15
M  V30 34 2 19 20
M  V30 35 1 25 26
M  V30 END BOND
M  V30 END CTAB
M  END
>  <MolRegNo>
338117

>  <m>
=

>  <Value>
1035

>  <Unit>
nM

>  <Type>
IC50

>  <pValue>
5.99

>  <Ligand Efficiency>
0.26

>  <Binding Efficiency>
13.14

>  <Surface Efficiency>
4.34

>  <Assay Index>
256538

>  <Assay Category>


>  <Assay Organism>
Hepatitis C virus subtype 1b

>  <Target ID>
12097

>  <Target Name>
Hepatitis C virus NS5B RNA-dependent RNA polymerase

>  <Target Organism>
Hepatitis C virus

>  <Target Description>
Target is a single protein chain

>  <Sequence Accession>
Q8JXU8

>  <Reference>
J. Med. Chem. 49 (3), 971-983 (2006)

>  <Pubmed ID>
16451063

>  <DOI>
10.1021/jm050855s

$$$$
338167
Actelion Java MolfileCreator 2.0

  0  0  0  0  0  0              0 V3000
M  V30 BEGIN CTAB
M  V30 COUNTS 34 37 0 0 0
M  V30 BEGIN ATOM
M  V30 1 S 0.0 0.0 0.0 0
M  V30 2 O -1.323 0.7628 0.0 0
M  V30 3 O 1.2872 0.7747 0.0 0
M  V30 4 N -1.2991 -0.7508 0.0 0
M  V30 5 C 1.2991 -0.727 0.0 0
M  V30 6 C -1.2991 -2.2288 0.0 0
M  V30 7 C 1.2991 -2.2169 0.0 0
M  V30 8 C 2.5745 0.0357 0.0 0
M  V30 9 N -0.0119 -2.9678 0.0 0
M  V30 10 C -2.6102 -2.9797 0.0 0
M  V30 11 C 2.5864 -2.944 0.0 0
M  V30 12 C 3.8617 -0.6913 0.0 0
M  V30 13 C -2.6102 -4.4815 0.0 0
M  V30 14 C -3.9332 -2.2288 0.0 0
M  V30 15 C 3.8736 -2.1692 0.0 0
M  V30 16 O -1.311 -5.2205 0.0 0
M  V30 17 N -3.9213 -5.2205 0.0 0
M  V30 18 O -3.9571 -0.7151 0.0 0
M  V30 19 C -5.2443 -2.9678 0.0 0
M  V30 20 C -5.2324 -4.4577 0.0 0
M  V30 21 C -3.9332 -6.7104 0.0 0
M  V30 22 C -6.5554 -2.205 0.0 0
M  V30 23 C -6.5435 -5.2086 0.0 0
M  V30 24 C -2.646 -7.4493 0.0 0
M  V30 25 C -7.8665 -2.944 0.0 0
M  V30 26 C -7.8546 -4.4457 0.0 0
M  V30 27 C -2.6579 -8.9392 0.0 0
M  V30 28 C -9.1776 -2.1811 0.0 0
M  V30 29 C -1.3706 -9.6782 0.0 0
M  V30 30 C -3.969 -9.6782 0.0 0
M  V30 31 O -9.1895 -0.6674 0.0 0
M  V30 32 O -10.4887 -2.9201 0.0 0
M  V30 33 C -10.5006 -4.41 0.0 0
M  V30 34 C -11.8117 -5.149 0.0 0
M  V30 END ATOM
M  V30 BEGIN BOND
M  V30 1 2 1 2
M  V30 2 2 1 3
M  V30 3 1 1 4
M  V30 4 1 1 5
M  V30 5 2 4 6
M  V30 6 2 5 7
M  V30 7 1 5 8
M  V30 8 1 6 9
M  V30 9 1 6 10
M  V30 10 1 7 11
M  V30 11 2 8 12
M  V30 12 1 10 13
M  V30 13 2 10 14
M  V30 14 2 11 15
M  V30 15 2 13 16
M  V30 16 1 13 17
M  V30 17 1 14 18
M  V30 18 1 14 19
M  V30 19 1 17 20
M  V30 20 1 17 21
M  V30 21 1 19 22
M  V30 22 1 20 23
M  V30 23 1 21 24
M  V30 24 2 22 25
M  V30 25 2 23 26
M  V30 26 1 24 27
M  V30 27 1 25 28
M  V30 28 1 27 29
M  V30 29 1 27 30
M  V30 30 2 28 31
M  V30 31 1 28 32
M  V30 32 1 32 33
M  V30 33 1 33 34
M  V30 34 1 7 9
M  V30 35 1 12 15
M  V30 36 2 19 20
M  V30 37 1 25 26
M  V30 END BOND
M  V30 END CTAB
M  END
>  <MolRegNo>
338167

>  <m>
>

>  <Value>
10000

>  <Unit>
nM

>  <Type>
IC50

>  <pValue>
0

>  <Ligand Efficiency>
0

>  <Binding Efficiency>
0

>  <Surface Efficiency>
0

>  <Assay Index>
256538

>  <Assay Category>


>  <Assay Organism>
Hepatitis C virus subtype 1b

>  <Target ID>
12097

>  <Target Name>
Hepatitis C virus NS5B RNA-dependent RNA polymerase

>  <Target Organism>
Hepatitis C virus

>  <Target Description>
Target is a single protein chain

>  <Sequence Accession>
Q8JXU8

>  <Reference>
J. Med. Chem. 49 (3), 971-983 (2006)

>  <Pubmed ID>
16451063

>  <DOI>
10.1021/jm050855s

$$$$
338160
Actelion Java MolfileCreator 2.0

  0  0  0  0  0  0              0 V3000
M  V30 BEGIN CTAB
M  V30 COUNTS 31 34 0 0 0
M  V30 BEGIN ATOM
M  V30 1 S 0.0 0.0 0.0 0
M  V30 2 O -1.323 0.7628 0.0 0
M  V30 3 O 1.2872 0.7747 0.0 0
M  V30 4 N -1.2991 -0.7508 0.0 0
M  V30 5 C 1.2991 -0.727 0.0 0
M  V30 6 C -1.2991 -2.2288 0.0 0
M  V30 7 C 1.2991 -2.2169 0.0 0
M  V30 8 C 2.5745 0.0357 0.0 0
M  V30 9 N -0.0119 -2.9678 0.0 0
M  V30 10 C -2.6102 -2.9797 0.0 0
M  V30 11 C 2.5864 -2.9439 0.0 0
M  V30 12 C 3.8617 -0.6913 0.0 0
M  V30 13 C -2.6102 -4.4815 0.0 0
M  V30 14 C -3.9332 -2.2288 0.0 0
M  V30 15 C 3.8736 -2.1692 0.0 0
M  V30 16 O -1.311 -5.2205 0.0 0
M  V30 17 N -3.9213 -5.2205 0.0 0
M  V30 18 O -3.9571 -0.7151 0.0 0
M  V30 19 C -5.2443 -2.9678 0.0 0
M  V30 20 C -5.2324 -4.4577 0.0 0
M  V30 21 C -3.9332 -6.7104 0.0 0
M  V30 22 C -6.5554 -2.205 0.0 0
M  V30 23 C -6.5435 -5.2086 0.0 0
M  V30 24 C -2.646 -7.4493 0.0 0
M  V30 25 C -7.8665 -2.9439 0.0 0
M  V30 26 C -7.8546 -4.4457 0.0 0
M  V30 27 C -2.6579 -8.9392 0.0 0
M  V30 28 O -9.1776 -2.1811 0.0 0
M  V30 29 C -1.3706 -9.6782 0.0 0
M  V30 30 C -3.969 -9.6782 0.0 0
M  V30 31 C -9.1895 -0.6674 0.0 0
M  V30 END ATOM
M  V30 BEGIN BOND
M  V30 1 2 1 2
M  V30 2 2 1 3
M  V30 3 1 1 4
M  V30 4 1 1 5
M  V30 5 2 4 6
M  V30 6 2 5 7
M  V30 7 1 5 8
M  V30 8 1 6 9
M  V30 9 1 6 10
M  V30 10 1 7 11
M  V30 11 2 8 12
M  V30 12 1 10 13
M  V30 13 2 10 14
M  V30 14 2 11 15
M  V30 15 2 13 16
M  V30 16 1 13 17
M  V30 17 1 14 18
M  V30 18 1 14 19
M  V30 19 1 17 20
M  V30 20 1 17 21
M  V30 21 1 19 22
M  V30 22 1 20 23
M  V30 23 1 21 24
M  V30 24 2 22 25
M  V30 25 2 23 26
M  V30 26 1 24 27
M  V30 27 1 25 28
M  V30 28 1 27 29
M  V30 29 1 27 30
M  V30 30 1 28 31
M  V30 31 1 7 9
M  V30 32 1 12 15
M  V30 33 2 19 20
M  V30 34 1 25 26
M  V30 END BOND
M  V30 END CTAB
M  END
>  <MolRegNo>
338160

>  <m>
=

>  <Value>
23

>  <Unit>
nM

>  <Type>
IC50

>  <pValue>
7.64

>  <Ligand Efficiency>
0.34

>  <Binding Efficiency>
17.3

>  <Surface Efficiency>
6.94

>  <Assay Index>
256538

>  <Assay Category>


>  <Assay Organism>
Hepatitis C virus subtype 1b

>  <Target ID>
12097

>  <Target Name>
Hepatitis C virus NS5B RNA-dependent RNA polymerase

>  <Target Organism>
Hepatitis C virus

>  <Target Description>
Target is a single protein chain

>  <Sequence Accession>
Q8JXU8

>  <Reference>
J. Med. Chem. 49 (3), 971-983 (2006)

>  <Pubmed ID>
16451063

>  <DOI>
10.1021/jm050855s

$$$$
338241
Actelion Java MolfileCreator 2.0

  0  0  0  0  0  0              0 V3000
M  V30 BEGIN CTAB
M  V30 COUNTS 30 33 0 0 0
M  V30 BEGIN ATOM
M  V30 1 S 0.0 0.0 0.0 0
M  V30 2 O -1.3236 0.7631 0.0 0
M  V30 3 O 1.2878 0.7751 0.0 0
M  V30 4 N -1.2998 -0.7512 0.0 0
M  V30 5 C 1.2998 -0.7274 0.0 0
M  V30 6 C -1.2998 -2.2299 0.0 0
M  V30 7 C 1.2998 -2.218 0.0 0
M  V30 8 C 2.5757 0.0357 0.0 0
M  V30 9 N -0.0119 -2.9692 0.0 0
M  V30 10 C -2.6115 -2.9812 0.0 0
M  V30 11 C 2.5876 -2.9454 0.0 0
M  V30 12 C 3.8636 -0.6916 0.0 0
M  V30 13 C -2.6115 -4.4837 0.0 0
M  V30 14 C -3.9351 -2.2299 0.0 0
M  V30 15 C 3.8755 -2.1703 0.0 0
M  V30 16 O -1.3117 -5.223 0.0 0
M  V30 17 N -3.9232 -5.223 0.0 0
M  V30 18 O -3.959 -0.7154 0.0 0
M  V30 19 C -5.2469 -2.9692 0.0 0
M  V30 20 C -5.2349 -4.4598 0.0 0
M  V30 21 C -3.9351 -6.7136 0.0 0
M  V30 22 C -6.5586 -2.206 0.0 0
M  V30 23 C -6.5467 -5.2111 0.0 0
M  V30 24 C -2.6473 -7.453 0.0 0
M  V30 25 C -7.8703 -2.9454 0.0 0
M  V30 26 C -7.8584 -4.4479 0.0 0
M  V30 27 C -2.6592 -8.9436 0.0 0
M  V30 28 O -9.1701 -2.1822 0.0 0
M  V30 29 C -1.3713 -9.6829 0.0 0
M  V30 30 C -3.9709 -9.6829 0.0 0
M  V30 END ATOM
M  V30 BEGIN BOND
M  V30 1 2 1 2
M  V30 2 2 1 3
M  V30 3 1 1 4
M  V30 4 1 1 5
M  V30 5 2 4 6
M  V30 6 2 5 7
M  V30 7 1 5 8
M  V30 8 1 6 9
M  V30 9 1 6 10
M  V30 10 1 7 11
M  V30 11 2 8 12
M  V30 12 1 10 13
M  V30 13 2 10 14
M  V30 14 2 11 15
M  V30 15 2 13 16
M  V30 16 1 13 17
M  V30 17 1 14 18
M  V30 18 1 14 19
M  V30 19 1 17 20
M  V30 20 1 17 21
M  V30 21 1 19 22
M  V30 22 1 20 23
M  V30 23 1 21 24
M  V30 24 2 22 25
M  V30 25 2 23 26
M  V30 26 1 24 27
M  V30 27 1 25 28
M  V30 28 1 27 29
M  V30 29 1 27 30
M  V30 30 1 7 9
M  V30 31 1 12 15
M  V30 32 2 19 20
M  V30 33 1 25 26
M  V30 END BOND
M  V30 END CTAB
M  END
>  <MolRegNo>
338241

>  <m>
=

>  <Value>
198

>  <Unit>
nM

>  <Type>
IC50

>  <pValue>
6.7

>  <Ligand Efficiency>
0.31

>  <Binding Efficiency>
15.68

>  <Surface Efficiency>
5.54

>  <Assay Index>
256538

>  <Assay Category>


>  <Assay Organism>
Hepatitis C virus subtype 1b

>  <Target ID>
12097

>  <Target Name>
Hepatitis C virus NS5B RNA-dependent RNA polymerase

>  <Target Organism>
Hepatitis C virus

>  <Target Description>
Target is a single protein chain

>  <Sequence Accession>
Q8JXU8

>  <Reference>
J. Med. Chem. 49 (3), 971-983 (2006)

>  <Pubmed ID>
16451063

>  <DOI>
10.1021/jm050855s

$$$$
338240
Actelion Java MolfileCreator 2.0

  0  0  0  0  0  0              0 V3000
M  V30 BEGIN CTAB
M  V30 COUNTS 30 33 0 0 0
M  V30 BEGIN ATOM
M  V30 1 S 0.0 0.0 0.0 0
M  V30 2 O -1.3233 0.763 0.0 0
M  V30 3 O 1.2876 0.7749 0.0 0
M  V30 4 N -1.2995 -0.7511 0.0 0
M  V30 5 C 1.2995 -0.7272 0.0 0
M  V30 6 C -1.2995 -2.2294 0.0 0
M  V30 7 C 1.2995 -2.2175 0.0 0
M  V30 8 C 2.5752 0.0357 0.0 0
M  V30 9 N -0.0119 -2.9686 0.0 0
M  V30 10 C -2.6109 -2.9805 0.0 0
M  V30 11 C 2.5871 -2.9448 0.0 0
M  V30 12 C 3.8628 -0.6914 0.0 0
M  V30 13 C -2.6109 -4.4827 0.0 0
M  V30 14 C -3.9343 -2.2294 0.0 0
M  V30 15 C 3.8747 -2.1698 0.0 0
M  V30 16 O -1.3114 -5.2219 0.0 0
M  V30 17 N -3.9224 -5.2219 0.0 0
M  V30 18 O -3.9582 -0.7153 0.0 0
M  V30 19 C -5.2458 -2.9686 0.0 0
M  V30 20 C -5.2339 -4.4589 0.0 0
M  V30 21 C -3.9343 -6.7122 0.0 0
M  V30 22 C -6.5572 -2.2056 0.0 0
M  V30 23 C -6.5453 -5.21 0.0 0
M  V30 24 C -2.6467 -7.4514 0.0 0
M  V30 25 C -7.8687 -2.9448 0.0 0
M  V30 26 C -7.8568 -4.447 0.0 0
M  V30 27 C -2.6586 -8.9417 0.0 0
M  V30 28 N -9.1801 -2.1817 0.0 0
M  V30 29 C -1.371 -9.6809 0.0 0
M  V30 30 C -3.9701 -9.6809 0.0 0
M  V30 END ATOM
M  V30 BEGIN BOND
M  V30 1 2 1 2
M  V30 2 2 1 3
M  V30 3 1 1 4
M  V30 4 1 1 5
M  V30 5 2 4 6
M  V30 6 2 5 7
M  V30 7 1 5 8
M  V30 8 1 6 9
M  V30 9 1 6 10
M  V30 10 1 7 11
M  V30 11 2 8 12
M  V30 12 1 10 13
M  V30 13 2 10 14
M  V30 14 2 11 15
M  V30 15 2 13 16
M  V30 16 1 13 17
M  V30 17 1 14 18
M  V30 18 1 14 19
M  V30 19 1 17 20
M  V30 20 1 17 21
M  V30 21 1 19 22
M  V30 22 1 20 23
M  V30 23 1 21 24
M  V30 24 2 22 25
M  V30 25 2 23 26
M  V30 26 1 24 27
M  V30 27 1 25 28
M  V30 28 1 27 29
M  V30 29 1 27 30
M  V30 30 1 7 9
M  V30 31 1 12 15
M  V30 32 2 19 20
M  V30 33 1 25 26
M  V30 END BOND
M  V30 END CTAB
M  END
>  <MolRegNo>
338240

>  <m>
=

>  <Value>
62

>  <Unit>
nM

>  <Type>
IC50

>  <pValue>
7.21

>  <Ligand Efficiency>
0.33

>  <Binding Efficiency>
16.9

>  <Surface Efficiency>
5.69

>  <Assay Index>
256538

>  <Assay Category>


>  <Assay Organism>
Hepatitis C virus subtype 1b

>  <Target ID>
12097

>  <Target Name>
Hepatitis C virus NS5B RNA-dependent RNA polymerase

>  <Target Organism>
Hepatitis C virus

>  <Target Description>
Target is a single protein chain

>  <Sequence Accession>
Q8JXU8

>  <Reference>
J. Med. Chem. 49 (3), 971-983 (2006)

>  <Pubmed ID>
16451063

>  <DOI>
10.1021/jm050855s

$$$$
338161
Actelion Java MolfileCreator 2.0

  0  0  0  0  0  0              0 V3000
M  V30 BEGIN CTAB
M  V30 COUNTS 32 35 0 0 0
M  V30 BEGIN ATOM
M  V30 1 S 0.0 0.0 0.0 0
M  V30 2 O -1.3228 0.7627 0.0 0
M  V30 3 O 1.2871 0.7746 0.0 0
M  V30 4 N -1.299 -0.7508 0.0 0
M  V30 5 C 1.299 -0.7269 0.0 0
M  V30 6 C -1.299 -2.2286 0.0 0
M  V30 7 C 1.299 -2.2167 0.0 0
M  V30 8 C 2.5742 0.0357 0.0 0
M  V30 9 N -0.0119 -2.9675 0.0 0
M  V30 10 C -2.61 -2.9794 0.0 0
M  V30 11 C 2.5861 -2.9437 0.0 0
M  V30 12 C 3.8613 -0.6912 0.0 0
M  V30 13 C -2.61 -4.4811 0.0 0
M  V30 14 C -3.9329 -2.2286 0.0 0
M  V30 15 C 3.8733 -2.169 0.0 0
M  V30 16 O -1.3109 -5.22 0.0 0
M  V30 17 N -3.9209 -5.22 0.0 0
M  V30 18 O -3.9567 -0.715 0.0 0
M  V30 19 C -5.2438 -2.9675 0.0 0
M  V30 20 C -5.2319 -4.4572 0.0 0
M  V30 21 C -3.9329 -6.7097 0.0 0
M  V30 22 C -6.5548 -2.2048 0.0 0
M  V30 23 C -6.5429 -5.2081 0.0 0
M  V30 24 C -2.6457 -7.4486 0.0 0
M  V30 25 C -7.8658 -2.9437 0.0 0
M  V30 26 C -7.8538 -4.4453 0.0 0
M  V30 27 C -2.6576 -8.9384 0.0 0
M  V30 28 N -9.1767 -2.1809 0.0 0 CHG=1
M  V30 29 C -1.3705 -9.6773 0.0 0
M  V30 30 C -3.9686 -9.6773 0.0 0
M  V30 31 O -10.4877 -2.9198 0.0 0
M  V30 32 O -9.1886 -0.6674 0.0 0 CHG=-1
M  V30 END ATOM
M  V30 BEGIN BOND
M  V30 1 2 1 2
M  V30 2 2 1 3
M  V30 3 1 1 4
M  V30 4 1 1 5
M  V30 5 2 4 6
M  V30 6 2 5 7
M  V30 7 1 5 8
M  V30 8 1 6 9
M  V30 9 1 6 10
M  V30 10 1 7 11
M  V30 11 2 8 12
M  V30 12 1 10 13
M  V30 13 2 10 14
M  V30 14 2 11 15
M  V30 15 2 13 16
M  V30 16 1 13 17
M  V30 17 1 14 18
M  V30 18 1 14 19
M  V30 19 1 17 20
M  V30 20 1 17 21
M  V30 21 1 19 22
M  V30 22 1 20 23
M  V30 23 1 21 24
M  V30 24 2 22 25
M  V30 25 2 23 26
M  V30 26 1 24 27
M  V30 27 1 25 28
M  V30 28 1 27 29
M  V30 29 1 27 30
M  V30 30 2 28 31
M  V30 31 1 28 32
M  V30 32 1 7 9
M  V30 33 1 12 15
M  V30 34 2 19 20
M  V30 35 1 25 26
M  V30 END BOND
M  V30 END CTAB
M  END
>  <MolRegNo>
338161

>  <m>
=

>  <Value>
455

>  <Unit>
nM

>  <Type>
IC50

>  <pValue>
6.34

>  <Ligand Efficiency>
0.27

>  <Binding Efficiency>
13.89

>  <Surface Efficiency>
4.41

>  <Assay Index>
256538

>  <Assay Category>


>  <Assay Organism>
Hepatitis C virus subtype 1b

>  <Target ID>
12097

>  <Target Name>
Hepatitis C virus NS5B RNA-dependent RNA polymerase

>  <Target Organism>
Hepatitis C virus

>  <Target Description>
Target is a single protein chain

>  <Sequence Accession>
Q8JXU8

>  <Reference>
J. Med. Chem. 49 (3), 971-983 (2006)

>  <Pubmed ID>
16451063

>  <DOI>
10.1021/jm050855s

$$$$
338063
Actelion Java MolfileCreator 2.0

  0  0  0  0  0  0              0 V3000
M  V30 BEGIN CTAB
M  V30 COUNTS 30 33 0 0 0
M  V30 BEGIN ATOM
M  V30 1 S 0.0 0.0 0.0 0
M  V30 2 O -1.3233 0.763 0.0 0
M  V30 3 O 1.2876 0.7749 0.0 0
M  V30 4 N -1.2995 -0.7511 0.0 0
M  V30 5 C 1.2995 -0.7272 0.0 0
M  V30 6 C -1.2995 -2.2294 0.0 0
M  V30 7 C 1.2995 -2.2175 0.0 0
M  V30 8 C 2.5752 0.0357 0.0 0
M  V30 9 N -0.0119 -2.9686 0.0 0
M  V30 10 C -2.6109 -2.9805 0.0 0
M  V30 11 C 2.5871 -2.9448 0.0 0
M  V30 12 C 3.8628 -0.6914 0.0 0
M  V30 13 C -2.6109 -4.4827 0.0 0
M  V30 14 C -3.9343 -2.2294 0.0 0
M  V30 15 C 3.8747 -2.1698 0.0 0
M  V30 16 O -1.3114 -5.2219 0.0 0
M  V30 17 N -3.9224 -5.2219 0.0 0
M  V30 18 O -3.9582 -0.7153 0.0 0
M  V30 19 C -5.2458 -2.9686 0.0 0
M  V30 20 C -5.2339 -4.4589 0.0 0
M  V30 21 C -3.9343 -6.7122 0.0 0
M  V30 22 C -6.5572 -2.2056 0.0 0
M  V30 23 C -6.5453 -5.21 0.0 0
M  V30 24 C -2.6467 -7.4514 0.0 0
M  V30 25 C -7.8687 -2.9448 0.0 0
M  V30 26 C -7.8568 -4.447 0.0 0
M  V30 27 C -2.6586 -8.9417 0.0 0
M  V30 28 C -9.1801 -2.1817 0.0 0
M  V30 29 C -1.371 -9.6809 0.0 0
M  V30 30 C -3.9701 -9.6809 0.0 0
M  V30 END ATOM
M  V30 BEGIN BOND
M  V30 1 2 1 2
M  V30 2 2 1 3
M  V30 3 1 1 4
M  V30 4 1 1 5
M  V30 5 2 4 6
M  V30 6 2 5 7
M  V30 7 1 5 8
M  V30 8 1 6 9
M  V30 9 1 6 10
M  V30 10 1 7 11
M  V30 11 2 8 12
M  V30 12 1 10 13
M  V30 13 2 10 14
M  V30 14 2 11 15
M  V30 15 2 13 16
M  V30 16 1 13 17
M  V30 17 1 14 18
M  V30 18 1 14 19
M  V30 19 1 17 20
M  V30 20 1 17 21
M  V30 21 1 19 22
M  V30 22 1 20 23
M  V30 23 1 21 24
M  V30 24 2 22 25
M  V30 25 2 23 26
M  V30 26 1 24 27
M  V30 27 1 25 28
M  V30 28 1 27 29
M  V30 29 1 27 30
M  V30 30 1 7 9
M  V30 31 1 12 15
M  V30 32 2 19 20
M  V30 33 1 25 26
M  V30 END BOND
M  V30 END CTAB
M  END
>  <MolRegNo>
338063

>  <m>
=

>  <Value>
47

>  <Unit>
nM

>  <Type>
IC50

>  <pValue>
7.33

>  <Ligand Efficiency>
0.33

>  <Binding Efficiency>
17.22

>  <Surface Efficiency>
7.27

>  <Assay Index>
256538

>  <Assay Category>


>  <Assay Organism>
Hepatitis C virus subtype 1b

>  <Target ID>
12097

>  <Target Name>
Hepatitis C virus NS5B RNA-dependent RNA polymerase

>  <Target Organism>
Hepatitis C virus

>  <Target Description>
Target is a single protein chain

>  <Sequence Accession>
Q8JXU8

>  <Reference>
J. Med. Chem. 49 (3), 971-983 (2006)

>  <Pubmed ID>
16451063

>  <DOI>
10.1021/jm050855s

$$$$
338022
Actelion Java MolfileCreator 2.0

  0  0  0  0  0  0              0 V3000
M  V30 BEGIN CTAB
M  V30 COUNTS 30 33 0 0 0
M  V30 BEGIN ATOM
M  V30 1 I 0.0 0.0 0.0 0
M  V30 2 C 1.2906 -0.7409 0.0 0
M  V30 3 C 2.5813 0.0239 0.0 0
M  V30 4 C 1.2787 -2.2467 0.0 0
M  V30 5 C 3.872 -0.717 0.0 0
M  V30 6 C 2.5694 -2.9877 0.0 0
M  V30 7 C 5.1627 0.0478 0.0 0
M  V30 8 C 3.8601 -2.2228 0.0 0
M  V30 9 O 5.1388 1.5655 0.0 0
M  V30 10 C 6.4654 -0.6811 0.0 0
M  V30 11 N 5.1508 -2.9638 0.0 0
M  V30 12 C 6.4654 -2.187 0.0 0
M  V30 13 C 7.756 0.0956 0.0 0
M  V30 14 C 5.1388 -4.4576 0.0 0
M  V30 15 O 7.768 -2.9279 0.0 0
M  V30 16 N 7.7321 1.6014 0.0 0
M  V30 17 N 9.0467 -0.6453 0.0 0
M  V30 18 C 6.4295 -5.1986 0.0 0
M  V30 19 S 9.0109 2.3782 0.0 0
M  V30 20 C 10.3374 0.1314 0.0 0
M  V30 21 C 6.4175 -6.6924 0.0 0
M  V30 22 O 7.6843 3.143 0.0 0
M  V30 23 O 10.3016 3.155 0.0 0
M  V30 24 C 10.3135 1.6492 0.0 0
M  V30 25 C 11.6281 -0.5975 0.0 0
M  V30 26 C 7.7082 -7.4334 0.0 0
M  V30 27 C 5.103 -7.4334 0.0 0
M  V30 28 C 11.5923 2.414 0.0 0
M  V30 29 C 12.9188 0.1792 0.0 0
M  V30 30 C 12.8829 1.685 0.0 0
M  V30 END ATOM
M  V30 BEGIN BOND
M  V30 1 1 1 2
M  V30 2 2 2 3
M  V30 3 1 2 4
M  V30 4 1 3 5
M  V30 5 2 4 6
M  V30 6 1 5 7
M  V30 7 2 5 8
M  V30 8 1 7 9
M  V30 9 2 7 10
M  V30 10 1 8 11
M  V30 11 1 10 12
M  V30 12 1 10 13
M  V30 13 1 11 14
M  V30 14 2 12 15
M  V30 15 2 13 16
M  V30 16 1 13 17
M  V30 17 1 14 18
M  V30 18 1 16 19
M  V30 19 1 17 20
M  V30 20 1 18 21
M  V30 21 2 19 22
M  V30 22 2 19 23
M  V30 23 1 19 24
M  V30 24 1 20 25
M  V30 25 1 21 26
M  V30 26 1 21 27
M  V30 27 1 24 28
M  V30 28 2 25 29
M  V30 29 2 28 30
M  V30 30 1 6 8
M  V30 31 1 11 12
M  V30 32 2 20 24
M  V30 33 1 29 30
M  V30 END BOND
M  V30 END CTAB
M  END
>  <MolRegNo>
338022

>  <m>
>

>  <Value>
10000

>  <Unit>
nM

>  <Type>
IC50

>  <pValue>
0

>  <Ligand Efficiency>
0

>  <Binding Efficiency>
0

>  <Surface Efficiency>
0

>  <Assay Index>
256538

>  <Assay Category>


>  <Assay Organism>
Hepatitis C virus subtype 1b

>  <Target ID>
12097

>  <Target Name>
Hepatitis C virus NS5B RNA-dependent RNA polymerase

>  <Target Organism>
Hepatitis C virus

>  <Target Description>
Target is a single protein chain

>  <Sequence Accession>
Q8JXU8

>  <Reference>
J. Med. Chem. 49 (3), 971-983 (2006)

>  <Pubmed ID>
16451063

>  <DOI>
10.1021/jm050855s

$$$$
338128
Actelion Java MolfileCreator 2.0

  0  0  0  0  0  0              0 V3000
M  V30 BEGIN CTAB
M  V30 COUNTS 30 33 0 0 0
M  V30 BEGIN ATOM
M  V30 1 Br 0.0 0.0 0.0 0
M  V30 2 C 1.2906 -0.7409 0.0 0
M  V30 3 C 2.5813 0.0239 0.0 0
M  V30 4 C 1.2787 -2.2467 0.0 0
M  V30 5 C 3.872 -0.717 0.0 0
M  V30 6 C 2.5694 -2.9877 0.0 0
M  V30 7 C 5.1627 0.0478 0.0 0
M  V30 8 C 3.8601 -2.2228 0.0 0
M  V30 9 O 5.1388 1.5655 0.0 0
M  V30 10 C 6.4654 -0.6811 0.0 0
M  V30 11 N 5.1508 -2.9638 0.0 0
M  V30 12 C 6.4654 -2.187 0.0 0
M  V30 13 C 7.756 0.0956 0.0 0
M  V30 14 C 5.1388 -4.4576 0.0 0
M  V30 15 O 7.768 -2.9279 0.0 0
M  V30 16 N 7.7321 1.6014 0.0 0
M  V30 17 N 9.0467 -0.6453 0.0 0
M  V30 18 C 6.4295 -5.1986 0.0 0
M  V30 19 S 9.0109 2.3782 0.0 0
M  V30 20 C 10.3374 0.1314 0.0 0
M  V30 21 C 6.4175 -6.6924 0.0 0
M  V30 22 O 7.6843 3.143 0.0 0
M  V30 23 O 10.3016 3.155 0.0 0
M  V30 24 C 10.3135 1.6492 0.0 0
M  V30 25 C 11.6281 -0.5975 0.0 0
M  V30 26 C 7.7082 -7.4334 0.0 0
M  V30 27 C 5.103 -7.4334 0.0 0
M  V30 28 C 11.5923 2.414 0.0 0
M  V30 29 C 12.9188 0.1792 0.0 0
M  V30 30 C 12.8829 1.685 0.0 0
M  V30 END ATOM
M  V30 BEGIN BOND
M  V30 1 1 1 2
M  V30 2 2 2 3
M  V30 3 1 2 4
M  V30 4 1 3 5
M  V30 5 2 4 6
M  V30 6 1 5 7
M  V30 7 2 5 8
M  V30 8 1 7 9
M  V30 9 2 7 10
M  V30 10 1 8 11
M  V30 11 1 10 12
M  V30 12 1 10 13
M  V30 13 1 11 14
M  V30 14 2 12 15
M  V30 15 2 13 16
M  V30 16 1 13 17
M  V30 17 1 14 18
M  V30 18 1 16 19
M  V30 19 1 17 20
M  V30 20 1 18 21
M  V30 21 2 19 22
M  V30 22 2 19 23
M  V30 23 1 19 24
M  V30 24 1 20 25
M  V30 25 1 21 26
M  V30 26 1 21 27
M  V30 27 1 24 28
M  V30 28 2 25 29
M  V30 29 2 28 30
M  V30 30 1 6 8
M  V30 31 1 11 12
M  V30 32 2 20 24
M  V30 33 1 29 30
M  V30 END BOND
M  V30 END CTAB
M  END
>  <MolRegNo>
338128

>  <m>
=

>  <Value>
205

>  <Unit>
nM

>  <Type>
IC50

>  <pValue>
6.69

>  <Ligand Efficiency>
0.3

>  <Binding Efficiency>
13.64

>  <Surface Efficiency>
6.64

>  <Assay Index>
256538

>  <Assay Category>


>  <Assay Organism>
Hepatitis C virus subtype 1b

>  <Target ID>
12097

>  <Target Name>
Hepatitis C virus NS5B RNA-dependent RNA polymerase

>  <Target Organism>
Hepatitis C virus

>  <Target Description>
Target is a single protein chain

>  <Sequence Accession>
Q8JXU8

>  <Reference>
J. Med. Chem. 49 (3), 971-983 (2006)

>  <Pubmed ID>
16451063

>  <DOI>
10.1021/jm050855s

$$$$
338093
Actelion Java MolfileCreator 2.0

  0  0  0  0  0  0              0 V3000
M  V30 BEGIN CTAB
M  V30 COUNTS 30 33 0 0 0
M  V30 BEGIN ATOM
M  V30 1 Cl 0.0 0.0 0.0 0
M  V30 2 C 1.279 -0.7411 0.0 0
M  V30 3 C 2.5699 0.0239 0.0 0
M  V30 4 C 1.267 -2.2472 0.0 0
M  V30 5 C 3.8609 -0.7171 0.0 0
M  V30 6 C 2.558 -2.9883 0.0 0
M  V30 7 C 5.1518 0.0478 0.0 0
M  V30 8 C 3.8489 -2.2233 0.0 0
M  V30 9 O 5.1279 1.5658 0.0 0
M  V30 10 C 6.4547 -0.6813 0.0 0
M  V30 11 N 5.1399 -2.9644 0.0 0
M  V30 12 C 6.4547 -2.1874 0.0 0
M  V30 13 C 7.7457 0.0956 0.0 0
M  V30 14 C 5.1279 -4.4585 0.0 0
M  V30 15 O 7.7577 -2.9285 0.0 0
M  V30 16 N 7.7218 1.6017 0.0 0
M  V30 17 N 9.0367 -0.6454 0.0 0
M  V30 18 C 6.4189 -5.1996 0.0 0
M  V30 19 S 9.0008 2.3787 0.0 0
M  V30 20 C 10.3276 0.1314 0.0 0
M  V30 21 C 6.4069 -6.6938 0.0 0
M  V30 22 O 7.674 3.1437 0.0 0
M  V30 23 O 10.2918 3.1556 0.0 0
M  V30 24 C 10.3037 1.6495 0.0 0
M  V30 25 C 11.6186 -0.5976 0.0 0
M  V30 26 C 7.6979 -7.4349 0.0 0
M  V30 27 C 5.0921 -7.4349 0.0 0
M  V30 28 C 11.5827 2.4145 0.0 0
M  V30 29 C 12.9095 0.1792 0.0 0
M  V30 30 C 12.8737 1.6854 0.0 0
M  V30 END ATOM
M  V30 BEGIN BOND
M  V30 1 1 1 2
M  V30 2 2 2 3
M  V30 3 1 2 4
M  V30 4 1 3 5
M  V30 5 2 4 6
M  V30 6 1 5 7
M  V30 7 2 5 8
M  V30 8 1 7 9
M  V30 9 2 7 10
M  V30 10 1 8 11
M  V30 11 1 10 12
M  V30 12 1 10 13
M  V30 13 1 11 14
M  V30 14 2 12 15
M  V30 15 2 13 16
M  V30 16 1 13 17
M  V30 17 1 14 18
M  V30 18 1 16 19
M  V30 19 1 17 20
M  V30 20 1 18 21
M  V30 21 2 19 22
M  V30 22 2 19 23
M  V30 23 1 19 24
M  V30 24 1 20 25
M  V30 25 1 21 26
M  V30 26 1 21 27
M  V30 27 1 24 28
M  V30 28 2 25 29
M  V30 29 2 28 30
M  V30 30 1 6 8
M  V30 31 1 11 12
M  V30 32 2 20 24
M  V30 33 1 29 30
M  V30 END BOND
M  V30 END CTAB
M  END
>  <MolRegNo>
338093

>  <m>
=

>  <Value>
43

>  <Unit>
nM

>  <Type>
IC50

>  <pValue>
7.37

>  <Ligand Efficiency>
0.34

>  <Binding Efficiency>
16.52

>  <Surface Efficiency>
7.31

>  <Assay Index>
256538

>  <Assay Category>


>  <Assay Organism>
Hepatitis C virus subtype 1b

>  <Target ID>
12097

>  <Target Name>
Hepatitis C virus NS5B RNA-dependent RNA polymerase

>  <Target Organism>
Hepatitis C virus

>  <Target Description>
Target is a single protein chain

>  <Sequence Accession>
Q8JXU8

>  <Reference>
J. Med. Chem. 49 (3), 971-983 (2006)

>  <Pubmed ID>
16451063

>  <DOI>
10.1021/jm050855s

$$$$
338092
Actelion Java MolfileCreator 2.0

  0  0  0  0  0  0              0 V3000
M  V30 BEGIN CTAB
M  V30 COUNTS 30 33 0 0 0
M  V30 BEGIN ATOM
M  V30 1 S 0.0 0.0 0.0 0
M  V30 2 O -1.3233 0.763 0.0 0
M  V30 3 O 1.2876 0.7749 0.0 0
M  V30 4 N -1.2995 -0.7511 0.0 0
M  V30 5 C 1.2995 -0.7272 0.0 0
M  V30 6 C -1.2995 -2.2294 0.0 0
M  V30 7 C 1.2995 -2.2175 0.0 0
M  V30 8 C 2.5752 0.0357 0.0 0
M  V30 9 N -0.0119 -2.9686 0.0 0
M  V30 10 C -2.6109 -2.9805 0.0 0
M  V30 11 C 2.5871 -2.9448 0.0 0
M  V30 12 C 3.8628 -0.6914 0.0 0
M  V30 13 C -2.6109 -4.4827 0.0 0
M  V30 14 C -3.9343 -2.2294 0.0 0
M  V30 15 C 3.8747 -2.1698 0.0 0
M  V30 16 O -1.3114 -5.2219 0.0 0
M  V30 17 N -3.9224 -5.2219 0.0 0
M  V30 18 O -3.9582 -0.7153 0.0 0
M  V30 19 C -5.2458 -2.9686 0.0 0
M  V30 20 C -5.2339 -4.4589 0.0 0
M  V30 21 C -3.9343 -6.7122 0.0 0
M  V30 22 C -6.5572 -2.2056 0.0 0
M  V30 23 C -6.5453 -5.21 0.0 0
M  V30 24 C -2.6467 -7.4514 0.0 0
M  V30 25 C -7.8687 -2.9448 0.0 0
M  V30 26 C -7.8568 -4.447 0.0 0
M  V30 27 C -2.6586 -8.9417 0.0 0
M  V30 28 F -9.1801 -2.1817 0.0 0
M  V30 29 C -1.371 -9.6809 0.0 0
M  V30 30 C -3.9701 -9.6809 0.0 0
M  V30 END ATOM
M  V30 BEGIN BOND
M  V30 1 2 1 2
M  V30 2 2 1 3
M  V30 3 1 1 4
M  V30 4 1 1 5
M  V30 5 2 4 6
M  V30 6 2 5 7
M  V30 7 1 5 8
M  V30 8 1 6 9
M  V30 9 1 6 10
M  V30 10 1 7 11
M  V30 11 2 8 12
M  V30 12 1 10 13
M  V30 13 2 10 14
M  V30 14 2 11 15
M  V30 15 2 13 16
M  V30 16 1 13 17
M  V30 17 1 14 18
M  V30 18 1 14 19
M  V30 19 1 17 20
M  V30 20 1 17 21
M  V30 21 1 19 22
M  V30 22 1 20 23
M  V30 23 1 21 24
M  V30 24 2 22 25
M  V30 25 2 23 26
M  V30 26 1 24 27
M  V30 27 1 25 28
M  V30 28 1 27 29
M  V30 29 1 27 30
M  V30 30 1 7 9
M  V30 31 1 12 15
M  V30 32 2 19 20
M  V30 33 1 25 26
M  V30 END BOND
M  V30 END CTAB
M  END
>  <MolRegNo>
338092

>  <m>
=

>  <Value>
20

>  <Unit>
nM

>  <Type>
IC50

>  <pValue>
7.7

>  <Ligand Efficiency>
0.35

>  <Binding Efficiency>
17.93

>  <Surface Efficiency>
7.64

>  <Assay Index>
256538

>  <Assay Category>


>  <Assay Organism>
Hepatitis C virus subtype 1b

>  <Target ID>
12097

>  <Target Name>
Hepatitis C virus NS5B RNA-dependent RNA polymerase

>  <Target Organism>
Hepatitis C virus

>  <Target Description>
Target is a single protein chain

>  <Sequence Accession>
Q8JXU8

>  <Reference>
J. Med. Chem. 49 (3), 971-983 (2006)

>  <Pubmed ID>
16451063

>  <DOI>
10.1021/jm050855s

$$$$
338085
Actelion Java MolfileCreator 2.0

  0  0  0  0  0  0              0 V3000
M  V30 BEGIN CTAB
M  V30 COUNTS 32 35 0 0 0
M  V30 BEGIN ATOM
M  V30 1 S 0.0 0.0 0.0 0
M  V30 2 O -1.3226 0.7626 0.0 0
M  V30 3 O 1.2869 0.7745 0.0 0
M  V30 4 N -1.2988 -0.7507 0.0 0
M  V30 5 C 1.2988 -0.7268 0.0 0
M  V30 6 C -1.2988 -2.2283 0.0 0
M  V30 7 C 1.2988 -2.2163 0.0 0
M  V30 8 C 2.5738 0.0357 0.0 0
M  V30 9 N -0.0119 -2.9671 0.0 0
M  V30 10 C -2.6096 -2.979 0.0 0
M  V30 11 C 2.5857 -2.9432 0.0 0
M  V30 12 C 3.8608 -0.6911 0.0 0
M  V30 13 C -2.6096 -4.4804 0.0 0
M  V30 14 C -3.9323 -2.2283 0.0 0
M  V30 15 C 3.8727 -2.1687 0.0 0
M  V30 16 O -1.3107 -5.2192 0.0 0
M  V30 17 N -3.9204 -5.2192 0.0 0
M  V30 18 O -3.9561 -0.7149 0.0 0
M  V30 19 C -5.243 -2.9671 0.0 0
M  V30 20 C -5.2311 -4.4566 0.0 0
M  V30 21 C -3.9323 -6.7087 0.0 0
M  V30 22 C -6.5538 -2.2044 0.0 0
M  V30 23 C -6.5419 -5.2073 0.0 0
M  V30 24 C -2.6453 -7.4475 0.0 0
M  V30 25 N -6.5657 -0.6911 0.0 0 CHG=1
M  V30 26 C -7.8646 -2.9432 0.0 0
M  V30 27 C -7.8527 -4.4447 0.0 0
M  V30 28 C -2.6572 -8.937 0.0 0
M  V30 29 O -7.8884 0.0714 0.0 0
M  V30 30 O -5.2788 0.0834 0.0 0 CHG=-1
M  V30 31 C -1.3703 -9.6758 0.0 0
M  V30 32 C -3.968 -9.6758 0.0 0
M  V30 END ATOM
M  V30 BEGIN BOND
M  V30 1 2 1 2
M  V30 2 2 1 3
M  V30 3 1 1 4
M  V30 4 1 1 5
M  V30 5 2 4 6
M  V30 6 2 5 7
M  V30 7 1 5 8
M  V30 8 1 6 9
M  V30 9 1 6 10
M  V30 10 1 7 11
M  V30 11 2 8 12
M  V30 12 1 10 13
M  V30 13 2 10 14
M  V30 14 2 11 15
M  V30 15 2 13 16
M  V30 16 1 13 17
M  V30 17 1 14 18
M  V30 18 1 14 19
M  V30 19 1 17 20
M  V30 20 1 17 21
M  V30 21 1 19 22
M  V30 22 1 20 23
M  V30 23 1 21 24
M  V30 24 1 22 25
M  V30 25 2 22 26
M  V30 26 2 23 27
M  V30 27 1 24 28
M  V30 28 2 25 29
M  V30 29 1 25 30
M  V30 30 1 28 31
M  V30 31 1 28 32
M  V30 32 1 7 9
M  V30 33 1 12 15
M  V30 34 2 19 20
M  V30 35 1 26 27
M  V30 END BOND
M  V30 END CTAB
M  END
>  <MolRegNo>
338085

>  <m>
=

>  <Value>
338

>  <Unit>
nM

>  <Type>
IC50

>  <pValue>
6.47

>  <Ligand Efficiency>
0.28

>  <Binding Efficiency>
14.18

>  <Surface Efficiency>
4.5

>  <Assay Index>
256538

>  <Assay Category>


>  <Assay Organism>
Hepatitis C virus subtype 1b

>  <Target ID>
12097

>  <Target Name>
Hepatitis C virus NS5B RNA-dependent RNA polymerase

>  <Target Organism>
Hepatitis C virus

>  <Target Description>
Target is a single protein chain

>  <Sequence Accession>
Q8JXU8

>  <Reference>
J. Med. Chem. 49 (3), 971-983 (2006)

>  <Pubmed ID>
16451063

>  <DOI>
10.1021/jm050855s

$$$$
338021
Actelion Java MolfileCreator 2.0

  0  0  0  0  0  0              0 V3000
M  V30 BEGIN CTAB
M  V30 COUNTS 30 33 0 0 0
M  V30 BEGIN ATOM
M  V30 1 S 0.0 0.0 0.0 0
M  V30 2 O -1.3234 0.763 0.0 0
M  V30 3 O 1.2876 0.7749 0.0 0
M  V30 4 N -1.2996 -0.7511 0.0 0
M  V30 5 C 1.2996 -0.7273 0.0 0
M  V30 6 C -1.2996 -2.2296 0.0 0
M  V30 7 C 1.2996 -2.2176 0.0 0
M  V30 8 C 2.5753 0.0357 0.0 0
M  V30 9 N -0.0119 -2.9688 0.0 0
M  V30 10 C -2.6111 -2.9807 0.0 0
M  V30 11 C 2.5873 -2.9449 0.0 0
M  V30 12 C 3.863 -0.6915 0.0 0
M  V30 13 C -2.6111 -4.483 0.0 0
M  V30 14 C -3.9346 -2.2296 0.0 0
M  V30 15 C 3.8749 -2.1699 0.0 0
M  V30 16 O -1.3115 -5.2223 0.0 0
M  V30 17 N -3.9226 -5.2223 0.0 0
M  V30 18 O -3.9584 -0.7153 0.0 0
M  V30 19 C -5.2461 -2.9688 0.0 0
M  V30 20 C -5.2342 -4.4592 0.0 0
M  V30 21 C -3.9346 -6.7126 0.0 0
M  V30 22 C -6.5576 -2.2057 0.0 0
M  V30 23 C -6.5457 -5.2103 0.0 0
M  V30 24 C -2.6469 -7.4519 0.0 0
M  V30 25 O -6.5696 -0.6915 0.0 0
M  V30 26 C -7.8692 -2.9449 0.0 0
M  V30 27 C -7.8573 -4.4473 0.0 0
M  V30 28 C -2.6588 -8.9423 0.0 0
M  V30 29 C -1.3711 -9.6815 0.0 0
M  V30 30 C -3.9703 -9.6815 0.0 0
M  V30 END ATOM
M  V30 BEGIN BOND
M  V30 1 2 1 2
M  V30 2 2 1 3
M  V30 3 1 1 4
M  V30 4 1 1 5
M  V30 5 2 4 6
M  V30 6 2 5 7
M  V30 7 1 5 8
M  V30 8 1 6 9
M  V30 9 1 6 10
M  V30 10 1 7 11
M  V30 11 2 8 12
M  V30 12 1 10 13
M  V30 13 2 10 14
M  V30 14 2 11 15
M  V30 15 2 13 16
M  V30 16 1 13 17
M  V30 17 1 14 18
M  V30 18 1 14 19
M  V30 19 1 17 20
M  V30 20 1 17 21
M  V30 21 1 19 22
M  V30 22 1 20 23
M  V30 23 1 21 24
M  V30 24 1 22 25
M  V30 25 2 22 26
M  V30 26 2 23 27
M  V30 27 1 24 28
M  V30 28 1 28 29
M  V30 29 1 28 30
M  V30 30 1 7 9
M  V30 31 1 12 15
M  V30 32 2 19 20
M  V30 33 1 26 27
M  V30 END BOND
M  V30 END CTAB
M  END
>  <MolRegNo>
338021

>  <m>
=

>  <Value>
47

>  <Unit>
nM

>  <Type>
IC50

>  <pValue>
7.33

>  <Ligand Efficiency>
0.33

>  <Binding Efficiency>
17.14

>  <Surface Efficiency>
6.06

>  <Assay Index>
256538

>  <Assay Category>


>  <Assay Organism>
Hepatitis C virus subtype 1b

>  <Target ID>
12097

>  <Target Name>
Hepatitis C virus NS5B RNA-dependent RNA polymerase

>  <Target Organism>
Hepatitis C virus

>  <Target Description>
Target is a single protein chain

>  <Sequence Accession>
Q8JXU8

>  <Reference>
J. Med. Chem. 49 (3), 971-983 (2006)

>  <Pubmed ID>
16451063

>  <DOI>
10.1021/jm050855s

$$$$
338154
Actelion Java MolfileCreator 2.0

  0  0  0  0  0  0              0 V3000
M  V30 BEGIN CTAB
M  V30 COUNTS 35 39 0 0 0
M  V30 BEGIN ATOM
M  V30 1 S 0.0 0.0 0.0 0
M  V30 2 O -1.3214 0.7619 0.0 0
M  V30 3 O 1.2857 0.7738 0.0 0
M  V30 4 N -1.2976 -0.75 0.0 0
M  V30 5 C 1.2976 -0.7262 0.0 0
M  V30 6 C -1.2976 -2.2262 0.0 0
M  V30 7 C 1.2976 -2.2143 0.0 0
M  V30 8 C 2.5715 0.0357 0.0 0
M  V30 9 N -0.0119 -2.9643 0.0 0
M  V30 10 C -2.6072 -2.9762 0.0 0
M  V30 11 C 2.5834 -2.9405 0.0 0
M  V30 12 C 3.8572 -0.6904 0.0 0
M  V30 13 C -2.6072 -4.4763 0.0 0
M  V30 14 C -3.9286 -2.2262 0.0 0
M  V30 15 C 3.8691 -2.1667 0.0 0
M  V30 16 O -1.3095 -5.2144 0.0 0
M  V30 17 N -3.9167 -5.2144 0.0 0
M  V30 18 O -3.9525 -0.7143 0.0 0
M  V30 19 C -5.2382 -2.9643 0.0 0
M  V30 20 C -5.2263 -4.4525 0.0 0
M  V30 21 C -3.9286 -6.7025 0.0 0
M  V30 22 C -6.5478 -2.2024 0.0 0
M  V30 23 C -6.5359 -5.2025 0.0 0
M  V30 24 C -2.6429 -7.4407 0.0 0
M  V30 25 C -6.5597 -0.6904 0.0 0
M  V30 26 C -7.8573 -2.9405 0.0 0
M  V30 27 C -7.8454 -4.4406 0.0 0
M  V30 28 C -2.6548 -8.9288 0.0 0
M  V30 29 C -5.2739 0.0714 0.0 0
M  V30 30 C -7.8812 0.0595 0.0 0
M  V30 31 C -1.369 -9.6669 0.0 0
M  V30 32 C -3.9644 -9.6669 0.0 0
M  V30 33 C -5.2858 1.5833 0.0 0
M  V30 34 C -7.905 1.5714 0.0 0
M  V30 35 C -6.6073 2.3453 0.0 0
M  V30 END ATOM
M  V30 BEGIN BOND
M  V30 1 2 1 2
M  V30 2 2 1 3
M  V30 3 1 1 4
M  V30 4 1 1 5
M  V30 5 2 4 6
M  V30 6 2 5 7
M  V30 7 1 5 8
M  V30 8 1 6 9
M  V30 9 1 6 10
M  V30 10 1 7 11
M  V30 11 2 8 12
M  V30 12 1 10 13
M  V30 13 2 10 14
M  V30 14 2 11 15
M  V30 15 2 13 16
M  V30 16 1 13 17
M  V30 17 1 14 18
M  V30 18 1 14 19
M  V30 19 1 17 20
M  V30 20 1 17 21
M  V30 21 1 19 22
M  V30 22 1 20 23
M  V30 23 1 21 24
M  V30 24 1 22 25
M  V30 25 2 22 26
M  V30 26 2 23 27
M  V30 27 1 24 28
M  V30 28 2 25 29
M  V30 29 1 25 30
M  V30 30 1 28 31
M  V30 31 1 28 32
M  V30 32 1 29 33
M  V30 33 2 30 34
M  V30 34 2 33 35
M  V30 35 1 7 9
M  V30 36 1 12 15
M  V30 37 2 19 20
M  V30 38 1 26 27
M  V30 39 1 34 35
M  V30 END BOND
M  V30 END CTAB
M  END
>  <MolRegNo>
338154

>  <m>
=

>  <Value>
144

>  <Unit>
nM

>  <Type>
IC50

>  <pValue>
6.84

>  <Ligand Efficiency>
0.27

>  <Binding Efficiency>
14.03

>  <Surface Efficiency>
6.79

>  <Assay Index>
256538

>  <Assay Category>


>  <Assay Organism>
Hepatitis C virus subtype 1b

>  <Target ID>
12097

>  <Target Name>
Hepatitis C virus NS5B RNA-dependent RNA polymerase

>  <Target Organism>
Hepatitis C virus

>  <Target Description>
Target is a single protein chain

>  <Sequence Accession>
Q8JXU8

>  <Reference>
J. Med. Chem. 49 (3), 971-983 (2006)

>  <Pubmed ID>
16451063

>  <DOI>
10.1021/jm050855s

$$$$
338153
Actelion Java MolfileCreator 2.0

  0  0  0  0  0  0              0 V3000
M  V30 BEGIN CTAB
M  V30 COUNTS 30 33 0 0 0
M  V30 BEGIN ATOM
M  V30 1 S 0.0 0.0 0.0 0
M  V30 2 O -1.3234 0.763 0.0 0
M  V30 3 O 1.2876 0.7749 0.0 0
M  V30 4 N -1.2996 -0.7511 0.0 0
M  V30 5 C 1.2996 -0.7273 0.0 0
M  V30 6 C -1.2996 -2.2296 0.0 0
M  V30 7 C 1.2996 -2.2176 0.0 0
M  V30 8 C 2.5753 0.0357 0.0 0
M  V30 9 N -0.0119 -2.9688 0.0 0
M  V30 10 C -2.6111 -2.9807 0.0 0
M  V30 11 C 2.5873 -2.9449 0.0 0
M  V30 12 C 3.863 -0.6915 0.0 0
M  V30 13 C -2.6111 -4.483 0.0 0
M  V30 14 C -3.9346 -2.2296 0.0 0
M  V30 15 C 3.8749 -2.1699 0.0 0
M  V30 16 O -1.3115 -5.2223 0.0 0
M  V30 17 N -3.9226 -5.2223 0.0 0
M  V30 18 O -3.9584 -0.7153 0.0 0
M  V30 19 C -5.2461 -2.9688 0.0 0
M  V30 20 C -5.2342 -4.4592 0.0 0
M  V30 21 C -3.9346 -6.7126 0.0 0
M  V30 22 C -6.5576 -2.2057 0.0 0
M  V30 23 C -6.5457 -5.2103 0.0 0
M  V30 24 C -2.6469 -7.4519 0.0 0
M  V30 25 C -7.8692 -2.9449 0.0 0
M  V30 26 C -6.5696 -0.6915 0.0 0
M  V30 27 C -7.8573 -4.4473 0.0 0
M  V30 28 C -2.6588 -8.9423 0.0 0
M  V30 29 C -1.3711 -9.6815 0.0 0
M  V30 30 C -3.9703 -9.6815 0.0 0
M  V30 END ATOM
M  V30 BEGIN BOND
M  V30 1 2 1 2
M  V30 2 2 1 3
M  V30 3 1 1 4
M  V30 4 1 1 5
M  V30 5 2 4 6
M  V30 6 2 5 7
M  V30 7 1 5 8
M  V30 8 1 6 9
M  V30 9 1 6 10
M  V30 10 1 7 11
M  V30 11 2 8 12
M  V30 12 1 10 13
M  V30 13 2 10 14
M  V30 14 2 11 15
M  V30 15 2 13 16
M  V30 16 1 13 17
M  V30 17 1 14 18
M  V30 18 1 14 19
M  V30 19 1 17 20
M  V30 20 1 17 21
M  V30 21 1 19 22
M  V30 22 1 20 23
M  V30 23 1 21 24
M  V30 24 2 22 25
M  V30 25 1 22 26
M  V30 26 2 23 27
M  V30 27 1 24 28
M  V30 28 1 28 29
M  V30 29 1 28 30
M  V30 30 1 7 9
M  V30 31 1 12 15
M  V30 32 2 19 20
M  V30 33 1 25 27
M  V30 END BOND
M  V30 END CTAB
M  END
>  <MolRegNo>
338153

>  <m>
=

>  <Value>
206

>  <Unit>
nM

>  <Type>
IC50

>  <pValue>
6.69

>  <Ligand Efficiency>
0.3

>  <Binding Efficiency>
15.71

>  <Surface Efficiency>
6.64

>  <Assay Index>
256538

>  <Assay Category>


>  <Assay Organism>
Hepatitis C virus subtype 1b

>  <Target ID>
12097

>  <Target Name>
Hepatitis C virus NS5B RNA-dependent RNA polymerase

>  <Target Organism>
Hepatitis C virus

>  <Target Description>
Target is a single protein chain

>  <Sequence Accession>
Q8JXU8

>  <Reference>
J. Med. Chem. 49 (3), 971-983 (2006)

>  <Pubmed ID>
16451063

>  <DOI>
10.1021/jm050855s

$$$$
338234
Actelion Java MolfileCreator 2.0

  0  0  0  0  0  0              0 V3000
M  V30 BEGIN CTAB
M  V30 COUNTS 30 33 0 0 0
M  V30 BEGIN ATOM
M  V30 1 Br 0.0 0.0 0.0 0
M  V30 2 C -0.0119 -1.4927 0.0 0
M  V30 3 C 1.2778 -2.2332 0.0 0
M  V30 4 C -1.3256 -2.2332 0.0 0
M  V30 5 C 2.5676 -1.4689 0.0 0
M  V30 6 C 1.2658 -3.7379 0.0 0
M  V30 7 C -1.3375 -3.7379 0.0 0
M  V30 8 O 2.5437 0.0477 0.0 0
M  V30 9 C 3.8693 -2.1973 0.0 0
M  V30 10 N 2.5556 -4.4783 0.0 0
M  V30 11 C -0.0477 -4.4903 0.0 0
M  V30 12 C 3.8693 -3.7021 0.0 0
M  V30 13 C 5.1591 -1.4211 0.0 0
M  V30 14 C 2.5437 -5.9711 0.0 0
M  V30 15 O 5.171 -4.4425 0.0 0
M  V30 16 N 5.1352 0.0835 0.0 0
M  V30 17 N 6.4488 -2.1615 0.0 0
M  V30 18 C 3.8335 -6.7116 0.0 0
M  V30 19 S 6.413 0.8598 0.0 0
M  V30 20 C 7.7386 -1.3853 0.0 0
M  V30 21 C 3.8215 -8.2044 0.0 0
M  V30 22 O 5.0874 1.6241 0.0 0
M  V30 23 O 7.7028 1.6361 0.0 0
M  V30 24 C 7.7147 0.1313 0.0 0
M  V30 25 C 9.0284 -2.1138 0.0 0
M  V30 26 C 5.1113 -8.9448 0.0 0
M  V30 27 C 2.5079 -8.9448 0.0 0
M  V30 28 C 8.9926 0.8956 0.0 0
M  V30 29 C 10.3182 -1.3375 0.0 0
M  V30 30 C 10.2823 0.1671 0.0 0
M  V30 END ATOM
M  V30 BEGIN BOND
M  V30 1 1 1 2
M  V30 2 2 2 3
M  V30 3 1 2 4
M  V30 4 1 3 5
M  V30 5 1 3 6
M  V30 6 2 4 7
M  V30 7 1 5 8
M  V30 8 2 5 9
M  V30 9 1 6 10
M  V30 10 2 6 11
M  V30 11 1 9 12
M  V30 12 1 9 13
M  V30 13 1 10 14
M  V30 14 2 12 15
M  V30 15 2 13 16
M  V30 16 1 13 17
M  V30 17 1 14 18
M  V30 18 1 16 19
M  V30 19 1 17 20
M  V30 20 1 18 21
M  V30 21 2 19 22
M  V30 22 2 19 23
M  V30 23 1 19 24
M  V30 24 1 20 25
M  V30 25 1 21 26
M  V30 26 1 21 27
M  V30 27 1 24 28
M  V30 28 2 25 29
M  V30 29 2 28 30
M  V30 30 1 7 11
M  V30 31 1 10 12
M  V30 32 2 20 24
M  V30 33 1 29 30
M  V30 END BOND
M  V30 END CTAB
M  END
>  <MolRegNo>
338234

>  <m>
=

>  <Value>
105

>  <Unit>
nM

>  <Type>
IC50

>  <pValue>
6.98

>  <Ligand Efficiency>
0.32

>  <Binding Efficiency>
14.23

>  <Surface Efficiency>
6.93

>  <Assay Index>
256538

>  <Assay Category>


>  <Assay Organism>
Hepatitis C virus subtype 1b

>  <Target ID>
12097

>  <Target Name>
Hepatitis C virus NS5B RNA-dependent RNA polymerase

>  <Target Organism>
Hepatitis C virus

>  <Target Description>
Target is a single protein chain

>  <Sequence Accession>
Q8JXU8

>  <Reference>
J. Med. Chem. 49 (3), 971-983 (2006)

>  <Pubmed ID>
16451063

>  <DOI>
10.1021/jm050855s

$$$$
338233
Actelion Java MolfileCreator 2.0

  0  0  0  0  0  0              0 V3000
M  V30 BEGIN CTAB
M  V30 COUNTS 30 33 0 0 0
M  V30 BEGIN ATOM
M  V30 1 Cl 0.0 0.0 0.0 0
M  V30 2 C -0.0119 -1.4927 0.0 0
M  V30 3 C 1.2778 -2.2332 0.0 0
M  V30 4 C -1.3256 -2.2332 0.0 0
M  V30 5 C 2.5676 -1.4689 0.0 0
M  V30 6 C 1.2658 -3.7379 0.0 0
M  V30 7 C -1.3375 -3.7379 0.0 0
M  V30 8 O 2.5437 0.0477 0.0 0
M  V30 9 C 3.8693 -2.1973 0.0 0
M  V30 10 N 2.5556 -4.4783 0.0 0
M  V30 11 C -0.0477 -4.4903 0.0 0
M  V30 12 C 3.8693 -3.7021 0.0 0
M  V30 13 C 5.1591 -1.4211 0.0 0
M  V30 14 C 2.5437 -5.9711 0.0 0
M  V30 15 O 5.171 -4.4425 0.0 0
M  V30 16 N 5.1352 0.0835 0.0 0
M  V30 17 N 6.4488 -2.1615 0.0 0
M  V30 18 C 3.8335 -6.7116 0.0 0
M  V30 19 S 6.413 0.8598 0.0 0
M  V30 20 C 7.7386 -1.3853 0.0 0
M  V30 21 C 3.8215 -8.2044 0.0 0
M  V30 22 O 5.0874 1.6241 0.0 0
M  V30 23 O 7.7028 1.6361 0.0 0
M  V30 24 C 7.7147 0.1313 0.0 0
M  V30 25 C 9.0284 -2.1138 0.0 0
M  V30 26 C 5.1113 -8.9448 0.0 0
M  V30 27 C 2.5079 -8.9448 0.0 0
M  V30 28 C 8.9926 0.8956 0.0 0
M  V30 29 C 10.3182 -1.3375 0.0 0
M  V30 30 C 10.2823 0.1671 0.0 0
M  V30 END ATOM
M  V30 BEGIN BOND
M  V30 1 1 1 2
M  V30 2 2 2 3
M  V30 3 1 2 4
M  V30 4 1 3 5
M  V30 5 1 3 6
M  V30 6 2 4 7
M  V30 7 1 5 8
M  V30 8 2 5 9
M  V30 9 1 6 10
M  V30 10 2 6 11
M  V30 11 1 9 12
M  V30 12 1 9 13
M  V30 13 1 10 14
M  V30 14 2 12 15
M  V30 15 2 13 16
M  V30 16 1 13 17
M  V30 17 1 14 18
M  V30 18 1 16 19
M  V30 19 1 17 20
M  V30 20 1 18 21
M  V30 21 2 19 22
M  V30 22 2 19 23
M  V30 23 1 19 24
M  V30 24 1 20 25
M  V30 25 1 21 26
M  V30 26 1 21 27
M  V30 27 1 24 28
M  V30 28 2 25 29
M  V30 29 2 28 30
M  V30 30 1 7 11
M  V30 31 1 10 12
M  V30 32 2 20 24
M  V30 33 1 29 30
M  V30 END BOND
M  V30 END CTAB
M  END
>  <MolRegNo>
338233

>  <m>
=

>  <Value>
33

>  <Unit>
nM

>  <Type>
IC50

>  <pValue>
7.48

>  <Ligand Efficiency>
0.34

>  <Binding Efficiency>
16.78

>  <Surface Efficiency>
7.43

>  <Assay Index>
256538

>  <Assay Category>


>  <Assay Organism>
Hepatitis C virus subtype 1b

>  <Target ID>
12097

>  <Target Name>
Hepatitis C virus NS5B RNA-dependent RNA polymerase

>  <Target Organism>
Hepatitis C virus

>  <Target Description>
Target is a single protein chain

>  <Sequence Accession>
Q8JXU8

>  <Reference>
J. Med. Chem. 49 (3), 971-983 (2006)

>  <Pubmed ID>
16451063

>  <DOI>
10.1021/jm050855s

$$$$
338222
Actelion Java MolfileCreator 2.0

  0  0  0  0  0  0              0 V3000
M  V30 BEGIN CTAB
M  V30 COUNTS 30 33 0 0 0
M  V30 BEGIN ATOM
M  V30 1 S 0.0 0.0 0.0 0
M  V30 2 O -1.3234 0.763 0.0 0
M  V30 3 O 1.2876 0.7749 0.0 0
M  V30 4 N -1.2996 -0.7511 0.0 0
M  V30 5 C 1.2996 -0.7273 0.0 0
M  V30 6 C -1.2996 -2.2296 0.0 0
M  V30 7 C 1.2996 -2.2176 0.0 0
M  V30 8 C 2.5753 0.0357 0.0 0
M  V30 9 N -0.0119 -2.9688 0.0 0
M  V30 10 C -2.6111 -2.9807 0.0 0
M  V30 11 C 2.5873 -2.9449 0.0 0
M  V30 12 C 3.863 -0.6915 0.0 0
M  V30 13 C -2.6111 -4.483 0.0 0
M  V30 14 C -3.9346 -2.2296 0.0 0
M  V30 15 C 3.8749 -2.1699 0.0 0
M  V30 16 O -1.3115 -5.2223 0.0 0
M  V30 17 N -3.9226 -5.2223 0.0 0
M  V30 18 O -3.9584 -0.7153 0.0 0
M  V30 19 C -5.2461 -2.9688 0.0 0
M  V30 20 C -5.2342 -4.4592 0.0 0
M  V30 21 C -3.9346 -6.7126 0.0 0
M  V30 22 C -6.5576 -2.2057 0.0 0
M  V30 23 C -6.5457 -5.2103 0.0 0
M  V30 24 C -2.6469 -7.4519 0.0 0
M  V30 25 F -6.5696 -0.6915 0.0 0
M  V30 26 C -7.8692 -2.9449 0.0 0
M  V30 27 C -7.8573 -4.4473 0.0 0
M  V30 28 C -2.6588 -8.9423 0.0 0
M  V30 29 C -1.3711 -9.6815 0.0 0
M  V30 30 C -3.9703 -9.6815 0.0 0
M  V30 END ATOM
M  V30 BEGIN BOND
M  V30 1 2 1 2
M  V30 2 2 1 3
M  V30 3 1 1 4
M  V30 4 1 1 5
M  V30 5 2 4 6
M  V30 6 2 5 7
M  V30 7 1 5 8
M  V30 8 1 6 9
M  V30 9 1 6 10
M  V30 10 1 7 11
M  V30 11 2 8 12
M  V30 12 1 10 13
M  V30 13 2 10 14
M  V30 14 2 11 15
M  V30 15 2 13 16
M  V30 16 1 13 17
M  V30 17 1 14 18
M  V30 18 1 14 19
M  V30 19 1 17 20
M  V30 20 1 17 21
M  V30 21 1 19 22
M  V30 22 1 20 23
M  V30 23 1 21 24
M  V30 24 1 22 25
M  V30 25 2 22 26
M  V30 26 2 23 27
M  V30 27 1 24 28
M  V30 28 1 28 29
M  V30 29 1 28 30
M  V30 30 1 7 9
M  V30 31 1 12 15
M  V30 32 2 19 20
M  V30 33 1 26 27
M  V30 END BOND
M  V30 END CTAB
M  END
>  <MolRegNo>
338222

>  <m>
=

>  <Value>
340

>  <Unit>
nM

>  <Type>
IC50

>  <pValue>
6.47

>  <Ligand Efficiency>
0.29

>  <Binding Efficiency>
15.06

>  <Surface Efficiency>
6.42

>  <Assay Index>
256538

>  <Assay Category>


>  <Assay Organism>
Hepatitis C virus subtype 1b

>  <Target ID>
12097

>  <Target Name>
Hepatitis C virus NS5B RNA-dependent RNA polymerase

>  <Target Organism>
Hepatitis C virus

>  <Target Description>
Target is a single protein chain

>  <Sequence Accession>
Q8JXU8

>  <Reference>
J. Med. Chem. 49 (3), 971-983 (2006)

>  <Pubmed ID>
16451063

>  <DOI>
10.1021/jm050855s

$$$$
338190
Actelion Java MolfileCreator 2.0

  0  0  0  0  0  0              0 V3000
M  V30 BEGIN CTAB
M  V30 COUNTS 31 35 0 0 0
M  V30 BEGIN ATOM
M  V30 1 S 0.0 0.0 0.0 0
M  V30 2 O -1.3238 0.7633 0.0 0
M  V30 3 O 1.288 0.7752 0.0 0
M  V30 4 N -1.2999 -0.7513 0.0 0
M  V30 5 C 1.2999 -0.7275 0.0 0
M  V30 6 C -1.2999 -2.2302 0.0 0
M  V30 7 C 1.2999 -2.2183 0.0 0
M  V30 8 C 2.5761 0.0357 0.0 0
M  V30 9 N -0.0119 -2.9697 0.0 0
M  V30 10 C -2.6119 -2.9816 0.0 0
M  V30 11 C 2.588 -2.9458 0.0 0
M  V30 12 C 3.8642 -0.6917 0.0 0
M  V30 13 C -2.6119 -4.4843 0.0 0
M  V30 14 C -3.9357 -2.2302 0.0 0
M  V30 15 C 3.8761 -2.1706 0.0 0
M  V30 16 O -1.3119 -5.2238 0.0 0
M  V30 17 N -3.9238 -5.2238 0.0 0
M  V30 18 O -3.9596 -0.7155 0.0 0
M  V30 19 C -5.2477 -2.9697 0.0 0
M  V30 20 C -5.2357 -4.4605 0.0 0
M  V30 21 C -3.9357 -6.7146 0.0 0
M  V30 22 C -6.5596 -2.2064 0.0 0
M  V30 23 C -6.5477 -5.2119 0.0 0
M  V30 24 C -2.6477 -7.4541 0.0 0
M  V30 25 C -7.8715 -2.9458 0.0 0
M  V30 26 C -7.8596 -4.4486 0.0 0
M  V30 27 N -1.2999 -6.822 0.0 0
M  V30 28 C -2.4926 -8.933 0.0 0
M  V30 29 C -0.2862 -7.9431 0.0 0
M  V30 30 S -1.0256 -9.2431 0.0 0
M  V30 31 C 1.2045 -7.7761 0.0 0
M  V30 END ATOM
M  V30 BEGIN BOND
M  V30 1 2 1 2
M  V30 2 2 1 3
M  V30 3 1 1 4
M  V30 4 1 1 5
M  V30 5 2 4 6
M  V30 6 2 5 7
M  V30 7 1 5 8
M  V30 8 1 6 9
M  V30 9 1 6 10
M  V30 10 1 7 11
M  V30 11 2 8 12
M  V30 12 1 10 13
M  V30 13 2 10 14
M  V30 14 2 11 15
M  V30 15 2 13 16
M  V30 16 1 13 17
M  V30 17 1 14 18
M  V30 18 1 14 19
M  V30 19 1 17 20
M  V30 20 1 17 21
M  V30 21 1 19 22
M  V30 22 1 20 23
M  V30 23 1 21 24
M  V30 24 2 22 25
M  V30 25 2 23 26
M  V30 26 1 24 27
M  V30 27 2 24 28
M  V30 28 2 27 29
M  V30 29 1 28 30
M  V30 30 1 29 31
M  V30 31 1 7 9
M  V30 32 1 12 15
M  V30 33 2 19 20
M  V30 34 1 25 26
M  V30 35 1 29 30
M  V30 END BOND
M  V30 END CTAB
M  END
>  <MolRegNo>
338190

>  <m>
=

>  <Value>
304

>  <Unit>
nM

>  <Type>
IC50

>  <pValue>
6.52

>  <Ligand Efficiency>
0.29

>  <Binding Efficiency>
14.4

>  <Surface Efficiency>
5.73

>  <Assay Index>
256538

>  <Assay Category>


>  <Assay Organism>
Hepatitis C virus subtype 1b

>  <Target ID>
12097

>  <Target Name>
Hepatitis C virus NS5B RNA-dependent RNA polymerase

>  <Target Organism>
Hepatitis C virus

>  <Target Description>
Target is a single protein chain

>  <Sequence Accession>
Q8JXU8

>  <Reference>
J. Med. Chem. 49 (3), 971-983 (2006)

>  <Pubmed ID>
16451063

>  <DOI>
10.1021/jm050855s

$$$$
338146
Actelion Java MolfileCreator 2.0

  0  0  0  0  0  0              0 V3000
M  V30 BEGIN CTAB
M  V30 COUNTS 31 35 0 0 0
M  V30 BEGIN ATOM
M  V30 1 S 0.0 0.0 0.0 0
M  V30 2 O -1.3238 0.7633 0.0 0
M  V30 3 O 1.288 0.7752 0.0 0
M  V30 4 N -1.3 -0.7513 0.0 0
M  V30 5 C 1.3 -0.7275 0.0 0
M  V30 6 C -1.3 -2.2303 0.0 0
M  V30 7 C 1.3 -2.2183 0.0 0
M  V30 8 C 2.5761 0.0357 0.0 0
M  V30 9 N -0.0119 -2.9697 0.0 0
M  V30 10 C -2.6119 -2.9817 0.0 0
M  V30 11 C 2.5881 -2.9459 0.0 0
M  V30 12 C 3.8642 -0.6917 0.0 0
M  V30 13 C -2.6119 -4.4844 0.0 0
M  V30 14 C -3.9358 -2.2303 0.0 0
M  V30 15 C 3.8762 -2.1706 0.0 0
M  V30 16 O -1.3119 -5.2239 0.0 0
M  V30 17 N -3.9239 -5.2239 0.0 0
M  V30 18 O -3.9596 -0.7156 0.0 0
M  V30 19 C -5.2477 -2.9697 0.0 0
M  V30 20 C -5.2358 -4.4606 0.0 0
M  V30 21 C -3.9358 -6.7147 0.0 0
M  V30 22 C -6.5597 -2.2064 0.0 0
M  V30 23 C -6.5478 -5.212 0.0 0
M  V30 24 C -2.6477 -7.4542 0.0 0
M  V30 25 C -7.8716 -2.9459 0.0 0
M  V30 26 C -7.8597 -4.4486 0.0 0
M  V30 27 C -2.6596 -8.9451 0.0 0
M  V30 28 C -1.4312 -9.8276 0.0 0
M  V30 29 C -3.8642 -9.8038 0.0 0
M  V30 30 S -1.9082 -11.2469 0.0 0
M  V30 31 C -3.4229 -11.2231 0.0 0
M  V30 END ATOM
M  V30 BEGIN BOND
M  V30 1 2 1 2
M  V30 2 2 1 3
M  V30 3 1 1 4
M  V30 4 1 1 5
M  V30 5 2 4 6
M  V30 6 2 5 7
M  V30 7 1 5 8
M  V30 8 1 6 9
M  V30 9 1 6 10
M  V30 10 1 7 11
M  V30 11 2 8 12
M  V30 12 1 10 13
M  V30 13 2 10 14
M  V30 14 2 11 15
M  V30 15 2 13 16
M  V30 16 1 13 17
M  V30 17 1 14 18
M  V30 18 1 14 19
M  V30 19 1 17 20
M  V30 20 1 17 21
M  V30 21 1 19 22
M  V30 22 1 20 23
M  V30 23 1 21 24
M  V30 24 2 22 25
M  V30 25 2 23 26
M  V30 26 1 24 27
M  V30 27 2 27 28
M  V30 28 1 27 29
M  V30 29 1 28 30
M  V30 30 2 29 31
M  V30 31 1 7 9
M  V30 32 1 12 15
M  V30 33 2 19 20
M  V30 34 1 25 26
M  V30 35 1 30 31
M  V30 END BOND
M  V30 END CTAB
M  END
>  <MolRegNo>
338146

>  <m>
>

>  <Value>
10000

>  <Unit>
nM

>  <Type>
IC50

>  <pValue>
0

>  <Ligand Efficiency>
0

>  <Binding Efficiency>
0

>  <Surface Efficiency>
0

>  <Assay Index>
256538

>  <Assay Category>


>  <Assay Organism>
Hepatitis C virus subtype 1b

>  <Target ID>
12097

>  <Target Name>
Hepatitis C virus NS5B RNA-dependent RNA polymerase

>  <Target Organism>
Hepatitis C virus

>  <Target Description>
Target is a single protein chain

>  <Sequence Accession>
Q8JXU8

>  <Reference>
J. Med. Chem. 49 (3), 971-983 (2006)

>  <Pubmed ID>
16451063

>  <DOI>
10.1021/jm050855s

$$$$
338119
Actelion Java MolfileCreator 2.0

  0  0  0  0  0  0              0 V3000
M  V30 BEGIN CTAB
M  V30 COUNTS 31 35 0 0 0
M  V30 BEGIN ATOM
M  V30 1 S 0.0 0.0 0.0 0
M  V30 2 O -1.3237 0.7632 0.0 0
M  V30 3 O 1.2879 0.7751 0.0 0
M  V30 4 N -1.2998 -0.7513 0.0 0
M  V30 5 C 1.2998 -0.7274 0.0 0
M  V30 6 C -1.2998 -2.23 0.0 0
M  V30 7 C 1.2998 -2.2181 0.0 0
M  V30 8 C 2.5759 0.0357 0.0 0
M  V30 9 N -0.0119 -2.9694 0.0 0
M  V30 10 C -2.6116 -2.9813 0.0 0
M  V30 11 C 2.5878 -2.9456 0.0 0
M  V30 12 C 3.8638 -0.6916 0.0 0
M  V30 13 C -2.6116 -4.484 0.0 0
M  V30 14 C -3.9354 -2.23 0.0 0
M  V30 15 C 3.8757 -2.1704 0.0 0
M  V30 16 O -1.3118 -5.2233 0.0 0
M  V30 17 N -3.9235 -5.2233 0.0 0
M  V30 18 O -3.9592 -0.7155 0.0 0
M  V30 19 C -5.2472 -2.9694 0.0 0
M  V30 20 C -5.2353 -4.4601 0.0 0
M  V30 21 C -3.9354 -6.714 0.0 0
M  V30 22 C -6.559 -2.2062 0.0 0
M  V30 23 C -6.5471 -5.2114 0.0 0
M  V30 24 C -2.6474 -7.4534 0.0 0
M  V30 25 C -7.8708 -2.9456 0.0 0
M  V30 26 C -7.8589 -4.4482 0.0 0
M  V30 27 C -2.6593 -8.9441 0.0 0
M  V30 28 S -3.8996 -9.8266 0.0 0
M  V30 29 C -1.4549 -9.8147 0.0 0
M  V30 30 C -3.4345 -11.2338 0.0 0
M  V30 31 C -1.908 -11.2219 0.0 0
M  V30 END ATOM
M  V30 BEGIN BOND
M  V30 1 2 1 2
M  V30 2 2 1 3
M  V30 3 1 1 4
M  V30 4 1 1 5
M  V30 5 2 4 6
M  V30 6 2 5 7
M  V30 7 1 5 8
M  V30 8 1 6 9
M  V30 9 1 6 10
M  V30 10 1 7 11
M  V30 11 2 8 12
M  V30 12 1 10 13
M  V30 13 2 10 14
M  V30 14 2 11 15
M  V30 15 2 13 16
M  V30 16 1 13 17
M  V30 17 1 14 18
M  V30 18 1 14 19
M  V30 19 1 17 20
M  V30 20 1 17 21
M  V30 21 1 19 22
M  V30 22 1 20 23
M  V30 23 1 21 24
M  V30 24 2 22 25
M  V30 25 2 23 26
M  V30 26 1 24 27
M  V30 27 1 27 28
M  V30 28 2 27 29
M  V30 29 1 28 30
M  V30 30 1 29 31
M  V30 31 1 7 9
M  V30 32 1 12 15
M  V30 33 2 19 20
M  V30 34 1 25 26
M  V30 35 2 30 31
M  V30 END BOND
M  V30 END CTAB
M  END
>  <MolRegNo>
338119

>  <m>
>

>  <Value>
10000

>  <Unit>
nM

>  <Type>
IC50

>  <pValue>
0

>  <Ligand Efficiency>
0

>  <Binding Efficiency>
0

>  <Surface Efficiency>
0

>  <Assay Index>
256538

>  <Assay Category>


>  <Assay Organism>
Hepatitis C virus subtype 1b

>  <Target ID>
12097

>  <Target Name>
Hepatitis C virus NS5B RNA-dependent RNA polymerase

>  <Target Organism>
Hepatitis C virus

>  <Target Description>
Target is a single protein chain

>  <Sequence Accession>
Q8JXU8

>  <Reference>
J. Med. Chem. 49 (3), 971-983 (2006)

>  <Pubmed ID>
16451063

>  <DOI>
10.1021/jm050855s

$$$$
338084
Actelion Java MolfileCreator 2.0

  0  0  0  0  0  0              0 V3000
M  V30 BEGIN CTAB
M  V30 COUNTS 30 34 0 0 0
M  V30 BEGIN ATOM
M  V30 1 S 0.0 0.0 0.0 0
M  V30 2 O -1.3239 0.7633 0.0 0
M  V30 3 O 1.2881 0.7752 0.0 0
M  V30 4 N -1.3001 -0.7514 0.0 0
M  V30 5 C 1.3001 -0.7275 0.0 0
M  V30 6 C -1.3001 -2.2304 0.0 0
M  V30 7 C 1.3001 -2.2185 0.0 0
M  V30 8 C 2.5763 0.0357 0.0 0
M  V30 9 N -0.0119 -2.9699 0.0 0
M  V30 10 C -2.6121 -2.9818 0.0 0
M  V30 11 C 2.5882 -2.9461 0.0 0
M  V30 12 C 3.8645 -0.6917 0.0 0
M  V30 13 C -2.6121 -4.4847 0.0 0
M  V30 14 C -3.936 -2.2304 0.0 0
M  V30 15 C 3.8764 -2.1708 0.0 0
M  V30 16 O -1.312 -5.2242 0.0 0
M  V30 17 N -3.9241 -5.2242 0.0 0
M  V30 18 O -3.9599 -0.7156 0.0 0
M  V30 19 C -5.2481 -2.9699 0.0 0
M  V30 20 C -5.2361 -4.4609 0.0 0
M  V30 21 C -3.936 -6.7152 0.0 0
M  V30 22 C -6.5601 -2.2065 0.0 0
M  V30 23 C -6.5482 -5.2123 0.0 0
M  V30 24 C -2.6479 -7.4547 0.0 0
M  V30 25 C -7.8721 -2.9461 0.0 0
M  V30 26 C -7.8602 -4.4489 0.0 0
M  V30 27 C -1.2643 -6.8225 0.0 0
M  V30 28 C -2.4928 -8.9218 0.0 0
M  V30 29 O -0.2743 -7.9318 0.0 0
M  V30 30 C -1.0376 -9.2319 0.0 0
M  V30 END ATOM
M  V30 BEGIN BOND
M  V30 1 2 1 2
M  V30 2 2 1 3
M  V30 3 1 1 4
M  V30 4 1 1 5
M  V30 5 2 4 6
M  V30 6 2 5 7
M  V30 7 1 5 8
M  V30 8 1 6 9
M  V30 9 1 6 10
M  V30 10 1 7 11
M  V30 11 2 8 12
M  V30 12 1 10 13
M  V30 13 2 10 14
M  V30 14 2 11 15
M  V30 15 2 13 16
M  V30 16 1 13 17
M  V30 17 1 14 18
M  V30 18 1 14 19
M  V30 19 1 17 20
M  V30 20 1 17 21
M  V30 21 1 19 22
M  V30 22 1 20 23
M  V30 23 1 21 24
M  V30 24 2 22 25
M  V30 25 2 23 26
M  V30 26 2 24 27
M  V30 27 1 24 28
M  V30 28 1 27 29
M  V30 29 2 28 30
M  V30 30 1 7 9
M  V30 31 1 12 15
M  V30 32 2 19 20
M  V30 33 1 25 26
M  V30 34 1 29 30
M  V30 END BOND
M  V30 END CTAB
M  END
>  <MolRegNo>
338084

>  <m>
=

>  <Value>
27

>  <Unit>
nM

>  <Type>
IC50

>  <pValue>
7.57

>  <Ligand Efficiency>
0.34

>  <Binding Efficiency>
17.96

>  <Surface Efficiency>
6.64

>  <Assay Index>
256538

>  <Assay Category>


>  <Assay Organism>
Hepatitis C virus subtype 1b

>  <Target ID>
12097

>  <Target Name>
Hepatitis C virus NS5B RNA-dependent RNA polymerase

>  <Target Organism>
Hepatitis C virus

>  <Target Description>
Target is a single protein chain

>  <Sequence Accession>
Q8JXU8

>  <Reference>
J. Med. Chem. 49 (3), 971-983 (2006)

>  <Pubmed ID>
16451063

>  <DOI>
10.1021/jm050855s

$$$$
338075
Actelion Java MolfileCreator 2.0

  0  0  0  0  0  0              0 V3000
M  V30 BEGIN CTAB
M  V30 COUNTS 31 35 0 0 0
M  V30 BEGIN ATOM
M  V30 1 S 0.0 0.0 0.0 0
M  V30 2 O -1.3243 0.7636 0.0 0
M  V30 3 O 1.2886 0.7755 0.0 0
M  V30 4 N -1.3005 -0.7516 0.0 0
M  V30 5 C 1.3005 -0.7278 0.0 0
M  V30 6 C -1.3005 -2.2311 0.0 0
M  V30 7 C 1.3005 -2.2192 0.0 0
M  V30 8 C 2.5772 0.0357 0.0 0
M  V30 9 N -0.0119 -2.9709 0.0 0
M  V30 10 C -2.613 -2.9828 0.0 0
M  V30 11 C 2.5891 -2.947 0.0 0
M  V30 12 C 3.8658 -0.692 0.0 0
M  V30 13 C -2.613 -4.4862 0.0 0
M  V30 14 C -3.9374 -2.2311 0.0 0
M  V30 15 C 3.8777 -2.1715 0.0 0
M  V30 16 O -1.3124 -5.226 0.0 0
M  V30 17 N -3.9254 -5.226 0.0 0
M  V30 18 O -3.9612 -0.7158 0.0 0
M  V30 19 C -5.2498 -2.9709 0.0 0
M  V30 20 C -5.2379 -4.4623 0.0 0
M  V30 21 C -3.9374 -6.7174 0.0 0
M  V30 22 C -6.5623 -2.2073 0.0 0
M  V30 23 C -6.5504 -5.214 0.0 0
M  V30 24 C -2.6487 -7.4571 0.0 0
M  V30 25 C -7.8748 -2.947 0.0 0
M  V30 26 C -7.8628 -4.4504 0.0 0
M  V30 27 C -2.6607 -8.9486 0.0 0
M  V30 28 C -1.3721 -6.6816 0.0 0
M  V30 29 C -1.3721 -9.6883 0.0 0
M  V30 30 C -0.0835 -7.4094 0.0 0
M  V30 31 N -0.0835 -8.9247 0.0 0
M  V30 END ATOM
M  V30 BEGIN BOND
M  V30 1 2 1 2
M  V30 2 2 1 3
M  V30 3 1 1 4
M  V30 4 1 1 5
M  V30 5 2 4 6
M  V30 6 2 5 7
M  V30 7 1 5 8
M  V30 8 1 6 9
M  V30 9 1 6 10
M  V30 10 1 7 11
M  V30 11 2 8 12
M  V30 12 1 10 13
M  V30 13 2 10 14
M  V30 14 2 11 15
M  V30 15 2 13 16
M  V30 16 1 13 17
M  V30 17 1 14 18
M  V30 18 1 14 19
M  V30 19 1 17 20
M  V30 20 1 17 21
M  V30 21 1 19 22
M  V30 22 1 20 23
M  V30 23 1 21 24
M  V30 24 2 22 25
M  V30 25 2 23 26
M  V30 26 2 24 27
M  V30 27 1 24 28
M  V30 28 1 27 29
M  V30 29 2 28 30
M  V30 30 2 29 31
M  V30 31 1 7 9
M  V30 32 1 12 15
M  V30 33 2 19 20
M  V30 34 1 25 26
M  V30 35 1 30 31
M  V30 END BOND
M  V30 END CTAB
M  END
>  <MolRegNo>
338075

>  <m>
=

>  <Value>
61

>  <Unit>
nM

>  <Type>
IC50

>  <pValue>
7.21

>  <Ligand Efficiency>
0.32

>  <Binding Efficiency>
16.68

>  <Surface Efficiency>
6.35

>  <Assay Index>
256538

>  <Assay Category>


>  <Assay Organism>
Hepatitis C virus subtype 1b

>  <Target ID>
12097

>  <Target Name>
Hepatitis C virus NS5B RNA-dependent RNA polymerase

>  <Target Organism>
Hepatitis C virus

>  <Target Description>
Target is a single protein chain

>  <Sequence Accession>
Q8JXU8

>  <Reference>
J. Med. Chem. 49 (3), 971-983 (2006)

>  <Pubmed ID>
16451063

>  <DOI>
10.1021/jm050855s

$$$$
338036
Actelion Java MolfileCreator 2.0

  0  0  0  0  0  0              0 V3000
M  V30 BEGIN CTAB
M  V30 COUNTS 31 35 0 0 0
M  V30 BEGIN ATOM
M  V30 1 S 0.0 0.0 0.0 0
M  V30 2 O -1.3243 0.7636 0.0 0
M  V30 3 O 1.2886 0.7755 0.0 0
M  V30 4 N -1.3005 -0.7516 0.0 0
M  V30 5 C 1.3005 -0.7278 0.0 0
M  V30 6 C -1.3005 -2.2311 0.0 0
M  V30 7 C 1.3005 -2.2192 0.0 0
M  V30 8 C 2.5772 0.0357 0.0 0
M  V30 9 N -0.0119 -2.9709 0.0 0
M  V30 10 C -2.613 -2.9828 0.0 0
M  V30 11 C 2.5891 -2.947 0.0 0
M  V30 12 C 3.8658 -0.692 0.0 0
M  V30 13 C -2.613 -4.4862 0.0 0
M  V30 14 C -3.9374 -2.2311 0.0 0
M  V30 15 C 3.8777 -2.1715 0.0 0
M  V30 16 O -1.3124 -5.226 0.0 0
M  V30 17 N -3.9254 -5.226 0.0 0
M  V30 18 O -3.9612 -0.7158 0.0 0
M  V30 19 C -5.2498 -2.9709 0.0 0
M  V30 20 C -5.2379 -4.4623 0.0 0
M  V30 21 C -3.9374 -6.7174 0.0 0
M  V30 22 C -6.5623 -2.2073 0.0 0
M  V30 23 C -6.5504 -5.214 0.0 0
M  V30 24 C -2.6487 -7.4571 0.0 0
M  V30 25 C -7.8748 -2.947 0.0 0
M  V30 26 C -7.8628 -4.4504 0.0 0
M  V30 27 C -2.6607 -8.9486 0.0 0
M  V30 28 C -1.3721 -6.6816 0.0 0
M  V30 29 N -1.3721 -9.6883 0.0 0
M  V30 30 C -0.0835 -7.4094 0.0 0
M  V30 31 C -0.0835 -8.9247 0.0 0
M  V30 END ATOM
M  V30 BEGIN BOND
M  V30 1 2 1 2
M  V30 2 2 1 3
M  V30 3 1 1 4
M  V30 4 1 1 5
M  V30 5 2 4 6
M  V30 6 2 5 7
M  V30 7 1 5 8
M  V30 8 1 6 9
M  V30 9 1 6 10
M  V30 10 1 7 11
M  V30 11 2 8 12
M  V30 12 1 10 13
M  V30 13 2 10 14
M  V30 14 2 11 15
M  V30 15 2 13 16
M  V30 16 1 13 17
M  V30 17 1 14 18
M  V30 18 1 14 19
M  V30 19 1 17 20
M  V30 20 1 17 21
M  V30 21 1 19 22
M  V30 22 1 20 23
M  V30 23 1 21 24
M  V30 24 2 22 25
M  V30 25 2 23 26
M  V30 26 2 24 27
M  V30 27 1 24 28
M  V30 28 1 27 29
M  V30 29 2 28 30
M  V30 30 2 29 31
M  V30 31 1 7 9
M  V30 32 1 12 15
M  V30 33 2 19 20
M  V30 34 1 25 26
M  V30 35 1 30 31
M  V30 END BOND
M  V30 END CTAB
M  END
>  <MolRegNo>
338036

>  <m>
=

>  <Value>
316

>  <Unit>
nM

>  <Type>
IC50

>  <pValue>
6.5

>  <Ligand Efficiency>
0.29

>  <Binding Efficiency>
15.03

>  <Surface Efficiency>
5.72

>  <Assay Index>
256538

>  <Assay Category>


>  <Assay Organism>
Hepatitis C virus subtype 1b

>  <Target ID>
12097

>  <Target Name>
Hepatitis C virus NS5B RNA-dependent RNA polymerase

>  <Target Organism>
Hepatitis C virus

>  <Target Description>
Target is a single protein chain

>  <Sequence Accession>
Q8JXU8

>  <Reference>
J. Med. Chem. 49 (3), 971-983 (2006)

>  <Pubmed ID>
16451063

>  <DOI>
10.1021/jm050855s

$$$$
338029
Actelion Java MolfileCreator 2.0

  0  0  0  0  0  0              0 V3000
M  V30 BEGIN CTAB
M  V30 COUNTS 31 35 0 0 0
M  V30 BEGIN ATOM
M  V30 1 S 0.0 0.0 0.0 0
M  V30 2 O -1.3243 0.7636 0.0 0
M  V30 3 O 1.2886 0.7755 0.0 0
M  V30 4 N -1.3005 -0.7516 0.0 0
M  V30 5 C 1.3005 -0.7278 0.0 0
M  V30 6 C -1.3005 -2.2311 0.0 0
M  V30 7 C 1.3005 -2.2192 0.0 0
M  V30 8 C 2.5772 0.0357 0.0 0
M  V30 9 N -0.0119 -2.9709 0.0 0
M  V30 10 C -2.613 -2.9828 0.0 0
M  V30 11 C 2.5891 -2.947 0.0 0
M  V30 12 C 3.8658 -0.692 0.0 0
M  V30 13 C -2.613 -4.4862 0.0 0
M  V30 14 C -3.9374 -2.2311 0.0 0
M  V30 15 C 3.8777 -2.1715 0.0 0
M  V30 16 O -1.3124 -5.226 0.0 0
M  V30 17 N -3.9254 -5.226 0.0 0
M  V30 18 O -3.9612 -0.7158 0.0 0
M  V30 19 C -5.2498 -2.9709 0.0 0
M  V30 20 C -5.2379 -4.4623 0.0 0
M  V30 21 C -3.9374 -6.7174 0.0 0
M  V30 22 C -6.5623 -2.2073 0.0 0
M  V30 23 C -6.5504 -5.214 0.0 0
M  V30 24 C -2.6487 -7.4571 0.0 0
M  V30 25 C -7.8748 -2.947 0.0 0
M  V30 26 C -7.8628 -4.4504 0.0 0
M  V30 27 N -2.6607 -8.9486 0.0 0
M  V30 28 C -1.3721 -6.6816 0.0 0
M  V30 29 C -1.3721 -9.6883 0.0 0
M  V30 30 C -0.0835 -7.4094 0.0 0
M  V30 31 C -0.0835 -8.9247 0.0 0
M  V30 END ATOM
M  V30 BEGIN BOND
M  V30 1 2 1 2
M  V30 2 2 1 3
M  V30 3 1 1 4
M  V30 4 1 1 5
M  V30 5 2 4 6
M  V30 6 2 5 7
M  V30 7 1 5 8
M  V30 8 1 6 9
M  V30 9 1 6 10
M  V30 10 1 7 11
M  V30 11 2 8 12
M  V30 12 1 10 13
M  V30 13 2 10 14
M  V30 14 2 11 15
M  V30 15 2 13 16
M  V30 16 1 13 17
M  V30 17 1 14 18
M  V30 18 1 14 19
M  V30 19 1 17 20
M  V30 20 1 17 21
M  V30 21 1 19 22
M  V30 22 1 20 23
M  V30 23 1 21 24
M  V30 24 2 22 25
M  V30 25 2 23 26
M  V30 26 2 24 27
M  V30 27 1 24 28
M  V30 28 1 27 29
M  V30 29 2 28 30
M  V30 30 2 29 31
M  V30 31 1 7 9
M  V30 32 1 12 15
M  V30 33 2 19 20
M  V30 34 1 25 26
M  V30 35 1 30 31
M  V30 END BOND
M  V30 END CTAB
M  END
>  <MolRegNo>
338029

>  <m>
=

>  <Value>
2694

>  <Unit>
nM

>  <Type>
IC50

>  <pValue>
5.57

>  <Ligand Efficiency>
0.25

>  <Binding Efficiency>
12.88

>  <Surface Efficiency>
4.9

>  <Assay Index>
256538

>  <Assay Category>


>  <Assay Organism>
Hepatitis C virus subtype 1b

>  <Target ID>
12097

>  <Target Name>
Hepatitis C virus NS5B RNA-dependent RNA polymerase

>  <Target Organism>
Hepatitis C virus

>  <Target Description>
Target is a single protein chain

>  <Sequence Accession>
Q8JXU8

>  <Reference>
J. Med. Chem. 49 (3), 971-983 (2006)

>  <Pubmed ID>
16451063

>  <DOI>
10.1021/jm050855s

$$$$
338028
Actelion Java MolfileCreator 2.0

  0  0  0  0  0  0              0 V3000
M  V30 BEGIN CTAB
M  V30 COUNTS 32 36 0 0 0
M  V30 BEGIN ATOM
M  V30 1 Br 0.0 0.0 0.0 0
M  V30 2 C -1.3068 -0.7484 0.0 0
M  V30 3 C -2.6137 0.0 0.0 0
M  V30 4 C -1.3068 -2.2454 0.0 0
M  V30 5 C -3.9086 -0.7484 0.0 0
M  V30 6 C -2.6137 -2.982 0.0 0
M  V30 7 C -3.9205 -2.2335 0.0 0
M  V30 8 C -5.2155 0.0118 0.0 0
M  V30 9 N -5.2274 1.5207 0.0 0
M  V30 10 C -3.9443 2.281 0.0 0
M  V30 11 C -6.5342 2.281 0.0 0
M  V30 12 O -2.6493 1.5444 0.0 0
M  V30 13 C -3.968 3.8017 0.0 0
M  V30 14 C -6.5461 3.8017 0.0 0
M  V30 15 C -7.8411 1.5325 0.0 0
M  V30 16 C -2.6849 4.5739 0.0 0
M  V30 17 C -5.2868 4.5502 0.0 0
M  V30 18 C -7.853 4.5621 0.0 0
M  V30 19 C -9.1479 2.2929 0.0 0
M  V30 20 N -2.7087 6.0709 0.0 0
M  V30 21 N -1.4019 3.8374 0.0 0
M  V30 22 O -5.3105 6.059 0.0 0
M  V30 23 C -9.1598 3.8255 0.0 0
M  V30 24 S -1.4375 6.8431 0.0 0
M  V30 25 C -0.1188 4.6096 0.0 0
M  V30 26 O -2.7562 7.6035 0.0 0
M  V30 27 O -0.1544 7.6154 0.0 0
M  V30 28 C -0.1425 6.1184 0.0 0
M  V30 29 C 1.1642 3.8849 0.0 0
M  V30 30 C 1.1286 6.8788 0.0 0
M  V30 31 C 2.4473 4.6571 0.0 0
M  V30 32 C 2.4117 6.1541 0.0 0
M  V30 END ATOM
M  V30 BEGIN BOND
M  V30 1 1 1 2
M  V30 2 2 2 3
M  V30 3 1 2 4
M  V30 4 1 3 5
M  V30 5 2 4 6
M  V30 6 2 5 7
M  V30 7 1 5 8
M  V30 8 1 8 9
M  V30 9 1 9 10
M  V30 10 1 9 11
M  V30 11 2 10 12
M  V30 12 1 10 13
M  V30 13 2 11 14
M  V30 14 1 11 15
M  V30 15 1 13 16
M  V30 16 2 13 17
M  V30 17 1 14 18
M  V30 18 2 15 19
M  V30 19 2 16 20
M  V30 20 1 16 21
M  V30 21 1 17 22
M  V30 22 2 18 23
M  V30 23 1 20 24
M  V30 24 1 21 25
M  V30 25 2 24 26
M  V30 26 2 24 27
M  V30 27 1 24 28
M  V30 28 1 25 29
M  V30 29 1 28 30
M  V30 30 2 29 31
M  V30 31 2 30 32
M  V30 32 1 6 7
M  V30 33 1 14 17
M  V30 34 1 19 23
M  V30 35 2 25 28
M  V30 36 1 31 32
M  V30 END BOND
M  V30 END CTAB
M  END
>  <MolRegNo>
338028

>  <m>
=

>  <Value>
36

>  <Unit>
nM

>  <Type>
IC50

>  <pValue>
7.44

>  <Ligand Efficiency>
0.32

>  <Binding Efficiency>
14.58

>  <Surface Efficiency>
7.39

>  <Assay Index>
256538

>  <Assay Category>


>  <Assay Organism>
Hepatitis C virus subtype 1b

>  <Target ID>
12097

>  <Target Name>
Hepatitis C virus NS5B RNA-dependent RNA polymerase

>  <Target Organism>
Hepatitis C virus

>  <Target Description>
Target is a single protein chain

>  <Sequence Accession>
Q8JXU8

>  <Reference>
J. Med. Chem. 49 (3), 971-983 (2006)

>  <Pubmed ID>
16451063

>  <DOI>
10.1021/jm050855s

$$$$
338076
Actelion Java MolfileCreator 2.0

  0  0  0  0  0  0              0 V3000
M  V30 BEGIN CTAB
M  V30 COUNTS 32 36 0 0 0
M  V30 BEGIN ATOM
M  V30 1 Br 0.0 0.0 0.0 0
M  V30 2 C -1.3171 0.7594 0.0 0
M  V30 3 C -2.6224 0.0237 0.0 0
M  V30 4 C -1.3409 2.2783 0.0 0
M  V30 5 C -3.9277 0.7831 0.0 0
M  V30 6 C -2.6462 3.0259 0.0 0
M  V30 7 C -3.9396 2.2902 0.0 0
M  V30 8 C -5.2449 3.0496 0.0 0
M  V30 9 N -5.2568 4.5567 0.0 0
M  V30 10 C -3.9752 5.3161 0.0 0
M  V30 11 C -6.5621 5.3161 0.0 0
M  V30 12 O -2.6818 4.5804 0.0 0
M  V30 13 C -3.9989 6.835 0.0 0
M  V30 14 C -6.574 6.835 0.0 0
M  V30 15 C -7.8674 4.5685 0.0 0
M  V30 16 C -2.7174 7.6063 0.0 0
M  V30 17 C -5.3161 7.5826 0.0 0
M  V30 18 C -7.8793 7.5945 0.0 0
M  V30 19 C -9.1727 5.328 0.0 0
M  V30 20 N -2.7411 9.1015 0.0 0
M  V30 21 N -1.4358 6.8706 0.0 0
M  V30 22 O -5.3399 9.0897 0.0 0
M  V30 23 C -9.1846 6.8588 0.0 0
M  V30 24 S -1.4714 9.8728 0.0 0
M  V30 25 C -0.1542 7.6419 0.0 0
M  V30 26 O -2.7886 10.6323 0.0 0
M  V30 27 O -0.1898 10.6442 0.0 0
M  V30 28 C -0.1779 9.149 0.0 0
M  V30 29 C 1.1273 6.9181 0.0 0
M  V30 30 C 1.0917 9.9084 0.0 0
M  V30 31 C 2.4088 7.6894 0.0 0
M  V30 32 C 2.3732 9.1846 0.0 0
M  V30 END ATOM
M  V30 BEGIN BOND
M  V30 1 1 1 2
M  V30 2 2 2 3
M  V30 3 1 2 4
M  V30 4 1 3 5
M  V30 5 2 4 6
M  V30 6 2 5 7
M  V30 7 1 7 8
M  V30 8 1 8 9
M  V30 9 1 9 10
M  V30 10 1 9 11
M  V30 11 2 10 12
M  V30 12 1 10 13
M  V30 13 2 11 14
M  V30 14 1 11 15
M  V30 15 1 13 16
M  V30 16 2 13 17
M  V30 17 1 14 18
M  V30 18 2 15 19
M  V30 19 2 16 20
M  V30 20 1 16 21
M  V30 21 1 17 22
M  V30 22 2 18 23
M  V30 23 1 20 24
M  V30 24 1 21 25
M  V30 25 2 24 26
M  V30 26 2 24 27
M  V30 27 1 24 28
M  V30 28 1 25 29
M  V30 29 1 28 30
M  V30 30 2 29 31
M  V30 31 2 30 32
M  V30 32 1 6 7
M  V30 33 1 14 17
M  V30 34 1 19 23
M  V30 35 2 25 28
M  V30 36 1 31 32
M  V30 END BOND
M  V30 END CTAB
M  END
>  <MolRegNo>
338076

>  <m>
=

>  <Value>
95

>  <Unit>
nM

>  <Type>
IC50

>  <pValue>
7.02

>  <Ligand Efficiency>
0.3

>  <Binding Efficiency>
13.76

>  <Surface Efficiency>
6.97

>  <Assay Index>
256538

>  <Assay Category>


>  <Assay Organism>
Hepatitis C virus subtype 1b

>  <Target ID>
12097

>  <Target Name>
Hepatitis C virus NS5B RNA-dependent RNA polymerase

>  <Target Organism>
Hepatitis C virus

>  <Target Description>
Target is a single protein chain

>  <Sequence Accession>
Q8JXU8

>  <Reference>
J. Med. Chem. 49 (3), 971-983 (2006)

>  <Pubmed ID>
16451063

>  <DOI>
10.1021/jm050855s

$$$$
338214
Actelion Java MolfileCreator 2.0

  0  0  0  0  0  0              0 V3000
M  V30 BEGIN CTAB
M  V30 COUNTS 35 39 0 0 0
M  V30 BEGIN ATOM
M  V30 1 S 0.0 0.0 0.0 0
M  V30 2 O -1.3246 0.7637 0.0 0
M  V30 3 O 1.2888 0.7756 0.0 0
M  V30 4 N -1.3007 -0.7518 0.0 0
M  V30 5 C 1.3007 -0.7279 0.0 0
M  V30 6 C -1.3007 -2.2315 0.0 0
M  V30 7 C 1.3007 -2.2196 0.0 0
M  V30 8 C 2.5776 0.0358 0.0 0
M  V30 9 N -0.0119 -2.9714 0.0 0
M  V30 10 C -2.6134 -2.9833 0.0 0
M  V30 11 C 2.5895 -2.9475 0.0 0
M  V30 12 C 3.8664 -0.6921 0.0 0
M  V30 13 C -2.6134 -4.4869 0.0 0
M  V30 14 C -3.938 -2.2315 0.0 0
M  V30 15 C 3.8783 -2.1718 0.0 0
M  V30 16 O -1.3126 -5.2268 0.0 0
M  V30 17 N -3.926 -5.2268 0.0 0
M  V30 18 O -3.9618 -0.716 0.0 0
M  V30 19 C -5.2506 -2.9714 0.0 0
M  V30 20 C -5.2387 -4.463 0.0 0
M  V30 21 C -3.938 -6.7185 0.0 0
M  V30 22 C -6.5633 -2.2076 0.0 0
M  V30 23 C -6.5514 -5.2148 0.0 0
M  V30 24 C -2.6492 -7.4583 0.0 0
M  V30 25 C -7.876 -2.9475 0.0 0
M  V30 26 C -7.8641 -4.4511 0.0 0
M  V30 27 C -2.6611 -8.95 0.0 0
M  V30 28 C -1.3723 -6.6827 0.0 0
M  V30 29 C -1.3723 -9.6899 0.0 0
M  V30 30 C -0.0835 -7.4106 0.0 0
M  V30 31 C -0.0835 -8.9261 0.0 0
M  V30 32 C 1.2172 -9.666 0.0 0
M  V30 33 C 2.506 -10.4059 0.0 0
M  V30 34 C 1.957 -8.3533 0.0 0
M  V30 35 C 0.4654 -10.9667 0.0 0
M  V30 END ATOM
M  V30 BEGIN BOND
M  V30 1 2 1 2
M  V30 2 2 1 3
M  V30 3 1 1 4
M  V30 4 1 1 5
M  V30 5 2 4 6
M  V30 6 2 5 7
M  V30 7 1 5 8
M  V30 8 1 6 9
M  V30 9 1 6 10
M  V30 10 1 7 11
M  V30 11 2 8 12
M  V30 12 1 10 13
M  V30 13 2 10 14
M  V30 14 2 11 15
M  V30 15 2 13 16
M  V30 16 1 13 17
M  V30 17 1 14 18
M  V30 18 1 14 19
M  V30 19 1 17 20
M  V30 20 1 17 21
M  V30 21 1 19 22
M  V30 22 1 20 23
M  V30 23 1 21 24
M  V30 24 2 22 25
M  V30 25 2 23 26
M  V30 26 2 24 27
M  V30 27 1 24 28
M  V30 28 1 27 29
M  V30 29 2 28 30
M  V30 30 2 29 31
M  V30 31 1 31 32
M  V30 32 1 32 33
M  V30 33 1 32 34
M  V30 34 1 32 35
M  V30 35 1 7 9
M  V30 36 1 12 15
M  V30 37 2 19 20
M  V30 38 1 25 26
M  V30 39 1 30 31
M  V30 END BOND
M  V30 END CTAB
M  END
>  <MolRegNo>
338214

>  <m>
>

>  <Value>
10000

>  <Unit>
nM

>  <Type>
IC50

>  <pValue>
0

>  <Ligand Efficiency>
0

>  <Binding Efficiency>
0

>  <Surface Efficiency>
0

>  <Assay Index>
256538

>  <Assay Category>


>  <Assay Organism>
Hepatitis C virus subtype 1b

>  <Target ID>
12097

>  <Target Name>
Hepatitis C virus NS5B RNA-dependent RNA polymerase

>  <Target Organism>
Hepatitis C virus

>  <Target Description>
Target is a single protein chain

>  <Sequence Accession>
Q8JXU8

>  <Reference>
J. Med. Chem. 49 (3), 971-983 (2006)

>  <Pubmed ID>
16451063

>  <DOI>
10.1021/jm050855s

$$$$
338174
Actelion Java MolfileCreator 2.0

  0  0  0  0  0  0              0 V3000
M  V30 BEGIN CTAB
M  V30 COUNTS 34 38 0 0 0
M  V30 BEGIN ATOM
M  V30 1 S 0.0 0.0 0.0 0
M  V30 2 O -1.3242 0.7635 0.0 0
M  V30 3 O 1.2884 0.7754 0.0 0
M  V30 4 N -1.3003 -0.7516 0.0 0
M  V30 5 C 1.3123 -0.7277 0.0 0
M  V30 6 C -1.3003 -2.2309 0.0 0
M  V30 7 C 1.3123 -2.219 0.0 0
M  V30 8 C 2.5888 0.0357 0.0 0
M  V30 9 N -0.0119 -2.9706 0.0 0
M  V30 10 C -2.6127 -2.9825 0.0 0
M  V30 11 C 2.6007 -2.9467 0.0 0
M  V30 12 C 3.8773 -0.6919 0.0 0
M  V30 13 C -2.6127 -4.4857 0.0 0
M  V30 14 C -3.9369 -2.2309 0.0 0
M  V30 15 C 3.8892 -2.1712 0.0 0
M  V30 16 O -1.3123 -5.2254 0.0 0
M  V30 17 N -3.925 -5.2254 0.0 0
M  V30 18 O -3.9608 -0.7158 0.0 0
M  V30 19 C -5.2492 -2.9706 0.0 0
M  V30 20 C -5.2373 -4.4618 0.0 0
M  V30 21 C -3.9369 -6.7166 0.0 0
M  V30 22 C -6.5616 -2.207 0.0 0
M  V30 23 C -6.5496 -5.2134 0.0 0
M  V30 24 C -2.6485 -7.4563 0.0 0
M  V30 25 C -7.8739 -2.9467 0.0 0
M  V30 26 C -7.8619 -4.4499 0.0 0
M  V30 27 C -2.6604 -8.9476 0.0 0
M  V30 28 C -1.3719 -6.6809 0.0 0
M  V30 29 C -1.3719 -9.6873 0.0 0
M  V30 30 C -0.0835 -7.4086 0.0 0
M  V30 31 C -0.0835 -8.9237 0.0 0
M  V30 32 N 1.2168 -9.6634 0.0 0 CHG=1
M  V30 33 O 2.5053 -8.8999 0.0 0
M  V30 34 O 1.2049 -11.1547 0.0 0 CHG=-1
M  V30 END ATOM
M  V30 BEGIN BOND
M  V30 1 2 1 2
M  V30 2 2 1 3
M  V30 3 1 1 4
M  V30 4 1 1 5
M  V30 5 2 4 6
M  V30 6 2 5 7
M  V30 7 1 5 8
M  V30 8 1 6 9
M  V30 9 1 6 10
M  V30 10 1 7 11
M  V30 11 2 8 12
M  V30 12 1 10 13
M  V30 13 2 10 14
M  V30 14 2 11 15
M  V30 15 2 13 16
M  V30 16 1 13 17
M  V30 17 1 14 18
M  V30 18 1 14 19
M  V30 19 1 17 20
M  V30 20 1 17 21
M  V30 21 1 19 22
M  V30 22 1 20 23
M  V30 23 1 21 24
M  V30 24 2 22 25
M  V30 25 2 23 26
M  V30 26 2 24 27
M  V30 27 1 24 28
M  V30 28 1 27 29
M  V30 29 2 28 30
M  V30 30 2 29 31
M  V30 31 1 31 32
M  V30 32 2 32 33
M  V30 33 1 32 34
M  V30 34 1 7 9
M  V30 35 1 12 15
M  V30 36 2 19 20
M  V30 37 1 25 26
M  V30 38 1 30 31
M  V30 END BOND
M  V30 END CTAB
M  END
>  <MolRegNo>
338174

>  <m>
=

>  <Value>
2442

>  <Unit>
nM

>  <Type>
IC50

>  <pValue>
5.61

>  <Ligand Efficiency>
0.23

>  <Binding Efficiency>
11.78

>  <Surface Efficiency>
3.9

>  <Assay Index>
256538

>  <Assay Category>


>  <Assay Organism>
Hepatitis C virus subtype 1b

>  <Target ID>
12097

>  <Target Name>
Hepatitis C virus NS5B RNA-dependent RNA polymerase

>  <Target Organism>
Hepatitis C virus

>  <Target Description>
Target is a single protein chain

>  <Sequence Accession>
Q8JXU8

>  <Reference>
J. Med. Chem. 49 (3), 971-983 (2006)

>  <Pubmed ID>
16451063

>  <DOI>
10.1021/jm050855s

$$$$
338173
Actelion Java MolfileCreator 2.0

  0  0  0  0  0  0              0 V3000
M  V30 BEGIN CTAB
M  V30 COUNTS 34 38 0 0 0
M  V30 BEGIN ATOM
M  V30 1 S 0.0 0.0 0.0 0
M  V30 2 O -1.3241 0.7634 0.0 0
M  V30 3 O 1.2883 0.7754 0.0 0
M  V30 4 N -1.3003 -0.7515 0.0 0
M  V30 5 C 1.3003 -0.7276 0.0 0
M  V30 6 C -1.3003 -2.2308 0.0 0
M  V30 7 C 1.3003 -2.2188 0.0 0
M  V30 8 C 2.5767 0.0357 0.0 0
M  V30 9 N -0.0119 -2.9704 0.0 0
M  V30 10 C -2.6125 -2.9823 0.0 0
M  V30 11 C 2.5886 -2.9465 0.0 0
M  V30 12 C 3.8651 -0.6919 0.0 0
M  V30 13 C -2.6125 -4.4854 0.0 0
M  V30 14 C -3.9367 -2.2308 0.0 0
M  V30 15 C 3.877 -2.1711 0.0 0
M  V30 16 O -1.3122 -5.2251 0.0 0
M  V30 17 N -3.9247 -5.2251 0.0 0
M  V30 18 O -3.9605 -0.7157 0.0 0
M  V30 19 C -5.2489 -2.9704 0.0 0
M  V30 20 C -5.237 -4.4616 0.0 0
M  V30 21 C -3.9367 -6.7162 0.0 0
M  V30 22 C -6.5611 -2.2069 0.0 0
M  V30 23 C -6.5492 -5.2131 0.0 0
M  V30 24 C -2.6483 -7.4559 0.0 0
M  V30 25 C -7.8734 -2.9465 0.0 0
M  V30 26 C -7.8615 -4.4496 0.0 0
M  V30 27 C -1.3718 -6.6804 0.0 0
M  V30 28 C -2.6602 -8.947 0.0 0
M  V30 29 C -0.0835 -7.4081 0.0 0
M  V30 30 C -1.3718 -9.6867 0.0 0
M  V30 31 N 1.2048 -6.6327 0.0 0 CHG=1
M  V30 32 C -0.0835 -8.9113 0.0 0
M  V30 33 O 1.181 -5.1177 0.0 0
M  V30 34 O 2.5051 -7.3724 0.0 0 CHG=-1
M  V30 END ATOM
M  V30 BEGIN BOND
M  V30 1 2 1 2
M  V30 2 2 1 3
M  V30 3 1 1 4
M  V30 4 1 1 5
M  V30 5 2 4 6
M  V30 6 2 5 7
M  V30 7 1 5 8
M  V30 8 1 6 9
M  V30 9 1 6 10
M  V30 10 1 7 11
M  V30 11 2 8 12
M  V30 12 1 10 13
M  V30 13 2 10 14
M  V30 14 2 11 15
M  V30 15 2 13 16
M  V30 16 1 13 17
M  V30 17 1 14 18
M  V30 18 1 14 19
M  V30 19 1 17 20
M  V30 20 1 17 21
M  V30 21 1 19 22
M  V30 22 1 20 23
M  V30 23 1 21 24
M  V30 24 2 22 25
M  V30 25 2 23 26
M  V30 26 2 24 27
M  V30 27 1 24 28
M  V30 28 1 27 29
M  V30 29 2 28 30
M  V30 30 1 29 31
M  V30 31 2 29 32
M  V30 32 2 31 33
M  V30 33 1 31 34
M  V30 34 1 7 9
M  V30 35 1 12 15
M  V30 36 2 19 20
M  V30 37 1 25 26
M  V30 38 1 30 32
M  V30 END BOND
M  V30 END CTAB
M  END
>  <MolRegNo>
338173

>  <m>
=

>  <Value>
81

>  <Unit>
nM

>  <Type>
IC50

>  <pValue>
7.09

>  <Ligand Efficiency>
0.28

>  <Binding Efficiency>
14.88

>  <Surface Efficiency>
4.93

>  <Assay Index>
256538

>  <Assay Category>


>  <Assay Organism>
Hepatitis C virus subtype 1b

>  <Target ID>
12097

>  <Target Name>
Hepatitis C virus NS5B RNA-dependent RNA polymerase

>  <Target Organism>
Hepatitis C virus

>  <Target Description>
Target is a single protein chain

>  <Sequence Accession>
Q8JXU8

>  <Reference>
J. Med. Chem. 49 (3), 971-983 (2006)

>  <Pubmed ID>
16451063

>  <DOI>
10.1021/jm050855s

$$$$
338166
Actelion Java MolfileCreator 2.0

  0  0  0  0  0  0              0 V3000
M  V30 BEGIN CTAB
M  V30 COUNTS 34 38 0 0 0
M  V30 BEGIN ATOM
M  V30 1 S 0.0 0.0 0.0 0
M  V30 2 O -1.3237 0.7632 0.0 0
M  V30 3 O 1.2879 0.7751 0.0 0
M  V30 4 N -1.2999 -0.7513 0.0 0
M  V30 5 C 1.2999 -0.7274 0.0 0
M  V30 6 C -1.2999 -2.2301 0.0 0
M  V30 7 C 1.2999 -2.2182 0.0 0
M  V30 8 C 2.5759 0.0357 0.0 0
M  V30 9 N -0.0119 -2.9695 0.0 0
M  V30 10 C -2.6117 -2.9814 0.0 0
M  V30 11 C 2.5879 -2.9456 0.0 0
M  V30 12 C 3.8639 -0.6917 0.0 0
M  V30 13 C -2.6117 -4.4841 0.0 0
M  V30 14 C -3.9355 -2.2301 0.0 0
M  V30 15 C 3.8759 -2.1705 0.0 0
M  V30 16 O -1.3118 -5.2235 0.0 0
M  V30 17 N -3.9236 -5.2235 0.0 0
M  V30 18 O -3.9593 -0.7155 0.0 0
M  V30 19 C -5.2473 -2.9695 0.0 0
M  V30 20 C -5.2354 -4.4602 0.0 0
M  V30 21 C -3.9355 -6.7142 0.0 0
M  V30 22 C -6.5592 -2.2062 0.0 0
M  V30 23 C -6.5473 -5.2116 0.0 0
M  V30 24 C -2.6475 -7.4536 0.0 0
M  V30 25 C -7.871 -2.9456 0.0 0
M  V30 26 C -7.8591 -4.4483 0.0 0
M  V30 27 C -2.6594 -8.9444 0.0 0
M  V30 28 C -1.3714 -6.6784 0.0 0
M  V30 29 N -3.9832 -9.6838 0.0 0 CHG=1
M  V30 30 C -1.3714 -9.6838 0.0 0
M  V30 31 C -0.0834 -7.4059 0.0 0
M  V30 32 O -3.9951 -11.1745 0.0 0
M  V30 33 O -5.295 -8.9205 0.0 0 CHG=-1
M  V30 34 C -0.0834 -8.9205 0.0 0
M  V30 END ATOM
M  V30 BEGIN BOND
M  V30 1 2 1 2
M  V30 2 2 1 3
M  V30 3 1 1 4
M  V30 4 1 1 5
M  V30 5 2 4 6
M  V30 6 2 5 7
M  V30 7 1 5 8
M  V30 8 1 6 9
M  V30 9 1 6 10
M  V30 10 1 7 11
M  V30 11 2 8 12
M  V30 12 1 10 13
M  V30 13 2 10 14
M  V30 14 2 11 15
M  V30 15 2 13 16
M  V30 16 1 13 17
M  V30 17 1 14 18
M  V30 18 1 14 19
M  V30 19 1 17 20
M  V30 20 1 17 21
M  V30 21 1 19 22
M  V30 22 1 20 23
M  V30 23 1 21 24
M  V30 24 2 22 25
M  V30 25 2 23 26
M  V30 26 2 24 27
M  V30 27 1 24 28
M  V30 28 1 27 29
M  V30 29 1 27 30
M  V30 30 2 28 31
M  V30 31 2 29 32
M  V30 32 1 29 33
M  V30 33 2 30 34
M  V30 34 1 7 9
M  V30 35 1 12 15
M  V30 36 2 19 20
M  V30 37 1 25 26
M  V30 38 1 31 34
M  V30 END BOND
M  V30 END CTAB
M  END
>  <MolRegNo>
338166

>  <m>
>

>  <Value>
10000

>  <Unit>
nM

>  <Type>
IC50

>  <pValue>
0

>  <Ligand Efficiency>
0

>  <Binding Efficiency>
0

>  <Surface Efficiency>
0

>  <Assay Index>
256538

>  <Assay Category>


>  <Assay Organism>
Hepatitis C virus subtype 1b

>  <Target ID>
12097

>  <Target Name>
Hepatitis C virus NS5B RNA-dependent RNA polymerase

>  <Target Organism>
Hepatitis C virus

>  <Target Description>
Target is a single protein chain

>  <Sequence Accession>
Q8JXU8

>  <Reference>
J. Med. Chem. 49 (3), 971-983 (2006)

>  <Pubmed ID>
16451063

>  <DOI>
10.1021/jm050855s

$$$$
338249
Actelion Java MolfileCreator 2.0

  0  0  0  0  0  0              0 V3000
M  V30 BEGIN CTAB
M  V30 COUNTS 33 37 0 0 0
M  V30 BEGIN ATOM
M  V30 1 S 0.0 0.0 0.0 0
M  V30 2 O -1.324 0.7634 0.0 0
M  V30 3 O 1.2882 0.7753 0.0 0
M  V30 4 N -1.3002 -0.7515 0.0 0
M  V30 5 C 1.3002 -0.7276 0.0 0
M  V30 6 C -1.3002 -2.2306 0.0 0
M  V30 7 C 1.3002 -2.2187 0.0 0
M  V30 8 C 2.5765 0.0357 0.0 0
M  V30 9 N -0.0119 -2.9702 0.0 0
M  V30 10 C -2.6123 -2.9821 0.0 0
M  V30 11 C 2.5885 -2.9463 0.0 0
M  V30 12 C 3.8648 -0.6918 0.0 0
M  V30 13 C -2.6123 -4.4851 0.0 0
M  V30 14 C -3.9364 -2.2306 0.0 0
M  V30 15 C 3.8768 -2.171 0.0 0
M  V30 16 O -1.3121 -5.2247 0.0 0
M  V30 17 N -3.9245 -5.2247 0.0 0
M  V30 18 O -3.9603 -0.7157 0.0 0
M  V30 19 C -5.2486 -2.9702 0.0 0
M  V30 20 C -5.2366 -4.4613 0.0 0
M  V30 21 C -3.9364 -6.7158 0.0 0
M  V30 22 C -6.5607 -2.2068 0.0 0
M  V30 23 C -6.5488 -5.2128 0.0 0
M  V30 24 C -2.6481 -7.4554 0.0 0
M  V30 25 C -7.8729 -2.9463 0.0 0
M  V30 26 C -7.861 -4.4494 0.0 0
M  V30 27 C -2.66 -8.9465 0.0 0
M  V30 28 C -1.3717 -6.68 0.0 0
M  V30 29 C -3.9722 -9.686 0.0 0
M  V30 30 C -1.3717 -9.686 0.0 0
M  V30 31 C -0.0835 -7.4077 0.0 0
M  V30 32 N -5.2844 -10.4256 0.0 0
M  V30 33 C -0.0835 -8.9226 0.0 0
M  V30 END ATOM
M  V30 BEGIN BOND
M  V30 1 2 1 2
M  V30 2 2 1 3
M  V30 3 1 1 4
M  V30 4 1 1 5
M  V30 5 2 4 6
M  V30 6 2 5 7
M  V30 7 1 5 8
M  V30 8 1 6 9
M  V30 9 1 6 10
M  V30 10 1 7 11
M  V30 11 2 8 12
M  V30 12 1 10 13
M  V30 13 2 10 14
M  V30 14 2 11 15
M  V30 15 2 13 16
M  V30 16 1 13 17
M  V30 17 1 14 18
M  V30 18 1 14 19
M  V30 19 1 17 20
M  V30 20 1 17 21
M  V30 21 1 19 22
M  V30 22 1 20 23
M  V30 23 1 21 24
M  V30 24 2 22 25
M  V30 25 2 23 26
M  V30 26 2 24 27
M  V30 27 1 24 28
M  V30 28 1 27 29
M  V30 29 1 27 30
M  V30 30 2 28 31
M  V30 31 3 29 32
M  V30 32 2 30 33
M  V30 33 1 7 9
M  V30 34 1 12 15
M  V30 35 2 19 20
M  V30 36 1 25 26
M  V30 37 1 31 33
M  V30 END BOND
M  V30 END CTAB
M  END
>  <MolRegNo>
338249

>  <m>
=

>  <Value>
780

>  <Unit>
nM

>  <Type>
IC50

>  <pValue>
6.11

>  <Ligand Efficiency>
0.25

>  <Binding Efficiency>
13.38

>  <Surface Efficiency>
4.9

>  <Assay Index>
256538

>  <Assay Category>


>  <Assay Organism>
Hepatitis C virus subtype 1b

>  <Target ID>
12097

>  <Target Name>
Hepatitis C virus NS5B RNA-dependent RNA polymerase

>  <Target Organism>
Hepatitis C virus

>  <Target Description>
Target is a single protein chain

>  <Sequence Accession>
Q8JXU8

>  <Reference>
J. Med. Chem. 49 (3), 971-983 (2006)

>  <Pubmed ID>
16451063

>  <DOI>
10.1021/jm050855s

$$$$
338213
Actelion Java MolfileCreator 2.0

  0  0  0  0  0  0              0 V3000
M  V30 BEGIN CTAB
M  V30 COUNTS 33 37 0 0 0
M  V30 BEGIN ATOM
M  V30 1 S 0.0 0.0 0.0 0
M  V30 2 O -1.3252 0.764 0.0 0
M  V30 3 O 1.2894 0.776 0.0 0
M  V30 4 N -1.3013 -0.7521 0.0 0
M  V30 5 C 1.3013 -0.7282 0.0 0
M  V30 6 C -1.3013 -2.2325 0.0 0
M  V30 7 C 1.3013 -2.2206 0.0 0
M  V30 8 C 2.5788 0.0358 0.0 0
M  V30 9 N -0.0119 -2.9727 0.0 0
M  V30 10 C -2.6146 -2.9847 0.0 0
M  V30 11 C 2.5907 -2.9489 0.0 0
M  V30 12 C 3.8682 -0.6924 0.0 0
M  V30 13 C -2.6146 -4.489 0.0 0
M  V30 14 C -3.9398 -2.2325 0.0 0
M  V30 15 C 3.8801 -2.1728 0.0 0
M  V30 16 O -1.3132 -5.2292 0.0 0
M  V30 17 N -3.9279 -5.2292 0.0 0
M  V30 18 O -3.9637 -0.7163 0.0 0
M  V30 19 C -5.2531 -2.9727 0.0 0
M  V30 20 C -5.2411 -4.4651 0.0 0
M  V30 21 C -3.9398 -6.7216 0.0 0
M  V30 22 C -6.5664 -2.2086 0.0 0
M  V30 23 C -6.5544 -5.2173 0.0 0
M  V30 24 C -2.6504 -7.4618 0.0 0
M  V30 25 C -7.8796 -2.9489 0.0 0
M  V30 26 C -7.8677 -4.4532 0.0 0
M  V30 27 C -1.361 -6.6977 0.0 0
M  V30 28 C -0.0716 -7.4379 0.0 0
M  V30 29 C -0.0835 -8.9303 0.0 0
M  V30 30 C 1.2058 -6.6738 0.0 0
M  V30 31 C 1.2058 -9.6705 0.0 0
M  V30 32 C 2.4952 -7.4021 0.0 0
M  V30 33 C 2.4952 -8.9064 0.0 0
M  V30 END ATOM
M  V30 BEGIN BOND
M  V30 1 2 1 2
M  V30 2 2 1 3
M  V30 3 1 1 4
M  V30 4 1 1 5
M  V30 5 2 4 6
M  V30 6 2 5 7
M  V30 7 1 5 8
M  V30 8 1 6 9
M  V30 9 1 6 10
M  V30 10 1 7 11
M  V30 11 2 8 12
M  V30 12 1 10 13
M  V30 13 2 10 14
M  V30 14 2 11 15
M  V30 15 2 13 16
M  V30 16 1 13 17
M  V30 17 1 14 18
M  V30 18 1 14 19
M  V30 19 1 17 20
M  V30 20 1 17 21
M  V30 21 1 19 22
M  V30 22 1 20 23
M  V30 23 1 21 24
M  V30 24 2 22 25
M  V30 25 2 23 26
M  V30 26 1 24 27
M  V30 27 1 27 28
M  V30 28 2 28 29
M  V30 29 1 28 30
M  V30 30 1 29 31
M  V30 31 2 30 32
M  V30 32 2 31 33
M  V30 33 1 7 9
M  V30 34 1 12 15
M  V30 35 2 19 20
M  V30 36 1 25 26
M  V30 37 1 32 33
M  V30 END BOND
M  V30 END CTAB
M  END
>  <MolRegNo>
338213

>  <m>
>

>  <Value>
10000

>  <Unit>
nM

>  <Type>
IC50

>  <pValue>
0

>  <Ligand Efficiency>
0

>  <Binding Efficiency>
0

>  <Surface Efficiency>
0

>  <Assay Index>
256538

>  <Assay Category>


>  <Assay Organism>
Hepatitis C virus subtype 1b

>  <Target ID>
12097

>  <Target Name>
Hepatitis C virus NS5B RNA-dependent RNA polymerase

>  <Target Organism>
Hepatitis C virus

>  <Target Description>
Target is a single protein chain

>  <Sequence Accession>
Q8JXU8

>  <Reference>
J. Med. Chem. 49 (3), 971-983 (2006)

>  <Pubmed ID>
16451063

>  <DOI>
10.1021/jm050855s

$$$$
338062
Actelion Java MolfileCreator 2.0

  0  0  0  0  0  0              0 V3000
M  V30 BEGIN CTAB
M  V30 COUNTS 32 36 0 0 0
M  V30 BEGIN ATOM
M  V30 1 S 0.0 0.0 0.0 0
M  V30 2 O -1.3242 0.7635 0.0 0
M  V30 3 O 1.2884 0.7754 0.0 0
M  V30 4 N -1.3004 -0.7516 0.0 0
M  V30 5 C 1.3004 -0.7277 0.0 0
M  V30 6 C -1.3004 -2.2309 0.0 0
M  V30 7 C 1.3004 -2.219 0.0 0
M  V30 8 C 2.5769 0.0357 0.0 0
M  V30 9 N -0.0119 -2.9706 0.0 0
M  V30 10 C -2.6127 -2.9825 0.0 0
M  V30 11 C 2.5888 -2.9467 0.0 0
M  V30 12 C 3.8654 -0.6919 0.0 0
M  V30 13 C -2.6127 -4.4858 0.0 0
M  V30 14 C -3.937 -2.2309 0.0 0
M  V30 15 C 3.8773 -2.1713 0.0 0
M  V30 16 O -1.3123 -5.2254 0.0 0
M  V30 17 N -3.925 -5.2254 0.0 0
M  V30 18 O -3.9608 -0.7158 0.0 0
M  V30 19 C -5.2493 -2.9706 0.0 0
M  V30 20 C -5.2374 -4.4619 0.0 0
M  V30 21 C -3.937 -6.7167 0.0 0
M  V30 22 C -6.5616 -2.2071 0.0 0
M  V30 23 C -6.5497 -5.2135 0.0 0
M  V30 24 C -2.6485 -7.4564 0.0 0
M  V30 25 C -7.874 -2.9467 0.0 0
M  V30 26 C -7.862 -4.45 0.0 0
M  V30 27 C -2.6604 -8.9477 0.0 0
M  V30 28 C -3.9727 -9.6874 0.0 0
M  V30 29 C -1.3719 -9.6754 0.0 0
M  V30 30 C -3.9847 -11.1787 0.0 0
M  V30 31 C -1.3719 -11.1667 0.0 0
M  V30 32 C -2.6843 -11.9183 0.0 0
M  V30 END ATOM
M  V30 BEGIN BOND
M  V30 1 2 1 2
M  V30 2 2 1 3
M  V30 3 1 1 4
M  V30 4 1 1 5
M  V30 5 2 4 6
M  V30 6 2 5 7
M  V30 7 1 5 8
M  V30 8 1 6 9
M  V30 9 1 6 10
M  V30 10 1 7 11
M  V30 11 2 8 12
M  V30 12 1 10 13
M  V30 13 2 10 14
M  V30 14 2 11 15
M  V30 15 2 13 16
M  V30 16 1 13 17
M  V30 17 1 14 18
M  V30 18 1 14 19
M  V30 19 1 17 20
M  V30 20 1 17 21
M  V30 21 1 19 22
M  V30 22 1 20 23
M  V30 23 1 21 24
M  V30 24 2 22 25
M  V30 25 2 23 26
M  V30 26 1 24 27
M  V30 27 2 27 28
M  V30 28 1 27 29
M  V30 29 1 28 30
M  V30 30 2 29 31
M  V30 31 2 30 32
M  V30 32 1 7 9
M  V30 33 1 12 15
M  V30 34 2 19 20
M  V30 35 1 25 26
M  V30 36 1 31 32
M  V30 END BOND
M  V30 END CTAB
M  END
>  <MolRegNo>
338062

>  <m>
>

>  <Value>
10000

>  <Unit>
nM

>  <Type>
IC50

>  <pValue>
0

>  <Ligand Efficiency>
0

>  <Binding Efficiency>
0

>  <Surface Efficiency>
0

>  <Assay Index>
256538

>  <Assay Category>


>  <Assay Organism>
Hepatitis C virus subtype 1b

>  <Target ID>
12097

>  <Target Name>
Hepatitis C virus NS5B RNA-dependent RNA polymerase

>  <Target Organism>
Hepatitis C virus

>  <Target Description>
Target is a single protein chain

>  <Sequence Accession>
Q8JXU8

>  <Reference>
J. Med. Chem. 49 (3), 971-983 (2006)

>  <Pubmed ID>
16451063

>  <DOI>
10.1021/jm050855s

$$$$
338126
Actelion Java MolfileCreator 2.0

  0  0  0  0  0  0              0 V3000
M  V30 BEGIN CTAB
M  V30 COUNTS 31 35 0 0 0
M  V30 BEGIN ATOM
M  V30 1 S 0.0 0.0 0.0 0
M  V30 2 O -1.3243 0.7636 0.0 0
M  V30 3 O 1.2886 0.7755 0.0 0
M  V30 4 N -1.3005 -0.7516 0.0 0
M  V30 5 C 1.3005 -0.7278 0.0 0
M  V30 6 C -1.3005 -2.2311 0.0 0
M  V30 7 C 1.3005 -2.2192 0.0 0
M  V30 8 C 2.5772 0.0357 0.0 0
M  V30 9 N -0.0119 -2.9709 0.0 0
M  V30 10 C -2.613 -2.9828 0.0 0
M  V30 11 C 2.5891 -2.947 0.0 0
M  V30 12 C 3.8658 -0.692 0.0 0
M  V30 13 C -2.613 -4.4862 0.0 0
M  V30 14 C -3.9374 -2.2311 0.0 0
M  V30 15 C 3.8777 -2.1715 0.0 0
M  V30 16 O -1.3124 -5.226 0.0 0
M  V30 17 N -3.9254 -5.226 0.0 0
M  V30 18 O -3.9612 -0.7158 0.0 0
M  V30 19 C -5.2498 -2.9709 0.0 0
M  V30 20 C -5.2379 -4.4623 0.0 0
M  V30 21 C -3.9374 -6.7174 0.0 0
M  V30 22 C -6.5623 -2.2073 0.0 0
M  V30 23 C -6.5504 -5.214 0.0 0
M  V30 24 C -2.6487 -7.4571 0.0 0
M  V30 25 C -7.8748 -2.947 0.0 0
M  V30 26 C -7.8628 -4.4504 0.0 0
M  V30 27 C -2.6607 -8.9486 0.0 0
M  V30 28 C -1.3721 -6.6816 0.0 0
M  V30 29 C -1.3721 -9.6883 0.0 0
M  V30 30 C -0.0835 -7.4094 0.0 0
M  V30 31 C -0.0835 -8.9247 0.0 0
M  V30 END ATOM
M  V30 BEGIN BOND
M  V30 1 2 1 2
M  V30 2 2 1 3
M  V30 3 1 1 4
M  V30 4 1 1 5
M  V30 5 2 4 6
M  V30 6 2 5 7
M  V30 7 1 5 8
M  V30 8 1 6 9
M  V30 9 1 6 10
M  V30 10 1 7 11
M  V30 11 2 8 12
M  V30 12 1 10 13
M  V30 13 2 10 14
M  V30 14 2 11 15
M  V30 15 2 13 16
M  V30 16 1 13 17
M  V30 17 1 14 18
M  V30 18 1 14 19
M  V30 19 1 17 20
M  V30 20 1 17 21
M  V30 21 1 19 22
M  V30 22 1 20 23
M  V30 23 1 21 24
M  V30 24 2 22 25
M  V30 25 2 23 26
M  V30 26 2 24 27
M  V30 27 1 24 28
M  V30 28 1 27 29
M  V30 29 2 28 30
M  V30 30 2 29 31
M  V30 31 1 7 9
M  V30 32 1 12 15
M  V30 33 2 19 20
M  V30 34 1 25 26
M  V30 35 1 30 31
M  V30 END BOND
M  V30 END CTAB
M  END
>  <MolRegNo>
338126

>  <m>
=

>  <Value>
82

>  <Unit>
nM

>  <Type>
IC50

>  <pValue>
7.09

>  <Ligand Efficiency>
0.31

>  <Binding Efficiency>
16.42

>  <Surface Efficiency>
7.03

>  <Assay Index>
256538

>  <Assay Category>


>  <Assay Organism>
Hepatitis C virus subtype 1b

>  <Target ID>
12097

>  <Target Name>
Hepatitis C virus NS5B RNA-dependent RNA polymerase

>  <Target Organism>
Hepatitis C virus

>  <Target Description>
Target is a single protein chain

>  <Sequence Accession>
Q8JXU8

>  <Reference>
J. Med. Chem. 49 (3), 971-983 (2006)

>  <Pubmed ID>
16451063

>  <DOI>
10.1021/jm050855s

$$$$
338125
Actelion Java MolfileCreator 2.0

  0  0  0  0  0  0              0 V3000
M  V30 BEGIN CTAB
M  V30 COUNTS 30 34 0 0 0
M  V30 BEGIN ATOM
M  V30 1 S 0.0 0.0 0.0 0
M  V30 2 O -1.3236 0.7631 0.0 0
M  V30 3 O 1.2878 0.7751 0.0 0
M  V30 4 N -1.2998 -0.7512 0.0 0
M  V30 5 C 1.2998 -0.7274 0.0 0
M  V30 6 C -1.2998 -2.2299 0.0 0
M  V30 7 C 1.2998 -2.218 0.0 0
M  V30 8 C 2.5757 0.0357 0.0 0
M  V30 9 N -0.0119 -2.9693 0.0 0
M  V30 10 C -2.6115 -2.9812 0.0 0
M  V30 11 C 2.5877 -2.9454 0.0 0
M  V30 12 C 3.8636 -0.6916 0.0 0
M  V30 13 C -2.6115 -4.4837 0.0 0
M  V30 14 C -3.9352 -2.2299 0.0 0
M  V30 15 C 3.8756 -2.1703 0.0 0
M  V30 16 O -1.3117 -5.2231 0.0 0
M  V30 17 N -3.9233 -5.2231 0.0 0
M  V30 18 O -3.959 -0.7154 0.0 0
M  V30 19 C -5.2469 -2.9693 0.0 0
M  V30 20 C -5.235 -4.4599 0.0 0
M  V30 21 C -3.9352 -6.7137 0.0 0
M  V30 22 C -6.5587 -2.2061 0.0 0
M  V30 23 C -6.5467 -5.2112 0.0 0
M  V30 24 C -5.2469 -7.453 0.0 0
M  V30 25 C -2.6473 -7.4411 0.0 0
M  V30 26 C -7.8704 -2.9454 0.0 0
M  V30 27 C -7.8585 -4.448 0.0 0
M  V30 28 C -5.2589 -8.9437 0.0 0
M  V30 29 C -2.6473 -8.9317 0.0 0
M  V30 30 C -3.959 -9.683 0.0 0
M  V30 END ATOM
M  V30 BEGIN BOND
M  V30 1 2 1 2
M  V30 2 2 1 3
M  V30 3 1 1 4
M  V30 4 1 1 5
M  V30 5 2 4 6
M  V30 6 2 5 7
M  V30 7 1 5 8
M  V30 8 1 6 9
M  V30 9 1 6 10
M  V30 10 1 7 11
M  V30 11 2 8 12
M  V30 12 1 10 13
M  V30 13 2 10 14
M  V30 14 2 11 15
M  V30 15 2 13 16
M  V30 16 1 13 17
M  V30 17 1 14 18
M  V30 18 1 14 19
M  V30 19 1 17 20
M  V30 20 1 17 21
M  V30 21 1 19 22
M  V30 22 1 20 23
M  V30 23 2 21 24
M  V30 24 1 21 25
M  V30 25 2 22 26
M  V30 26 2 23 27
M  V30 27 1 24 28
M  V30 28 2 25 29
M  V30 29 2 28 30
M  V30 30 1 7 9
M  V30 31 1 12 15
M  V30 32 2 19 20
M  V30 33 1 26 27
M  V30 34 1 29 30
M  V30 END BOND
M  V30 END CTAB
M  END
>  <MolRegNo>
338125

>  <m>
>

>  <Value>
10000

>  <Unit>
nM

>  <Type>
IC50

>  <pValue>
0

>  <Ligand Efficiency>
0

>  <Binding Efficiency>
0

>  <Surface Efficiency>
0

>  <Assay Index>
256538

>  <Assay Category>


>  <Assay Organism>
Hepatitis C virus subtype 1b

>  <Target ID>
12097

>  <Target Name>
Hepatitis C virus NS5B RNA-dependent RNA polymerase

>  <Target Organism>
Hepatitis C virus

>  <Target Description>
Target is a single protein chain

>  <Sequence Accession>
Q8JXU8

>  <Reference>
J. Med. Chem. 49 (3), 971-983 (2006)

>  <Pubmed ID>
16451063

>  <DOI>
10.1021/jm050855s

$$$$
338118
Actelion Java MolfileCreator 2.0

  0  0  0  0  0  0              0 V3000
M  V30 BEGIN CTAB
M  V30 COUNTS 32 35 0 0 0
M  V30 BEGIN ATOM
M  V30 1 S 0.0 0.0 0.0 0
M  V30 2 O -1.3233 0.763 0.0 0
M  V30 3 O 1.2875 0.7749 0.0 0
M  V30 4 N -1.2994 -0.751 0.0 0
M  V30 5 C 1.2994 -0.7272 0.0 0
M  V30 6 C -1.2994 -2.2294 0.0 0
M  V30 7 C 1.2994 -2.2174 0.0 0
M  V30 8 C 2.5751 0.0357 0.0 0
M  V30 9 N -0.0119 -2.9685 0.0 0
M  V30 10 C -2.6109 -2.9804 0.0 0
M  V30 11 C 2.587 -2.9447 0.0 0
M  V30 12 C 3.8627 -0.6914 0.0 0
M  V30 13 C -2.6109 -4.4826 0.0 0
M  V30 14 C -3.9342 -2.2294 0.0 0
M  V30 15 C 3.8746 -2.1697 0.0 0
M  V30 16 O -1.3114 -5.2218 0.0 0
M  V30 17 N -3.9223 -5.2218 0.0 0
M  V30 18 O -3.958 -0.7153 0.0 0
M  V30 19 C -5.2456 -2.9685 0.0 0
M  V30 20 C -5.2337 -4.4588 0.0 0
M  V30 21 C -3.9342 -6.712 0.0 0
M  V30 22 C -6.557 -2.2055 0.0 0
M  V30 23 C -6.5451 -5.2099 0.0 0
M  V30 24 C -2.6466 -7.4512 0.0 0
M  V30 25 C -7.8685 -2.9447 0.0 0
M  V30 26 C -7.8565 -4.4468 0.0 0
M  V30 27 O -1.3591 -6.6882 0.0 0
M  V30 28 C -2.6585 -8.9414 0.0 0
M  V30 29 F -9.1799 -2.1817 0.0 0
M  V30 30 C -2.6824 -10.4317 0.0 0
M  V30 31 C -1.1683 -8.9295 0.0 0
M  V30 32 C -4.1726 -8.9295 0.0 0
M  V30 END ATOM
M  V30 BEGIN BOND
M  V30 1 2 1 2
M  V30 2 2 1 3
M  V30 3 1 1 4
M  V30 4 1 1 5
M  V30 5 2 4 6
M  V30 6 2 5 7
M  V30 7 1 5 8
M  V30 8 1 6 9
M  V30 9 1 6 10
M  V30 10 1 7 11
M  V30 11 2 8 12
M  V30 12 1 10 13
M  V30 13 2 10 14
M  V30 14 2 11 15
M  V30 15 2 13 16
M  V30 16 1 13 17
M  V30 17 1 14 18
M  V30 18 1 14 19
M  V30 19 1 17 20
M  V30 20 1 17 21
M  V30 21 1 19 22
M  V30 22 1 20 23
M  V30 23 1 21 24
M  V30 24 2 22 25
M  V30 25 2 23 26
M  V30 26 2 24 27
M  V30 27 1 24 28
M  V30 28 1 25 29
M  V30 29 1 28 30
M  V30 30 1 28 31
M  V30 31 1 28 32
M  V30 32 1 7 9
M  V30 33 1 12 15
M  V30 34 2 19 20
M  V30 35 1 25 26
M  V30 END BOND
M  V30 END CTAB
M  END
>  <MolRegNo>
338118

>  <m>
=

>  <Value>
696

>  <Unit>
nM

>  <Type>
IC50

>  <pValue>
6.16

>  <Ligand Efficiency>
0.26

>  <Binding Efficiency>
13.46

>  <Surface Efficiency>
5.23

>  <Assay Index>
256538

>  <Assay Category>


>  <Assay Organism>
Hepatitis C virus subtype 1b

>  <Target ID>
12097

>  <Target Name>
Hepatitis C virus NS5B RNA-dependent RNA polymerase

>  <Target Organism>
Hepatitis C virus

>  <Target Description>
Target is a single protein chain

>  <Sequence Accession>
Q8JXU8

>  <Reference>
J. Med. Chem. 49 (3), 971-983 (2006)

>  <Pubmed ID>
16451063

>  <DOI>
10.1021/jm050855s

$$$$
338074
Actelion Java MolfileCreator 2.0

  0  0  0  0  0  0              0 V3000
M  V30 BEGIN CTAB
M  V30 COUNTS 31 34 0 0 0
M  V30 BEGIN ATOM
M  V30 1 S 0.0 0.0 0.0 0
M  V30 2 O -1.3234 0.763 0.0 0
M  V30 3 O 1.2876 0.775 0.0 0
M  V30 4 N -1.2996 -0.7511 0.0 0
M  V30 5 C 1.2996 -0.7273 0.0 0
M  V30 6 C -1.2996 -2.2296 0.0 0
M  V30 7 C 1.2996 -2.2176 0.0 0
M  V30 8 C 2.5753 0.0357 0.0 0
M  V30 9 N -0.0119 -2.9688 0.0 0
M  V30 10 C -2.6111 -2.9807 0.0 0
M  V30 11 C 2.5873 -2.945 0.0 0
M  V30 12 C 3.863 -0.6915 0.0 0
M  V30 13 C -2.6111 -4.483 0.0 0
M  V30 14 C -3.9346 -2.2296 0.0 0
M  V30 15 C 3.875 -2.17 0.0 0
M  V30 16 O -1.3115 -5.2223 0.0 0
M  V30 17 N -3.9226 -5.2223 0.0 0
M  V30 18 O -3.9584 -0.7153 0.0 0
M  V30 19 C -5.2461 -2.9688 0.0 0
M  V30 20 C -5.2342 -4.4592 0.0 0
M  V30 21 C -3.9346 -6.7127 0.0 0
M  V30 22 C -6.5577 -2.2057 0.0 0
M  V30 23 C -6.5457 -5.2103 0.0 0
M  V30 24 C -2.6469 -7.4519 0.0 0
M  V30 25 C -7.8692 -2.945 0.0 0
M  V30 26 C -7.8573 -4.4473 0.0 0
M  V30 27 O -1.3592 -6.6888 0.0 0
M  V30 28 N -2.6588 -8.9423 0.0 0
M  V30 29 F -9.1807 -2.1819 0.0 0
M  V30 30 C -3.9703 -9.6815 0.0 0
M  V30 31 C -1.3711 -9.6815 0.0 0
M  V30 END ATOM
M  V30 BEGIN BOND
M  V30 1 2 1 2
M  V30 2 2 1 3
M  V30 3 1 1 4
M  V30 4 1 1 5
M  V30 5 2 4 6
M  V30 6 2 5 7
M  V30 7 1 5 8
M  V30 8 1 6 9
M  V30 9 1 6 10
M  V30 10 1 7 11
M  V30 11 2 8 12
M  V30 12 1 10 13
M  V30 13 2 10 14
M  V30 14 2 11 15
M  V30 15 2 13 16
M  V30 16 1 13 17
M  V30 17 1 14 18
M  V30 18 1 14 19
M  V30 19 1 17 20
M  V30 20 1 17 21
M  V30 21 1 19 22
M  V30 22 1 20 23
M  V30 23 1 21 24
M  V30 24 2 22 25
M  V30 25 2 23 26
M  V30 26 2 24 27
M  V30 27 1 24 28
M  V30 28 1 25 29
M  V30 29 1 28 30
M  V30 30 1 28 31
M  V30 31 1 7 9
M  V30 32 1 12 15
M  V30 33 2 19 20
M  V30 34 1 25 26
M  V30 END BOND
M  V30 END CTAB
M  END
>  <MolRegNo>
338074

>  <m>
>

>  <Value>
10000

>  <Unit>
nM

>  <Type>
IC50

>  <pValue>
0

>  <Ligand Efficiency>
0

>  <Binding Efficiency>
0

>  <Surface Efficiency>
0

>  <Assay Index>
256538

>  <Assay Category>


>  <Assay Organism>
Hepatitis C virus subtype 1b

>  <Target ID>
12097

>  <Target Name>
Hepatitis C virus NS5B RNA-dependent RNA polymerase

>  <Target Organism>
Hepatitis C virus

>  <Target Description>
Target is a single protein chain

>  <Sequence Accession>
Q8JXU8

>  <Reference>
J. Med. Chem. 49 (3), 971-983 (2006)

>  <Pubmed ID>
16451063

>  <DOI>
10.1021/jm050855s

$$$$
338073
Actelion Java MolfileCreator 2.0

  0  0  0  0  0  0              0 V3000
M  V30 BEGIN CTAB
M  V30 COUNTS 30 33 0 0 0
M  V30 BEGIN ATOM
M  V30 1 S 0.0 0.0 0.0 0
M  V30 2 O -1.3241 0.7634 0.0 0
M  V30 3 O 1.2883 0.7754 0.0 0
M  V30 4 N -1.3003 -0.7515 0.0 0
M  V30 5 C 1.3003 -0.7276 0.0 0
M  V30 6 C -1.3003 -2.2307 0.0 0
M  V30 7 C 1.3003 -2.2188 0.0 0
M  V30 8 C 2.5767 0.0357 0.0 0
M  V30 9 N -0.0119 -2.9704 0.0 0
M  V30 10 C -2.6125 -2.9823 0.0 0
M  V30 11 C 2.5886 -2.9465 0.0 0
M  V30 12 C 3.8651 -0.6919 0.0 0
M  V30 13 C -2.6125 -4.4854 0.0 0
M  V30 14 C -3.9366 -2.2307 0.0 0
M  V30 15 C 3.877 -2.1711 0.0 0
M  V30 16 O -1.3122 -5.225 0.0 0
M  V30 17 N -3.9247 -5.225 0.0 0
M  V30 18 O -3.9605 -0.7157 0.0 0
M  V30 19 C -5.2489 -2.9704 0.0 0
M  V30 20 C -5.237 -4.4615 0.0 0
M  V30 21 C -3.9366 -6.7162 0.0 0
M  V30 22 C -6.5611 -2.2069 0.0 0
M  V30 23 C -6.5492 -5.2131 0.0 0
M  V30 24 C -2.6483 -7.4558 0.0 0
M  V30 25 C -7.8733 -2.9465 0.0 0
M  V30 26 C -7.8614 -4.4496 0.0 0
M  V30 27 C -1.3599 -6.6923 0.0 0
M  V30 28 C -0.0715 -7.432 0.0 0
M  V30 29 O -0.0835 -8.9231 0.0 0
M  V30 30 O 1.2167 -6.6685 0.0 0
M  V30 END ATOM
M  V30 BEGIN BOND
M  V30 1 2 1 2
M  V30 2 2 1 3
M  V30 3 1 1 4
M  V30 4 1 1 5
M  V30 5 2 4 6
M  V30 6 2 5 7
M  V30 7 1 5 8
M  V30 8 1 6 9
M  V30 9 1 6 10
M  V30 10 1 7 11
M  V30 11 2 8 12
M  V30 12 1 10 13
M  V30 13 2 10 14
M  V30 14 2 11 15
M  V30 15 2 13 16
M  V30 16 1 13 17
M  V30 17 1 14 18
M  V30 18 1 14 19
M  V30 19 1 17 20
M  V30 20 1 17 21
M  V30 21 1 19 22
M  V30 22 1 20 23
M  V30 23 1 21 24
M  V30 24 2 22 25
M  V30 25 2 23 26
M  V30 26 1 24 27
M  V30 27 1 27 28
M  V30 28 2 28 29
M  V30 29 1 28 30
M  V30 30 1 7 9
M  V30 31 1 12 15
M  V30 32 2 19 20
M  V30 33 1 25 26
M  V30 END BOND
M  V30 END CTAB
M  END
>  <MolRegNo>
338073

>  <m>
>

>  <Value>
10000

>  <Unit>
nM

>  <Type>
IC50

>  <pValue>
0

>  <Ligand Efficiency>
0

>  <Binding Efficiency>
0

>  <Surface Efficiency>
0

>  <Assay Index>
256538

>  <Assay Category>


>  <Assay Organism>
Hepatitis C virus subtype 1b

>  <Target ID>
12097

>  <Target Name>
Hepatitis C virus NS5B RNA-dependent RNA polymerase

>  <Target Organism>
Hepatitis C virus

>  <Target Description>
Target is a single protein chain

>  <Sequence Accession>
Q8JXU8

>  <Reference>
J. Med. Chem. 49 (3), 971-983 (2006)

>  <Pubmed ID>
16451063

>  <DOI>
10.1021/jm050855s

$$$$
338068
Actelion Java MolfileCreator 2.0

  0  0  0  0  0  0              0 V3000
M  V30 BEGIN CTAB
M  V30 COUNTS 30 33 0 0 0
M  V30 BEGIN ATOM
M  V30 1 S 0.0 0.0 0.0 0
M  V30 2 O -1.3241 0.7634 0.0 0
M  V30 3 O 1.2883 0.7754 0.0 0
M  V30 4 N -1.3003 -0.7515 0.0 0
M  V30 5 C 1.3003 -0.7276 0.0 0
M  V30 6 C -1.3003 -2.2307 0.0 0
M  V30 7 C 1.3003 -2.2188 0.0 0
M  V30 8 C 2.5767 0.0357 0.0 0
M  V30 9 N -0.0119 -2.9704 0.0 0
M  V30 10 C -2.6125 -2.9823 0.0 0
M  V30 11 C 2.5886 -2.9465 0.0 0
M  V30 12 C 3.8651 -0.6919 0.0 0
M  V30 13 C -2.6125 -4.4854 0.0 0
M  V30 14 C -3.9366 -2.2307 0.0 0
M  V30 15 C 3.877 -2.1711 0.0 0
M  V30 16 O -1.3122 -5.225 0.0 0
M  V30 17 N -3.9247 -5.225 0.0 0
M  V30 18 O -3.9605 -0.7157 0.0 0
M  V30 19 C -5.2489 -2.9704 0.0 0
M  V30 20 C -5.237 -4.4615 0.0 0
M  V30 21 C -3.9366 -6.7162 0.0 0
M  V30 22 C -6.5611 -2.2069 0.0 0
M  V30 23 C -6.5492 -5.2131 0.0 0
M  V30 24 C -2.6483 -7.4558 0.0 0
M  V30 25 C -7.8733 -2.9465 0.0 0
M  V30 26 C -7.8614 -4.4496 0.0 0
M  V30 27 C -1.3599 -6.6923 0.0 0
M  V30 28 C -0.0715 -7.432 0.0 0
M  V30 29 O -0.0835 -8.9231 0.0 0
M  V30 30 N 1.2167 -6.6685 0.0 0
M  V30 END ATOM
M  V30 BEGIN BOND
M  V30 1 2 1 2
M  V30 2 2 1 3
M  V30 3 1 1 4
M  V30 4 1 1 5
M  V30 5 2 4 6
M  V30 6 2 5 7
M  V30 7 1 5 8
M  V30 8 1 6 9
M  V30 9 1 6 10
M  V30 10 1 7 11
M  V30 11 2 8 12
M  V30 12 1 10 13
M  V30 13 2 10 14
M  V30 14 2 11 15
M  V30 15 2 13 16
M  V30 16 1 13 17
M  V30 17 1 14 18
M  V30 18 1 14 19
M  V30 19 1 17 20
M  V30 20 1 17 21
M  V30 21 1 19 22
M  V30 22 1 20 23
M  V30 23 1 21 24
M  V30 24 2 22 25
M  V30 25 2 23 26
M  V30 26 1 24 27
M  V30 27 1 27 28
M  V30 28 2 28 29
M  V30 29 1 28 30
M  V30 30 1 7 9
M  V30 31 1 12 15
M  V30 32 2 19 20
M  V30 33 1 25 26
M  V30 END BOND
M  V30 END CTAB
M  END
>  <MolRegNo>
338068

>  <m>
>

>  <Value>
10000

>  <Unit>
nM

>  <Type>
IC50

>  <pValue>
0

>  <Ligand Efficiency>
0

>  <Binding Efficiency>
0

>  <Surface Efficiency>
0

>  <Assay Index>
256538

>  <Assay Category>


>  <Assay Organism>
Hepatitis C virus subtype 1b

>  <Target ID>
12097

>  <Target Name>
Hepatitis C virus NS5B RNA-dependent RNA polymerase

>  <Target Organism>
Hepatitis C virus

>  <Target Description>
Target is a single protein chain

>  <Sequence Accession>
Q8JXU8

>  <Reference>
J. Med. Chem. 49 (3), 971-983 (2006)

>  <Pubmed ID>
16451063

>  <DOI>
10.1021/jm050855s

$$$$
338529
Actelion Java MolfileCreator 2.0

  0  0  0  0  0  0              0 V3000
M  V30 BEGIN CTAB
M  V30 COUNTS 32 35 0 0 0
M  V30 BEGIN ATOM
M  V30 1 S 0.0 0.0 0.0 0
M  V30 2 O -1.3245 0.7637 0.0 0
M  V30 3 O 1.2887 0.7756 0.0 0
M  V30 4 N -1.3007 -0.7517 0.0 0
M  V30 5 C 1.3007 -0.7279 0.0 0
M  V30 6 C -1.3007 -2.2315 0.0 0
M  V30 7 C 1.3007 -2.2195 0.0 0
M  V30 8 C 2.5775 0.0357 0.0 0
M  V30 9 N -0.0119 -2.9713 0.0 0
M  V30 10 C -2.6133 -2.9833 0.0 0
M  V30 11 C 2.5895 -2.9475 0.0 0
M  V30 12 C 3.8663 -0.6921 0.0 0
M  V30 13 C -2.6133 -4.4868 0.0 0
M  V30 14 C -3.9379 -2.2315 0.0 0
M  V30 15 C 3.8782 -2.1718 0.0 0
M  V30 16 O -1.3126 -5.2267 0.0 0
M  V30 17 N -3.926 -5.2267 0.0 0
M  V30 18 O -3.9618 -0.7159 0.0 0
M  V30 19 C -5.2506 -2.9713 0.0 0
M  V30 20 C -5.2386 -4.463 0.0 0
M  V30 21 C -3.9379 -6.7183 0.0 0
M  V30 22 C -6.5632 -2.2076 0.0 0
M  V30 23 C -6.5513 -5.2148 0.0 0
M  V30 24 C -2.6491 -7.4582 0.0 0
M  V30 25 C -7.8759 -2.9475 0.0 0
M  V30 26 C -7.8639 -4.451 0.0 0
M  V30 27 C -1.3603 -6.6945 0.0 0
M  V30 28 C -0.0715 -7.4343 0.0 0
M  V30 29 O -0.0835 -8.926 0.0 0
M  V30 30 O 1.2171 -6.6706 0.0 0
M  V30 31 C 2.5059 -7.4105 0.0 0
M  V30 32 C 3.7947 -6.6467 0.0 0
M  V30 END ATOM
M  V30 BEGIN BOND
M  V30 1 2 1 2
M  V30 2 2 1 3
M  V30 3 1 1 4
M  V30 4 1 1 5
M  V30 5 2 4 6
M  V30 6 2 5 7
M  V30 7 1 5 8
M  V30 8 1 6 9
M  V30 9 1 6 10
M  V30 10 1 7 11
M  V30 11 2 8 12
M  V30 12 1 10 13
M  V30 13 2 10 14
M  V30 14 2 11 15
M  V30 15 2 13 16
M  V30 16 1 13 17
M  V30 17 1 14 18
M  V30 18 1 14 19
M  V30 19 1 17 20
M  V30 20 1 17 21
M  V30 21 1 19 22
M  V30 22 1 20 23
M  V30 23 1 21 24
M  V30 24 2 22 25
M  V30 25 2 23 26
M  V30 26 1 24 27
M  V30 27 1 27 28
M  V30 28 2 28 29
M  V30 29 1 28 30
M  V30 30 1 30 31
M  V30 31 1 31 32
M  V30 32 1 7 9
M  V30 33 1 12 15
M  V30 34 2 19 20
M  V30 35 1 25 26
M  V30 END BOND
M  V30 END CTAB
M  END
>  <MolRegNo>
338529

>  <m>
>

>  <Value>
10000

>  <Unit>
nM

>  <Type>
IC50

>  <pValue>
0

>  <Ligand Efficiency>
0

>  <Binding Efficiency>
0

>  <Surface Efficiency>
0

>  <Assay Index>
256538

>  <Assay Category>


>  <Assay Organism>
Hepatitis C virus subtype 1b

>  <Target ID>
12097

>  <Target Name>
Hepatitis C virus NS5B RNA-dependent RNA polymerase

>  <Target Organism>
Hepatitis C virus

>  <Target Description>
Target is a single protein chain

>  <Sequence Accession>
Q8JXU8

>  <Reference>
J. Med. Chem. 49 (3), 971-983 (2006)

>  <Pubmed ID>
16451063

>  <DOI>
10.1021/jm050855s

$$$$
338640
Actelion Java MolfileCreator 2.0

  0  0  0  0  0  0              0 V3000
M  V30 BEGIN CTAB
M  V30 COUNTS 29 32 0 0 0
M  V30 BEGIN ATOM
M  V30 1 S 0.0 0.0 0.0 0
M  V30 2 O -1.3225 0.7625 0.0 0
M  V30 3 O 1.2867 0.7744 0.0 0
M  V30 4 N -1.2987 -0.7506 0.0 0
M  V30 5 C 1.2987 -0.7268 0.0 0
M  V30 6 C -1.2987 -2.228 0.0 0
M  V30 7 C 1.2987 -2.2161 0.0 0
M  V30 8 C 2.5735 0.0357 0.0 0
M  V30 9 N -0.0119 -2.9667 0.0 0
M  V30 10 C -2.6093 -2.9786 0.0 0
M  V30 11 C 2.5855 -2.9429 0.0 0
M  V30 12 C 3.8603 -0.691 0.0 0
M  V30 13 C -2.6093 -4.4799 0.0 0
M  V30 14 C -3.9318 -2.228 0.0 0
M  V30 15 C 3.8723 -2.1684 0.0 0
M  V30 16 O -1.3106 -5.2186 0.0 0
M  V30 17 N -3.9199 -5.2186 0.0 0
M  V30 18 O -3.9557 -0.7148 0.0 0
M  V30 19 C -5.2425 -2.9667 0.0 0
M  V30 20 C -5.2305 -4.4561 0.0 0
M  V30 21 C -3.9318 -6.708 0.0 0
M  V30 22 C -6.5531 -2.2042 0.0 0
M  V30 23 C -6.5412 -5.2067 0.0 0
M  V30 24 O -2.645 -7.4467 0.0 0
M  V30 25 O -5.2425 -7.4467 0.0 0
M  V30 26 C -7.8637 -2.9429 0.0 0
M  V30 27 C -7.8518 -4.4442 0.0 0
M  V30 28 C -6.5531 -6.6841 0.0 0
M  V30 29 C -7.8637 -7.4229 0.0 0
M  V30 END ATOM
M  V30 BEGIN BOND
M  V30 1 2 1 2
M  V30 2 2 1 3
M  V30 3 1 1 4
M  V30 4 1 1 5
M  V30 5 2 4 6
M  V30 6 2 5 7
M  V30 7 1 5 8
M  V30 8 1 6 9
M  V30 9 1 6 10
M  V30 10 1 7 11
M  V30 11 2 8 12
M  V30 12 1 10 13
M  V30 13 2 10 14
M  V30 14 2 11 15
M  V30 15 2 13 16
M  V30 16 1 13 17
M  V30 17 1 14 18
M  V30 18 1 14 19
M  V30 19 1 17 20
M  V30 20 1 17 21
M  V30 21 1 19 22
M  V30 22 1 20 23
M  V30 23 2 21 24
M  V30 24 1 21 25
M  V30 25 2 22 26
M  V30 26 2 23 27
M  V30 27 1 25 28
M  V30 28 1 28 29
M  V30 29 1 7 9
M  V30 30 1 12 15
M  V30 31 2 19 20
M  V30 32 1 26 27
M  V30 END BOND
M  V30 END CTAB
M  END
>  <MolRegNo>
338640

>  <m>
=

>  <Value>
2036

>  <Unit>
nM

>  <Type>
IC50

>  <pValue>
5.69

>  <Ligand Efficiency>
0.27

>  <Binding Efficiency>
13.77

>  <Surface Efficiency>
4.48

>  <Assay Index>
256538

>  <Assay Category>


>  <Assay Organism>
Hepatitis C virus subtype 1b

>  <Target ID>
12097

>  <Target Name>
Hepatitis C virus NS5B RNA-dependent RNA polymerase

>  <Target Organism>
Hepatitis C virus

>  <Target Description>
Target is a single protein chain

>  <Sequence Accession>
Q8JXU8

>  <Reference>
J. Med. Chem. 49 (3), 971-983 (2006)

>  <Pubmed ID>
16451063

>  <DOI>
10.1021/jm050855s

$$$$
338550
Actelion Java MolfileCreator 2.0

  0  0  0  0  0  0              0 V3000
M  V30 BEGIN CTAB
M  V30 COUNTS 29 32 0 0 0
M  V30 BEGIN ATOM
M  V30 1 S 0.0 0.0 0.0 0
M  V30 2 O -1.3239 0.7633 0.0 0
M  V30 3 O 1.2881 0.7752 0.0 0
M  V30 4 N -1.3 -0.7514 0.0 0
M  V30 5 C 1.3 -0.7275 0.0 0
M  V30 6 C -1.3 -2.2303 0.0 0
M  V30 7 C 1.3 -2.2184 0.0 0
M  V30 8 C 2.5762 0.0357 0.0 0
M  V30 9 N -0.0119 -2.9698 0.0 0
M  V30 10 C -2.612 -2.9818 0.0 0
M  V30 11 C 2.5882 -2.946 0.0 0
M  V30 12 C 3.8644 -0.6917 0.0 0
M  V30 13 C -2.612 -4.4846 0.0 0
M  V30 14 C -3.9359 -2.2303 0.0 0
M  V30 15 C 3.8763 -2.1707 0.0 0
M  V30 16 O -1.3119 -5.2241 0.0 0
M  V30 17 N -3.924 -5.2241 0.0 0
M  V30 18 O -3.9598 -0.7156 0.0 0
M  V30 19 C -5.2479 -2.9698 0.0 0
M  V30 20 C -5.236 -4.4607 0.0 0
M  V30 21 C -3.9359 -6.715 0.0 0
M  V30 22 C -6.5599 -2.2065 0.0 0
M  V30 23 C -6.548 -5.2121 0.0 0
M  V30 24 C -2.6478 -7.4545 0.0 0
M  V30 25 C -7.8719 -2.946 0.0 0
M  V30 26 C -7.86 -4.4488 0.0 0
M  V30 27 C -1.3597 -6.6911 0.0 0
M  V30 28 C -0.0715 -7.4306 0.0 0
M  V30 29 N 1.2165 -6.6673 0.0 0
M  V30 END ATOM
M  V30 BEGIN BOND
M  V30 1 2 1 2
M  V30 2 2 1 3
M  V30 3 1 1 4
M  V30 4 1 1 5
M  V30 5 2 4 6
M  V30 6 2 5 7
M  V30 7 1 5 8
M  V30 8 1 6 9
M  V30 9 1 6 10
M  V30 10 1 7 11
M  V30 11 2 8 12
M  V30 12 1 10 13
M  V30 13 2 10 14
M  V30 14 2 11 15
M  V30 15 2 13 16
M  V30 16 1 13 17
M  V30 17 1 14 18
M  V30 18 1 14 19
M  V30 19 1 17 20
M  V30 20 1 17 21
M  V30 21 1 19 22
M  V30 22 1 20 23
M  V30 23 1 21 24
M  V30 24 2 22 25
M  V30 25 2 23 26
M  V30 26 1 24 27
M  V30 27 1 27 28
M  V30 28 1 28 29
M  V30 29 1 7 9
M  V30 30 1 12 15
M  V30 31 2 19 20
M  V30 32 1 25 26
M  V30 END BOND
M  V30 END CTAB
M  END
>  <MolRegNo>
338550

>  <m>
>

>  <Value>
10000

>  <Unit>
nM

>  <Type>
IC50

>  <pValue>
0

>  <Ligand Efficiency>
0

>  <Binding Efficiency>
0

>  <Surface Efficiency>
0

>  <Assay Index>
256538

>  <Assay Category>


>  <Assay Organism>
Hepatitis C virus subtype 1b

>  <Target ID>
12097

>  <Target Name>
Hepatitis C virus NS5B RNA-dependent RNA polymerase

>  <Target Organism>
Hepatitis C virus

>  <Target Description>
Target is a single protein chain

>  <Sequence Accession>
Q8JXU8

>  <Reference>
J. Med. Chem. 49 (3), 971-983 (2006)

>  <Pubmed ID>
16451063

>  <DOI>
10.1021/jm050855s

$$$$
338549
Actelion Java MolfileCreator 2.0

  0  0  0  0  0  0              0 V3000
M  V30 BEGIN CTAB
M  V30 COUNTS 31 35 0 0 0
M  V30 BEGIN ATOM
M  V30 1 S 0.0 0.0 0.0 0
M  V30 2 O -1.3239 0.7633 0.0 0
M  V30 3 O 1.2881 0.7752 0.0 0
M  V30 4 N -1.3 -0.7514 0.0 0
M  V30 5 C 1.3 -0.7275 0.0 0
M  V30 6 C -1.3 -2.2303 0.0 0
M  V30 7 C 1.3 -2.2184 0.0 0
M  V30 8 C 2.5762 0.0357 0.0 0
M  V30 9 N -0.0119 -2.9698 0.0 0
M  V30 10 C -2.612 -2.9817 0.0 0
M  V30 11 C 2.5881 -2.946 0.0 0
M  V30 12 C 3.8643 -0.6917 0.0 0
M  V30 13 C -2.612 -4.4846 0.0 0
M  V30 14 C -3.9359 -2.2303 0.0 0
M  V30 15 C 3.8763 -2.1707 0.0 0
M  V30 16 O -1.3119 -5.224 0.0 0
M  V30 17 N -3.924 -5.224 0.0 0
M  V30 18 O -3.9598 -0.7156 0.0 0
M  V30 19 C -5.2479 -2.9698 0.0 0
M  V30 20 C -5.236 -4.4607 0.0 0
M  V30 21 C -3.9359 -6.7149 0.0 0
M  V30 22 C -6.5599 -2.2065 0.0 0
M  V30 23 C -6.548 -5.2121 0.0 0
M  V30 24 C -2.6478 -7.4544 0.0 0
M  V30 25 C -7.8719 -2.946 0.0 0
M  V30 26 C -7.8599 -4.4488 0.0 0
M  V30 27 N -2.6597 -8.9453 0.0 0
M  V30 28 C -3.8763 -9.8279 0.0 0
M  V30 29 C -1.4431 -9.816 0.0 0
M  V30 30 C -3.423 -11.2473 0.0 0
M  V30 31 C -1.9202 -11.2353 0.0 0
M  V30 END ATOM
M  V30 BEGIN BOND
M  V30 1 2 1 2
M  V30 2 2 1 3
M  V30 3 1 1 4
M  V30 4 1 1 5
M  V30 5 2 4 6
M  V30 6 2 5 7
M  V30 7 1 5 8
M  V30 8 1 6 9
M  V30 9 1 6 10
M  V30 10 1 7 11
M  V30 11 2 8 12
M  V30 12 1 10 13
M  V30 13 2 10 14
M  V30 14 2 11 15
M  V30 15 2 13 16
M  V30 16 1 13 17
M  V30 17 1 14 18
M  V30 18 1 14 19
M  V30 19 1 17 20
M  V30 20 1 17 21
M  V30 21 1 19 22
M  V30 22 1 20 23
M  V30 23 1 21 24
M  V30 24 2 22 25
M  V30 25 2 23 26
M  V30 26 1 24 27
M  V30 27 1 27 28
M  V30 28 1 27 29
M  V30 29 1 28 30
M  V30 30 1 29 31
M  V30 31 1 7 9
M  V30 32 1 12 15
M  V30 33 2 19 20
M  V30 34 1 25 26
M  V30 35 1 30 31
M  V30 END BOND
M  V30 END CTAB
M  END
>  <MolRegNo>
338549

>  <m>
>

>  <Value>
10000

>  <Unit>
nM

>  <Type>
IC50

>  <pValue>
0

>  <Ligand Efficiency>
0

>  <Binding Efficiency>
0

>  <Surface Efficiency>
0

>  <Assay Index>
256538

>  <Assay Category>


>  <Assay Organism>
Hepatitis C virus subtype 1b

>  <Target ID>
12097

>  <Target Name>
Hepatitis C virus NS5B RNA-dependent RNA polymerase

>  <Target Organism>
Hepatitis C virus

>  <Target Description>
Target is a single protein chain

>  <Sequence Accession>
Q8JXU8

>  <Reference>
J. Med. Chem. 49 (3), 971-983 (2006)

>  <Pubmed ID>
16451063

>  <DOI>
10.1021/jm050855s

$$$$
338542
Actelion Java MolfileCreator 2.0

  0  0  0  0  0  0              0 V3000
M  V30 BEGIN CTAB
M  V30 COUNTS 29 32 0 0 0
M  V30 BEGIN ATOM
M  V30 1 S 0.0 0.0 0.0 0
M  V30 2 O -1.3238 0.7633 0.0 0
M  V30 3 O 1.288 0.7752 0.0 0
M  V30 4 N -1.3 -0.7513 0.0 0
M  V30 5 C 1.3 -0.7275 0.0 0
M  V30 6 C -1.3 -2.2302 0.0 0
M  V30 7 C 1.3 -2.2183 0.0 0
M  V30 8 C 2.5761 0.0357 0.0 0
M  V30 9 N -0.0119 -2.9697 0.0 0
M  V30 10 C -2.6119 -2.9816 0.0 0
M  V30 11 C 2.588 -2.9458 0.0 0
M  V30 12 C 3.8642 -0.6917 0.0 0
M  V30 13 C -2.6119 -4.4844 0.0 0
M  V30 14 C -3.9357 -2.2302 0.0 0
M  V30 15 C 3.8761 -2.1706 0.0 0
M  V30 16 O -1.3119 -5.2238 0.0 0
M  V30 17 N -3.9238 -5.2238 0.0 0
M  V30 18 O -3.9596 -0.7155 0.0 0
M  V30 19 C -5.2477 -2.9697 0.0 0
M  V30 20 C -5.2357 -4.4605 0.0 0
M  V30 21 C -3.9357 -6.7146 0.0 0
M  V30 22 C -6.5596 -2.2064 0.0 0
M  V30 23 C -6.5477 -5.2119 0.0 0
M  V30 24 C -2.6477 -7.4541 0.0 0
M  V30 25 C -7.8715 -2.9458 0.0 0
M  V30 26 C -7.8596 -4.4486 0.0 0
M  V30 27 N -2.6596 -8.9449 0.0 0
M  V30 28 C -1.3715 -9.6844 0.0 0
M  V30 29 C -3.9715 -9.6844 0.0 0
M  V30 END ATOM
M  V30 BEGIN BOND
M  V30 1 2 1 2
M  V30 2 2 1 3
M  V30 3 1 1 4
M  V30 4 1 1 5
M  V30 5 2 4 6
M  V30 6 2 5 7
M  V30 7 1 5 8
M  V30 8 1 6 9
M  V30 9 1 6 10
M  V30 10 1 7 11
M  V30 11 2 8 12
M  V30 12 1 10 13
M  V30 13 2 10 14
M  V30 14 2 11 15
M  V30 15 2 13 16
M  V30 16 1 13 17
M  V30 17 1 14 18
M  V30 18 1 14 19
M  V30 19 1 17 20
M  V30 20 1 17 21
M  V30 21 1 19 22
M  V30 22 1 20 23
M  V30 23 1 21 24
M  V30 24 2 22 25
M  V30 25 2 23 26
M  V30 26 1 24 27
M  V30 27 1 27 28
M  V30 28 1 27 29
M  V30 29 1 7 9
M  V30 30 1 12 15
M  V30 31 2 19 20
M  V30 32 1 25 26
M  V30 END BOND
M  V30 END CTAB
M  END
>  <MolRegNo>
338542

>  <m>
>

>  <Value>
10000

>  <Unit>
nM

>  <Type>
IC50

>  <pValue>
0

>  <Ligand Efficiency>
0

>  <Binding Efficiency>
0

>  <Surface Efficiency>
0

>  <Assay Index>
256538

>  <Assay Category>


>  <Assay Organism>
Hepatitis C virus subtype 1b

>  <Target ID>
12097

>  <Target Name>
Hepatitis C virus NS5B RNA-dependent RNA polymerase

>  <Target Organism>
Hepatitis C virus

>  <Target Description>
Target is a single protein chain

>  <Sequence Accession>
Q8JXU8

>  <Reference>
J. Med. Chem. 49 (3), 971-983 (2006)

>  <Pubmed ID>
16451063

>  <DOI>
10.1021/jm050855s

$$$$
338541
Actelion Java MolfileCreator 2.0

  0  0  0  0  0  0              0 V3000
M  V30 BEGIN CTAB
M  V30 COUNTS 29 32 0 0 0
M  V30 BEGIN ATOM
M  V30 1 S 0.0 0.0 0.0 0
M  V30 2 O -1.3239 0.7633 0.0 0
M  V30 3 O 1.2881 0.7752 0.0 0
M  V30 4 N -1.3 -0.7514 0.0 0
M  V30 5 C 1.3 -0.7275 0.0 0
M  V30 6 C -1.3 -2.2303 0.0 0
M  V30 7 C 1.3 -2.2184 0.0 0
M  V30 8 C 2.5762 0.0357 0.0 0
M  V30 9 N -0.0119 -2.9698 0.0 0
M  V30 10 C -2.612 -2.9818 0.0 0
M  V30 11 C 2.5882 -2.946 0.0 0
M  V30 12 C 3.8644 -0.6917 0.0 0
M  V30 13 C -2.612 -4.4846 0.0 0
M  V30 14 C -3.9359 -2.2303 0.0 0
M  V30 15 C 3.8763 -2.1707 0.0 0
M  V30 16 O -1.3119 -5.2241 0.0 0
M  V30 17 N -3.924 -5.2241 0.0 0
M  V30 18 O -3.9598 -0.7156 0.0 0
M  V30 19 C -5.2479 -2.9698 0.0 0
M  V30 20 C -5.236 -4.4607 0.0 0
M  V30 21 C -3.9359 -6.715 0.0 0
M  V30 22 C -6.5599 -2.2065 0.0 0
M  V30 23 C -6.548 -5.2121 0.0 0
M  V30 24 C -2.6478 -7.4545 0.0 0
M  V30 25 C -7.8719 -2.946 0.0 0
M  V30 26 C -7.86 -4.4488 0.0 0
M  V30 27 C -1.3597 -6.6911 0.0 0
M  V30 28 C -0.0715 -7.4306 0.0 0
M  V30 29 O 1.2165 -6.6673 0.0 0
M  V30 END ATOM
M  V30 BEGIN BOND
M  V30 1 2 1 2
M  V30 2 2 1 3
M  V30 3 1 1 4
M  V30 4 1 1 5
M  V30 5 2 4 6
M  V30 6 2 5 7
M  V30 7 1 5 8
M  V30 8 1 6 9
M  V30 9 1 6 10
M  V30 10 1 7 11
M  V30 11 2 8 12
M  V30 12 1 10 13
M  V30 13 2 10 14
M  V30 14 2 11 15
M  V30 15 2 13 16
M  V30 16 1 13 17
M  V30 17 1 14 18
M  V30 18 1 14 19
M  V30 19 1 17 20
M  V30 20 1 17 21
M  V30 21 1 19 22
M  V30 22 1 20 23
M  V30 23 1 21 24
M  V30 24 2 22 25
M  V30 25 2 23 26
M  V30 26 1 24 27
M  V30 27 1 27 28
M  V30 28 1 28 29
M  V30 29 1 7 9
M  V30 30 1 12 15
M  V30 31 2 19 20
M  V30 32 1 25 26
M  V30 END BOND
M  V30 END CTAB
M  END
>  <MolRegNo>
338541

>  <m>
=

>  <Value>
1301

>  <Unit>
nM

>  <Type>
IC50

>  <pValue>
5.89

>  <Ligand Efficiency>
0.28

>  <Binding Efficiency>
14.24

>  <Surface Efficiency>
4.86

>  <Assay Index>
256538

>  <Assay Category>


>  <Assay Organism>
Hepatitis C virus subtype 1b

>  <Target ID>
12097

>  <Target Name>
Hepatitis C virus NS5B RNA-dependent RNA polymerase

>  <Target Organism>
Hepatitis C virus

>  <Target Description>
Target is a single protein chain

>  <Sequence Accession>
Q8JXU8

>  <Reference>
J. Med. Chem. 49 (3), 971-983 (2006)

>  <Pubmed ID>
16451063

>  <DOI>
10.1021/jm050855s

$$$$
338451
Actelion Java MolfileCreator 2.0

  0  0  0  0  0  0              0 V3000
M  V30 BEGIN CTAB
M  V30 COUNTS 28 31 0 0 0
M  V30 BEGIN ATOM
M  V30 1 S 0.0 0.0 0.0 0
M  V30 2 O -1.3238 0.7632 0.0 0
M  V30 3 O 1.288 0.7752 0.0 0
M  V30 4 N -1.2999 -0.7513 0.0 0
M  V30 5 C 1.2999 -0.7275 0.0 0
M  V30 6 C -1.2999 -2.2302 0.0 0
M  V30 7 C 1.2999 -2.2183 0.0 0
M  V30 8 C 2.5761 0.0357 0.0 0
M  V30 9 N -0.0119 -2.9697 0.0 0
M  V30 10 C -2.6119 -2.9816 0.0 0
M  V30 11 C 2.588 -2.9458 0.0 0
M  V30 12 C 3.8641 -0.6917 0.0 0
M  V30 13 C -2.6119 -4.4843 0.0 0
M  V30 14 C -3.9357 -2.2302 0.0 0
M  V30 15 C 3.8761 -2.1706 0.0 0
M  V30 16 O -1.3119 -5.2238 0.0 0
M  V30 17 N -3.9238 -5.2238 0.0 0
M  V30 18 O -3.9596 -0.7155 0.0 0
M  V30 19 C -5.2476 -2.9697 0.0 0
M  V30 20 C -5.2357 -4.4605 0.0 0
M  V30 21 C -3.9357 -6.7146 0.0 0
M  V30 22 C -6.5595 -2.2064 0.0 0
M  V30 23 C -6.5476 -5.2118 0.0 0
M  V30 24 C -2.6476 -7.454 0.0 0
M  V30 25 C -7.8715 -2.9458 0.0 0
M  V30 26 C -7.8595 -4.4485 0.0 0
M  V30 27 C -1.3596 -6.6907 0.0 0
M  V30 28 O -0.0715 -7.4302 0.0 0
M  V30 END ATOM
M  V30 BEGIN BOND
M  V30 1 2 1 2
M  V30 2 2 1 3
M  V30 3 1 1 4
M  V30 4 1 1 5
M  V30 5 2 4 6
M  V30 6 2 5 7
M  V30 7 1 5 8
M  V30 8 1 6 9
M  V30 9 1 6 10
M  V30 10 1 7 11
M  V30 11 2 8 12
M  V30 12 1 10 13
M  V30 13 2 10 14
M  V30 14 2 11 15
M  V30 15 2 13 16
M  V30 16 1 13 17
M  V30 17 1 14 18
M  V30 18 1 14 19
M  V30 19 1 17 20
M  V30 20 1 17 21
M  V30 21 1 19 22
M  V30 22 1 20 23
M  V30 23 1 21 24
M  V30 24 2 22 25
M  V30 25 2 23 26
M  V30 26 1 24 27
M  V30 27 1 27 28
M  V30 28 1 7 9
M  V30 29 1 12 15
M  V30 30 2 19 20
M  V30 31 1 25 26
M  V30 END BOND
M  V30 END CTAB
M  END
>  <MolRegNo>
338451

>  <m>
=

>  <Value>
2815

>  <Unit>
nM

>  <Type>
IC50

>  <pValue>
5.55

>  <Ligand Efficiency>
0.27

>  <Binding Efficiency>
13.9

>  <Surface Efficiency>
4.59

>  <Assay Index>
256538

>  <Assay Category>


>  <Assay Organism>
Hepatitis C virus subtype 1b

>  <Target ID>
12097

>  <Target Name>
Hepatitis C virus NS5B RNA-dependent RNA polymerase

>  <Target Organism>
Hepatitis C virus

>  <Target Description>
Target is a single protein chain

>  <Sequence Accession>
Q8JXU8

>  <Reference>
J. Med. Chem. 49 (3), 971-983 (2006)

>  <Pubmed ID>
16451063

>  <DOI>
10.1021/jm050855s

$$$$
338299
Actelion Java MolfileCreator 2.0

  0  0  0  0  0  0              0 V3000
M  V30 BEGIN CTAB
M  V30 COUNTS 27 30 0 0 0
M  V30 BEGIN ATOM
M  V30 1 S 0.0 0.0 0.0 0
M  V30 2 O -1.3234 0.763 0.0 0
M  V30 3 O 1.2876 0.7749 0.0 0
M  V30 4 N -1.2995 -0.7511 0.0 0
M  V30 5 C 1.2995 -0.7272 0.0 0
M  V30 6 C -1.2995 -2.2295 0.0 0
M  V30 7 C 1.2995 -2.2176 0.0 0
M  V30 8 C 2.5752 0.0357 0.0 0
M  V30 9 N -0.0119 -2.9687 0.0 0
M  V30 10 C -2.611 -2.9806 0.0 0
M  V30 11 C 2.5872 -2.9448 0.0 0
M  V30 12 C 3.8629 -0.6915 0.0 0
M  V30 13 C -2.611 -4.4828 0.0 0
M  V30 14 C -3.9344 -2.2295 0.0 0
M  V30 15 C 3.8748 -2.1699 0.0 0
M  V30 16 O -1.3114 -5.2221 0.0 0
M  V30 17 N -3.9225 -5.2221 0.0 0
M  V30 18 O -3.9583 -0.7153 0.0 0
M  V30 19 C -5.2459 -2.9687 0.0 0
M  V30 20 C -5.234 -4.459 0.0 0
M  V30 21 C -3.9344 -6.7124 0.0 0
M  V30 22 C -6.5574 -2.2056 0.0 0
M  V30 23 C -6.5455 -5.2101 0.0 0
M  V30 24 C -2.6468 -7.4516 0.0 0
M  V30 25 C -7.8689 -2.9448 0.0 0
M  V30 26 C -7.8569 -4.4471 0.0 0
M  V30 27 O -1.3591 -6.6885 0.0 0
M  V30 END ATOM
M  V30 BEGIN BOND
M  V30 1 2 1 2
M  V30 2 2 1 3
M  V30 3 1 1 4
M  V30 4 1 1 5
M  V30 5 2 4 6
M  V30 6 2 5 7
M  V30 7 1 5 8
M  V30 8 1 6 9
M  V30 9 1 6 10
M  V30 10 1 7 11
M  V30 11 2 8 12
M  V30 12 1 10 13
M  V30 13 2 10 14
M  V30 14 2 11 15
M  V30 15 2 13 16
M  V30 16 1 13 17
M  V30 17 1 14 18
M  V30 18 1 14 19
M  V30 19 1 17 20
M  V30 20 1 17 21
M  V30 21 1 19 22
M  V30 22 1 20 23
M  V30 23 1 21 24
M  V30 24 2 22 25
M  V30 25 2 23 26
M  V30 26 1 24 27
M  V30 27 1 7 9
M  V30 28 1 12 15
M  V30 29 2 19 20
M  V30 30 1 25 26
M  V30 END BOND
M  V30 END CTAB
M  END
>  <MolRegNo>
338299

>  <m>
>

>  <Value>
10000

>  <Unit>
nM

>  <Type>
IC50

>  <pValue>
0

>  <Ligand Efficiency>
0

>  <Binding Efficiency>
0

>  <Surface Efficiency>
0

>  <Assay Index>
256538

>  <Assay Category>


>  <Assay Organism>
Hepatitis C virus subtype 1b

>  <Target ID>
12097

>  <Target Name>
Hepatitis C virus NS5B RNA-dependent RNA polymerase

>  <Target Organism>
Hepatitis C virus

>  <Target Description>
Target is a single protein chain

>  <Sequence Accession>
Q8JXU8

>  <Reference>
J. Med. Chem. 49 (3), 971-983 (2006)

>  <Pubmed ID>
16451063

>  <DOI>
10.1021/jm050855s

$$$$
338322
Actelion Java MolfileCreator 2.0

  0  0  0  0  0  0              0 V3000
M  V30 BEGIN CTAB
M  V30 COUNTS 30 33 0 0 0
M  V30 BEGIN ATOM
M  V30 1 S 0.0 0.0 0.0 0
M  V30 2 O -1.3228 0.7627 0.0 0
M  V30 3 O 1.287 0.7746 0.0 0
M  V30 4 N -1.299 -0.7507 0.0 0
M  V30 5 C 1.299 -0.7269 0.0 0
M  V30 6 C -1.299 -2.2285 0.0 0
M  V30 7 C 1.299 -2.2166 0.0 0
M  V30 8 C 2.5741 0.0357 0.0 0
M  V30 9 N -0.0119 -2.9674 0.0 0
M  V30 10 C -2.6099 -2.9793 0.0 0
M  V30 11 C 2.586 -2.9436 0.0 0
M  V30 12 C 3.8612 -0.6912 0.0 0
M  V30 13 C -2.6099 -4.4809 0.0 0
M  V30 14 C -3.9327 -2.2285 0.0 0
M  V30 15 C 3.8731 -2.1689 0.0 0
M  V30 16 O -1.3109 -5.2198 0.0 0
M  V30 17 N -3.9208 -5.2198 0.0 0
M  V30 18 O -3.9565 -0.715 0.0 0
M  V30 19 C -5.2436 -2.9674 0.0 0
M  V30 20 C -5.2317 -4.4571 0.0 0
M  V30 21 C -3.9327 -6.7095 0.0 0
M  V30 22 C -6.5545 -2.2047 0.0 0
M  V30 23 C -6.5426 -5.2079 0.0 0
M  V30 24 C -2.6456 -7.4483 0.0 0
M  V30 25 C -7.8774 -2.9436 0.0 0
M  V30 26 C -7.8655 -4.4452 0.0 0
M  V30 27 S -2.6575 -8.938 0.0 0
M  V30 28 O -4.183 -8.9142 0.0 0
M  V30 29 O -1.1679 -8.9142 0.0 0
M  V30 30 C -2.6575 -10.4277 0.0 0
M  V30 END ATOM
M  V30 BEGIN BOND
M  V30 1 2 1 2
M  V30 2 2 1 3
M  V30 3 1 1 4
M  V30 4 1 1 5
M  V30 5 2 4 6
M  V30 6 2 5 7
M  V30 7 1 5 8
M  V30 8 1 6 9
M  V30 9 1 6 10
M  V30 10 1 7 11
M  V30 11 2 8 12
M  V30 12 1 10 13
M  V30 13 2 10 14
M  V30 14 2 11 15
M  V30 15 2 13 16
M  V30 16 1 13 17
M  V30 17 1 14 18
M  V30 18 1 14 19
M  V30 19 1 17 20
M  V30 20 1 17 21
M  V30 21 1 19 22
M  V30 22 1 20 23
M  V30 23 1 21 24
M  V30 24 2 22 25
M  V30 25 2 23 26
M  V30 26 1 24 27
M  V30 27 2 27 28
M  V30 28 2 27 29
M  V30 29 1 27 30
M  V30 30 1 7 9
M  V30 31 1 12 15
M  V30 32 2 19 20
M  V30 33 1 25 26
M  V30 END BOND
M  V30 END CTAB
M  END
>  <MolRegNo>
338322

>  <m>
=

>  <Value>
2322

>  <Unit>
nM

>  <Type>
IC50

>  <pValue>
5.63

>  <Ligand Efficiency>
0.26

>  <Binding Efficiency>
12.59

>  <Surface Efficiency>
4.18

>  <Assay Index>
256538

>  <Assay Category>


>  <Assay Organism>
Hepatitis C virus subtype 1b

>  <Target ID>
12097

>  <Target Name>
Hepatitis C virus NS5B RNA-dependent RNA polymerase

>  <Target Organism>
Hepatitis C virus

>  <Target Description>
Target is a single protein chain

>  <Sequence Accession>
Q8JXU8

>  <Reference>
J. Med. Chem. 49 (3), 971-983 (2006)

>  <Pubmed ID>
16451063

>  <DOI>
10.1021/jm050855s

$$$$
338316
Actelion Java MolfileCreator 2.0

  0  0  0  0  0  0              0 V3000
M  V30 BEGIN CTAB
M  V30 COUNTS 29 32 0 0 0
M  V30 BEGIN ATOM
M  V30 1 S 0.0 0.0 0.0 0
M  V30 2 O 0.0 -1.4788 0.0 0
M  V30 3 O 1.2895 0.769 0.0 0
M  V30 4 N -0.0236 1.5025 0.0 0
M  V30 5 C -1.3014 -0.7453 0.0 0
M  V30 6 C -1.3368 2.2478 0.0 0
M  V30 7 C -2.6028 0.0 0.0 0
M  V30 8 C -1.3014 -2.2123 0.0 0
M  V30 9 N -2.6383 1.5143 0.0 0
M  V30 10 C -1.3605 3.7504 0.0 0
M  V30 11 C -3.9042 -0.7335 0.0 0
M  V30 12 C -2.5909 -2.9577 0.0 0
M  V30 13 C -2.6737 4.5075 0.0 0
M  V30 14 C -0.0828 4.5194 0.0 0
M  V30 15 C -3.9042 -2.2123 0.0 0
M  V30 16 O -3.9752 3.7622 0.0 0
M  V30 17 N -2.6974 6.0101 0.0 0
M  V30 18 O 1.2067 3.7859 0.0 0
M  V30 19 C -0.1064 6.0219 0.0 0
M  V30 20 C -1.4078 6.7791 0.0 0
M  V30 21 C -4.0106 6.7673 0.0 0
M  V30 22 C 1.183 6.7909 0.0 0
M  V30 23 C -1.4197 8.2935 0.0 0
M  V30 24 C -5.3121 6.0219 0.0 0
M  V30 25 C 1.1594 8.2935 0.0 0
M  V30 26 C -0.1419 9.0506 0.0 0
M  V30 27 S -6.6253 6.7791 0.0 0
M  V30 28 O -6.6489 8.2816 0.0 0
M  V30 29 C -7.9385 6.0337 0.0 0
M  V30 END ATOM
M  V30 BEGIN BOND
M  V30 1 2 1 2
M  V30 2 2 1 3
M  V30 3 1 1 4
M  V30 4 1 1 5
M  V30 5 2 4 6
M  V30 6 2 5 7
M  V30 7 1 5 8
M  V30 8 1 6 9
M  V30 9 1 6 10
M  V30 10 1 7 11
M  V30 11 2 8 12
M  V30 12 1 10 13
M  V30 13 2 10 14
M  V30 14 2 11 15
M  V30 15 2 13 16
M  V30 16 1 13 17
M  V30 17 1 14 18
M  V30 18 1 14 19
M  V30 19 1 17 20
M  V30 20 1 17 21
M  V30 21 1 19 22
M  V30 22 1 20 23
M  V30 23 1 21 24
M  V30 24 2 22 25
M  V30 25 2 23 26
M  V30 26 1 24 27
M  V30 27 2 27 28
M  V30 28 1 27 29
M  V30 29 1 7 9
M  V30 30 1 12 15
M  V30 31 2 19 20
M  V30 32 1 25 26
M  V30 END BOND
M  V30 END CTAB
M  END
>  <MolRegNo>
338316

>  <m>
=

>  <Value>
2537

>  <Unit>
nM

>  <Type>
IC50

>  <pValue>
5.6

>  <Ligand Efficiency>
0.26

>  <Binding Efficiency>
12.97

>  <Surface Efficiency>
4.75

>  <Assay Index>
256538

>  <Assay Category>


>  <Assay Organism>
Hepatitis C virus subtype 1b

>  <Target ID>
12097

>  <Target Name>
Hepatitis C virus NS5B RNA-dependent RNA polymerase

>  <Target Organism>
Hepatitis C virus

>  <Target Description>
Target is a single protein chain

>  <Sequence Accession>
Q8JXU8

>  <Reference>
J. Med. Chem. 49 (3), 971-983 (2006)

>  <Pubmed ID>
16451063

>  <DOI>
10.1021/jm050855s

$$$$
338315
Actelion Java MolfileCreator 2.0

  0  0  0  0  0  0              0 V3000
M  V30 BEGIN CTAB
M  V30 COUNTS 28 31 0 0 0
M  V30 BEGIN ATOM
M  V30 1 S 0.0 0.0 0.0 0
M  V30 2 O -1.324 0.7634 0.0 0
M  V30 3 O 1.2882 0.7753 0.0 0
M  V30 4 N -1.3001 -0.7514 0.0 0
M  V30 5 C 1.3001 -0.7276 0.0 0
M  V30 6 C -1.3001 -2.2305 0.0 0
M  V30 7 C 1.3001 -2.2186 0.0 0
M  V30 8 C 2.5764 0.0357 0.0 0
M  V30 9 N -0.0119 -2.9701 0.0 0
M  V30 10 C -2.6122 -2.982 0.0 0
M  V30 11 C 2.5884 -2.9462 0.0 0
M  V30 12 C 3.8647 -0.6918 0.0 0
M  V30 13 C -2.6122 -4.4849 0.0 0
M  V30 14 C -3.9362 -2.2305 0.0 0
M  V30 15 C 3.8766 -2.1709 0.0 0
M  V30 16 O -1.312 -5.2245 0.0 0
M  V30 17 N -3.9243 -5.2245 0.0 0
M  V30 18 O -3.9601 -0.7156 0.0 0
M  V30 19 C -5.2483 -2.9701 0.0 0
M  V30 20 C -5.2364 -4.4611 0.0 0
M  V30 21 C -3.9362 -6.7155 0.0 0
M  V30 22 C -6.5604 -2.2067 0.0 0
M  V30 23 C -6.5485 -5.2126 0.0 0
M  V30 24 C -2.648 -7.455 0.0 0
M  V30 25 C -7.8725 -2.9462 0.0 0
M  V30 26 C -7.8606 -4.4492 0.0 0
M  V30 27 S -2.6599 -8.9461 0.0 0
M  V30 28 C -1.3717 -9.6856 0.0 0
M  V30 END ATOM
M  V30 BEGIN BOND
M  V30 1 2 1 2
M  V30 2 2 1 3
M  V30 3 1 1 4
M  V30 4 1 1 5
M  V30 5 2 4 6
M  V30 6 2 5 7
M  V30 7 1 5 8
M  V30 8 1 6 9
M  V30 9 1 6 10
M  V30 10 1 7 11
M  V30 11 2 8 12
M  V30 12 1 10 13
M  V30 13 2 10 14
M  V30 14 2 11 15
M  V30 15 2 13 16
M  V30 16 1 13 17
M  V30 17 1 14 18
M  V30 18 1 14 19
M  V30 19 1 17 20
M  V30 20 1 17 21
M  V30 21 1 19 22
M  V30 22 1 20 23
M  V30 23 1 21 24
M  V30 24 2 22 25
M  V30 25 2 23 26
M  V30 26 1 24 27
M  V30 27 1 27 28
M  V30 28 1 7 9
M  V30 29 1 12 15
M  V30 30 2 19 20
M  V30 31 1 25 26
M  V30 END BOND
M  V30 END CTAB
M  END
>  <MolRegNo>
338315

>  <m>
=

>  <Value>
53

>  <Unit>
nM

>  <Type>
IC50

>  <pValue>
7.28

>  <Ligand Efficiency>
0.35

>  <Binding Efficiency>
17.51

>  <Surface Efficiency>
7.22

>  <Assay Index>
256538

>  <Assay Category>


>  <Assay Organism>
Hepatitis C virus subtype 1b

>  <Target ID>
12097

>  <Target Name>
Hepatitis C virus NS5B RNA-dependent RNA polymerase

>  <Target Organism>
Hepatitis C virus

>  <Target Description>
Target is a single protein chain

>  <Sequence Accession>
Q8JXU8

>  <Reference>
J. Med. Chem. 49 (3), 971-983 (2006)

>  <Pubmed ID>
16451063

>  <DOI>
10.1021/jm050855s

$$$$
338306
Actelion Java MolfileCreator 2.0

  0  0  0  0  0  0              0 V3000
M  V30 BEGIN CTAB
M  V30 COUNTS 30 34 0 0 0
M  V30 BEGIN ATOM
M  V30 1 S 0.0 0.0 0.0 0
M  V30 2 O -1.3239 0.7633 0.0 0
M  V30 3 O 1.2881 0.7752 0.0 0
M  V30 4 N -1.3 -0.7514 0.0 0
M  V30 5 C 1.3 -0.7275 0.0 0
M  V30 6 C -1.3 -2.2303 0.0 0
M  V30 7 C 1.3 -2.2184 0.0 0
M  V30 8 C 2.5762 0.0357 0.0 0
M  V30 9 N -0.0119 -2.9698 0.0 0
M  V30 10 C -2.612 -2.9817 0.0 0
M  V30 11 C 2.5881 -2.946 0.0 0
M  V30 12 C 3.8643 -0.6917 0.0 0
M  V30 13 C -2.612 -4.4846 0.0 0
M  V30 14 C -3.9359 -2.2303 0.0 0
M  V30 15 C 3.8763 -2.1707 0.0 0
M  V30 16 O -1.3119 -5.224 0.0 0
M  V30 17 N -3.924 -5.224 0.0 0
M  V30 18 O -3.9598 -0.7156 0.0 0
M  V30 19 C -5.2479 -2.9698 0.0 0
M  V30 20 C -5.236 -4.4607 0.0 0
M  V30 21 C -3.9359 -6.7149 0.0 0
M  V30 22 C -6.5599 -2.2065 0.0 0
M  V30 23 C -6.5479 -5.2121 0.0 0
M  V30 24 C -2.6478 -7.4544 0.0 0
M  V30 25 C -7.8719 -2.946 0.0 0
M  V30 26 C -7.8599 -4.4488 0.0 0
M  V30 27 O -1.2881 -6.8223 0.0 0
M  V30 28 C -2.4927 -8.9572 0.0 0
M  V30 29 C -0.2981 -7.9315 0.0 0
M  V30 30 C -1.0495 -9.2435 0.0 0
M  V30 END ATOM
M  V30 BEGIN BOND
M  V30 1 2 1 2
M  V30 2 2 1 3
M  V30 3 1 1 4
M  V30 4 1 1 5
M  V30 5 2 4 6
M  V30 6 2 5 7
M  V30 7 1 5 8
M  V30 8 1 6 9
M  V30 9 1 6 10
M  V30 10 1 7 11
M  V30 11 2 8 12
M  V30 12 1 10 13
M  V30 13 2 10 14
M  V30 14 2 11 15
M  V30 15 2 13 16
M  V30 16 1 13 17
M  V30 17 1 14 18
M  V30 18 1 14 19
M  V30 19 1 17 20
M  V30 20 1 17 21
M  V30 21 1 19 22
M  V30 22 1 20 23
M  V30 23 1 21 24
M  V30 24 2 22 25
M  V30 25 2 23 26
M  V30 26 1 24 27
M  V30 27 1 24 28
M  V30 28 1 27 29
M  V30 29 1 28 30
M  V30 30 1 7 9
M  V30 31 1 12 15
M  V30 32 2 19 20
M  V30 33 1 25 26
M  V30 34 1 29 30
M  V30 END BOND
M  V30 END CTAB
M  END
>  <MolRegNo>
338306

>  <m>
=

>  <Value>
528

>  <Unit>
nM

>  <Type>
IC50

>  <pValue>
6.28

>  <Ligand Efficiency>
0.29

>  <Binding Efficiency>
14.75

>  <Surface Efficiency>
5.71

>  <Assay Index>
256538

>  <Assay Category>


>  <Assay Organism>
Hepatitis C virus subtype 1b

>  <Target ID>
12097

>  <Target Name>
Hepatitis C virus NS5B RNA-dependent RNA polymerase

>  <Target Organism>
Hepatitis C virus

>  <Target Description>
Target is a single protein chain

>  <Sequence Accession>
Q8JXU8

>  <Reference>
J. Med. Chem. 49 (3), 971-983 (2006)

>  <Pubmed ID>
16451063

>  <DOI>
10.1021/jm050855s

$$$$
338321
Actelion Java MolfileCreator 2.0

  0  0  0  0  0  0              0 V3000
M  V30 BEGIN CTAB
M  V30 COUNTS 30 34 0 0 0
M  V30 BEGIN ATOM
M  V30 1 S 0.0 0.0 0.0 0
M  V30 2 O -1.3239 0.7633 0.0 0
M  V30 3 O 1.2881 0.7752 0.0 0
M  V30 4 N -1.3001 -0.7514 0.0 0
M  V30 5 C 1.3001 -0.7275 0.0 0
M  V30 6 C -1.3001 -2.2304 0.0 0
M  V30 7 C 1.3001 -2.2185 0.0 0
M  V30 8 C 2.5763 0.0357 0.0 0
M  V30 9 N -0.0119 -2.9699 0.0 0
M  V30 10 C -2.6121 -2.9818 0.0 0
M  V30 11 C 2.5882 -2.9461 0.0 0
M  V30 12 C 3.8645 -0.6917 0.0 0
M  V30 13 C -2.6121 -4.4847 0.0 0
M  V30 14 C -3.936 -2.2304 0.0 0
M  V30 15 C 3.8764 -2.1708 0.0 0
M  V30 16 O -1.312 -5.2242 0.0 0
M  V30 17 N -3.9241 -5.2242 0.0 0
M  V30 18 O -3.9599 -0.7156 0.0 0
M  V30 19 C -5.2481 -2.9699 0.0 0
M  V30 20 C -5.2361 -4.4609 0.0 0
M  V30 21 C -3.936 -6.7152 0.0 0
M  V30 22 C -6.5601 -2.2065 0.0 0
M  V30 23 C -6.5482 -5.2123 0.0 0
M  V30 24 C -2.6479 -7.4547 0.0 0
M  V30 25 C -7.8721 -2.9461 0.0 0
M  V30 26 C -7.8602 -4.4489 0.0 0
M  V30 27 C -1.2643 -6.8225 0.0 0
M  V30 28 C -2.4928 -8.9218 0.0 0
M  V30 29 O -0.2743 -7.9318 0.0 0
M  V30 30 C -1.0376 -9.2319 0.0 0
M  V30 END ATOM
M  V30 BEGIN BOND
M  V30 1 2 1 2
M  V30 2 2 1 3
M  V30 3 1 1 4
M  V30 4 1 1 5
M  V30 5 2 4 6
M  V30 6 2 5 7
M  V30 7 1 5 8
M  V30 8 1 6 9
M  V30 9 1 6 10
M  V30 10 1 7 11
M  V30 11 2 8 12
M  V30 12 1 10 13
M  V30 13 2 10 14
M  V30 14 2 11 15
M  V30 15 2 13 16
M  V30 16 1 13 17
M  V30 17 1 14 18
M  V30 18 1 14 19
M  V30 19 1 17 20
M  V30 20 1 17 21
M  V30 21 1 19 22
M  V30 22 1 20 23
M  V30 23 1 21 24
M  V30 24 2 22 25
M  V30 25 2 23 26
M  V30 26 1 24 27
M  V30 27 1 24 28
M  V30 28 1 27 29
M  V30 29 1 28 30
M  V30 30 1 7 9
M  V30 31 1 12 15
M  V30 32 2 19 20
M  V30 33 1 25 26
M  V30 34 1 29 30
M  V30 END BOND
M  V30 END CTAB
M  END
>  <MolRegNo>
338321

>  <m>
=

>  <Value>
484

>  <Unit>
nM

>  <Type>
IC50

>  <pValue>
6.32

>  <Ligand Efficiency>
0.29

>  <Binding Efficiency>
14.84

>  <Surface Efficiency>
5.74

>  <Assay Index>
256538

>  <Assay Category>


>  <Assay Organism>
Hepatitis C virus subtype 1b

>  <Target ID>
12097

>  <Target Name>
Hepatitis C virus NS5B RNA-dependent RNA polymerase

>  <Target Organism>
Hepatitis C virus

>  <Target Description>
Target is a single protein chain

>  <Sequence Accession>
Q8JXU8

>  <Reference>
J. Med. Chem. 49 (3), 971-983 (2006)

>  <Pubmed ID>
16451063

>  <DOI>
10.1021/jm050855s

$$$$
338307
Actelion Java MolfileCreator 2.0

  0  0  0  0  0  0              0 V3000
M  V30 BEGIN CTAB
M  V30 COUNTS 30 33 0 0 0
M  V30 BEGIN ATOM
M  V30 1 S 0.0 0.0 0.0 0
M  V30 2 O -1.3239 0.7633 0.0 0
M  V30 3 O 1.2881 0.7752 0.0 0
M  V30 4 N -1.3 -0.7514 0.0 0
M  V30 5 C 1.3 -0.7275 0.0 0
M  V30 6 C -1.3 -2.2304 0.0 0
M  V30 7 C 1.3 -2.2184 0.0 0
M  V30 8 C 2.5762 0.0357 0.0 0
M  V30 9 N -0.0119 -2.9698 0.0 0
M  V30 10 C -2.612 -2.9818 0.0 0
M  V30 11 C 2.5882 -2.946 0.0 0
M  V30 12 C 3.8644 -0.6917 0.0 0
M  V30 13 C -2.612 -4.4846 0.0 0
M  V30 14 C -3.936 -2.2304 0.0 0
M  V30 15 C 3.8763 -2.1707 0.0 0
M  V30 16 O -1.312 -5.2241 0.0 0
M  V30 17 N -3.924 -5.2241 0.0 0
M  V30 18 O -3.9598 -0.7156 0.0 0
M  V30 19 C -5.248 -2.9698 0.0 0
M  V30 20 C -5.236 -4.4608 0.0 0
M  V30 21 C -3.936 -6.715 0.0 0
M  V30 22 C -6.56 -2.2065 0.0 0
M  V30 23 C -6.548 -5.2122 0.0 0
M  V30 24 C -2.6478 -7.4545 0.0 0
M  V30 25 C -7.872 -2.946 0.0 0
M  V30 26 C -7.86 -4.4488 0.0 0
M  V30 27 C -2.6597 -8.9454 0.0 0
M  V30 28 O -1.3716 -9.6849 0.0 0
M  V30 29 C -3.9717 -9.6849 0.0 0
M  V30 30 C -0.0834 -8.9216 0.0 0
M  V30 END ATOM
M  V30 BEGIN BOND
M  V30 1 2 1 2
M  V30 2 2 1 3
M  V30 3 1 1 4
M  V30 4 1 1 5
M  V30 5 2 4 6
M  V30 6 2 5 7
M  V30 7 1 5 8
M  V30 8 1 6 9
M  V30 9 1 6 10
M  V30 10 1 7 11
M  V30 11 2 8 12
M  V30 12 1 10 13
M  V30 13 2 10 14
M  V30 14 2 11 15
M  V30 15 2 13 16
M  V30 16 1 13 17
M  V30 17 1 14 18
M  V30 18 1 14 19
M  V30 19 1 17 20
M  V30 20 1 17 21
M  V30 21 1 19 22
M  V30 22 1 20 23
M  V30 23 1 21 24
M  V30 24 2 22 25
M  V30 25 2 23 26
M  V30 26 1 24 27
M  V30 27 1 27 28
M  V30 28 1 27 29
M  V30 29 1 28 30
M  V30 30 1 7 9
M  V30 31 1 12 15
M  V30 32 2 19 20
M  V30 33 1 25 26
M  V30 END BOND
M  V30 END CTAB
M  END
>  <MolRegNo>
338307

>  <m>
=

>  <Value>
82

>  <Unit>
nM

>  <Type>
IC50

>  <pValue>
7.09

>  <Ligand Efficiency>
0.32

>  <Binding Efficiency>
16.58

>  <Surface Efficiency>
6.44

>  <Assay Index>
256538

>  <Assay Category>


>  <Assay Organism>
Hepatitis C virus subtype 1b

>  <Target ID>
12097

>  <Target Name>
Hepatitis C virus NS5B RNA-dependent RNA polymerase

>  <Target Organism>
Hepatitis C virus

>  <Target Description>
Target is a single protein chain

>  <Sequence Accession>
Q8JXU8

>  <Reference>
J. Med. Chem. 49 (3), 971-983 (2006)

>  <Pubmed ID>
16451063

>  <DOI>
10.1021/jm050855s

$$$$
338639
Actelion Java MolfileCreator 2.0

  0  0  0  0  0  0              0 V3000
M  V30 BEGIN CTAB
M  V30 COUNTS 28 31 0 0 0
M  V30 BEGIN ATOM
M  V30 1 S 0.0 0.0 0.0 0
M  V30 2 O -1.324 0.7634 0.0 0
M  V30 3 O 1.2882 0.7753 0.0 0
M  V30 4 N -1.3001 -0.7514 0.0 0
M  V30 5 C 1.3001 -0.7276 0.0 0
M  V30 6 C -1.3001 -2.2305 0.0 0
M  V30 7 C 1.3001 -2.2186 0.0 0
M  V30 8 C 2.5764 0.0357 0.0 0
M  V30 9 N -0.0119 -2.9701 0.0 0
M  V30 10 C -2.6122 -2.982 0.0 0
M  V30 11 C 2.5884 -2.9462 0.0 0
M  V30 12 C 3.8647 -0.6918 0.0 0
M  V30 13 C -2.6122 -4.4849 0.0 0
M  V30 14 C -3.9362 -2.2305 0.0 0
M  V30 15 C 3.8766 -2.1709 0.0 0
M  V30 16 O -1.312 -5.2245 0.0 0
M  V30 17 N -3.9243 -5.2245 0.0 0
M  V30 18 O -3.9601 -0.7156 0.0 0
M  V30 19 C -5.2483 -2.9701 0.0 0
M  V30 20 C -5.2364 -4.4611 0.0 0
M  V30 21 C -3.9362 -6.7155 0.0 0
M  V30 22 C -6.5604 -2.2067 0.0 0
M  V30 23 C -6.5485 -5.2126 0.0 0
M  V30 24 C -2.648 -7.455 0.0 0
M  V30 25 C -7.8725 -2.9462 0.0 0
M  V30 26 C -7.8606 -4.4492 0.0 0
M  V30 27 O -2.6599 -8.9461 0.0 0
M  V30 28 C -1.3717 -9.6856 0.0 0
M  V30 END ATOM
M  V30 BEGIN BOND
M  V30 1 2 1 2
M  V30 2 2 1 3
M  V30 3 1 1 4
M  V30 4 1 1 5
M  V30 5 2 4 6
M  V30 6 2 5 7
M  V30 7 1 5 8
M  V30 8 1 6 9
M  V30 9 1 6 10
M  V30 10 1 7 11
M  V30 11 2 8 12
M  V30 12 1 10 13
M  V30 13 2 10 14
M  V30 14 2 11 15
M  V30 15 2 13 16
M  V30 16 1 13 17
M  V30 17 1 14 18
M  V30 18 1 14 19
M  V30 19 1 17 20
M  V30 20 1 17 21
M  V30 21 1 19 22
M  V30 22 1 20 23
M  V30 23 1 21 24
M  V30 24 2 22 25
M  V30 25 2 23 26
M  V30 26 1 24 27
M  V30 27 1 27 28
M  V30 28 1 7 9
M  V30 29 1 12 15
M  V30 30 2 19 20
M  V30 31 1 25 26
M  V30 END BOND
M  V30 END CTAB
M  END
>  <MolRegNo>
338639

>  <m>
=

>  <Value>
819

>  <Unit>
nM

>  <Type>
IC50

>  <pValue>
6.09

>  <Ligand Efficiency>
0.3

>  <Binding Efficiency>
15.24

>  <Surface Efficiency>
5.53

>  <Assay Index>
256538

>  <Assay Category>


>  <Assay Organism>
Hepatitis C virus subtype 1b

>  <Target ID>
12097

>  <Target Name>
Hepatitis C virus NS5B RNA-dependent RNA polymerase

>  <Target Organism>
Hepatitis C virus

>  <Target Description>
Target is a single protein chain

>  <Sequence Accession>
Q8JXU8

>  <Reference>
J. Med. Chem. 49 (3), 971-983 (2006)

>  <Pubmed ID>
16451063

>  <DOI>
10.1021/jm050855s

$$$$
338631
Actelion Java MolfileCreator 2.0

  0  0  0  0  0  0              0 V3000
M  V30 BEGIN CTAB
M  V30 COUNTS 30 33 0 0 0
M  V30 BEGIN ATOM
M  V30 1 S 0.0 0.0 0.0 0
M  V30 2 O -1.3238 0.7632 0.0 0
M  V30 3 O 1.288 0.7752 0.0 0
M  V30 4 N -1.2999 -0.7513 0.0 0
M  V30 5 C 1.2999 -0.7275 0.0 0
M  V30 6 C -1.2999 -2.2302 0.0 0
M  V30 7 C 1.2999 -2.2183 0.0 0
M  V30 8 C 2.576 0.0357 0.0 0
M  V30 9 N -0.0119 -2.9696 0.0 0
M  V30 10 C -2.6118 -2.9815 0.0 0
M  V30 11 C 2.588 -2.9458 0.0 0
M  V30 12 C 3.8641 -0.6917 0.0 0
M  V30 13 C -2.6118 -4.4843 0.0 0
M  V30 14 C -3.9357 -2.2302 0.0 0
M  V30 15 C 3.876 -2.1706 0.0 0
M  V30 16 O -1.3119 -5.2237 0.0 0
M  V30 17 N -3.9237 -5.2237 0.0 0
M  V30 18 O -3.9595 -0.7155 0.0 0
M  V30 19 C -5.2476 -2.9696 0.0 0
M  V30 20 C -5.2356 -4.4604 0.0 0
M  V30 21 C -3.9357 -6.7145 0.0 0
M  V30 22 C -6.5595 -2.2063 0.0 0
M  V30 23 C -6.5475 -5.2118 0.0 0
M  V30 24 C -2.6476 -7.4539 0.0 0
M  V30 25 C -7.8714 -2.9458 0.0 0
M  V30 26 C -7.8594 -4.4485 0.0 0
M  V30 27 C -1.3596 -6.6906 0.0 0
M  V30 28 C -0.0715 -7.4301 0.0 0
M  V30 29 C 1.2164 -6.6668 0.0 0
M  V30 30 N 2.5045 -5.8916 0.0 0
M  V30 END ATOM
M  V30 BEGIN BOND
M  V30 1 2 1 2
M  V30 2 2 1 3
M  V30 3 1 1 4
M  V30 4 1 1 5
M  V30 5 2 4 6
M  V30 6 2 5 7
M  V30 7 1 5 8
M  V30 8 1 6 9
M  V30 9 1 6 10
M  V30 10 1 7 11
M  V30 11 2 8 12
M  V30 12 1 10 13
M  V30 13 2 10 14
M  V30 14 2 11 15
M  V30 15 2 13 16
M  V30 16 1 13 17
M  V30 17 1 14 18
M  V30 18 1 14 19
M  V30 19 1 17 20
M  V30 20 1 17 21
M  V30 21 1 19 22
M  V30 22 1 20 23
M  V30 23 1 21 24
M  V30 24 2 22 25
M  V30 25 2 23 26
M  V30 26 1 24 27
M  V30 27 1 27 28
M  V30 28 1 28 29
M  V30 29 3 29 30
M  V30 30 1 7 9
M  V30 31 1 12 15
M  V30 32 2 19 20
M  V30 33 1 25 26
M  V30 END BOND
M  V30 END CTAB
M  END
>  <MolRegNo>
338631

>  <m>
=

>  <Value>
750

>  <Unit>
nM

>  <Type>
IC50

>  <pValue>
6.12

>  <Ligand Efficiency>
0.28

>  <Binding Efficiency>
14.5

>  <Surface Efficiency>
4.92

>  <Assay Index>
256538

>  <Assay Category>


>  <Assay Organism>
Hepatitis C virus subtype 1b

>  <Target ID>
12097

>  <Target Name>
Hepatitis C virus NS5B RNA-dependent RNA polymerase

>  <Target Organism>
Hepatitis C virus

>  <Target Description>
Target is a single protein chain

>  <Sequence Accession>
Q8JXU8

>  <Reference>
J. Med. Chem. 49 (3), 971-983 (2006)

>  <Pubmed ID>
16451063

>  <DOI>
10.1021/jm050855s

$$$$
338630
Actelion Java MolfileCreator 2.0

  0  0  0  0  0  0              0 V3000
M  V30 BEGIN CTAB
M  V30 COUNTS 29 32 0 0 0
M  V30 BEGIN ATOM
M  V30 1 S 0.0 0.0 0.0 0
M  V30 2 O -1.3242 0.7635 0.0 0
M  V30 3 O 1.2884 0.7754 0.0 0
M  V30 4 N -1.3003 -0.7516 0.0 0
M  V30 5 C 1.3003 -0.7277 0.0 0
M  V30 6 C -1.3003 -2.2309 0.0 0
M  V30 7 C 1.3003 -2.219 0.0 0
M  V30 8 C 2.5769 0.0357 0.0 0
M  V30 9 N -0.0119 -2.9706 0.0 0
M  V30 10 C -2.6127 -2.9825 0.0 0
M  V30 11 C 2.5888 -2.9467 0.0 0
M  V30 12 C 3.8653 -0.6919 0.0 0
M  V30 13 C -2.6127 -4.4857 0.0 0
M  V30 14 C -3.9369 -2.2309 0.0 0
M  V30 15 C 3.8773 -2.1712 0.0 0
M  V30 16 O -1.3123 -5.2254 0.0 0
M  V30 17 N -3.925 -5.2254 0.0 0
M  V30 18 O -3.9608 -0.7158 0.0 0
M  V30 19 C -5.2492 -2.9706 0.0 0
M  V30 20 C -5.2373 -4.4618 0.0 0
M  V30 21 C -3.9369 -6.7166 0.0 0
M  V30 22 C -6.5616 -2.207 0.0 0
M  V30 23 C -6.5496 -5.2134 0.0 0
M  V30 24 C -2.6485 -7.4563 0.0 0
M  V30 25 C -7.8739 -2.9467 0.0 0
M  V30 26 C -7.8619 -4.4499 0.0 0
M  V30 27 C -1.36 -6.6928 0.0 0
M  V30 28 C -0.0715 -7.4325 0.0 0
M  V30 29 N 1.2168 -8.1721 0.0 0
M  V30 END ATOM
M  V30 BEGIN BOND
M  V30 1 2 1 2
M  V30 2 2 1 3
M  V30 3 1 1 4
M  V30 4 1 1 5
M  V30 5 2 4 6
M  V30 6 2 5 7
M  V30 7 1 5 8
M  V30 8 1 6 9
M  V30 9 1 6 10
M  V30 10 1 7 11
M  V30 11 2 8 12
M  V30 12 1 10 13
M  V30 13 2 10 14
M  V30 14 2 11 15
M  V30 15 2 13 16
M  V30 16 1 13 17
M  V30 17 1 14 18
M  V30 18 1 14 19
M  V30 19 1 17 20
M  V30 20 1 17 21
M  V30 21 1 19 22
M  V30 22 1 20 23
M  V30 23 1 21 24
M  V30 24 2 22 25
M  V30 25 2 23 26
M  V30 26 1 24 27
M  V30 27 1 27 28
M  V30 28 3 28 29
M  V30 29 1 7 9
M  V30 30 1 12 15
M  V30 31 2 19 20
M  V30 32 1 25 26
M  V30 END BOND
M  V30 END CTAB
M  END
>  <MolRegNo>
338630

>  <m>
=

>  <Value>
172

>  <Unit>
nM

>  <Type>
IC50

>  <pValue>
6.76

>  <Ligand Efficiency>
0.32

>  <Binding Efficiency>
16.56

>  <Surface Efficiency>
5.43

>  <Assay Index>
256538

>  <Assay Category>


>  <Assay Organism>
Hepatitis C virus subtype 1b

>  <Target ID>
12097

>  <Target Name>
Hepatitis C virus NS5B RNA-dependent RNA polymerase

>  <Target Organism>
Hepatitis C virus

>  <Target Description>
Target is a single protein chain

>  <Sequence Accession>
Q8JXU8

>  <Reference>
J. Med. Chem. 49 (3), 971-983 (2006)

>  <Pubmed ID>
16451063

>  <DOI>
10.1021/jm050855s

$$$$
338623
Actelion Java MolfileCreator 2.0

  0  0  0  0  0  0              0 V3000
M  V30 BEGIN CTAB
M  V30 COUNTS 29 32 0 0 0
M  V30 BEGIN ATOM
M  V30 1 Br 0.0 0.0 0.0 0
M  V30 2 C 1.2835 0.7606 0.0 0
M  V30 3 C 1.2716 2.2699 0.0 0
M  V30 4 C 2.567 0.0237 0.0 0
M  V30 5 C -0.0356 3.0305 0.0 0
M  V30 6 N -0.0475 4.5398 0.0 0
M  V30 7 C 1.2359 5.3004 0.0 0
M  V30 8 C -1.3548 5.3004 0.0 0
M  V30 9 O 2.5313 4.5636 0.0 0
M  V30 10 C 1.2122 6.8217 0.0 0
M  V30 11 C -1.3667 6.8217 0.0 0
M  V30 12 C -2.6621 4.5517 0.0 0
M  V30 13 C 2.4957 7.5941 0.0 0
M  V30 14 C -0.1069 7.5704 0.0 0
M  V30 15 C -2.674 7.5823 0.0 0
M  V30 16 C -3.9694 5.3123 0.0 0
M  V30 17 N 2.4719 9.0916 0.0 0
M  V30 18 N 3.7792 6.8573 0.0 0
M  V30 19 O -0.1307 9.0797 0.0 0
M  V30 20 C -3.9813 6.8454 0.0 0
M  V30 21 S 3.7436 9.8641 0.0 0
M  V30 22 C 5.0627 7.6298 0.0 0
M  V30 23 O 2.4244 10.6247 0.0 0
M  V30 24 O 5.0271 10.6366 0.0 0
M  V30 25 C 5.039 9.1391 0.0 0
M  V30 26 C 6.3463 6.9048 0.0 0
M  V30 27 C 6.3106 9.8997 0.0 0
M  V30 28 C 7.6298 7.6773 0.0 0
M  V30 29 C 7.5941 9.1748 0.0 0
M  V30 END ATOM
M  V30 BEGIN BOND
M  V30 1 1 1 2
M  V30 2 1 2 3
M  V30 3 1 2 4
M  V30 4 1 3 5
M  V30 5 1 5 6
M  V30 6 1 6 7
M  V30 7 1 6 8
M  V30 8 2 7 9
M  V30 9 1 7 10
M  V30 10 2 8 11
M  V30 11 1 8 12
M  V30 12 1 10 13
M  V30 13 2 10 14
M  V30 14 1 11 15
M  V30 15 2 12 16
M  V30 16 2 13 17
M  V30 17 1 13 18
M  V30 18 1 14 19
M  V30 19 2 15 20
M  V30 20 1 17 21
M  V30 21 1 18 22
M  V30 22 2 21 23
M  V30 23 2 21 24
M  V30 24 1 21 25
M  V30 25 1 22 26
M  V30 26 1 25 27
M  V30 27 2 26 28
M  V30 28 2 27 29
M  V30 29 1 11 14
M  V30 30 1 16 20
M  V30 31 2 22 25
M  V30 32 1 28 29
M  V30 END BOND
M  V30 END CTAB
M  END
>  <MolRegNo>
338623

>  <m>
=

>  <Value>
290

>  <Unit>
nM

>  <Type>
IC50

>  <pValue>
6.54

>  <Ligand Efficiency>
0.31

>  <Binding Efficiency>
13.72

>  <Surface Efficiency>
6.49

>  <Assay Index>
256538

>  <Assay Category>


>  <Assay Organism>
Hepatitis C virus subtype 1b

>  <Target ID>
12097

>  <Target Name>
Hepatitis C virus NS5B RNA-dependent RNA polymerase

>  <Target Organism>
Hepatitis C virus

>  <Target Description>
Target is a single protein chain

>  <Sequence Accession>
Q8JXU8

>  <Reference>
J. Med. Chem. 49 (3), 971-983 (2006)

>  <Pubmed ID>
16451063

>  <DOI>
10.1021/jm050855s

$$$$
338535
Actelion Java MolfileCreator 2.0

  0  0  0  0  0  0              0 V3000
M  V30 BEGIN CTAB
M  V30 COUNTS 32 35 0 0 0
M  V30 BEGIN ATOM
M  V30 1 S 0.0 0.0 0.0 0
M  V30 2 O -1.3238 0.7633 0.0 0
M  V30 3 O 1.2881 0.7752 0.0 0
M  V30 4 N -1.3 -0.7513 0.0 0
M  V30 5 C 1.3 -0.7275 0.0 0
M  V30 6 C -1.3 -2.2303 0.0 0
M  V30 7 C 1.3 -2.2184 0.0 0
M  V30 8 C 2.5762 0.0357 0.0 0
M  V30 9 N -0.0119 -2.9698 0.0 0
M  V30 10 C -2.6119 -2.9817 0.0 0
M  V30 11 C 2.5881 -2.9459 0.0 0
M  V30 12 C 3.8643 -0.6917 0.0 0
M  V30 13 C -2.6119 -4.4845 0.0 0
M  V30 14 C -3.9358 -2.2303 0.0 0
M  V30 15 C 3.8762 -2.1706 0.0 0
M  V30 16 O -1.3119 -5.2239 0.0 0
M  V30 17 N -3.9239 -5.2239 0.0 0
M  V30 18 O -3.9597 -0.7156 0.0 0
M  V30 19 C -5.2478 -2.9698 0.0 0
M  V30 20 C -5.2359 -4.4606 0.0 0
M  V30 21 C -3.9358 -6.7148 0.0 0
M  V30 22 C -6.5598 -2.2064 0.0 0
M  V30 23 C -6.5478 -5.212 0.0 0
M  V30 24 C -2.6477 -7.4543 0.0 0
M  V30 25 C -7.8717 -2.9459 0.0 0
M  V30 26 C -7.8598 -4.4487 0.0 0
M  V30 27 C -2.6597 -8.9451 0.0 0
M  V30 28 C -1.3715 -9.6846 0.0 0
M  V30 29 C -3.9716 -9.6846 0.0 0
M  V30 30 F -0.0834 -10.4241 0.0 0
M  V30 31 F -0.6321 -8.3726 0.0 0
M  V30 32 F -2.1349 -10.9846 0.0 0
M  V30 END ATOM
M  V30 BEGIN BOND
M  V30 1 2 1 2
M  V30 2 2 1 3
M  V30 3 1 1 4
M  V30 4 1 1 5
M  V30 5 2 4 6
M  V30 6 2 5 7
M  V30 7 1 5 8
M  V30 8 1 6 9
M  V30 9 1 6 10
M  V30 10 1 7 11
M  V30 11 2 8 12
M  V30 12 1 10 13
M  V30 13 2 10 14
M  V30 14 2 11 15
M  V30 15 2 13 16
M  V30 16 1 13 17
M  V30 17 1 14 18
M  V30 18 1 14 19
M  V30 19 1 17 20
M  V30 20 1 17 21
M  V30 21 1 19 22
M  V30 22 1 20 23
M  V30 23 1 21 24
M  V30 24 2 22 25
M  V30 25 2 23 26
M  V30 26 1 24 27
M  V30 27 1 27 28
M  V30 28 1 27 29
M  V30 29 1 28 30
M  V30 30 1 28 31
M  V30 31 1 28 32
M  V30 32 1 7 9
M  V30 33 1 12 15
M  V30 34 2 19 20
M  V30 35 1 25 26
M  V30 END BOND
M  V30 END CTAB
M  END
>  <MolRegNo>
338535

>  <m>
=

>  <Value>
44

>  <Unit>
nM

>  <Type>
IC50

>  <pValue>
7.36

>  <Ligand Efficiency>
0.31

>  <Binding Efficiency>
15.81

>  <Surface Efficiency>
7.3

>  <Assay Index>
256538

>  <Assay Category>


>  <Assay Organism>
Hepatitis C virus subtype 1b

>  <Target ID>
12097

>  <Target Name>
Hepatitis C virus NS5B RNA-dependent RNA polymerase

>  <Target Organism>
Hepatitis C virus

>  <Target Description>
Target is a single protein chain

>  <Sequence Accession>
Q8JXU8

>  <Reference>
J. Med. Chem. 49 (3), 971-983 (2006)

>  <Pubmed ID>
16451063

>  <DOI>
10.1021/jm050855s

$$$$
338534
Actelion Java MolfileCreator 2.0

  0  0  0  0  0  0              0 V3000
M  V30 BEGIN CTAB
M  V30 COUNTS 31 34 0 0 0
M  V30 BEGIN ATOM
M  V30 1 S 0.0 0.0 0.0 0
M  V30 2 O -1.3238 0.7633 0.0 0
M  V30 3 O 1.288 0.7752 0.0 0
M  V30 4 N -1.3 -0.7513 0.0 0
M  V30 5 C 1.3 -0.7275 0.0 0
M  V30 6 C -1.3 -2.2303 0.0 0
M  V30 7 C 1.3 -2.2183 0.0 0
M  V30 8 C 2.5761 0.0357 0.0 0
M  V30 9 N -0.0119 -2.9697 0.0 0
M  V30 10 C -2.6119 -2.9817 0.0 0
M  V30 11 C 2.5881 -2.9459 0.0 0
M  V30 12 C 3.8642 -0.6917 0.0 0
M  V30 13 C -2.6119 -4.4844 0.0 0
M  V30 14 C -3.9358 -2.2303 0.0 0
M  V30 15 C 3.8762 -2.1706 0.0 0
M  V30 16 O -1.3119 -5.2239 0.0 0
M  V30 17 N -3.9239 -5.2239 0.0 0
M  V30 18 O -3.9597 -0.7156 0.0 0
M  V30 19 C -5.2478 -2.9697 0.0 0
M  V30 20 C -5.2358 -4.4606 0.0 0
M  V30 21 C -3.9358 -6.7148 0.0 0
M  V30 22 C -6.5597 -2.2064 0.0 0
M  V30 23 C -6.5478 -5.212 0.0 0
M  V30 24 C -2.6477 -7.4542 0.0 0
M  V30 25 C -7.8717 -2.9459 0.0 0
M  V30 26 C -7.8597 -4.4487 0.0 0
M  V30 27 C -1.3596 -6.6909 0.0 0
M  V30 28 C -0.0715 -7.4304 0.0 0
M  V30 29 F 1.2165 -8.1698 0.0 0
M  V30 30 F 0.6679 -6.1184 0.0 0
M  V30 31 F -0.8348 -8.7304 0.0 0
M  V30 END ATOM
M  V30 BEGIN BOND
M  V30 1 2 1 2
M  V30 2 2 1 3
M  V30 3 1 1 4
M  V30 4 1 1 5
M  V30 5 2 4 6
M  V30 6 2 5 7
M  V30 7 1 5 8
M  V30 8 1 6 9
M  V30 9 1 6 10
M  V30 10 1 7 11
M  V30 11 2 8 12
M  V30 12 1 10 13
M  V30 13 2 10 14
M  V30 14 2 11 15
M  V30 15 2 13 16
M  V30 16 1 13 17
M  V30 17 1 14 18
M  V30 18 1 14 19
M  V30 19 1 17 20
M  V30 20 1 17 21
M  V30 21 1 19 22
M  V30 22 1 20 23
M  V30 23 1 21 24
M  V30 24 2 22 25
M  V30 25 2 23 26
M  V30 26 1 24 27
M  V30 27 1 27 28
M  V30 28 1 28 29
M  V30 29 1 28 30
M  V30 30 1 28 31
M  V30 31 1 7 9
M  V30 32 1 12 15
M  V30 33 2 19 20
M  V30 34 1 25 26
M  V30 END BOND
M  V30 END CTAB
M  END
>  <MolRegNo>
338534

>  <m>
=

>  <Value>
106

>  <Unit>
nM

>  <Type>
IC50

>  <pValue>
6.97

>  <Ligand Efficiency>
0.31

>  <Binding Efficiency>
15.45

>  <Surface Efficiency>
6.92

>  <Assay Index>
256538

>  <Assay Category>


>  <Assay Organism>
Hepatitis C virus subtype 1b

>  <Target ID>
12097

>  <Target Name>
Hepatitis C virus NS5B RNA-dependent RNA polymerase

>  <Target Organism>
Hepatitis C virus

>  <Target Description>
Target is a single protein chain

>  <Sequence Accession>
Q8JXU8

>  <Reference>
J. Med. Chem. 49 (3), 971-983 (2006)

>  <Pubmed ID>
16451063

>  <DOI>
10.1021/jm050855s

$$$$
338624
Actelion Java MolfileCreator 2.0

  0  0  0  0  0  0              0 V3000
M  V30 BEGIN CTAB
M  V30 COUNTS 31 35 0 0 0
M  V30 BEGIN ATOM
M  V30 1 S 0.0 0.0 0.0 0
M  V30 2 O -1.3239 0.7633 0.0 0
M  V30 3 O 1.2881 0.7752 0.0 0
M  V30 4 N -1.3 -0.7514 0.0 0
M  V30 5 C 1.3 -0.7275 0.0 0
M  V30 6 C -1.3 -2.2303 0.0 0
M  V30 7 C 1.3 -2.2184 0.0 0
M  V30 8 C 2.5762 0.0357 0.0 0
M  V30 9 N -0.0119 -2.9698 0.0 0
M  V30 10 C -2.612 -2.9818 0.0 0
M  V30 11 C 2.5882 -2.946 0.0 0
M  V30 12 C 3.8644 -0.6917 0.0 0
M  V30 13 C -2.612 -4.4846 0.0 0
M  V30 14 C -3.9359 -2.2303 0.0 0
M  V30 15 C 3.8763 -2.1707 0.0 0
M  V30 16 O -1.3119 -5.2241 0.0 0
M  V30 17 N -3.924 -5.2241 0.0 0
M  V30 18 O -3.9598 -0.7156 0.0 0
M  V30 19 C -5.2479 -2.9698 0.0 0
M  V30 20 C -5.236 -4.4607 0.0 0
M  V30 21 C -3.9359 -6.715 0.0 0
M  V30 22 C -6.5599 -2.2065 0.0 0
M  V30 23 C -6.548 -5.2122 0.0 0
M  V30 24 C -2.6478 -7.4545 0.0 0
M  V30 25 C -7.8719 -2.946 0.0 0
M  V30 26 C -7.86 -4.4488 0.0 0
M  V30 27 C -2.6478 -8.9454 0.0 0
M  V30 28 C -1.3597 -6.6792 0.0 0
M  V30 29 C -1.3597 -9.6849 0.0 0
M  V30 30 C -0.0596 -7.4306 0.0 0
M  V30 31 C -0.0596 -8.9215 0.0 0
M  V30 END ATOM
M  V30 BEGIN BOND
M  V30 1 2 1 2
M  V30 2 2 1 3
M  V30 3 1 1 4
M  V30 4 1 1 5
M  V30 5 2 4 6
M  V30 6 2 5 7
M  V30 7 1 5 8
M  V30 8 1 6 9
M  V30 9 1 6 10
M  V30 10 1 7 11
M  V30 11 2 8 12
M  V30 12 1 10 13
M  V30 13 2 10 14
M  V30 14 2 11 15
M  V30 15 2 13 16
M  V30 16 1 13 17
M  V30 17 1 14 18
M  V30 18 1 14 19
M  V30 19 1 17 20
M  V30 20 1 17 21
M  V30 21 1 19 22
M  V30 22 1 20 23
M  V30 23 1 21 24
M  V30 24 2 22 25
M  V30 25 2 23 26
M  V30 26 1 24 27
M  V30 27 1 24 28
M  V30 28 1 27 29
M  V30 29 1 28 30
M  V30 30 1 29 31
M  V30 31 1 7 9
M  V30 32 1 12 15
M  V30 33 2 19 20
M  V30 34 1 25 26
M  V30 35 1 30 31
M  V30 END BOND
M  V30 END CTAB
M  END
>  <MolRegNo>
338624

>  <m>
=

>  <Value>
367

>  <Unit>
nM

>  <Type>
IC50

>  <pValue>
6.43

>  <Ligand Efficiency>
0.28

>  <Binding Efficiency>
14.71

>  <Surface Efficiency>
6.39

>  <Assay Index>
256538

>  <Assay Category>


>  <Assay Organism>
Hepatitis C virus subtype 1b

>  <Target ID>
12097

>  <Target Name>
Hepatitis C virus NS5B RNA-dependent RNA polymerase

>  <Target Organism>
Hepatitis C virus

>  <Target Description>
Target is a single protein chain

>  <Sequence Accession>
Q8JXU8

>  <Reference>
J. Med. Chem. 49 (3), 971-983 (2006)

>  <Pubmed ID>
16451063

>  <DOI>
10.1021/jm050855s

$$$$
338265
Actelion Java MolfileCreator 2.0

  0  0  0  0  0  0              0 V3000
M  V30 BEGIN CTAB
M  V30 COUNTS 30 34 0 0 0
M  V30 BEGIN ATOM
M  V30 1 S 0.0 0.0 0.0 0
M  V30 2 O -1.3236 0.7631 0.0 0
M  V30 3 O 1.2878 0.7751 0.0 0
M  V30 4 N -1.2997 -0.7512 0.0 0
M  V30 5 C 1.2997 -0.7274 0.0 0
M  V30 6 C -1.2997 -2.2299 0.0 0
M  V30 7 C 1.2997 -2.2179 0.0 0
M  V30 8 C 2.5757 0.0357 0.0 0
M  V30 9 N -0.0119 -2.9692 0.0 0
M  V30 10 C -2.6115 -2.9811 0.0 0
M  V30 11 C 2.5876 -2.9453 0.0 0
M  V30 12 C 3.8635 -0.6916 0.0 0
M  V30 13 C -2.6115 -4.4836 0.0 0
M  V30 14 C -3.9351 -2.2299 0.0 0
M  V30 15 C 3.8755 -2.1702 0.0 0
M  V30 16 O -1.3117 -5.223 0.0 0
M  V30 17 N -3.9232 -5.223 0.0 0
M  V30 18 O -3.9589 -0.7154 0.0 0
M  V30 19 C -5.2468 -2.9692 0.0 0
M  V30 20 C -5.2349 -4.4598 0.0 0
M  V30 21 C -3.9351 -6.7136 0.0 0
M  V30 22 C -6.5585 -2.206 0.0 0
M  V30 23 C -6.5466 -5.211 0.0 0
M  V30 24 C -2.6472 -7.4529 0.0 0
M  V30 25 C -7.8702 -2.9453 0.0 0
M  V30 26 C -7.8583 -4.4479 0.0 0
M  V30 27 C -2.4922 -8.9315 0.0 0
M  V30 28 C -1.2759 -6.8209 0.0 0
M  V30 29 C -1.0255 -9.2297 0.0 0
M  V30 30 C -0.2742 -7.9299 0.0 0
M  V30 END ATOM
M  V30 BEGIN BOND
M  V30 1 2 1 2
M  V30 2 2 1 3
M  V30 3 1 1 4
M  V30 4 1 1 5
M  V30 5 2 4 6
M  V30 6 2 5 7
M  V30 7 1 5 8
M  V30 8 1 6 9
M  V30 9 1 6 10
M  V30 10 1 7 11
M  V30 11 2 8 12
M  V30 12 1 10 13
M  V30 13 2 10 14
M  V30 14 2 11 15
M  V30 15 2 13 16
M  V30 16 1 13 17
M  V30 17 1 14 18
M  V30 18 1 14 19
M  V30 19 1 17 20
M  V30 20 1 17 21
M  V30 21 1 19 22
M  V30 22 1 20 23
M  V30 23 1 21 24
M  V30 24 2 22 25
M  V30 25 2 23 26
M  V30 26 1 24 27
M  V30 27 1 24 28
M  V30 28 1 27 29
M  V30 29 1 28 30
M  V30 30 1 7 9
M  V30 31 1 12 15
M  V30 32 2 19 20
M  V30 33 1 25 26
M  V30 34 1 29 30
M  V30 END BOND
M  V30 END CTAB
M  END
>  <MolRegNo>
338265

>  <m>
=

>  <Value>
132

>  <Unit>
nM

>  <Type>
IC50

>  <pValue>
6.88

>  <Ligand Efficiency>
0.31

>  <Binding Efficiency>
16.24

>  <Surface Efficiency>
6.83

>  <Assay Index>
256538

>  <Assay Category>


>  <Assay Organism>
Hepatitis C virus subtype 1b

>  <Target ID>
12097

>  <Target Name>
Hepatitis C virus NS5B RNA-dependent RNA polymerase

>  <Target Organism>
Hepatitis C virus

>  <Target Description>
Target is a single protein chain

>  <Sequence Accession>
Q8JXU8

>  <Reference>
J. Med. Chem. 49 (3), 971-983 (2006)

>  <Pubmed ID>
16451063

>  <DOI>
10.1021/jm050855s

$$$$
338264
Actelion Java MolfileCreator 2.0

  0  0  0  0  0  0              0 V3000
M  V30 BEGIN CTAB
M  V30 COUNTS 29 33 0 0 0
M  V30 BEGIN ATOM
M  V30 1 S 0.0 0.0 0.0 0
M  V30 2 O -1.3244 0.7636 0.0 0
M  V30 3 O 1.2886 0.7755 0.0 0
M  V30 4 N -1.3005 -0.7517 0.0 0
M  V30 5 C 1.3005 -0.7278 0.0 0
M  V30 6 C -1.3005 -2.2312 0.0 0
M  V30 7 C 1.3005 -2.2193 0.0 0
M  V30 8 C 2.5772 0.0357 0.0 0
M  V30 9 N -0.0119 -2.971 0.0 0
M  V30 10 C -2.613 -2.9829 0.0 0
M  V30 11 C 2.5892 -2.9471 0.0 0
M  V30 12 C 3.8659 -0.692 0.0 0
M  V30 13 C -2.613 -4.4863 0.0 0
M  V30 14 C -3.9375 -2.2312 0.0 0
M  V30 15 C 3.8778 -2.1715 0.0 0
M  V30 16 O -1.3125 -5.2261 0.0 0
M  V30 17 N -3.9255 -5.2261 0.0 0
M  V30 18 O -3.9613 -0.7159 0.0 0
M  V30 19 C -5.25 -2.971 0.0 0
M  V30 20 C -5.238 -4.4625 0.0 0
M  V30 21 C -3.9375 -6.7176 0.0 0
M  V30 22 C -6.5625 -2.2073 0.0 0
M  V30 23 C -6.5505 -5.2142 0.0 0
M  V30 24 C -2.6488 -7.4574 0.0 0
M  V30 25 C -7.875 -2.9471 0.0 0
M  V30 26 C -7.863 -4.4505 0.0 0
M  V30 27 C -2.267 -8.8892 0.0 0
M  V30 28 C -1.2051 -7.0517 0.0 0
M  V30 29 C -0.8232 -8.4835 0.0 0
M  V30 END ATOM
M  V30 BEGIN BOND
M  V30 1 2 1 2
M  V30 2 2 1 3
M  V30 3 1 1 4
M  V30 4 1 1 5
M  V30 5 2 4 6
M  V30 6 2 5 7
M  V30 7 1 5 8
M  V30 8 1 6 9
M  V30 9 1 6 10
M  V30 10 1 7 11
M  V30 11 2 8 12
M  V30 12 1 10 13
M  V30 13 2 10 14
M  V30 14 2 11 15
M  V30 15 2 13 16
M  V30 16 1 13 17
M  V30 17 1 14 18
M  V30 18 1 14 19
M  V30 19 1 17 20
M  V30 20 1 17 21
M  V30 21 1 19 22
M  V30 22 1 20 23
M  V30 23 1 21 24
M  V30 24 2 22 25
M  V30 25 2 23 26
M  V30 26 1 24 27
M  V30 27 1 24 28
M  V30 28 1 27 29
M  V30 29 1 7 9
M  V30 30 1 12 15
M  V30 31 2 19 20
M  V30 32 1 25 26
M  V30 33 1 28 29
M  V30 END BOND
M  V30 END CTAB
M  END
>  <MolRegNo>
338264

>  <m>
=

>  <Value>
49

>  <Unit>
nM

>  <Type>
IC50

>  <pValue>
7.31

>  <Ligand Efficiency>
0.34

>  <Binding Efficiency>
17.85

>  <Surface Efficiency>
7.25

>  <Assay Index>
256538

>  <Assay Category>


>  <Assay Organism>
Hepatitis C virus subtype 1b

>  <Target ID>
12097

>  <Target Name>
Hepatitis C virus NS5B RNA-dependent RNA polymerase

>  <Target Organism>
Hepatitis C virus

>  <Target Description>
Target is a single protein chain

>  <Sequence Accession>
Q8JXU8

>  <Reference>
J. Med. Chem. 49 (3), 971-983 (2006)

>  <Pubmed ID>
16451063

>  <DOI>
10.1021/jm050855s

$$$$
338298
Actelion Java MolfileCreator 2.0

  0  0  0  0  0  0              0 V3000
M  V30 BEGIN CTAB
M  V30 COUNTS 29 33 0 0 0
M  V30 BEGIN ATOM
M  V30 1 S 0.0 0.0 0.0 0
M  V30 2 O -1.3227 0.7626 0.0 0
M  V30 3 O 1.2869 0.7745 0.0 0
M  V30 4 N -1.2988 -0.7507 0.0 0
M  V30 5 C 1.2988 -0.7269 0.0 0
M  V30 6 C -1.2988 -2.2283 0.0 0
M  V30 7 C 1.2988 -2.2164 0.0 0
M  V30 8 C 2.5739 0.0357 0.0 0
M  V30 9 N -0.0119 -2.9672 0.0 0
M  V30 10 C -2.6097 -2.9791 0.0 0
M  V30 11 C 2.5858 -2.9433 0.0 0
M  V30 12 C 3.8609 -0.6911 0.0 0
M  V30 13 C -2.6097 -4.4806 0.0 0
M  V30 14 C -3.9324 -2.2283 0.0 0
M  V30 15 C 3.8728 -2.1688 0.0 0
M  V30 16 O -1.3108 -5.2194 0.0 0
M  V30 17 N -3.9205 -5.2194 0.0 0
M  V30 18 O -3.9562 -0.7149 0.0 0
M  V30 19 C -5.2432 -2.9672 0.0 0
M  V30 20 C -5.2313 -4.4567 0.0 0
M  V30 21 C -3.9324 -6.7089 0.0 0
M  V30 22 C -6.554 -2.2045 0.0 0
M  V30 23 C -6.5421 -5.2075 0.0 0
M  V30 24 C -2.6454 -7.4478 0.0 0
M  V30 25 C -7.8648 -2.9433 0.0 0
M  V30 26 C -7.8529 -4.4448 0.0 0
M  V30 27 C -1.3584 -6.6851 0.0 0
M  V30 28 C 0.1429 -6.6613 0.0 0
M  V30 29 C -0.6196 -5.3624 0.0 0
M  V30 END ATOM
M  V30 BEGIN BOND
M  V30 1 2 1 2
M  V30 2 2 1 3
M  V30 3 1 1 4
M  V30 4 1 1 5
M  V30 5 2 4 6
M  V30 6 2 5 7
M  V30 7 1 5 8
M  V30 8 1 6 9
M  V30 9 1 6 10
M  V30 10 1 7 11
M  V30 11 2 8 12
M  V30 12 1 10 13
M  V30 13 2 10 14
M  V30 14 2 11 15
M  V30 15 2 13 16
M  V30 16 1 13 17
M  V30 17 1 14 18
M  V30 18 1 14 19
M  V30 19 1 17 20
M  V30 20 1 17 21
M  V30 21 1 19 22
M  V30 22 1 20 23
M  V30 23 1 21 24
M  V30 24 2 22 25
M  V30 25 2 23 26
M  V30 26 1 24 27
M  V30 27 1 27 28
M  V30 28 1 27 29
M  V30 29 1 7 9
M  V30 30 1 12 15
M  V30 31 2 19 20
M  V30 32 1 25 26
M  V30 33 1 28 29
M  V30 END BOND
M  V30 END CTAB
M  END
>  <MolRegNo>
338298

>  <m>
=

>  <Value>
13

>  <Unit>
nM

>  <Type>
IC50

>  <pValue>
7.89

>  <Ligand Efficiency>
0.37

>  <Binding Efficiency>
19.26

>  <Surface Efficiency>
7.83

>  <Assay Index>
256538

>  <Assay Category>


>  <Assay Organism>
Hepatitis C virus subtype 1b

>  <Target ID>
12097

>  <Target Name>
Hepatitis C virus NS5B RNA-dependent RNA polymerase

>  <Target Organism>
Hepatitis C virus

>  <Target Description>
Target is a single protein chain

>  <Sequence Accession>
Q8JXU8

>  <Reference>
J. Med. Chem. 49 (3), 971-983 (2006)

>  <Pubmed ID>
16451063

>  <DOI>
10.1021/jm050855s

$$$$
338290
Actelion Java MolfileCreator 2.0

  0  0  0  0  0  0              0 V3000
M  V30 BEGIN CTAB
M  V30 COUNTS 29 33 0 0 0
M  V30 BEGIN ATOM
M  V30 1 S 0.0 0.0 0.0 0
M  V30 2 O -1.3231 0.7628 0.0 0
M  V30 3 O 1.2873 0.7748 0.0 0
M  V30 4 N -1.2992 -0.7509 0.0 0
M  V30 5 C 1.2992 -0.7271 0.0 0
M  V30 6 C -1.2992 -2.229 0.0 0
M  V30 7 C 1.2992 -2.2171 0.0 0
M  V30 8 C 2.5747 0.0357 0.0 0
M  V30 9 N -0.0119 -2.968 0.0 0
M  V30 10 C -2.6104 -2.98 0.0 0
M  V30 11 C 2.5866 -2.9442 0.0 0
M  V30 12 C 3.862 -0.6913 0.0 0
M  V30 13 C -2.6104 -4.4819 0.0 0
M  V30 14 C -3.9336 -2.229 0.0 0
M  V30 15 C 3.874 -2.1694 0.0 0
M  V30 16 O -1.3112 -5.2209 0.0 0
M  V30 17 N -3.9216 -5.2209 0.0 0
M  V30 18 O -3.9574 -0.7152 0.0 0
M  V30 19 C -5.2448 -2.968 0.0 0
M  V30 20 C -5.2329 -4.458 0.0 0
M  V30 21 C -3.9336 -6.7109 0.0 0
M  V30 22 C -6.556 -2.2052 0.0 0
M  V30 23 C -6.5441 -5.209 0.0 0
M  V30 24 C -2.6462 -7.45 0.0 0
M  V30 25 C -7.8672 -2.9442 0.0 0
M  V30 26 C -7.8553 -4.4461 0.0 0
M  V30 27 C -1.1443 -7.4261 0.0 0
M  V30 28 C -1.8952 -8.7373 0.0 0
M  V30 29 C 0.143 -6.6513 0.0 0
M  V30 END ATOM
M  V30 BEGIN BOND
M  V30 1 2 1 2
M  V30 2 2 1 3
M  V30 3 1 1 4
M  V30 4 1 1 5
M  V30 5 2 4 6
M  V30 6 2 5 7
M  V30 7 1 5 8
M  V30 8 1 6 9
M  V30 9 1 6 10
M  V30 10 1 7 11
M  V30 11 2 8 12
M  V30 12 1 10 13
M  V30 13 2 10 14
M  V30 14 2 11 15
M  V30 15 2 13 16
M  V30 16 1 13 17
M  V30 17 1 14 18
M  V30 18 1 14 19
M  V30 19 1 17 20
M  V30 20 1 17 21
M  V30 21 1 19 22
M  V30 22 1 20 23
M  V30 23 1 21 24
M  V30 24 2 22 25
M  V30 25 2 23 26
M  V30 26 1 24 27
M  V30 27 1 24 28
M  V30 28 1 27 29
M  V30 29 1 7 9
M  V30 30 1 12 15
M  V30 31 2 19 20
M  V30 32 1 25 26
M  V30 33 1 27 28
M  V30 END BOND
M  V30 END CTAB
M  END
>  <MolRegNo>
338290

>  <m>
=

>  <Value>
41

>  <Unit>
nM

>  <Type>
IC50

>  <pValue>
7.39

>  <Ligand Efficiency>
0.35

>  <Binding Efficiency>
18.04

>  <Surface Efficiency>
7.33

>  <Assay Index>
256538

>  <Assay Category>


>  <Assay Organism>
Hepatitis C virus subtype 1b

>  <Target ID>
12097

>  <Target Name>
Hepatitis C virus NS5B RNA-dependent RNA polymerase

>  <Target Organism>
Hepatitis C virus

>  <Target Description>
Target is a single protein chain

>  <Sequence Accession>
Q8JXU8

>  <Reference>
J. Med. Chem. 49 (3), 971-983 (2006)

>  <Pubmed ID>
16451063

>  <DOI>
10.1021/jm050855s

$$$$
338289
Actelion Java MolfileCreator 2.0

  0  0  0  0  0  0              0 V3000
M  V30 BEGIN CTAB
M  V30 COUNTS 28 32 0 0 0
M  V30 BEGIN ATOM
M  V30 1 S 0.0 0.0 0.0 0
M  V30 2 O -1.3231 0.7629 0.0 0
M  V30 3 O 1.2874 0.7748 0.0 0
M  V30 4 N -1.2993 -0.751 0.0 0
M  V30 5 C 1.2993 -0.7271 0.0 0
M  V30 6 C -1.2993 -2.2291 0.0 0
M  V30 7 C 1.2993 -2.2172 0.0 0
M  V30 8 C 2.5748 0.0357 0.0 0
M  V30 9 N -0.0119 -2.9682 0.0 0
M  V30 10 C -2.6106 -2.9801 0.0 0
M  V30 11 C 2.5867 -2.9444 0.0 0
M  V30 12 C 3.8623 -0.6913 0.0 0
M  V30 13 C -2.6106 -4.4821 0.0 0
M  V30 14 C -3.9338 -2.2291 0.0 0
M  V30 15 C 3.8742 -2.1695 0.0 0
M  V30 16 O -1.3112 -5.2212 0.0 0
M  V30 17 N -3.9219 -5.2212 0.0 0
M  V30 18 O -3.9576 -0.7152 0.0 0
M  V30 19 C -5.245 -2.9682 0.0 0
M  V30 20 C -5.2331 -4.4583 0.0 0
M  V30 21 C -3.9338 -6.7113 0.0 0
M  V30 22 C -6.5563 -2.2053 0.0 0
M  V30 23 C -6.5444 -5.2093 0.0 0
M  V30 24 C -2.6463 -7.4504 0.0 0
M  V30 25 C -7.8676 -2.9444 0.0 0
M  V30 26 C -7.8557 -4.4464 0.0 0
M  V30 27 C -1.8953 -8.7378 0.0 0
M  V30 28 C -1.1443 -7.4265 0.0 0
M  V30 END ATOM
M  V30 BEGIN BOND
M  V30 1 2 1 2
M  V30 2 2 1 3
M  V30 3 1 1 4
M  V30 4 1 1 5
M  V30 5 2 4 6
M  V30 6 2 5 7
M  V30 7 1 5 8
M  V30 8 1 6 9
M  V30 9 1 6 10
M  V30 10 1 7 11
M  V30 11 2 8 12
M  V30 12 1 10 13
M  V30 13 2 10 14
M  V30 14 2 11 15
M  V30 15 2 13 16
M  V30 16 1 13 17
M  V30 17 1 14 18
M  V30 18 1 14 19
M  V30 19 1 17 20
M  V30 20 1 17 21
M  V30 21 1 19 22
M  V30 22 1 20 23
M  V30 23 1 21 24
M  V30 24 2 22 25
M  V30 25 2 23 26
M  V30 26 1 24 27
M  V30 27 1 24 28
M  V30 28 1 7 9
M  V30 29 1 12 15
M  V30 30 2 19 20
M  V30 31 1 25 26
M  V30 32 1 27 28
M  V30 END BOND
M  V30 END CTAB
M  END
>  <MolRegNo>
338289

>  <m>
=

>  <Value>
78

>  <Unit>
nM

>  <Type>
IC50

>  <pValue>
7.11

>  <Ligand Efficiency>
0.35

>  <Binding Efficiency>
17.97

>  <Surface Efficiency>
7.05

>  <Assay Index>
256538

>  <Assay Category>


>  <Assay Organism>
Hepatitis C virus subtype 1b

>  <Target ID>
12097

>  <Target Name>
Hepatitis C virus NS5B RNA-dependent RNA polymerase

>  <Target Organism>
Hepatitis C virus

>  <Target Description>
Target is a single protein chain

>  <Sequence Accession>
Q8JXU8

>  <Reference>
J. Med. Chem. 49 (3), 971-983 (2006)

>  <Pubmed ID>
16451063

>  <DOI>
10.1021/jm050855s

$$$$
338305
Actelion Java MolfileCreator 2.0

  0  0  0  0  0  0              0 V3000
M  V30 BEGIN CTAB
M  V30 COUNTS 29 32 0 0 0
M  V30 BEGIN ATOM
M  V30 1 S 0.0 0.0 0.0 0
M  V30 2 O -1.3242 0.7635 0.0 0
M  V30 3 O 1.2884 0.7754 0.0 0
M  V30 4 N -1.3003 -0.7516 0.0 0
M  V30 5 C 1.3003 -0.7277 0.0 0
M  V30 6 C -1.3003 -2.2309 0.0 0
M  V30 7 C 1.3003 -2.219 0.0 0
M  V30 8 C 2.5769 0.0357 0.0 0
M  V30 9 N -0.0119 -2.9706 0.0 0
M  V30 10 C -2.6127 -2.9825 0.0 0
M  V30 11 C 2.5888 -2.9467 0.0 0
M  V30 12 C 3.8653 -0.6919 0.0 0
M  V30 13 C -2.6127 -4.4857 0.0 0
M  V30 14 C -3.9369 -2.2309 0.0 0
M  V30 15 C 3.8773 -2.1712 0.0 0
M  V30 16 O -1.3123 -5.2254 0.0 0
M  V30 17 N -3.925 -5.2254 0.0 0
M  V30 18 O -3.9608 -0.7158 0.0 0
M  V30 19 C -5.2492 -2.9706 0.0 0
M  V30 20 C -5.2373 -4.4618 0.0 0
M  V30 21 C -3.9369 -6.7166 0.0 0
M  V30 22 C -6.5616 -2.207 0.0 0
M  V30 23 C -6.5496 -5.2134 0.0 0
M  V30 24 C -2.6485 -7.4563 0.0 0
M  V30 25 C -7.8739 -2.9467 0.0 0
M  V30 26 C -7.8619 -4.4499 0.0 0
M  V30 27 C -1.36 -6.6928 0.0 0
M  V30 28 C -0.0715 -7.4325 0.0 0
M  V30 29 C 1.2168 -8.1721 0.0 0
M  V30 END ATOM
M  V30 BEGIN BOND
M  V30 1 2 1 2
M  V30 2 2 1 3
M  V30 3 1 1 4
M  V30 4 1 1 5
M  V30 5 2 4 6
M  V30 6 2 5 7
M  V30 7 1 5 8
M  V30 8 1 6 9
M  V30 9 1 6 10
M  V30 10 1 7 11
M  V30 11 2 8 12
M  V30 12 1 10 13
M  V30 13 2 10 14
M  V30 14 2 11 15
M  V30 15 2 13 16
M  V30 16 1 13 17
M  V30 17 1 14 18
M  V30 18 1 14 19
M  V30 19 1 17 20
M  V30 20 1 17 21
M  V30 21 1 19 22
M  V30 22 1 20 23
M  V30 23 1 21 24
M  V30 24 2 22 25
M  V30 25 2 23 26
M  V30 26 1 24 27
M  V30 27 1 27 28
M  V30 28 3 28 29
M  V30 29 1 7 9
M  V30 30 1 12 15
M  V30 31 2 19 20
M  V30 32 1 25 26
M  V30 END BOND
M  V30 END CTAB
M  END
>  <MolRegNo>
338305

>  <m>
=

>  <Value>
179

>  <Unit>
nM

>  <Type>
IC50

>  <pValue>
6.75

>  <Ligand Efficiency>
0.32

>  <Binding Efficiency>
16.56

>  <Surface Efficiency>
6.7

>  <Assay Index>
256538

>  <Assay Category>


>  <Assay Organism>
Hepatitis C virus subtype 1b

>  <Target ID>
12097

>  <Target Name>
Hepatitis C virus NS5B RNA-dependent RNA polymerase

>  <Target Organism>
Hepatitis C virus

>  <Target Description>
Target is a single protein chain

>  <Sequence Accession>
Q8JXU8

>  <Reference>
J. Med. Chem. 49 (3), 971-983 (2006)

>  <Pubmed ID>
16451063

>  <DOI>
10.1021/jm050855s

$$$$
338297
Actelion Java MolfileCreator 2.0

  0  0  0  0  0  0              0 V3000
M  V30 BEGIN CTAB
M  V30 COUNTS 28 31 0 0 0
M  V30 BEGIN ATOM
M  V30 1 S 0.0 0.0 0.0 0
M  V30 2 O -1.3238 0.7633 0.0 0
M  V30 3 O 1.288 0.7752 0.0 0
M  V30 4 N -1.3 -0.7513 0.0 0
M  V30 5 C 1.3 -0.7275 0.0 0
M  V30 6 C -1.3 -2.2302 0.0 0
M  V30 7 C 1.3 -2.2183 0.0 0
M  V30 8 C 2.5761 0.0357 0.0 0
M  V30 9 N -0.0119 -2.9697 0.0 0
M  V30 10 C -2.6119 -2.9816 0.0 0
M  V30 11 C 2.588 -2.9458 0.0 0
M  V30 12 C 3.8642 -0.6917 0.0 0
M  V30 13 C -2.6119 -4.4844 0.0 0
M  V30 14 C -3.9358 -2.2302 0.0 0
M  V30 15 C 3.8761 -2.1706 0.0 0
M  V30 16 O -1.3119 -5.2238 0.0 0
M  V30 17 N -3.9238 -5.2238 0.0 0
M  V30 18 O -3.9596 -0.7156 0.0 0
M  V30 19 C -5.2477 -2.9697 0.0 0
M  V30 20 C -5.2358 -4.4605 0.0 0
M  V30 21 C -3.9358 -6.7147 0.0 0
M  V30 22 C -6.5596 -2.2064 0.0 0
M  V30 23 C -6.5477 -5.2119 0.0 0
M  V30 24 C -2.6477 -7.4541 0.0 0
M  V30 25 C -7.8716 -2.9458 0.0 0
M  V30 26 C -7.8596 -4.4486 0.0 0
M  V30 27 C -2.6596 -8.945 0.0 0
M  V30 28 C -2.6835 -10.4358 0.0 0
M  V30 END ATOM
M  V30 BEGIN BOND
M  V30 1 2 1 2
M  V30 2 2 1 3
M  V30 3 1 1 4
M  V30 4 1 1 5
M  V30 5 2 4 6
M  V30 6 2 5 7
M  V30 7 1 5 8
M  V30 8 1 6 9
M  V30 9 1 6 10
M  V30 10 1 7 11
M  V30 11 2 8 12
M  V30 12 1 10 13
M  V30 13 2 10 14
M  V30 14 2 11 15
M  V30 15 2 13 16
M  V30 16 1 13 17
M  V30 17 1 14 18
M  V30 18 1 14 19
M  V30 19 1 17 20
M  V30 20 1 17 21
M  V30 21 1 19 22
M  V30 22 1 20 23
M  V30 23 1 21 24
M  V30 24 2 22 25
M  V30 25 2 23 26
M  V30 26 1 24 27
M  V30 27 3 27 28
M  V30 28 1 7 9
M  V30 29 1 12 15
M  V30 30 2 19 20
M  V30 31 1 25 26
M  V30 END BOND
M  V30 END CTAB
M  END
>  <MolRegNo>
338297

>  <m>
=

>  <Value>
118

>  <Unit>
nM

>  <Type>
IC50

>  <pValue>
6.93

>  <Ligand Efficiency>
0.34

>  <Binding Efficiency>
17.61

>  <Surface Efficiency>
6.88

>  <Assay Index>
256538

>  <Assay Category>


>  <Assay Organism>
Hepatitis C virus subtype 1b

>  <Target ID>
12097

>  <Target Name>
Hepatitis C virus NS5B RNA-dependent RNA polymerase

>  <Target Organism>
Hepatitis C virus

>  <Target Description>
Target is a single protein chain

>  <Sequence Accession>
Q8JXU8

>  <Reference>
J. Med. Chem. 49 (3), 971-983 (2006)

>  <Pubmed ID>
16451063

>  <DOI>
10.1021/jm050855s

$$$$
338622
Actelion Java MolfileCreator 2.0

  0  0  0  0  0  0              0 V3000
M  V30 BEGIN CTAB
M  V30 COUNTS 28 31 0 0 0
M  V30 BEGIN ATOM
M  V30 1 S 0.0 0.0 0.0 0
M  V30 2 O -1.324 0.7634 0.0 0
M  V30 3 O 1.2882 0.7753 0.0 0
M  V30 4 N -1.3001 -0.7514 0.0 0
M  V30 5 C 1.3001 -0.7276 0.0 0
M  V30 6 C -1.3001 -2.2305 0.0 0
M  V30 7 C 1.3001 -2.2186 0.0 0
M  V30 8 C 2.5764 0.0357 0.0 0
M  V30 9 N -0.0119 -2.9701 0.0 0
M  V30 10 C -2.6122 -2.982 0.0 0
M  V30 11 C 2.5884 -2.9462 0.0 0
M  V30 12 C 3.8647 -0.6918 0.0 0
M  V30 13 C -2.6122 -4.4849 0.0 0
M  V30 14 C -3.9362 -2.2305 0.0 0
M  V30 15 C 3.8766 -2.1709 0.0 0
M  V30 16 O -1.312 -5.2245 0.0 0
M  V30 17 N -3.9243 -5.2245 0.0 0
M  V30 18 O -3.9601 -0.7156 0.0 0
M  V30 19 C -5.2483 -2.9701 0.0 0
M  V30 20 C -5.2364 -4.4611 0.0 0
M  V30 21 C -3.9362 -6.7155 0.0 0
M  V30 22 C -6.5604 -2.2067 0.0 0
M  V30 23 C -6.5485 -5.2126 0.0 0
M  V30 24 C -2.648 -7.455 0.0 0
M  V30 25 C -7.8725 -2.9462 0.0 0
M  V30 26 C -7.8606 -4.4492 0.0 0
M  V30 27 C -2.6599 -8.9461 0.0 0
M  V30 28 C -1.3717 -9.6856 0.0 0
M  V30 END ATOM
M  V30 BEGIN BOND
M  V30 1 2 1 2
M  V30 2 2 1 3
M  V30 3 1 1 4
M  V30 4 1 1 5
M  V30 5 2 4 6
M  V30 6 2 5 7
M  V30 7 1 5 8
M  V30 8 1 6 9
M  V30 9 1 6 10
M  V30 10 1 7 11
M  V30 11 2 8 12
M  V30 12 1 10 13
M  V30 13 2 10 14
M  V30 14 2 11 15
M  V30 15 2 13 16
M  V30 16 1 13 17
M  V30 17 1 14 18
M  V30 18 1 14 19
M  V30 19 1 17 20
M  V30 20 1 17 21
M  V30 21 1 19 22
M  V30 22 1 20 23
M  V30 23 1 21 24
M  V30 24 2 22 25
M  V30 25 2 23 26
M  V30 26 1 24 27
M  V30 27 2 27 28
M  V30 28 1 7 9
M  V30 29 1 12 15
M  V30 30 2 19 20
M  V30 31 1 25 26
M  V30 END BOND
M  V30 END CTAB
M  END
>  <MolRegNo>
338622

>  <m>
=

>  <Value>
90

>  <Unit>
nM

>  <Type>
IC50

>  <pValue>
7.05

>  <Ligand Efficiency>
0.34

>  <Binding Efficiency>
17.82

>  <Surface Efficiency>
6.99

>  <Assay Index>
256538

>  <Assay Category>


>  <Assay Organism>
Hepatitis C virus subtype 1b

>  <Target ID>
12097

>  <Target Name>
Hepatitis C virus NS5B RNA-dependent RNA polymerase

>  <Target Organism>
Hepatitis C virus

>  <Target Description>
Target is a single protein chain

>  <Sequence Accession>
Q8JXU8

>  <Reference>
J. Med. Chem. 49 (3), 971-983 (2006)

>  <Pubmed ID>
16451063

>  <DOI>
10.1021/jm050855s

$$$$
338287
Actelion Java MolfileCreator 2.0

  0  0  0  0  0  0              0 V3000
M  V30 BEGIN CTAB
M  V30 COUNTS 29 32 0 0 0
M  V30 BEGIN ATOM
M  V30 1 S 0.0 0.0 0.0 0
M  V30 2 O -1.3238 0.7633 0.0 0
M  V30 3 O 1.288 0.7752 0.0 0
M  V30 4 N -1.3 -0.7513 0.0 0
M  V30 5 C 1.3 -0.7275 0.0 0
M  V30 6 C -1.3 -2.2302 0.0 0
M  V30 7 C 1.3 -2.2183 0.0 0
M  V30 8 C 2.5761 0.0357 0.0 0
M  V30 9 N -0.0119 -2.9697 0.0 0
M  V30 10 C -2.6119 -2.9816 0.0 0
M  V30 11 C 2.588 -2.9458 0.0 0
M  V30 12 C 3.8642 -0.6917 0.0 0
M  V30 13 C -2.6119 -4.4844 0.0 0
M  V30 14 C -3.9357 -2.2302 0.0 0
M  V30 15 C 3.8761 -2.1706 0.0 0
M  V30 16 O -1.3119 -5.2238 0.0 0
M  V30 17 N -3.9238 -5.2238 0.0 0
M  V30 18 O -3.9596 -0.7155 0.0 0
M  V30 19 C -5.2477 -2.9697 0.0 0
M  V30 20 C -5.2357 -4.4605 0.0 0
M  V30 21 C -3.9357 -6.7146 0.0 0
M  V30 22 C -6.5596 -2.2064 0.0 0
M  V30 23 C -6.5477 -5.2119 0.0 0
M  V30 24 C -2.6477 -7.4541 0.0 0
M  V30 25 C -7.8715 -2.9458 0.0 0
M  V30 26 C -7.8596 -4.4486 0.0 0
M  V30 27 C -2.6596 -8.9449 0.0 0
M  V30 28 C -1.3715 -9.6844 0.0 0
M  V30 29 C -3.9715 -9.6844 0.0 0
M  V30 END ATOM
M  V30 BEGIN BOND
M  V30 1 2 1 2
M  V30 2 2 1 3
M  V30 3 1 1 4
M  V30 4 1 1 5
M  V30 5 2 4 6
M  V30 6 2 5 7
M  V30 7 1 5 8
M  V30 8 1 6 9
M  V30 9 1 6 10
M  V30 10 1 7 11
M  V30 11 2 8 12
M  V30 12 1 10 13
M  V30 13 2 10 14
M  V30 14 2 11 15
M  V30 15 2 13 16
M  V30 16 1 13 17
M  V30 17 1 14 18
M  V30 18 1 14 19
M  V30 19 1 17 20
M  V30 20 1 17 21
M  V30 21 1 19 22
M  V30 22 1 20 23
M  V30 23 1 21 24
M  V30 24 2 22 25
M  V30 25 2 23 26
M  V30 26 2 24 27
M  V30 27 1 27 28
M  V30 28 1 27 29
M  V30 29 1 7 9
M  V30 30 1 12 15
M  V30 31 2 19 20
M  V30 32 1 25 26
M  V30 END BOND
M  V30 END CTAB
M  END
>  <MolRegNo>
338287

>  <m>
=

>  <Value>
289

>  <Unit>
nM

>  <Type>
IC50

>  <pValue>
6.54

>  <Ligand Efficiency>
0.31

>  <Binding Efficiency>
15.97

>  <Surface Efficiency>
6.49

>  <Assay Index>
256538

>  <Assay Category>


>  <Assay Organism>
Hepatitis C virus subtype 1b

>  <Target ID>
12097

>  <Target Name>
Hepatitis C virus NS5B RNA-dependent RNA polymerase

>  <Target Organism>
Hepatitis C virus

>  <Target Description>
Target is a single protein chain

>  <Sequence Accession>
Q8JXU8

>  <Reference>
J. Med. Chem. 49 (3), 971-983 (2006)

>  <Pubmed ID>
16451063

>  <DOI>
10.1021/jm050855s

$$$$
338124
Actelion Java MolfileCreator 2.0

  0  0  0  0  0  0              0 V3000
M  V30 BEGIN CTAB
M  V30 COUNTS 28 31 0 0 0
M  V30 BEGIN ATOM
M  V30 1 S 0.0 0.0 0.0 0
M  V30 2 O -1.3238 0.7632 0.0 0
M  V30 3 O 1.288 0.7752 0.0 0
M  V30 4 N -1.2999 -0.7513 0.0 0
M  V30 5 C 1.2999 -0.7275 0.0 0
M  V30 6 C -1.2999 -2.2302 0.0 0
M  V30 7 C 1.2999 -2.2183 0.0 0
M  V30 8 C 2.5761 0.0357 0.0 0
M  V30 9 N -0.0119 -2.9697 0.0 0
M  V30 10 C -2.6119 -2.9816 0.0 0
M  V30 11 C 2.588 -2.9458 0.0 0
M  V30 12 C 3.8641 -0.6917 0.0 0
M  V30 13 C -2.6119 -4.4843 0.0 0
M  V30 14 C -3.9357 -2.2302 0.0 0
M  V30 15 C 3.8761 -2.1706 0.0 0
M  V30 16 O -1.3119 -5.2238 0.0 0
M  V30 17 N -3.9238 -5.2238 0.0 0
M  V30 18 O -3.9596 -0.7155 0.0 0
M  V30 19 C -5.2476 -2.9697 0.0 0
M  V30 20 C -5.2357 -4.4605 0.0 0
M  V30 21 C -3.9357 -6.7146 0.0 0
M  V30 22 C -6.5595 -2.2064 0.0 0
M  V30 23 C -6.5476 -5.2118 0.0 0
M  V30 24 C -2.6476 -7.454 0.0 0
M  V30 25 C -7.8715 -2.9458 0.0 0
M  V30 26 C -7.8595 -4.4485 0.0 0
M  V30 27 C -1.3596 -6.6907 0.0 0
M  V30 28 C -0.0715 -7.4302 0.0 0
M  V30 END ATOM
M  V30 BEGIN BOND
M  V30 1 2 1 2
M  V30 2 2 1 3
M  V30 3 1 1 4
M  V30 4 1 1 5
M  V30 5 2 4 6
M  V30 6 2 5 7
M  V30 7 1 5 8
M  V30 8 1 6 9
M  V30 9 1 6 10
M  V30 10 1 7 11
M  V30 11 2 8 12
M  V30 12 1 10 13
M  V30 13 2 10 14
M  V30 14 2 11 15
M  V30 15 2 13 16
M  V30 16 1 13 17
M  V30 17 1 14 18
M  V30 18 1 14 19
M  V30 19 1 17 20
M  V30 20 1 17 21
M  V30 21 1 19 22
M  V30 22 1 20 23
M  V30 23 1 21 24
M  V30 24 2 22 25
M  V30 25 2 23 26
M  V30 26 2 24 27
M  V30 27 1 27 28
M  V30 28 1 7 9
M  V30 29 1 12 15
M  V30 30 2 19 20
M  V30 31 1 25 26
M  V30 END BOND
M  V30 END CTAB
M  END
>  <MolRegNo>
338124

>  <m>
=

>  <Value>
150

>  <Unit>
nM

>  <Type>
IC50

>  <pValue>
6.82

>  <Ligand Efficiency>
0.33

>  <Binding Efficiency>
17.26

>  <Surface Efficiency>
6.77

>  <Assay Index>
256538

>  <Assay Category>


>  <Assay Organism>
Hepatitis C virus subtype 1b

>  <Target ID>
12097

>  <Target Name>
Hepatitis C virus NS5B RNA-dependent RNA polymerase

>  <Target Organism>
Hepatitis C virus

>  <Target Description>
Target is a single protein chain

>  <Sequence Accession>
Q8JXU8

>  <Reference>
J. Med. Chem. 49 (3), 971-983 (2006)

>  <Pubmed ID>
16451063

>  <DOI>
10.1021/jm050855s

$$$$
338198
Actelion Java MolfileCreator 2.0

  0  0  0  0  0  0              0 V3000
M  V30 BEGIN CTAB
M  V30 COUNTS 27 30 0 0 0
M  V30 BEGIN ATOM
M  V30 1 S 0.0 0.0 0.0 0
M  V30 2 O -1.3234 0.763 0.0 0
M  V30 3 O 1.2876 0.7749 0.0 0
M  V30 4 N -1.2995 -0.7511 0.0 0
M  V30 5 C 1.2995 -0.7272 0.0 0
M  V30 6 C -1.2995 -2.2295 0.0 0
M  V30 7 C 1.2995 -2.2176 0.0 0
M  V30 8 C 2.5752 0.0357 0.0 0
M  V30 9 N -0.0119 -2.9687 0.0 0
M  V30 10 C -2.611 -2.9806 0.0 0
M  V30 11 C 2.5872 -2.9448 0.0 0
M  V30 12 C 3.8629 -0.6915 0.0 0
M  V30 13 C -2.611 -4.4828 0.0 0
M  V30 14 C -3.9344 -2.2295 0.0 0
M  V30 15 C 3.8748 -2.1699 0.0 0
M  V30 16 O -1.3114 -5.2221 0.0 0
M  V30 17 N -3.9225 -5.2221 0.0 0
M  V30 18 O -3.9583 -0.7153 0.0 0
M  V30 19 C -5.2459 -2.9687 0.0 0
M  V30 20 C -5.234 -4.459 0.0 0
M  V30 21 C -3.9344 -6.7124 0.0 0
M  V30 22 C -6.5574 -2.2056 0.0 0
M  V30 23 C -6.5455 -5.2101 0.0 0
M  V30 24 C -2.6468 -7.4516 0.0 0
M  V30 25 C -7.8689 -2.9448 0.0 0
M  V30 26 C -7.8569 -4.4471 0.0 0
M  V30 27 C -1.3591 -6.6885 0.0 0
M  V30 END ATOM
M  V30 BEGIN BOND
M  V30 1 2 1 2
M  V30 2 2 1 3
M  V30 3 1 1 4
M  V30 4 1 1 5
M  V30 5 2 4 6
M  V30 6 2 5 7
M  V30 7 1 5 8
M  V30 8 1 6 9
M  V30 9 1 6 10
M  V30 10 1 7 11
M  V30 11 2 8 12
M  V30 12 1 10 13
M  V30 13 2 10 14
M  V30 14 2 11 15
M  V30 15 2 13 16
M  V30 16 1 13 17
M  V30 17 1 14 18
M  V30 18 1 14 19
M  V30 19 1 17 20
M  V30 20 1 17 21
M  V30 21 1 19 22
M  V30 22 1 20 23
M  V30 23 1 21 24
M  V30 24 2 22 25
M  V30 25 2 23 26
M  V30 26 2 24 27
M  V30 27 1 7 9
M  V30 28 1 12 15
M  V30 29 2 19 20
M  V30 30 1 25 26
M  V30 END BOND
M  V30 END CTAB
M  END
>  <MolRegNo>
338198

>  <m>
>

>  <Value>
10000

>  <Unit>
nM

>  <Type>
IC50

>  <pValue>
0

>  <Ligand Efficiency>
0

>  <Binding Efficiency>
0

>  <Surface Efficiency>
0

>  <Assay Index>
256538

>  <Assay Category>


>  <Assay Organism>
Hepatitis C virus subtype 1b

>  <Target ID>
12097

>  <Target Name>
Hepatitis C virus NS5B RNA-dependent RNA polymerase

>  <Target Organism>
Hepatitis C virus

>  <Target Description>
Target is a single protein chain

>  <Sequence Accession>
Q8JXU8

>  <Reference>
J. Med. Chem. 49 (3), 971-983 (2006)

>  <Pubmed ID>
16451063

>  <DOI>
10.1021/jm050855s

$$$$
338048
Actelion Java MolfileCreator 2.0

  0  0  0  0  0  0              0 V3000
M  V30 BEGIN CTAB
M  V30 COUNTS 30 33 0 0 0
M  V30 BEGIN ATOM
M  V30 1 S 0.0 0.0 0.0 0
M  V30 2 O -1.3239 0.7633 0.0 0
M  V30 3 O 1.2881 0.7752 0.0 0
M  V30 4 N -1.3 -0.7514 0.0 0
M  V30 5 C 1.3 -0.7275 0.0 0
M  V30 6 C -1.3 -2.2304 0.0 0
M  V30 7 C 1.3 -2.2184 0.0 0
M  V30 8 C 2.5762 0.0357 0.0 0
M  V30 9 N -0.0119 -2.9698 0.0 0
M  V30 10 C -2.612 -2.9818 0.0 0
M  V30 11 C 2.5882 -2.946 0.0 0
M  V30 12 C 3.8644 -0.6917 0.0 0
M  V30 13 C -2.612 -4.4846 0.0 0
M  V30 14 C -3.936 -2.2304 0.0 0
M  V30 15 C 3.8763 -2.1707 0.0 0
M  V30 16 O -1.312 -5.2241 0.0 0
M  V30 17 N -3.924 -5.2241 0.0 0
M  V30 18 O -3.9598 -0.7156 0.0 0
M  V30 19 C -5.248 -2.9698 0.0 0
M  V30 20 C -5.236 -4.4608 0.0 0
M  V30 21 C -3.936 -6.715 0.0 0
M  V30 22 C -6.56 -2.2065 0.0 0
M  V30 23 C -6.548 -5.2122 0.0 0
M  V30 24 C -2.6478 -7.4545 0.0 0
M  V30 25 C -7.872 -2.946 0.0 0
M  V30 26 C -7.86 -4.4488 0.0 0
M  V30 27 C -2.6597 -8.9454 0.0 0
M  V30 28 C -1.3716 -9.6849 0.0 0
M  V30 29 C -3.9717 -9.6849 0.0 0
M  V30 30 C -0.0834 -8.9216 0.0 0
M  V30 END ATOM
M  V30 BEGIN BOND
M  V30 1 2 1 2
M  V30 2 2 1 3
M  V30 3 1 1 4
M  V30 4 1 1 5
M  V30 5 2 4 6
M  V30 6 2 5 7
M  V30 7 1 5 8
M  V30 8 1 6 9
M  V30 9 1 6 10
M  V30 10 1 7 11
M  V30 11 2 8 12
M  V30 12 1 10 13
M  V30 13 2 10 14
M  V30 14 2 11 15
M  V30 15 2 13 16
M  V30 16 1 13 17
M  V30 17 1 14 18
M  V30 18 1 14 19
M  V30 19 1 17 20
M  V30 20 1 17 21
M  V30 21 1 19 22
M  V30 22 1 20 23
M  V30 23 1 21 24
M  V30 24 2 22 25
M  V30 25 2 23 26
M  V30 26 1 24 27
M  V30 27 1 27 28
M  V30 28 1 27 29
M  V30 29 1 28 30
M  V30 30 1 7 9
M  V30 31 1 12 15
M  V30 32 2 19 20
M  V30 33 1 25 26
M  V30 END BOND
M  V30 END CTAB
M  END
>  <MolRegNo>
338048

>  <m>
=

>  <Value>
65

>  <Unit>
nM

>  <Type>
IC50

>  <pValue>
7.19

>  <Ligand Efficiency>
0.33

>  <Binding Efficiency>
16.89

>  <Surface Efficiency>
7.13

>  <Assay Index>
256538

>  <Assay Category>


>  <Assay Organism>
Hepatitis C virus subtype 1b

>  <Target ID>
12097

>  <Target Name>
Hepatitis C virus NS5B RNA-dependent RNA polymerase

>  <Target Organism>
Hepatitis C virus

>  <Target Description>
Target is a single protein chain

>  <Sequence Accession>
Q8JXU8

>  <Reference>
J. Med. Chem. 49 (3), 971-983 (2006)

>  <Pubmed ID>
16451063

>  <DOI>
10.1021/jm050855s

$$$$
338043
Actelion Java MolfileCreator 2.0

  0  0  0  0  0  0              0 V3000
M  V30 BEGIN CTAB
M  V30 COUNTS 29 32 0 0 0
M  V30 BEGIN ATOM
M  V30 1 S 0.0 0.0 0.0 0
M  V30 2 O -1.3239 0.7633 0.0 0
M  V30 3 O 1.2881 0.7752 0.0 0
M  V30 4 N -1.3 -0.7514 0.0 0
M  V30 5 C 1.3 -0.7275 0.0 0
M  V30 6 C -1.3 -2.2303 0.0 0
M  V30 7 C 1.3 -2.2184 0.0 0
M  V30 8 C 2.5762 0.0357 0.0 0
M  V30 9 N -0.0119 -2.9698 0.0 0
M  V30 10 C -2.612 -2.9818 0.0 0
M  V30 11 C 2.5882 -2.946 0.0 0
M  V30 12 C 3.8644 -0.6917 0.0 0
M  V30 13 C -2.612 -4.4846 0.0 0
M  V30 14 C -3.9359 -2.2303 0.0 0
M  V30 15 C 3.8763 -2.1707 0.0 0
M  V30 16 O -1.3119 -5.2241 0.0 0
M  V30 17 N -3.924 -5.2241 0.0 0
M  V30 18 O -3.9598 -0.7156 0.0 0
M  V30 19 C -5.2479 -2.9698 0.0 0
M  V30 20 C -5.236 -4.4607 0.0 0
M  V30 21 C -3.9359 -6.715 0.0 0
M  V30 22 C -6.5599 -2.2065 0.0 0
M  V30 23 C -6.548 -5.2121 0.0 0
M  V30 24 C -2.6478 -7.4545 0.0 0
M  V30 25 C -7.8719 -2.946 0.0 0
M  V30 26 C -7.86 -4.4488 0.0 0
M  V30 27 C -1.3597 -6.6911 0.0 0
M  V30 28 C -0.0715 -7.4306 0.0 0
M  V30 29 C 1.2165 -6.6673 0.0 0
M  V30 END ATOM
M  V30 BEGIN BOND
M  V30 1 2 1 2
M  V30 2 2 1 3
M  V30 3 1 1 4
M  V30 4 1 1 5
M  V30 5 2 4 6
M  V30 6 2 5 7
M  V30 7 1 5 8
M  V30 8 1 6 9
M  V30 9 1 6 10
M  V30 10 1 7 11
M  V30 11 2 8 12
M  V30 12 1 10 13
M  V30 13 2 10 14
M  V30 14 2 11 15
M  V30 15 2 13 16
M  V30 16 1 13 17
M  V30 17 1 14 18
M  V30 18 1 14 19
M  V30 19 1 17 20
M  V30 20 1 17 21
M  V30 21 1 19 22
M  V30 22 1 20 23
M  V30 23 1 21 24
M  V30 24 2 22 25
M  V30 25 2 23 26
M  V30 26 1 24 27
M  V30 27 1 27 28
M  V30 28 1 28 29
M  V30 29 1 7 9
M  V30 30 1 12 15
M  V30 31 2 19 20
M  V30 32 1 25 26
M  V30 END BOND
M  V30 END CTAB
M  END
>  <MolRegNo>
338043

>  <m>
=

>  <Value>
80

>  <Unit>
nM

>  <Type>
IC50

>  <pValue>
7.1

>  <Ligand Efficiency>
0.33

>  <Binding Efficiency>
17.25

>  <Surface Efficiency>
7.04

>  <Assay Index>
256538

>  <Assay Category>


>  <Assay Organism>
Hepatitis C virus subtype 1b

>  <Target ID>
12097

>  <Target Name>
Hepatitis C virus NS5B RNA-dependent RNA polymerase

>  <Target Organism>
Hepatitis C virus

>  <Target Description>
Target is a single protein chain

>  <Sequence Accession>
Q8JXU8

>  <Reference>
J. Med. Chem. 49 (3), 971-983 (2006)

>  <Pubmed ID>
16451063

>  <DOI>
10.1021/jm050855s

$$$$
338095
Actelion Java MolfileCreator 2.0

  0  0  0  0  0  0              0 V3000
M  V30 BEGIN CTAB
M  V30 COUNTS 30 33 0 0 0
M  V30 BEGIN ATOM
M  V30 1 S 0.0 0.0 0.0 0
M  V30 2 O -1.3237 0.7632 0.0 0
M  V30 3 O 1.2879 0.7751 0.0 0
M  V30 4 N -1.2998 -0.7512 0.0 0
M  V30 5 C 1.2998 -0.7274 0.0 0
M  V30 6 C -1.2998 -2.23 0.0 0
M  V30 7 C 1.2998 -2.2181 0.0 0
M  V30 8 C 2.5758 0.0357 0.0 0
M  V30 9 N -0.0119 -2.9694 0.0 0
M  V30 10 C -2.6116 -2.9813 0.0 0
M  V30 11 C 2.5877 -2.9455 0.0 0
M  V30 12 C 3.8638 -0.6916 0.0 0
M  V30 13 C -2.6116 -4.4839 0.0 0
M  V30 14 C -3.9353 -2.23 0.0 0
M  V30 15 C 3.8757 -2.1704 0.0 0
M  V30 16 O -1.3117 -5.2232 0.0 0
M  V30 17 N -3.9234 -5.2232 0.0 0
M  V30 18 O -3.9592 -0.7155 0.0 0
M  V30 19 C -5.2471 -2.9694 0.0 0
M  V30 20 C -5.2352 -4.46 0.0 0
M  V30 21 C -3.9353 -6.7139 0.0 0
M  V30 22 C -6.5589 -2.2061 0.0 0
M  V30 23 C -6.547 -5.2113 0.0 0
M  V30 24 C -2.6474 -7.4533 0.0 0
M  V30 25 C -7.8707 -2.9455 0.0 0
M  V30 26 C -7.8587 -4.4481 0.0 0
M  V30 27 C -2.6593 -8.9439 0.0 0
M  V30 28 C -2.6831 -10.4346 0.0 0
M  V30 29 C -1.1686 -8.9439 0.0 0
M  V30 30 C -4.1738 -8.932 0.0 0
M  V30 END ATOM
M  V30 BEGIN BOND
M  V30 1 2 1 2
M  V30 2 2 1 3
M  V30 3 1 1 4
M  V30 4 1 1 5
M  V30 5 2 4 6
M  V30 6 2 5 7
M  V30 7 1 5 8
M  V30 8 1 6 9
M  V30 9 1 6 10
M  V30 10 1 7 11
M  V30 11 2 8 12
M  V30 12 1 10 13
M  V30 13 2 10 14
M  V30 14 2 11 15
M  V30 15 2 13 16
M  V30 16 1 13 17
M  V30 17 1 14 18
M  V30 18 1 14 19
M  V30 19 1 17 20
M  V30 20 1 17 21
M  V30 21 1 19 22
M  V30 22 1 20 23
M  V30 23 1 21 24
M  V30 24 2 22 25
M  V30 25 2 23 26
M  V30 26 1 24 27
M  V30 27 1 27 28
M  V30 28 1 27 29
M  V30 29 1 27 30
M  V30 30 1 7 9
M  V30 31 1 12 15
M  V30 32 2 19 20
M  V30 33 1 25 26
M  V30 END BOND
M  V30 END CTAB
M  END
>  <MolRegNo>
338095

>  <m>
=

>  <Value>
21

>  <Unit>
nM

>  <Type>
IC50

>  <pValue>
7.68

>  <Ligand Efficiency>
0.35

>  <Binding Efficiency>
18.04

>  <Surface Efficiency>
7.62

>  <Assay Index>
256538

>  <Assay Category>


>  <Assay Organism>
Hepatitis C virus subtype 1b

>  <Target ID>
12097

>  <Target Name>
Hepatitis C virus NS5B RNA-dependent RNA polymerase

>  <Target Organism>
Hepatitis C virus

>  <Target Description>
Target is a single protein chain

>  <Sequence Accession>
Q8JXU8

>  <Reference>
J. Med. Chem. 49 (3), 971-983 (2006)

>  <Pubmed ID>
16451063

>  <DOI>
10.1021/jm050855s

$$$$
338091
Actelion Java MolfileCreator 2.0

  0  0  0  0  0  0              0 V3000
M  V30 BEGIN CTAB
M  V30 COUNTS 28 31 0 0 0
M  V30 BEGIN ATOM
M  V30 1 S 0.0 0.0 0.0 0
M  V30 2 O -1.3225 0.7625 0.0 0
M  V30 3 O 1.2867 0.7744 0.0 0
M  V30 4 N -1.2986 -0.7506 0.0 0
M  V30 5 C 1.2986 -0.7267 0.0 0
M  V30 6 C -1.2986 -2.228 0.0 0
M  V30 7 C 1.2986 -2.216 0.0 0
M  V30 8 C 2.5735 0.0357 0.0 0
M  V30 9 N -0.0119 -2.9667 0.0 0
M  V30 10 C -2.6092 -2.9786 0.0 0
M  V30 11 C 2.5854 -2.9428 0.0 0
M  V30 12 C 3.8602 -0.691 0.0 0
M  V30 13 C -2.6092 -4.4798 0.0 0
M  V30 14 C -3.9317 -2.228 0.0 0
M  V30 15 C 3.8722 -2.1684 0.0 0
M  V30 16 O -1.3105 -5.2185 0.0 0
M  V30 17 N -3.9198 -5.2185 0.0 0
M  V30 18 O -3.9556 -0.7148 0.0 0
M  V30 19 C -5.2423 -2.9667 0.0 0
M  V30 20 C -5.2304 -4.456 0.0 0
M  V30 21 C -3.9317 -6.7078 0.0 0
M  V30 22 C -6.5529 -2.2041 0.0 0
M  V30 23 C -6.541 -5.2066 0.0 0
M  V30 24 C -5.2423 -7.4465 0.0 0
M  V30 25 C -7.8635 -2.9428 0.0 0
M  V30 26 C -7.8516 -4.4441 0.0 0
M  V30 27 C -5.2542 -8.9358 0.0 0
M  V30 28 C -6.5529 -6.684 0.0 0
M  V30 END ATOM
M  V30 BEGIN BOND
M  V30 1 2 1 2
M  V30 2 2 1 3
M  V30 3 1 1 4
M  V30 4 1 1 5
M  V30 5 2 4 6
M  V30 6 2 5 7
M  V30 7 1 5 8
M  V30 8 1 6 9
M  V30 9 1 6 10
M  V30 10 1 7 11
M  V30 11 2 8 12
M  V30 12 1 10 13
M  V30 13 2 10 14
M  V30 14 2 11 15
M  V30 15 2 13 16
M  V30 16 1 13 17
M  V30 17 1 14 18
M  V30 18 1 14 19
M  V30 19 1 17 20
M  V30 20 1 17 21
M  V30 21 1 19 22
M  V30 22 1 20 23
M  V30 23 1 21 24
M  V30 24 2 22 25
M  V30 25 2 23 26
M  V30 26 1 24 27
M  V30 27 1 24 28
M  V30 28 1 7 9
M  V30 29 1 12 15
M  V30 30 2 19 20
M  V30 31 1 25 26
M  V30 END BOND
M  V30 END CTAB
M  END
>  <MolRegNo>
338091

>  <m>
=

>  <Value>
108

>  <Unit>
nM

>  <Type>
IC50

>  <pValue>
6.97

>  <Ligand Efficiency>
0.34

>  <Binding Efficiency>
17.53

>  <Surface Efficiency>
6.91

>  <Assay Index>
256538

>  <Assay Category>


>  <Assay Organism>
Hepatitis C virus subtype 1b

>  <Target ID>
12097

>  <Target Name>
Hepatitis C virus NS5B RNA-dependent RNA polymerase

>  <Target Organism>
Hepatitis C virus

>  <Target Description>
Target is a single protein chain

>  <Sequence Accession>
Q8JXU8

>  <Reference>
J. Med. Chem. 49 (3), 971-983 (2006)

>  <Pubmed ID>
16451063

>  <DOI>
10.1021/jm050855s

$$$$
338189
Actelion Java MolfileCreator 2.0

  0  0  0  0  0  0              0 V3000
M  V30 BEGIN CTAB
M  V30 COUNTS 27 30 0 0 0
M  V30 BEGIN ATOM
M  V30 1 S 0.0 0.0 0.0 0
M  V30 2 O -1.3221 0.7623 0.0 0
M  V30 3 O 1.2864 0.7742 0.0 0
M  V30 4 N -1.2983 -0.7504 0.0 0
M  V30 5 C 1.2983 -0.7266 0.0 0
M  V30 6 C -1.2983 -2.2274 0.0 0
M  V30 7 C 1.2983 -2.2155 0.0 0
M  V30 8 C 2.5729 0.0357 0.0 0
M  V30 9 N -0.0119 -2.966 0.0 0
M  V30 10 C -2.6086 -2.9779 0.0 0
M  V30 11 C 2.5848 -2.9421 0.0 0
M  V30 12 C 3.8593 -0.6908 0.0 0
M  V30 13 C -2.6086 -4.4787 0.0 0
M  V30 14 C -3.9308 -2.2274 0.0 0
M  V30 15 C 3.8712 -2.1679 0.0 0
M  V30 16 O -1.3102 -5.2173 0.0 0
M  V30 17 N -3.9189 -5.2173 0.0 0
M  V30 18 O -3.9546 -0.7147 0.0 0
M  V30 19 C -5.2411 -2.966 0.0 0
M  V30 20 C -5.2292 -4.4549 0.0 0
M  V30 21 C -3.9308 -6.7062 0.0 0
M  V30 22 C -6.5514 -2.2036 0.0 0
M  V30 23 C -6.5395 -5.2054 0.0 0
M  V30 24 C -5.2411 -7.4447 0.0 0
M  V30 25 C -7.8617 -2.9421 0.0 0
M  V30 26 C -7.8497 -4.443 0.0 0
M  V30 27 C -6.5514 -6.6824 0.0 0
M  V30 END ATOM
M  V30 BEGIN BOND
M  V30 1 2 1 2
M  V30 2 2 1 3
M  V30 3 1 1 4
M  V30 4 1 1 5
M  V30 5 2 4 6
M  V30 6 2 5 7
M  V30 7 1 5 8
M  V30 8 1 6 9
M  V30 9 1 6 10
M  V30 10 1 7 11
M  V30 11 2 8 12
M  V30 12 1 10 13
M  V30 13 2 10 14
M  V30 14 2 11 15
M  V30 15 2 13 16
M  V30 16 1 13 17
M  V30 17 1 14 18
M  V30 18 1 14 19
M  V30 19 1 17 20
M  V30 20 1 17 21
M  V30 21 1 19 22
M  V30 22 1 20 23
M  V30 23 1 21 24
M  V30 24 2 22 25
M  V30 25 2 23 26
M  V30 26 1 24 27
M  V30 27 1 7 9
M  V30 28 1 12 15
M  V30 29 2 19 20
M  V30 30 1 25 26
M  V30 END BOND
M  V30 END CTAB
M  END
>  <MolRegNo>
338189

>  <m>
=

>  <Value>
1550

>  <Unit>
nM

>  <Type>
IC50

>  <pValue>
5.81

>  <Ligand Efficiency>
0.29

>  <Binding Efficiency>
15.15

>  <Surface Efficiency>
5.77

>  <Assay Index>
256538

>  <Assay Category>


>  <Assay Organism>
Hepatitis C virus subtype 1b

>  <Target ID>
12097

>  <Target Name>
Hepatitis C virus NS5B RNA-dependent RNA polymerase

>  <Target Organism>
Hepatitis C virus

>  <Target Description>
Target is a single protein chain

>  <Sequence Accession>
Q8JXU8

>  <Reference>
J. Med. Chem. 49 (3), 971-983 (2006)

>  <Pubmed ID>
16451063

>  <DOI>
10.1021/jm050855s

$$$$
338182
Actelion Java MolfileCreator 2.0

  0  0  0  0  0  0              0 V3000
M  V30 BEGIN CTAB
M  V30 COUNTS 26 29 0 0 0
M  V30 BEGIN ATOM
M  V30 1 S 0.0 0.0 0.0 0
M  V30 2 O -1.3226 0.7626 0.0 0
M  V30 3 O 1.2869 0.7745 0.0 0
M  V30 4 N -1.2988 -0.7507 0.0 0
M  V30 5 C 1.2988 -0.7268 0.0 0
M  V30 6 C -1.2988 -2.2282 0.0 0
M  V30 7 C 1.2988 -2.2163 0.0 0
M  V30 8 C 2.5738 0.0357 0.0 0
M  V30 9 N -0.0119 -2.967 0.0 0
M  V30 10 C -2.6096 -2.979 0.0 0
M  V30 11 C 2.5857 -2.9432 0.0 0
M  V30 12 C 3.8607 -0.6911 0.0 0
M  V30 13 C -2.6096 -4.4804 0.0 0
M  V30 14 C -3.9322 -2.2282 0.0 0
M  V30 15 C 3.8727 -2.1687 0.0 0
M  V30 16 O -1.3107 -5.2192 0.0 0
M  V30 17 N -3.9203 -5.2192 0.0 0
M  V30 18 O -3.9561 -0.7149 0.0 0
M  V30 19 C -5.243 -2.967 0.0 0
M  V30 20 C -5.2311 -4.4565 0.0 0
M  V30 21 C -3.9322 -6.7087 0.0 0
M  V30 22 C -6.5538 -2.2044 0.0 0
M  V30 23 C -6.5419 -5.2073 0.0 0
M  V30 24 C -5.243 -7.4475 0.0 0
M  V30 25 C -7.8645 -2.9432 0.0 0
M  V30 26 C -7.8526 -4.4446 0.0 0
M  V30 END ATOM
M  V30 BEGIN BOND
M  V30 1 2 1 2
M  V30 2 2 1 3
M  V30 3 1 1 4
M  V30 4 1 1 5
M  V30 5 2 4 6
M  V30 6 2 5 7
M  V30 7 1 5 8
M  V30 8 1 6 9
M  V30 9 1 6 10
M  V30 10 1 7 11
M  V30 11 2 8 12
M  V30 12 1 10 13
M  V30 13 2 10 14
M  V30 14 2 11 15
M  V30 15 2 13 16
M  V30 16 1 13 17
M  V30 17 1 14 18
M  V30 18 1 14 19
M  V30 19 1 17 20
M  V30 20 1 17 21
M  V30 21 1 19 22
M  V30 22 1 20 23
M  V30 23 1 21 24
M  V30 24 2 22 25
M  V30 25 2 23 26
M  V30 26 1 7 9
M  V30 27 1 12 15
M  V30 28 2 19 20
M  V30 29 1 25 26
M  V30 END BOND
M  V30 END CTAB
M  END
>  <MolRegNo>
338182

>  <m>
=

>  <Value>
2220

>  <Unit>
nM

>  <Type>
IC50

>  <pValue>
5.65

>  <Ligand Efficiency>
0.3

>  <Binding Efficiency>
15.3

>  <Surface Efficiency>
5.61

>  <Assay Index>
256538

>  <Assay Category>


>  <Assay Organism>
Hepatitis C virus subtype 1b

>  <Target ID>
12097

>  <Target Name>
Hepatitis C virus NS5B RNA-dependent RNA polymerase

>  <Target Organism>
Hepatitis C virus

>  <Target Description>
Target is a single protein chain

>  <Sequence Accession>
Q8JXU8

>  <Reference>
J. Med. Chem. 49 (3), 971-983 (2006)

>  <Pubmed ID>
16451063

>  <DOI>
10.1021/jm050855s

$$$$
338181
Actelion Java MolfileCreator 2.0

  0  0  0  0  0  0              0 V3000
M  V30 BEGIN CTAB
M  V30 COUNTS 25 28 0 0 0
M  V30 BEGIN ATOM
M  V30 1 S 0.0 0.0 0.0 0
M  V30 2 O -1.3228 0.7627 0.0 0
M  V30 3 O 1.287 0.7746 0.0 0
M  V30 4 N -1.2989 -0.7507 0.0 0
M  V30 5 C 1.2989 -0.7269 0.0 0
M  V30 6 C -1.2989 -2.2285 0.0 0
M  V30 7 C 1.2989 -2.2166 0.0 0
M  V30 8 C 2.5741 0.0357 0.0 0
M  V30 9 N -0.0119 -2.9674 0.0 0
M  V30 10 C -2.6098 -2.9793 0.0 0
M  V30 11 C 2.586 -2.9435 0.0 0
M  V30 12 C 3.8612 -0.6912 0.0 0
M  V30 13 C -2.6098 -4.4809 0.0 0
M  V30 14 C -3.9327 -2.2285 0.0 0
M  V30 15 C 3.8731 -2.1689 0.0 0
M  V30 16 O -1.3109 -5.2197 0.0 0
M  V30 17 N -3.9208 -5.2197 0.0 0
M  V30 18 O -3.9565 -0.715 0.0 0
M  V30 19 C -5.2436 -2.9674 0.0 0
M  V30 20 C -5.2317 -4.457 0.0 0
M  V30 21 C -3.9327 -6.7094 0.0 0
M  V30 22 C -6.5545 -2.2047 0.0 0
M  V30 23 C -6.5426 -5.2078 0.0 0
M  V30 24 C -7.8654 -2.9435 0.0 0
M  V30 25 C -7.8535 -4.4451 0.0 0
M  V30 END ATOM
M  V30 BEGIN BOND
M  V30 1 2 1 2
M  V30 2 2 1 3
M  V30 3 1 1 4
M  V30 4 1 1 5
M  V30 5 2 4 6
M  V30 6 2 5 7
M  V30 7 1 5 8
M  V30 8 1 6 9
M  V30 9 1 6 10
M  V30 10 1 7 11
M  V30 11 2 8 12
M  V30 12 1 10 13
M  V30 13 2 10 14
M  V30 14 2 11 15
M  V30 15 2 13 16
M  V30 16 1 13 17
M  V30 17 1 14 18
M  V30 18 1 14 19
M  V30 19 1 17 20
M  V30 20 1 17 21
M  V30 21 1 19 22
M  V30 22 1 20 23
M  V30 23 2 22 24
M  V30 24 2 23 25
M  V30 25 1 7 9
M  V30 26 1 12 15
M  V30 27 2 19 20
M  V30 28 1 24 25
M  V30 END BOND
M  V30 END CTAB
M  END
>  <MolRegNo>
338181

>  <m>
=

>  <Value>
5592

>  <Unit>
nM

>  <Type>
IC50

>  <pValue>
5.25

>  <Ligand Efficiency>
0.29

>  <Binding Efficiency>
14.78

>  <Surface Efficiency>
5.21

>  <Assay Index>
256538

>  <Assay Category>


>  <Assay Organism>
Hepatitis C virus subtype 1b

>  <Target ID>
12097

>  <Target Name>
Hepatitis C virus NS5B RNA-dependent RNA polymerase

>  <Target Organism>
Hepatitis C virus

>  <Target Description>
Target is a single protein chain

>  <Sequence Accession>
Q8JXU8

>  <Reference>
J. Med. Chem. 49 (3), 971-983 (2006)

>  <Pubmed ID>
16451063

>  <DOI>
10.1021/jm050855s

$$$$
338136
Actelion Java MolfileCreator 2.0

  0  0  0  0  0  0              0 V3000
M  V30 BEGIN CTAB
M  V30 COUNTS 24 27 0 0 0
M  V30 BEGIN ATOM
M  V30 1 S 0.0 0.0 0.0 0
M  V30 2 O -1.3224 0.7625 0.0 0
M  V30 3 O 1.2867 0.7744 0.0 0
M  V30 4 N -1.2986 -0.7506 0.0 0
M  V30 5 C 1.2986 -0.7267 0.0 0
M  V30 6 C -1.2986 -2.2279 0.0 0
M  V30 7 C 1.2986 -2.216 0.0 0
M  V30 8 C 2.5734 0.0357 0.0 0
M  V30 9 N -0.0119 -2.9666 0.0 0
M  V30 10 C -2.6092 -2.9785 0.0 0
M  V30 11 C 2.5854 -2.9428 0.0 0
M  V30 12 C 3.8602 -0.691 0.0 0
M  V30 13 C -2.6092 -4.4797 0.0 0
M  V30 14 C -3.9317 -2.2279 0.0 0
M  V30 15 C 3.8721 -2.1684 0.0 0
M  V30 16 O -1.3105 -5.2184 0.0 0
M  V30 17 N -3.9198 -5.2184 0.0 0
M  V30 18 O -3.9555 -0.7148 0.0 0
M  V30 19 C -5.2423 -2.9666 0.0 0
M  V30 20 C -5.2303 -4.4559 0.0 0
M  V30 21 C -6.5528 -2.2041 0.0 0
M  V30 22 C -6.5409 -5.2065 0.0 0
M  V30 23 C -7.8634 -2.9428 0.0 0
M  V30 24 C -7.8515 -4.444 0.0 0
M  V30 END ATOM
M  V30 BEGIN BOND
M  V30 1 2 1 2
M  V30 2 2 1 3
M  V30 3 1 1 4
M  V30 4 1 1 5
M  V30 5 2 4 6
M  V30 6 2 5 7
M  V30 7 1 5 8
M  V30 8 1 6 9
M  V30 9 1 6 10
M  V30 10 1 7 11
M  V30 11 2 8 12
M  V30 12 1 10 13
M  V30 13 2 10 14
M  V30 14 2 11 15
M  V30 15 1 13 16
M  V30 16 2 13 17
M  V30 17 1 14 18
M  V30 18 1 14 19
M  V30 19 1 17 20
M  V30 20 2 19 21
M  V30 21 2 20 22
M  V30 22 1 21 23
M  V30 23 1 22 24
M  V30 24 1 7 9
M  V30 25 1 12 15
M  V30 26 1 19 20
M  V30 27 2 23 24
M  V30 END BOND
M  V30 END CTAB
M  END
>  <MolRegNo>
338136

>  <m>
>

>  <Value>
10000

>  <Unit>
nM

>  <Type>
IC50

>  <pValue>
0

>  <Ligand Efficiency>
0

>  <Binding Efficiency>
0

>  <Surface Efficiency>
0

>  <Assay Index>
256538

>  <Assay Category>


>  <Assay Organism>
Hepatitis C virus subtype 1b

>  <Target ID>
12097

>  <Target Name>
Hepatitis C virus NS5B RNA-dependent RNA polymerase

>  <Target Organism>
Hepatitis C virus

>  <Target Description>
Target is a single protein chain

>  <Sequence Accession>
Q8JXU8

>  <Reference>
J. Med. Chem. 49 (3), 971-983 (2006)

>  <Pubmed ID>
16451063

>  <DOI>
10.1021/jm050855s

$$$$
298159
Actelion Java MolfileCreator 2.0

  0  0  0  0  0  0              0 V3000
M  V30 BEGIN CTAB
M  V30 COUNTS 29 32 0 0 0
M  V30 BEGIN ATOM
M  V30 1 S 0.0 0.0 0.0 0
M  V30 2 O -1.5148 0.0591 0.0 0
M  V30 3 O -0.8047 1.29 0.0 0
M  V30 4 N 1.29 0.7574 0.0 0
M  V30 5 C -0.0118 -1.4912 0.0 0
M  V30 6 C 2.58 0.0236 0.0 0
M  V30 7 C 1.2781 -2.2368 0.0 0
M  V30 8 C -1.3255 -2.2368 0.0 0
M  V30 9 N 2.5681 -1.4675 0.0 0
M  V30 10 C 3.87 0.7811 0.0 0
M  V30 11 C 1.2663 -3.728 0.0 0
M  V30 12 C -1.3373 -3.728 0.0 0
M  V30 13 C 3.8582 2.2959 0.0 0
M  V30 14 C 5.16 0.0473 0.0 0
M  V30 15 C -0.0473 -4.4617 0.0 0
M  V30 16 O 2.5445 3.0534 0.0 0
M  V30 17 N 5.1482 3.0534 0.0 0
M  V30 18 O 5.1482 -1.4438 0.0 0
M  V30 19 C 6.45 0.8047 0.0 0
M  V30 20 C 6.4382 2.3196 0.0 0
M  V30 21 C 5.1363 4.5683 0.0 0
M  V30 22 C 7.74 0.071 0.0 0
M  V30 23 C 7.7282 3.077 0.0 0
M  V30 24 C 3.8226 5.3257 0.0 0
M  V30 25 C 9.03 0.8284 0.0 0
M  V30 26 C 9.0182 2.3433 0.0 0
M  V30 27 C 3.8108 6.8406 0.0 0
M  V30 28 C 2.4971 7.598 0.0 0
M  V30 29 C 5.1008 7.598 0.0 0
M  V30 END ATOM
M  V30 BEGIN BOND
M  V30 1 2 1 2
M  V30 2 2 1 3
M  V30 3 1 1 4
M  V30 4 1 1 5
M  V30 5 2 4 6
M  V30 6 2 5 7
M  V30 7 1 5 8
M  V30 8 1 6 9
M  V30 9 1 6 10
M  V30 10 1 7 11
M  V30 11 2 8 12
M  V30 12 1 10 13
M  V30 13 2 10 14
M  V30 14 2 11 15
M  V30 15 2 13 16
M  V30 16 1 13 17
M  V30 17 1 14 18
M  V30 18 1 14 19
M  V30 19 1 17 20
M  V30 20 1 17 21
M  V30 21 1 19 22
M  V30 22 1 20 23
M  V30 23 1 21 24
M  V30 24 2 22 25
M  V30 25 2 23 26
M  V30 26 1 24 27
M  V30 27 1 27 28
M  V30 28 1 27 29
M  V30 29 1 7 9
M  V30 30 1 12 15
M  V30 31 2 19 20
M  V30 32 1 25 26
M  V30 END BOND
M  V30 END CTAB
M  END
>  <MolRegNo>
298159

>  <m>
=

>  <Value>
32

>  <Unit>
nM

>  <Type>
IC50

>  <pValue>
7.5

>  <Ligand Efficiency>
0.35

>  <Binding Efficiency>
18.21

>  <Surface Efficiency>
7.44

>  <Assay Index>
256538

>  <Assay Category>


>  <Assay Organism>
Hepatitis C virus subtype 1b

>  <Target ID>
12097

>  <Target Name>
Hepatitis C virus NS5B RNA-dependent RNA polymerase

>  <Target Organism>
Hepatitis C virus

>  <Target Description>
Target is a single protein chain

>  <Sequence Accession>
Q8JXU8

>  <Reference>
J. Med. Chem. 49 (3), 971-983 (2006)

>  <Pubmed ID>
16451063

>  <DOI>
10.1021/jm050855s

$$$$
300958
Actelion Java MolfileCreator 2.0

  0  0  0  0  0  0              0 V3000
M  V30 BEGIN CTAB
M  V30 COUNTS 28 31 0 0 0
M  V30 BEGIN ATOM
M  V30 1 S 0.0 0.0 0.0 0
M  V30 2 O -1.3091 0.7736 0.0 0
M  V30 3 O 1.2853 0.7736 0.0 0
M  V30 4 N -1.3091 -0.7378 0.0 0
M  V30 5 C 1.3091 -0.7378 0.0 0
M  V30 6 C -1.321 -2.2374 0.0 0
M  V30 7 C 1.2972 -2.2374 0.0 0
M  V30 8 C 2.5945 0.0238 0.0 0
M  V30 9 N -0.0357 -2.9753 0.0 0
M  V30 10 C -2.6302 -2.9753 0.0 0
M  V30 11 C 2.5826 -2.9753 0.0 0
M  V30 12 C 3.8799 -0.714 0.0 0
M  V30 13 C -2.6421 -4.463 0.0 0
M  V30 14 C -3.9632 -2.2136 0.0 0
M  V30 15 C 3.868 -2.2136 0.0 0
M  V30 16 O -1.3567 -5.2128 0.0 0
M  V30 17 N -3.9751 -5.2009 0.0 0
M  V30 18 O -3.9751 -0.7021 0.0 0
M  V30 19 C -5.2723 -2.9515 0.0 0
M  V30 20 C -5.2842 -4.4392 0.0 0
M  V30 21 C -3.987 -6.6886 0.0 0
M  V30 22 C -6.5815 -2.1898 0.0 0
M  V30 23 C -6.5934 -5.1771 0.0 0
M  V30 24 C -2.7016 -7.4265 0.0 0
M  V30 25 C -7.8907 -2.9277 0.0 0
M  V30 26 C -7.9026 -4.4154 0.0 0
M  V30 27 C -2.7135 -8.9142 0.0 0
M  V30 28 C -1.4281 -9.6521 0.0 0
M  V30 END ATOM
M  V30 BEGIN BOND
M  V30 1 2 1 2
M  V30 2 2 1 3
M  V30 3 1 1 4
M  V30 4 1 1 5
M  V30 5 2 4 6
M  V30 6 2 5 7
M  V30 7 1 5 8
M  V30 8 1 6 9
M  V30 9 1 6 10
M  V30 10 1 7 11
M  V30 11 2 8 12
M  V30 12 1 10 13
M  V30 13 2 10 14
M  V30 14 2 11 15
M  V30 15 2 13 16
M  V30 16 1 13 17
M  V30 17 1 14 18
M  V30 18 1 14 19
M  V30 19 1 17 20
M  V30 20 1 17 21
M  V30 21 1 19 22
M  V30 22 1 20 23
M  V30 23 1 21 24
M  V30 24 2 22 25
M  V30 25 2 23 26
M  V30 26 1 24 27
M  V30 27 1 27 28
M  V30 28 1 7 9
M  V30 29 1 12 15
M  V30 30 2 19 20
M  V30 31 1 25 26
M  V30 END BOND
M  V30 END CTAB
M  END
>  <MolRegNo>
300958

>  <m>
=

>  <Value>
444

>  <Unit>
nM

>  <Type>
EC50

>  <pValue>
6.35

>  <Ligand Efficiency>
0

>  <Binding Efficiency>
0

>  <Surface Efficiency>
0

>  <Assay Index>
256539

>  <Assay Category>


>  <Assay Organism>
Hepatitis C virus

>  <Target ID>
12097

>  <Target Name>
Hepatitis C virus NS5B RNA-dependent RNA polymerase

>  <Target Organism>
Hepatitis C virus

>  <Target Description>
Target is a single protein chain

>  <Sequence Accession>
Q8JXU8

>  <Reference>
J. Med. Chem. 49 (3), 971-983 (2006)

>  <Pubmed ID>
16451063

>  <DOI>
10.1021/jm050855s

$$$$
300958
Actelion Java MolfileCreator 2.0

  0  0  0  0  0  0              0 V3000
M  V30 BEGIN CTAB
M  V30 COUNTS 28 31 0 0 0
M  V30 BEGIN ATOM
M  V30 1 S 0.0 0.0 0.0 0
M  V30 2 O -1.3091 0.7736 0.0 0
M  V30 3 O 1.2853 0.7736 0.0 0
M  V30 4 N -1.3091 -0.7378 0.0 0
M  V30 5 C 1.3091 -0.7378 0.0 0
M  V30 6 C -1.321 -2.2374 0.0 0
M  V30 7 C 1.2972 -2.2374 0.0 0
M  V30 8 C 2.5945 0.0238 0.0 0
M  V30 9 N -0.0357 -2.9753 0.0 0
M  V30 10 C -2.6302 -2.9753 0.0 0
M  V30 11 C 2.5826 -2.9753 0.0 0
M  V30 12 C 3.8799 -0.714 0.0 0
M  V30 13 C -2.6421 -4.463 0.0 0
M  V30 14 C -3.9632 -2.2136 0.0 0
M  V30 15 C 3.868 -2.2136 0.0 0
M  V30 16 O -1.3567 -5.2128 0.0 0
M  V30 17 N -3.9751 -5.2009 0.0 0
M  V30 18 O -3.9751 -0.7021 0.0 0
M  V30 19 C -5.2723 -2.9515 0.0 0
M  V30 20 C -5.2842 -4.4392 0.0 0
M  V30 21 C -3.987 -6.6886 0.0 0
M  V30 22 C -6.5815 -2.1898 0.0 0
M  V30 23 C -6.5934 -5.1771 0.0 0
M  V30 24 C -2.7016 -7.4265 0.0 0
M  V30 25 C -7.8907 -2.9277 0.0 0
M  V30 26 C -7.9026 -4.4154 0.0 0
M  V30 27 C -2.7135 -8.9142 0.0 0
M  V30 28 C -1.4281 -9.6521 0.0 0
M  V30 END ATOM
M  V30 BEGIN BOND
M  V30 1 2 1 2
M  V30 2 2 1 3
M  V30 3 1 1 4
M  V30 4 1 1 5
M  V30 5 2 4 6
M  V30 6 2 5 7
M  V30 7 1 5 8
M  V30 8 1 6 9
M  V30 9 1 6 10
M  V30 10 1 7 11
M  V30 11 2 8 12
M  V30 12 1 10 13
M  V30 13 2 10 14
M  V30 14 2 11 15
M  V30 15 2 13 16
M  V30 16 1 13 17
M  V30 17 1 14 18
M  V30 18 1 14 19
M  V30 19 1 17 20
M  V30 20 1 17 21
M  V30 21 1 19 22
M  V30 22 1 20 23
M  V30 23 1 21 24
M  V30 24 2 22 25
M  V30 25 2 23 26
M  V30 26 1 24 27
M  V30 27 1 27 28
M  V30 28 1 7 9
M  V30 29 1 12 15
M  V30 30 2 19 20
M  V30 31 1 25 26
M  V30 END BOND
M  V30 END CTAB
M  END
>  <MolRegNo>
300958

>  <m>
=

>  <Value>
3760

>  <Unit>
nM

>  <Type>
EC90

>  <pValue>
0

>  <Ligand Efficiency>
0

>  <Binding Efficiency>
0

>  <Surface Efficiency>
0

>  <Assay Index>
256539

>  <Assay Category>


>  <Assay Organism>
Hepatitis C virus

>  <Target ID>
12097

>  <Target Name>
Hepatitis C virus NS5B RNA-dependent RNA polymerase

>  <Target Organism>
Hepatitis C virus

>  <Target Description>
Target is a single protein chain

>  <Sequence Accession>
Q8JXU8

>  <Reference>
J. Med. Chem. 49 (3), 971-983 (2006)

>  <Pubmed ID>
16451063

>  <DOI>
10.1021/jm050855s

$$$$
338168
Actelion Java MolfileCreator 2.0

  0  0  0  0  0  0              0 V3000
M  V30 BEGIN CTAB
M  V30 COUNTS 30 34 0 0 0
M  V30 BEGIN ATOM
M  V30 1 S 0.0 0.0 0.0 0
M  V30 2 O 0.6988 1.3385 0.0 0
M  V30 3 O -0.7225 1.3385 0.0 0
M  V30 4 N -1.3148 -0.7343 0.0 0
M  V30 5 C 1.2911 -0.7343 0.0 0
M  V30 6 C -1.3266 -2.2268 0.0 0
M  V30 7 C 1.2792 -2.2268 0.0 0
M  V30 8 C 2.5822 0.0236 0.0 0
M  V30 9 N -0.0355 -2.9612 0.0 0
M  V30 10 C -2.6414 -2.9612 0.0 0
M  V30 11 C 2.5703 -2.9612 0.0 0
M  V30 12 C 3.8733 -0.7107 0.0 0
M  V30 13 C -2.6533 -4.4537 0.0 0
M  V30 14 C -3.9562 -2.2031 0.0 0
M  V30 15 C 3.8615 -2.2031 0.0 0
M  V30 16 O -1.3621 -5.1881 0.0 0
M  V30 17 N -3.9681 -5.1881 0.0 0
M  V30 18 O -3.9681 -0.687 0.0 0
M  V30 19 C -5.271 -2.9375 0.0 0
M  V30 20 C -5.2829 -4.43 0.0 0
M  V30 21 C -3.9799 -6.6806 0.0 0
M  V30 22 C -6.5859 -2.1795 0.0 0
M  V30 23 C -6.5977 -5.1644 0.0 0
M  V30 24 C -2.6888 -7.415 0.0 0
M  V30 25 C -7.9007 -2.9139 0.0 0
M  V30 26 C -7.9125 -4.4063 0.0 0
M  V30 27 C -2.7006 -8.9075 0.0 0
M  V30 28 F -9.2155 -2.1558 0.0 0
M  V30 29 C -1.9662 -10.1986 0.0 0
M  V30 30 C -3.4587 -10.1986 0.0 0
M  V30 END ATOM
M  V30 BEGIN BOND
M  V30 1 2 1 2
M  V30 2 2 1 3
M  V30 3 1 1 4
M  V30 4 1 1 5
M  V30 5 1 4 6
M  V30 6 2 5 7
M  V30 7 1 5 8
M  V30 8 2 6 9
M  V30 9 1 6 10
M  V30 10 1 7 11
M  V30 11 2 8 12
M  V30 12 1 10 13
M  V30 13 2 10 14
M  V30 14 2 11 15
M  V30 15 2 13 16
M  V30 16 1 13 17
M  V30 17 1 14 18
M  V30 18 1 14 19
M  V30 19 1 17 20
M  V30 20 1 17 21
M  V30 21 1 19 22
M  V30 22 1 20 23
M  V30 23 1 21 24
M  V30 24 2 22 25
M  V30 25 2 23 26
M  V30 26 1 24 27
M  V30 27 1 25 28
M  V30 28 1 27 29
M  V30 29 1 27 30
M  V30 30 1 7 9
M  V30 31 1 12 15
M  V30 32 2 19 20
M  V30 33 1 25 26
M  V30 34 1 29 30
M  V30 END BOND
M  V30 END CTAB
M  END
>  <MolRegNo>
338168

>  <m>
=

>  <Value>
38

>  <Unit>
nM

>  <Type>
EC50

>  <pValue>
7.42

>  <Ligand Efficiency>
0

>  <Binding Efficiency>
0

>  <Surface Efficiency>
0

>  <Assay Index>
256539

>  <Assay Category>


>  <Assay Organism>
Hepatitis C virus

>  <Target ID>
12097

>  <Target Name>
Hepatitis C virus NS5B RNA-dependent RNA polymerase

>  <Target Organism>
Hepatitis C virus

>  <Target Description>
Target is a single protein chain

>  <Sequence Accession>
Q8JXU8

>  <Reference>
J. Med. Chem. 49 (3), 971-983 (2006)

>  <Pubmed ID>
16451063

>  <DOI>
10.1021/jm050855s

$$$$
338168
Actelion Java MolfileCreator 2.0

  0  0  0  0  0  0              0 V3000
M  V30 BEGIN CTAB
M  V30 COUNTS 30 34 0 0 0
M  V30 BEGIN ATOM
M  V30 1 S 0.0 0.0 0.0 0
M  V30 2 O 0.6988 1.3385 0.0 0
M  V30 3 O -0.7225 1.3385 0.0 0
M  V30 4 N -1.3148 -0.7343 0.0 0
M  V30 5 C 1.2911 -0.7343 0.0 0
M  V30 6 C -1.3266 -2.2268 0.0 0
M  V30 7 C 1.2792 -2.2268 0.0 0
M  V30 8 C 2.5822 0.0236 0.0 0
M  V30 9 N -0.0355 -2.9612 0.0 0
M  V30 10 C -2.6414 -2.9612 0.0 0
M  V30 11 C 2.5703 -2.9612 0.0 0
M  V30 12 C 3.8733 -0.7107 0.0 0
M  V30 13 C -2.6533 -4.4537 0.0 0
M  V30 14 C -3.9562 -2.2031 0.0 0
M  V30 15 C 3.8615 -2.2031 0.0 0
M  V30 16 O -1.3621 -5.1881 0.0 0
M  V30 17 N -3.9681 -5.1881 0.0 0
M  V30 18 O -3.9681 -0.687 0.0 0
M  V30 19 C -5.271 -2.9375 0.0 0
M  V30 20 C -5.2829 -4.43 0.0 0
M  V30 21 C -3.9799 -6.6806 0.0 0
M  V30 22 C -6.5859 -2.1795 0.0 0
M  V30 23 C -6.5977 -5.1644 0.0 0
M  V30 24 C -2.6888 -7.415 0.0 0
M  V30 25 C -7.9007 -2.9139 0.0 0
M  V30 26 C -7.9125 -4.4063 0.0 0
M  V30 27 C -2.7006 -8.9075 0.0 0
M  V30 28 F -9.2155 -2.1558 0.0 0
M  V30 29 C -1.9662 -10.1986 0.0 0
M  V30 30 C -3.4587 -10.1986 0.0 0
M  V30 END ATOM
M  V30 BEGIN BOND
M  V30 1 2 1 2
M  V30 2 2 1 3
M  V30 3 1 1 4
M  V30 4 1 1 5
M  V30 5 1 4 6
M  V30 6 2 5 7
M  V30 7 1 5 8
M  V30 8 2 6 9
M  V30 9 1 6 10
M  V30 10 1 7 11
M  V30 11 2 8 12
M  V30 12 1 10 13
M  V30 13 2 10 14
M  V30 14 2 11 15
M  V30 15 2 13 16
M  V30 16 1 13 17
M  V30 17 1 14 18
M  V30 18 1 14 19
M  V30 19 1 17 20
M  V30 20 1 17 21
M  V30 21 1 19 22
M  V30 22 1 20 23
M  V30 23 1 21 24
M  V30 24 2 22 25
M  V30 25 2 23 26
M  V30 26 1 24 27
M  V30 27 1 25 28
M  V30 28 1 27 29
M  V30 29 1 27 30
M  V30 30 1 7 9
M  V30 31 1 12 15
M  V30 32 2 19 20
M  V30 33 1 25 26
M  V30 34 1 29 30
M  V30 END BOND
M  V30 END CTAB
M  END
>  <MolRegNo>
338168

>  <m>
=

>  <Value>
207

>  <Unit>
nM

>  <Type>
EC90

>  <pValue>
0

>  <Ligand Efficiency>
0

>  <Binding Efficiency>
0

>  <Surface Efficiency>
0

>  <Assay Index>
256539

>  <Assay Category>


>  <Assay Organism>
Hepatitis C virus

>  <Target ID>
12097

>  <Target Name>
Hepatitis C virus NS5B RNA-dependent RNA polymerase

>  <Target Organism>
Hepatitis C virus

>  <Target Description>
Target is a single protein chain

>  <Sequence Accession>
Q8JXU8

>  <Reference>
J. Med. Chem. 49 (3), 971-983 (2006)

>  <Pubmed ID>
16451063

>  <DOI>
10.1021/jm050855s

$$$$
338257
Actelion Java MolfileCreator 2.0

  0  0  0  0  0  0              0 V3000
M  V30 BEGIN CTAB
M  V30 COUNTS 30 34 0 0 0
M  V30 BEGIN ATOM
M  V30 1 S 0.0 0.0 0.0 0
M  V30 2 O -1.3235 0.7631 0.0 0
M  V30 3 O 1.2877 0.775 0.0 0
M  V30 4 N -1.2997 -0.7512 0.0 0
M  V30 5 C 1.2997 -0.7273 0.0 0
M  V30 6 C -1.2997 -2.2297 0.0 0
M  V30 7 C 1.2997 -2.2178 0.0 0
M  V30 8 C 2.5755 0.0357 0.0 0
M  V30 9 N -0.0119 -2.969 0.0 0
M  V30 10 C -2.6113 -2.9809 0.0 0
M  V30 11 C 2.5874 -2.9451 0.0 0
M  V30 12 C 3.8633 -0.6915 0.0 0
M  V30 13 C -2.6113 -4.4833 0.0 0
M  V30 14 C -3.9348 -2.2297 0.0 0
M  V30 15 C 3.8752 -2.1701 0.0 0
M  V30 16 O -1.3116 -5.2226 0.0 0
M  V30 17 N -3.9229 -5.2226 0.0 0
M  V30 18 O -3.9587 -0.7154 0.0 0
M  V30 19 C -5.2465 -2.969 0.0 0
M  V30 20 C -5.2345 -4.4595 0.0 0
M  V30 21 C -3.9348 -6.7131 0.0 0
M  V30 22 C -6.5581 -2.2059 0.0 0
M  V30 23 C -6.5462 -5.2107 0.0 0
M  V30 24 C -2.647 -7.4524 0.0 0
M  V30 25 C -7.8697 -2.9451 0.0 0
M  V30 26 C -7.8578 -4.4476 0.0 0
M  V30 27 C -2.659 -8.9429 0.0 0
M  V30 28 N -9.1813 -2.182 0.0 0
M  V30 29 C -3.4102 -10.2306 0.0 0
M  V30 30 C -1.9078 -10.2306 0.0 0
M  V30 END ATOM
M  V30 BEGIN BOND
M  V30 1 2 1 2
M  V30 2 2 1 3
M  V30 3 1 1 4
M  V30 4 1 1 5
M  V30 5 2 4 6
M  V30 6 2 5 7
M  V30 7 1 5 8
M  V30 8 1 6 9
M  V30 9 1 6 10
M  V30 10 1 7 11
M  V30 11 2 8 12
M  V30 12 1 10 13
M  V30 13 2 10 14
M  V30 14 2 11 15
M  V30 15 2 13 16
M  V30 16 1 13 17
M  V30 17 1 14 18
M  V30 18 1 14 19
M  V30 19 1 17 20
M  V30 20 1 17 21
M  V30 21 1 19 22
M  V30 22 1 20 23
M  V30 23 1 21 24
M  V30 24 2 22 25
M  V30 25 2 23 26
M  V30 26 1 24 27
M  V30 27 1 25 28
M  V30 28 1 27 29
M  V30 29 1 27 30
M  V30 30 1 7 9
M  V30 31 1 12 15
M  V30 32 2 19 20
M  V30 33 1 25 26
M  V30 34 1 29 30
M  V30 END BOND
M  V30 END CTAB
M  END
>  <MolRegNo>
338257

>  <m>
=

>  <Value>
157

>  <Unit>
nM

>  <Type>
EC50

>  <pValue>
6.8

>  <Ligand Efficiency>
0

>  <Binding Efficiency>
0

>  <Surface Efficiency>
0

>  <Assay Index>
256539

>  <Assay Category>


>  <Assay Organism>
Hepatitis C virus

>  <Target ID>
12097

>  <Target Name>
Hepatitis C virus NS5B RNA-dependent RNA polymerase

>  <Target Organism>
Hepatitis C virus

>  <Target Description>
Target is a single protein chain

>  <Sequence Accession>
Q8JXU8

>  <Reference>
J. Med. Chem. 49 (3), 971-983 (2006)

>  <Pubmed ID>
16451063

>  <DOI>
10.1021/jm050855s

$$$$
338257
Actelion Java MolfileCreator 2.0

  0  0  0  0  0  0              0 V3000
M  V30 BEGIN CTAB
M  V30 COUNTS 30 34 0 0 0
M  V30 BEGIN ATOM
M  V30 1 S 0.0 0.0 0.0 0
M  V30 2 O -1.3235 0.7631 0.0 0
M  V30 3 O 1.2877 0.775 0.0 0
M  V30 4 N -1.2997 -0.7512 0.0 0
M  V30 5 C 1.2997 -0.7273 0.0 0
M  V30 6 C -1.2997 -2.2297 0.0 0
M  V30 7 C 1.2997 -2.2178 0.0 0
M  V30 8 C 2.5755 0.0357 0.0 0
M  V30 9 N -0.0119 -2.969 0.0 0
M  V30 10 C -2.6113 -2.9809 0.0 0
M  V30 11 C 2.5874 -2.9451 0.0 0
M  V30 12 C 3.8633 -0.6915 0.0 0
M  V30 13 C -2.6113 -4.4833 0.0 0
M  V30 14 C -3.9348 -2.2297 0.0 0
M  V30 15 C 3.8752 -2.1701 0.0 0
M  V30 16 O -1.3116 -5.2226 0.0 0
M  V30 17 N -3.9229 -5.2226 0.0 0
M  V30 18 O -3.9587 -0.7154 0.0 0
M  V30 19 C -5.2465 -2.969 0.0 0
M  V30 20 C -5.2345 -4.4595 0.0 0
M  V30 21 C -3.9348 -6.7131 0.0 0
M  V30 22 C -6.5581 -2.2059 0.0 0
M  V30 23 C -6.5462 -5.2107 0.0 0
M  V30 24 C -2.647 -7.4524 0.0 0
M  V30 25 C -7.8697 -2.9451 0.0 0
M  V30 26 C -7.8578 -4.4476 0.0 0
M  V30 27 C -2.659 -8.9429 0.0 0
M  V30 28 N -9.1813 -2.182 0.0 0
M  V30 29 C -3.4102 -10.2306 0.0 0
M  V30 30 C -1.9078 -10.2306 0.0 0
M  V30 END ATOM
M  V30 BEGIN BOND
M  V30 1 2 1 2
M  V30 2 2 1 3
M  V30 3 1 1 4
M  V30 4 1 1 5
M  V30 5 2 4 6
M  V30 6 2 5 7
M  V30 7 1 5 8
M  V30 8 1 6 9
M  V30 9 1 6 10
M  V30 10 1 7 11
M  V30 11 2 8 12
M  V30 12 1 10 13
M  V30 13 2 10 14
M  V30 14 2 11 15
M  V30 15 2 13 16
M  V30 16 1 13 17
M  V30 17 1 14 18
M  V30 18 1 14 19
M  V30 19 1 17 20
M  V30 20 1 17 21
M  V30 21 1 19 22
M  V30 22 1 20 23
M  V30 23 1 21 24
M  V30 24 2 22 25
M  V30 25 2 23 26
M  V30 26 1 24 27
M  V30 27 1 25 28
M  V30 28 1 27 29
M  V30 29 1 27 30
M  V30 30 1 7 9
M  V30 31 1 12 15
M  V30 32 2 19 20
M  V30 33 1 25 26
M  V30 34 1 29 30
M  V30 END BOND
M  V30 END CTAB
M  END
>  <MolRegNo>
338257

>  <m>
=

>  <Value>
593

>  <Unit>
nM

>  <Type>
EC90

>  <pValue>
0

>  <Ligand Efficiency>
0

>  <Binding Efficiency>
0

>  <Surface Efficiency>
0

>  <Assay Index>
256539

>  <Assay Category>


>  <Assay Organism>
Hepatitis C virus

>  <Target ID>
12097

>  <Target Name>
Hepatitis C virus NS5B RNA-dependent RNA polymerase

>  <Target Organism>
Hepatitis C virus

>  <Target Description>
Target is a single protein chain

>  <Sequence Accession>
Q8JXU8

>  <Reference>
J. Med. Chem. 49 (3), 971-983 (2006)

>  <Pubmed ID>
16451063

>  <DOI>
10.1021/jm050855s

$$$$
338328
Actelion Java MolfileCreator 2.0

  0  0  0  0  0  0              0 V3000
M  V30 BEGIN CTAB
M  V30 COUNTS 34 37 0 0 0
M  V30 BEGIN ATOM
M  V30 1 S 0.0 0.0 0.0 0
M  V30 2 O -1.3237 0.7632 0.0 0
M  V30 3 O 1.2879 0.7751 0.0 0
M  V30 4 N -1.2998 -0.7513 0.0 0
M  V30 5 C 1.2998 -0.7274 0.0 0
M  V30 6 C -1.2998 -2.23 0.0 0
M  V30 7 C 1.2998 -2.2181 0.0 0
M  V30 8 C 2.5759 0.0357 0.0 0
M  V30 9 N -0.0119 -2.9694 0.0 0
M  V30 10 C -2.6116 -2.9813 0.0 0
M  V30 11 C 2.5878 -2.9455 0.0 0
M  V30 12 C 3.8638 -0.6916 0.0 0
M  V30 13 C -2.6116 -4.4839 0.0 0
M  V30 14 C -3.9354 -2.23 0.0 0
M  V30 15 C 3.8757 -2.1704 0.0 0
M  V30 16 O -1.3118 -5.2233 0.0 0
M  V30 17 N -3.9234 -5.2233 0.0 0
M  V30 18 O -3.9592 -0.7155 0.0 0
M  V30 19 C -5.2472 -2.9694 0.0 0
M  V30 20 C -5.2352 -4.4601 0.0 0
M  V30 21 C -3.9354 -6.714 0.0 0
M  V30 22 C -6.559 -2.2062 0.0 0
M  V30 23 C -6.547 -5.2114 0.0 0
M  V30 24 C -2.6474 -7.4534 0.0 0
M  V30 25 C -7.8708 -2.9455 0.0 0
M  V30 26 C -7.8588 -4.4482 0.0 0
M  V30 27 C -2.6593 -8.9441 0.0 0
M  V30 28 N -9.1826 -2.1823 0.0 0
M  V30 29 C -2.6832 -10.4347 0.0 0
M  V30 30 C -1.1686 -8.9321 0.0 0
M  V30 31 C -4.1739 -8.9321 0.0 0
M  V30 32 C -10.4944 -2.9217 0.0 0
M  V30 33 C -10.5063 -4.4124 0.0 0
M  V30 34 O -9.2183 -5.1518 0.0 0
M  V30 END ATOM
M  V30 BEGIN BOND
M  V30 1 2 1 2
M  V30 2 2 1 3
M  V30 3 1 1 4
M  V30 4 1 1 5
M  V30 5 2 4 6
M  V30 6 2 5 7
M  V30 7 1 5 8
M  V30 8 1 6 9
M  V30 9 1 6 10
M  V30 10 1 7 11
M  V30 11 2 8 12
M  V30 12 1 10 13
M  V30 13 2 10 14
M  V30 14 2 11 15
M  V30 15 2 13 16
M  V30 16 1 13 17
M  V30 17 1 14 18
M  V30 18 1 14 19
M  V30 19 1 17 20
M  V30 20 1 17 21
M  V30 21 1 19 22
M  V30 22 1 20 23
M  V30 23 1 21 24
M  V30 24 2 22 25
M  V30 25 2 23 26
M  V30 26 1 24 27
M  V30 27 1 25 28
M  V30 28 1 27 29
M  V30 29 1 27 30
M  V30 30 1 27 31
M  V30 31 1 28 32
M  V30 32 1 32 33
M  V30 33 1 33 34
M  V30 34 1 7 9
M  V30 35 1 12 15
M  V30 36 2 19 20
M  V30 37 1 25 26
M  V30 END BOND
M  V30 END CTAB
M  END
>  <MolRegNo>
338328

>  <m>
=

>  <Value>
370

>  <Unit>
nM

>  <Type>
EC50

>  <pValue>
6.43

>  <Ligand Efficiency>
0

>  <Binding Efficiency>
0

>  <Surface Efficiency>
0

>  <Assay Index>
256539

>  <Assay Category>


>  <Assay Organism>
Hepatitis C virus

>  <Target ID>
12097

>  <Target Name>
Hepatitis C virus NS5B RNA-dependent RNA polymerase

>  <Target Organism>
Hepatitis C virus

>  <Target Description>
Target is a single protein chain

>  <Sequence Accession>
Q8JXU8

>  <Reference>
J. Med. Chem. 49 (3), 971-983 (2006)

>  <Pubmed ID>
16451063

>  <DOI>
10.1021/jm050855s

$$$$
338328
Actelion Java MolfileCreator 2.0

  0  0  0  0  0  0              0 V3000
M  V30 BEGIN CTAB
M  V30 COUNTS 34 37 0 0 0
M  V30 BEGIN ATOM
M  V30 1 S 0.0 0.0 0.0 0
M  V30 2 O -1.3237 0.7632 0.0 0
M  V30 3 O 1.2879 0.7751 0.0 0
M  V30 4 N -1.2998 -0.7513 0.0 0
M  V30 5 C 1.2998 -0.7274 0.0 0
M  V30 6 C -1.2998 -2.23 0.0 0
M  V30 7 C 1.2998 -2.2181 0.0 0
M  V30 8 C 2.5759 0.0357 0.0 0
M  V30 9 N -0.0119 -2.9694 0.0 0
M  V30 10 C -2.6116 -2.9813 0.0 0
M  V30 11 C 2.5878 -2.9455 0.0 0
M  V30 12 C 3.8638 -0.6916 0.0 0
M  V30 13 C -2.6116 -4.4839 0.0 0
M  V30 14 C -3.9354 -2.23 0.0 0
M  V30 15 C 3.8757 -2.1704 0.0 0
M  V30 16 O -1.3118 -5.2233 0.0 0
M  V30 17 N -3.9234 -5.2233 0.0 0
M  V30 18 O -3.9592 -0.7155 0.0 0
M  V30 19 C -5.2472 -2.9694 0.0 0
M  V30 20 C -5.2352 -4.4601 0.0 0
M  V30 21 C -3.9354 -6.714 0.0 0
M  V30 22 C -6.559 -2.2062 0.0 0
M  V30 23 C -6.547 -5.2114 0.0 0
M  V30 24 C -2.6474 -7.4534 0.0 0
M  V30 25 C -7.8708 -2.9455 0.0 0
M  V30 26 C -7.8588 -4.4482 0.0 0
M  V30 27 C -2.6593 -8.9441 0.0 0
M  V30 28 N -9.1826 -2.1823 0.0 0
M  V30 29 C -2.6832 -10.4347 0.0 0
M  V30 30 C -1.1686 -8.9321 0.0 0
M  V30 31 C -4.1739 -8.9321 0.0 0
M  V30 32 C -10.4944 -2.9217 0.0 0
M  V30 33 C -10.5063 -4.4124 0.0 0
M  V30 34 O -9.2183 -5.1518 0.0 0
M  V30 END ATOM
M  V30 BEGIN BOND
M  V30 1 2 1 2
M  V30 2 2 1 3
M  V30 3 1 1 4
M  V30 4 1 1 5
M  V30 5 2 4 6
M  V30 6 2 5 7
M  V30 7 1 5 8
M  V30 8 1 6 9
M  V30 9 1 6 10
M  V30 10 1 7 11
M  V30 11 2 8 12
M  V30 12 1 10 13
M  V30 13 2 10 14
M  V30 14 2 11 15
M  V30 15 2 13 16
M  V30 16 1 13 17
M  V30 17 1 14 18
M  V30 18 1 14 19
M  V30 19 1 17 20
M  V30 20 1 17 21
M  V30 21 1 19 22
M  V30 22 1 20 23
M  V30 23 1 21 24
M  V30 24 2 22 25
M  V30 25 2 23 26
M  V30 26 1 24 27
M  V30 27 1 25 28
M  V30 28 1 27 29
M  V30 29 1 27 30
M  V30 30 1 27 31
M  V30 31 1 28 32
M  V30 32 1 32 33
M  V30 33 1 33 34
M  V30 34 1 7 9
M  V30 35 1 12 15
M  V30 36 2 19 20
M  V30 37 1 25 26
M  V30 END BOND
M  V30 END CTAB
M  END
>  <MolRegNo>
338328

>  <m>
=

>  <Value>
1442

>  <Unit>
nM

>  <Type>
EC90

>  <pValue>
0

>  <Ligand Efficiency>
0

>  <Binding Efficiency>
0

>  <Surface Efficiency>
0

>  <Assay Index>
256539

>  <Assay Category>


>  <Assay Organism>
Hepatitis C virus

>  <Target ID>
12097

>  <Target Name>
Hepatitis C virus NS5B RNA-dependent RNA polymerase

>  <Target Organism>
Hepatitis C virus

>  <Target Description>
Target is a single protein chain

>  <Sequence Accession>
Q8JXU8

>  <Reference>
J. Med. Chem. 49 (3), 971-983 (2006)

>  <Pubmed ID>
16451063

>  <DOI>
10.1021/jm050855s

$$$$
338396
Actelion Java MolfileCreator 2.0

  0  0  0  0  0  0              0 V3000
M  V30 BEGIN CTAB
M  V30 COUNTS 36 39 0 0 0
M  V30 BEGIN ATOM
M  V30 1 S 0.0 0.0 0.0 0
M  V30 2 O -1.3229 0.7628 0.0 0
M  V30 3 O 1.2872 0.7747 0.0 0
M  V30 4 N -1.2991 -0.7508 0.0 0
M  V30 5 C 1.2991 -0.727 0.0 0
M  V30 6 C -1.2991 -2.2288 0.0 0
M  V30 7 C 1.2991 -2.2168 0.0 0
M  V30 8 C 2.5744 0.0357 0.0 0
M  V30 9 N -0.0119 -2.9677 0.0 0
M  V30 10 C -2.6102 -2.9797 0.0 0
M  V30 11 C 2.5863 -2.9439 0.0 0
M  V30 12 C 3.8616 -0.6912 0.0 0
M  V30 13 C -2.6102 -4.4814 0.0 0
M  V30 14 C -3.9332 -2.2288 0.0 0
M  V30 15 C 3.8736 -2.1692 0.0 0
M  V30 16 O -1.311 -5.2204 0.0 0
M  V30 17 N -3.9212 -5.2204 0.0 0
M  V30 18 O -3.957 -0.7151 0.0 0
M  V30 19 C -5.2442 -2.9677 0.0 0
M  V30 20 C -5.2323 -4.4576 0.0 0
M  V30 21 C -3.9332 -6.7102 0.0 0
M  V30 22 C -6.5553 -2.2049 0.0 0
M  V30 23 C -6.5434 -5.2085 0.0 0
M  V30 24 C -2.6459 -7.4492 0.0 0
M  V30 25 C -7.8664 -2.9439 0.0 0
M  V30 26 C -7.8544 -4.4457 0.0 0
M  V30 27 C -2.6578 -8.9391 0.0 0
M  V30 28 N -9.1774 -2.1811 0.0 0
M  V30 29 C -1.3706 -9.678 0.0 0
M  V30 30 C -3.9689 -9.678 0.0 0
M  V30 31 C -10.4885 -2.9201 0.0 0
M  V30 32 C -10.5004 -4.4099 0.0 0
M  V30 33 O -9.2132 -5.1489 0.0 0
M  V30 34 O -11.7996 -5.1489 0.0 0
M  V30 35 C -13.1226 -4.3861 0.0 0
M  V30 36 C -13.1345 -2.8724 0.0 0
M  V30 END ATOM
M  V30 BEGIN BOND
M  V30 1 2 1 2
M  V30 2 2 1 3
M  V30 3 1 1 4
M  V30 4 1 1 5
M  V30 5 2 4 6
M  V30 6 2 5 7
M  V30 7 1 5 8
M  V30 8 1 6 9
M  V30 9 1 6 10
M  V30 10 1 7 11
M  V30 11 2 8 12
M  V30 12 1 10 13
M  V30 13 2 10 14
M  V30 14 2 11 15
M  V30 15 2 13 16
M  V30 16 1 13 17
M  V30 17 1 14 18
M  V30 18 1 14 19
M  V30 19 1 17 20
M  V30 20 1 17 21
M  V30 21 1 19 22
M  V30 22 1 20 23
M  V30 23 1 21 24
M  V30 24 2 22 25
M  V30 25 2 23 26
M  V30 26 1 24 27
M  V30 27 1 25 28
M  V30 28 1 27 29
M  V30 29 1 27 30
M  V30 30 1 28 31
M  V30 31 1 31 32
M  V30 32 2 32 33
M  V30 33 1 32 34
M  V30 34 1 34 35
M  V30 35 1 35 36
M  V30 36 1 7 9
M  V30 37 1 12 15
M  V30 38 2 19 20
M  V30 39 1 25 26
M  V30 END BOND
M  V30 END CTAB
M  END
>  <MolRegNo>
338396

>  <m>
=

>  <Value>
265

>  <Unit>
nM

>  <Type>
EC50

>  <pValue>
6.58

>  <Ligand Efficiency>
0

>  <Binding Efficiency>
0

>  <Surface Efficiency>
0

>  <Assay Index>
256539

>  <Assay Category>


>  <Assay Organism>
Hepatitis C virus

>  <Target ID>
12097

>  <Target Name>
Hepatitis C virus NS5B RNA-dependent RNA polymerase

>  <Target Organism>
Hepatitis C virus

>  <Target Description>
Target is a single protein chain

>  <Sequence Accession>
Q8JXU8

>  <Reference>
J. Med. Chem. 49 (3), 971-983 (2006)

>  <Pubmed ID>
16451063

>  <DOI>
10.1021/jm050855s

$$$$
338396
Actelion Java MolfileCreator 2.0

  0  0  0  0  0  0              0 V3000
M  V30 BEGIN CTAB
M  V30 COUNTS 36 39 0 0 0
M  V30 BEGIN ATOM
M  V30 1 S 0.0 0.0 0.0 0
M  V30 2 O -1.3229 0.7628 0.0 0
M  V30 3 O 1.2872 0.7747 0.0 0
M  V30 4 N -1.2991 -0.7508 0.0 0
M  V30 5 C 1.2991 -0.727 0.0 0
M  V30 6 C -1.2991 -2.2288 0.0 0
M  V30 7 C 1.2991 -2.2168 0.0 0
M  V30 8 C 2.5744 0.0357 0.0 0
M  V30 9 N -0.0119 -2.9677 0.0 0
M  V30 10 C -2.6102 -2.9797 0.0 0
M  V30 11 C 2.5863 -2.9439 0.0 0
M  V30 12 C 3.8616 -0.6912 0.0 0
M  V30 13 C -2.6102 -4.4814 0.0 0
M  V30 14 C -3.9332 -2.2288 0.0 0
M  V30 15 C 3.8736 -2.1692 0.0 0
M  V30 16 O -1.311 -5.2204 0.0 0
M  V30 17 N -3.9212 -5.2204 0.0 0
M  V30 18 O -3.957 -0.7151 0.0 0
M  V30 19 C -5.2442 -2.9677 0.0 0
M  V30 20 C -5.2323 -4.4576 0.0 0
M  V30 21 C -3.9332 -6.7102 0.0 0
M  V30 22 C -6.5553 -2.2049 0.0 0
M  V30 23 C -6.5434 -5.2085 0.0 0
M  V30 24 C -2.6459 -7.4492 0.0 0
M  V30 25 C -7.8664 -2.9439 0.0 0
M  V30 26 C -7.8544 -4.4457 0.0 0
M  V30 27 C -2.6578 -8.9391 0.0 0
M  V30 28 N -9.1774 -2.1811 0.0 0
M  V30 29 C -1.3706 -9.678 0.0 0
M  V30 30 C -3.9689 -9.678 0.0 0
M  V30 31 C -10.4885 -2.9201 0.0 0
M  V30 32 C -10.5004 -4.4099 0.0 0
M  V30 33 O -9.2132 -5.1489 0.0 0
M  V30 34 O -11.7996 -5.1489 0.0 0
M  V30 35 C -13.1226 -4.3861 0.0 0
M  V30 36 C -13.1345 -2.8724 0.0 0
M  V30 END ATOM
M  V30 BEGIN BOND
M  V30 1 2 1 2
M  V30 2 2 1 3
M  V30 3 1 1 4
M  V30 4 1 1 5
M  V30 5 2 4 6
M  V30 6 2 5 7
M  V30 7 1 5 8
M  V30 8 1 6 9
M  V30 9 1 6 10
M  V30 10 1 7 11
M  V30 11 2 8 12
M  V30 12 1 10 13
M  V30 13 2 10 14
M  V30 14 2 11 15
M  V30 15 2 13 16
M  V30 16 1 13 17
M  V30 17 1 14 18
M  V30 18 1 14 19
M  V30 19 1 17 20
M  V30 20 1 17 21
M  V30 21 1 19 22
M  V30 22 1 20 23
M  V30 23 1 21 24
M  V30 24 2 22 25
M  V30 25 2 23 26
M  V30 26 1 24 27
M  V30 27 1 25 28
M  V30 28 1 27 29
M  V30 29 1 27 30
M  V30 30 1 28 31
M  V30 31 1 31 32
M  V30 32 2 32 33
M  V30 33 1 32 34
M  V30 34 1 34 35
M  V30 35 1 35 36
M  V30 36 1 7 9
M  V30 37 1 12 15
M  V30 38 2 19 20
M  V30 39 1 25 26
M  V30 END BOND
M  V30 END CTAB
M  END
>  <MolRegNo>
338396

>  <m>
=

>  <Value>
998

>  <Unit>
nM

>  <Type>
EC90

>  <pValue>
0

>  <Ligand Efficiency>
0

>  <Binding Efficiency>
0

>  <Surface Efficiency>
0

>  <Assay Index>
256539

>  <Assay Category>


>  <Assay Organism>
Hepatitis C virus

>  <Target ID>
12097

>  <Target Name>
Hepatitis C virus NS5B RNA-dependent RNA polymerase

>  <Target Organism>
Hepatitis C virus

>  <Target Description>
Target is a single protein chain

>  <Sequence Accession>
Q8JXU8

>  <Reference>
J. Med. Chem. 49 (3), 971-983 (2006)

>  <Pubmed ID>
16451063

>  <DOI>
10.1021/jm050855s

$$$$
338598
Actelion Java MolfileCreator 2.0

  0  0  0  0  0  0              0 V3000
M  V30 BEGIN CTAB
M  V30 COUNTS 34 37 0 0 0
M  V30 BEGIN ATOM
M  V30 1 S 0.0 0.0 0.0 0
M  V30 2 O -1.3239 0.7633 0.0 0
M  V30 3 O 1.2881 0.7752 0.0 0
M  V30 4 N -1.3001 -0.7514 0.0 0
M  V30 5 C 1.3001 -0.7275 0.0 0
M  V30 6 C -1.3001 -2.2304 0.0 0
M  V30 7 C 1.3001 -2.2185 0.0 0
M  V30 8 C 2.5763 0.0357 0.0 0
M  V30 9 N -0.0119 -2.9699 0.0 0
M  V30 10 C -2.6121 -2.9818 0.0 0
M  V30 11 C 2.5882 -2.9461 0.0 0
M  V30 12 C 3.8645 -0.6918 0.0 0
M  V30 13 C -2.6121 -4.4847 0.0 0
M  V30 14 C -3.9361 -2.2304 0.0 0
M  V30 15 C 3.8764 -2.1708 0.0 0
M  V30 16 O -1.312 -5.2242 0.0 0
M  V30 17 N -3.9241 -5.2242 0.0 0
M  V30 18 O -3.9599 -0.7156 0.0 0
M  V30 19 C -5.2481 -2.9699 0.0 0
M  V30 20 C -5.2362 -4.4609 0.0 0
M  V30 21 C -3.9361 -6.7152 0.0 0
M  V30 22 C -6.5601 -2.2066 0.0 0
M  V30 23 C -6.5482 -5.2123 0.0 0
M  V30 24 C -2.6479 -7.4547 0.0 0
M  V30 25 C -7.8722 -2.9461 0.0 0
M  V30 26 C -7.8602 -4.4489 0.0 0
M  V30 27 C -2.6598 -8.9456 0.0 0
M  V30 28 N -9.1842 -2.1827 0.0 0
M  V30 29 C -1.3716 -9.6852 0.0 0
M  V30 30 C -3.9718 -9.6852 0.0 0
M  V30 31 C -10.4962 -2.9222 0.0 0
M  V30 32 C -10.5082 -4.4132 0.0 0
M  V30 33 O -9.22 -5.1527 0.0 0
M  V30 34 O -11.8083 -5.1527 0.0 0
M  V30 END ATOM
M  V30 BEGIN BOND
M  V30 1 2 1 2
M  V30 2 2 1 3
M  V30 3 1 1 4
M  V30 4 1 1 5
M  V30 5 2 4 6
M  V30 6 2 5 7
M  V30 7 1 5 8
M  V30 8 1 6 9
M  V30 9 1 6 10
M  V30 10 1 7 11
M  V30 11 2 8 12
M  V30 12 1 10 13
M  V30 13 2 10 14
M  V30 14 2 11 15
M  V30 15 2 13 16
M  V30 16 1 13 17
M  V30 17 1 14 18
M  V30 18 1 14 19
M  V30 19 1 17 20
M  V30 20 1 17 21
M  V30 21 1 19 22
M  V30 22 1 20 23
M  V30 23 1 21 24
M  V30 24 2 22 25
M  V30 25 2 23 26
M  V30 26 1 24 27
M  V30 27 1 25 28
M  V30 28 1 27 29
M  V30 29 1 27 30
M  V30 30 1 28 31
M  V30 31 1 31 32
M  V30 32 2 32 33
M  V30 33 1 32 34
M  V30 34 1 7 9
M  V30 35 1 12 15
M  V30 36 2 19 20
M  V30 37 1 25 26
M  V30 END BOND
M  V30 END CTAB
M  END
>  <MolRegNo>
338598

>  <m>
=

>  <Value>
2492

>  <Unit>
nM

>  <Type>
EC50

>  <pValue>
5.6

>  <Ligand Efficiency>
0

>  <Binding Efficiency>
0

>  <Surface Efficiency>
0

>  <Assay Index>
256539

>  <Assay Category>


>  <Assay Organism>
Hepatitis C virus

>  <Target ID>
12097

>  <Target Name>
Hepatitis C virus NS5B RNA-dependent RNA polymerase

>  <Target Organism>
Hepatitis C virus

>  <Target Description>
Target is a single protein chain

>  <Sequence Accession>
Q8JXU8

>  <Reference>
J. Med. Chem. 49 (3), 971-983 (2006)

>  <Pubmed ID>
16451063

>  <DOI>
10.1021/jm050855s

$$$$
338598
Actelion Java MolfileCreator 2.0

  0  0  0  0  0  0              0 V3000
M  V30 BEGIN CTAB
M  V30 COUNTS 34 37 0 0 0
M  V30 BEGIN ATOM
M  V30 1 S 0.0 0.0 0.0 0
M  V30 2 O -1.3239 0.7633 0.0 0
M  V30 3 O 1.2881 0.7752 0.0 0
M  V30 4 N -1.3001 -0.7514 0.0 0
M  V30 5 C 1.3001 -0.7275 0.0 0
M  V30 6 C -1.3001 -2.2304 0.0 0
M  V30 7 C 1.3001 -2.2185 0.0 0
M  V30 8 C 2.5763 0.0357 0.0 0
M  V30 9 N -0.0119 -2.9699 0.0 0
M  V30 10 C -2.6121 -2.9818 0.0 0
M  V30 11 C 2.5882 -2.9461 0.0 0
M  V30 12 C 3.8645 -0.6918 0.0 0
M  V30 13 C -2.6121 -4.4847 0.0 0
M  V30 14 C -3.9361 -2.2304 0.0 0
M  V30 15 C 3.8764 -2.1708 0.0 0
M  V30 16 O -1.312 -5.2242 0.0 0
M  V30 17 N -3.9241 -5.2242 0.0 0
M  V30 18 O -3.9599 -0.7156 0.0 0
M  V30 19 C -5.2481 -2.9699 0.0 0
M  V30 20 C -5.2362 -4.4609 0.0 0
M  V30 21 C -3.9361 -6.7152 0.0 0
M  V30 22 C -6.5601 -2.2066 0.0 0
M  V30 23 C -6.5482 -5.2123 0.0 0
M  V30 24 C -2.6479 -7.4547 0.0 0
M  V30 25 C -7.8722 -2.9461 0.0 0
M  V30 26 C -7.8602 -4.4489 0.0 0
M  V30 27 C -2.6598 -8.9456 0.0 0
M  V30 28 N -9.1842 -2.1827 0.0 0
M  V30 29 C -1.3716 -9.6852 0.0 0
M  V30 30 C -3.9718 -9.6852 0.0 0
M  V30 31 C -10.4962 -2.9222 0.0 0
M  V30 32 C -10.5082 -4.4132 0.0 0
M  V30 33 O -9.22 -5.1527 0.0 0
M  V30 34 O -11.8083 -5.1527 0.0 0
M  V30 END ATOM
M  V30 BEGIN BOND
M  V30 1 2 1 2
M  V30 2 2 1 3
M  V30 3 1 1 4
M  V30 4 1 1 5
M  V30 5 2 4 6
M  V30 6 2 5 7
M  V30 7 1 5 8
M  V30 8 1 6 9
M  V30 9 1 6 10
M  V30 10 1 7 11
M  V30 11 2 8 12
M  V30 12 1 10 13
M  V30 13 2 10 14
M  V30 14 2 11 15
M  V30 15 2 13 16
M  V30 16 1 13 17
M  V30 17 1 14 18
M  V30 18 1 14 19
M  V30 19 1 17 20
M  V30 20 1 17 21
M  V30 21 1 19 22
M  V30 22 1 20 23
M  V30 23 1 21 24
M  V30 24 2 22 25
M  V30 25 2 23 26
M  V30 26 1 24 27
M  V30 27 1 25 28
M  V30 28 1 27 29
M  V30 29 1 27 30
M  V30 30 1 28 31
M  V30 31 1 31 32
M  V30 32 2 32 33
M  V30 33 1 32 34
M  V30 34 1 7 9
M  V30 35 1 12 15
M  V30 36 2 19 20
M  V30 37 1 25 26
M  V30 END BOND
M  V30 END CTAB
M  END
>  <MolRegNo>
338598

>  <m>
=

>  <Value>
9610

>  <Unit>
nM

>  <Type>
EC90

>  <pValue>
0

>  <Ligand Efficiency>
0

>  <Binding Efficiency>
0

>  <Surface Efficiency>
0

>  <Assay Index>
256539

>  <Assay Category>


>  <Assay Organism>
Hepatitis C virus

>  <Target ID>
12097

>  <Target Name>
Hepatitis C virus NS5B RNA-dependent RNA polymerase

>  <Target Organism>
Hepatitis C virus

>  <Target Description>
Target is a single protein chain

>  <Sequence Accession>
Q8JXU8

>  <Reference>
J. Med. Chem. 49 (3), 971-983 (2006)

>  <Pubmed ID>
16451063

>  <DOI>
10.1021/jm050855s

$$$$
338327
Actelion Java MolfileCreator 2.0

  0  0  0  0  0  0              0 V3000
M  V30 BEGIN CTAB
M  V30 COUNTS 34 37 0 0 0
M  V30 BEGIN ATOM
M  V30 1 S 0.0 0.0 0.0 0
M  V30 2 O -1.3237 0.7632 0.0 0
M  V30 3 O 1.2879 0.7751 0.0 0
M  V30 4 N -1.2998 -0.7512 0.0 0
M  V30 5 C 1.2998 -0.7274 0.0 0
M  V30 6 C -1.2998 -2.23 0.0 0
M  V30 7 C 1.2998 -2.2181 0.0 0
M  V30 8 C 2.5758 0.0357 0.0 0
M  V30 9 N -0.0119 -2.9694 0.0 0
M  V30 10 C -2.6116 -2.9813 0.0 0
M  V30 11 C 2.5878 -2.9455 0.0 0
M  V30 12 C 3.8638 -0.6916 0.0 0
M  V30 13 C -2.6116 -4.4839 0.0 0
M  V30 14 C -3.9353 -2.23 0.0 0
M  V30 15 C 3.8757 -2.1704 0.0 0
M  V30 16 O -1.3117 -5.2233 0.0 0
M  V30 17 N -3.9234 -5.2233 0.0 0
M  V30 18 O -3.9592 -0.7155 0.0 0
M  V30 19 C -5.2471 -2.9694 0.0 0
M  V30 20 C -5.2352 -4.46 0.0 0
M  V30 21 C -3.9353 -6.7139 0.0 0
M  V30 22 C -6.5589 -2.2061 0.0 0
M  V30 23 C -6.547 -5.2113 0.0 0
M  V30 24 C -2.6474 -7.4533 0.0 0
M  V30 25 C -7.8707 -2.9455 0.0 0
M  V30 26 C -7.8588 -4.4481 0.0 0
M  V30 27 C -2.6593 -8.944 0.0 0
M  V30 28 O -9.1825 -2.1823 0.0 0
M  V30 29 C -1.3714 -9.6833 0.0 0
M  V30 30 C -3.9711 -9.6833 0.0 0
M  V30 31 C -10.4943 -2.9217 0.0 0
M  V30 32 C -10.5062 -4.4123 0.0 0
M  V30 33 O -9.2183 -5.1517 0.0 0
M  V30 34 N -11.818 -5.1517 0.0 0
M  V30 END ATOM
M  V30 BEGIN BOND
M  V30 1 2 1 2
M  V30 2 2 1 3
M  V30 3 1 1 4
M  V30 4 1 1 5
M  V30 5 2 4 6
M  V30 6 2 5 7
M  V30 7 1 5 8
M  V30 8 1 6 9
M  V30 9 1 6 10
M  V30 10 1 7 11
M  V30 11 2 8 12
M  V30 12 1 10 13
M  V30 13 2 10 14
M  V30 14 2 11 15
M  V30 15 2 13 16
M  V30 16 1 13 17
M  V30 17 1 14 18
M  V30 18 1 14 19
M  V30 19 1 17 20
M  V30 20 1 17 21
M  V30 21 1 19 22
M  V30 22 1 20 23
M  V30 23 1 21 24
M  V30 24 2 22 25
M  V30 25 2 23 26
M  V30 26 1 24 27
M  V30 27 1 25 28
M  V30 28 1 27 29
M  V30 29 1 27 30
M  V30 30 1 28 31
M  V30 31 1 31 32
M  V30 32 2 32 33
M  V30 33 1 32 34
M  V30 34 1 7 9
M  V30 35 1 12 15
M  V30 36 2 19 20
M  V30 37 1 25 26
M  V30 END BOND
M  V30 END CTAB
M  END
>  <MolRegNo>
338327

>  <m>
=

>  <Value>
511

>  <Unit>
nM

>  <Type>
EC50

>  <pValue>
6.29

>  <Ligand Efficiency>
0

>  <Binding Efficiency>
0

>  <Surface Efficiency>
0

>  <Assay Index>
256539

>  <Assay Category>


>  <Assay Organism>
Hepatitis C virus

>  <Target ID>
12097

>  <Target Name>
Hepatitis C virus NS5B RNA-dependent RNA polymerase

>  <Target Organism>
Hepatitis C virus

>  <Target Description>
Target is a single protein chain

>  <Sequence Accession>
Q8JXU8

>  <Reference>
J. Med. Chem. 49 (3), 971-983 (2006)

>  <Pubmed ID>
16451063

>  <DOI>
10.1021/jm050855s

$$$$
338327
Actelion Java MolfileCreator 2.0

  0  0  0  0  0  0              0 V3000
M  V30 BEGIN CTAB
M  V30 COUNTS 34 37 0 0 0
M  V30 BEGIN ATOM
M  V30 1 S 0.0 0.0 0.0 0
M  V30 2 O -1.3237 0.7632 0.0 0
M  V30 3 O 1.2879 0.7751 0.0 0
M  V30 4 N -1.2998 -0.7512 0.0 0
M  V30 5 C 1.2998 -0.7274 0.0 0
M  V30 6 C -1.2998 -2.23 0.0 0
M  V30 7 C 1.2998 -2.2181 0.0 0
M  V30 8 C 2.5758 0.0357 0.0 0
M  V30 9 N -0.0119 -2.9694 0.0 0
M  V30 10 C -2.6116 -2.9813 0.0 0
M  V30 11 C 2.5878 -2.9455 0.0 0
M  V30 12 C 3.8638 -0.6916 0.0 0
M  V30 13 C -2.6116 -4.4839 0.0 0
M  V30 14 C -3.9353 -2.23 0.0 0
M  V30 15 C 3.8757 -2.1704 0.0 0
M  V30 16 O -1.3117 -5.2233 0.0 0
M  V30 17 N -3.9234 -5.2233 0.0 0
M  V30 18 O -3.9592 -0.7155 0.0 0
M  V30 19 C -5.2471 -2.9694 0.0 0
M  V30 20 C -5.2352 -4.46 0.0 0
M  V30 21 C -3.9353 -6.7139 0.0 0
M  V30 22 C -6.5589 -2.2061 0.0 0
M  V30 23 C -6.547 -5.2113 0.0 0
M  V30 24 C -2.6474 -7.4533 0.0 0
M  V30 25 C -7.8707 -2.9455 0.0 0
M  V30 26 C -7.8588 -4.4481 0.0 0
M  V30 27 C -2.6593 -8.944 0.0 0
M  V30 28 O -9.1825 -2.1823 0.0 0
M  V30 29 C -1.3714 -9.6833 0.0 0
M  V30 30 C -3.9711 -9.6833 0.0 0
M  V30 31 C -10.4943 -2.9217 0.0 0
M  V30 32 C -10.5062 -4.4123 0.0 0
M  V30 33 O -9.2183 -5.1517 0.0 0
M  V30 34 N -11.818 -5.1517 0.0 0
M  V30 END ATOM
M  V30 BEGIN BOND
M  V30 1 2 1 2
M  V30 2 2 1 3
M  V30 3 1 1 4
M  V30 4 1 1 5
M  V30 5 2 4 6
M  V30 6 2 5 7
M  V30 7 1 5 8
M  V30 8 1 6 9
M  V30 9 1 6 10
M  V30 10 1 7 11
M  V30 11 2 8 12
M  V30 12 1 10 13
M  V30 13 2 10 14
M  V30 14 2 11 15
M  V30 15 2 13 16
M  V30 16 1 13 17
M  V30 17 1 14 18
M  V30 18 1 14 19
M  V30 19 1 17 20
M  V30 20 1 17 21
M  V30 21 1 19 22
M  V30 22 1 20 23
M  V30 23 1 21 24
M  V30 24 2 22 25
M  V30 25 2 23 26
M  V30 26 1 24 27
M  V30 27 1 25 28
M  V30 28 1 27 29
M  V30 29 1 27 30
M  V30 30 1 28 31
M  V30 31 1 31 32
M  V30 32 2 32 33
M  V30 33 1 32 34
M  V30 34 1 7 9
M  V30 35 1 12 15
M  V30 36 2 19 20
M  V30 37 1 25 26
M  V30 END BOND
M  V30 END CTAB
M  END
>  <MolRegNo>
338327

>  <m>
=

>  <Value>
2411

>  <Unit>
nM

>  <Type>
EC90

>  <pValue>
0

>  <Ligand Efficiency>
0

>  <Binding Efficiency>
0

>  <Surface Efficiency>
0

>  <Assay Index>
256539

>  <Assay Category>


>  <Assay Organism>
Hepatitis C virus

>  <Target ID>
12097

>  <Target Name>
Hepatitis C virus NS5B RNA-dependent RNA polymerase

>  <Target Organism>
Hepatitis C virus

>  <Target Description>
Target is a single protein chain

>  <Sequence Accession>
Q8JXU8

>  <Reference>
J. Med. Chem. 49 (3), 971-983 (2006)

>  <Pubmed ID>
16451063

>  <DOI>
10.1021/jm050855s

$$$$
338097
Actelion Java MolfileCreator 2.0

  0  0  0  0  0  0              0 V3000
M  V30 BEGIN CTAB
M  V30 COUNTS 33 36 0 0 0
M  V30 BEGIN ATOM
M  V30 1 S 0.0 0.0 0.0 0
M  V30 2 O -1.3221 0.7623 0.0 0
M  V30 3 O 1.2864 0.7742 0.0 0
M  V30 4 N -1.2983 -0.7504 0.0 0
M  V30 5 C 1.2983 -0.7265 0.0 0
M  V30 6 C -1.2983 -2.2274 0.0 0
M  V30 7 C 1.2983 -2.2154 0.0 0
M  V30 8 C 2.5728 0.0357 0.0 0
M  V30 9 N -0.0119 -2.9658 0.0 0
M  V30 10 C -2.6085 -2.9778 0.0 0
M  V30 11 C 2.5847 -2.942 0.0 0
M  V30 12 C 3.8592 -0.6908 0.0 0
M  V30 13 C -2.6085 -4.4786 0.0 0
M  V30 14 C -3.9307 -2.2274 0.0 0
M  V30 15 C 3.8711 -2.1678 0.0 0
M  V30 16 O -1.3102 -5.2171 0.0 0
M  V30 17 N -3.9187 -5.2171 0.0 0
M  V30 18 O -3.9545 -0.7146 0.0 0
M  V30 19 C -5.2409 -2.9658 0.0 0
M  V30 20 C -5.229 -4.4548 0.0 0
M  V30 21 C -3.9307 -6.706 0.0 0
M  V30 22 C -6.5511 -2.2035 0.0 0
M  V30 23 C -6.5392 -5.2052 0.0 0
M  V30 24 C -2.6442 -7.4445 0.0 0
M  V30 25 C -7.8614 -2.942 0.0 0
M  V30 26 C -7.8495 -4.4428 0.0 0
M  V30 27 C -2.6562 -8.9334 0.0 0
M  V30 28 O -9.1716 -2.1797 0.0 0
M  V30 29 C -1.3697 -9.6719 0.0 0
M  V30 30 C -3.9664 -9.6719 0.0 0
M  V30 31 C -10.4818 -2.9182 0.0 0
M  V30 32 C -11.7921 -2.1559 0.0 0
M  V30 33 N -13.1142 -1.3936 0.0 0
M  V30 END ATOM
M  V30 BEGIN BOND
M  V30 1 2 1 2
M  V30 2 2 1 3
M  V30 3 1 1 4
M  V30 4 1 1 5
M  V30 5 2 4 6
M  V30 6 2 5 7
M  V30 7 1 5 8
M  V30 8 1 6 9
M  V30 9 1 6 10
M  V30 10 1 7 11
M  V30 11 2 8 12
M  V30 12 1 10 13
M  V30 13 2 10 14
M  V30 14 2 11 15
M  V30 15 2 13 16
M  V30 16 1 13 17
M  V30 17 1 14 18
M  V30 18 1 14 19
M  V30 19 1 17 20
M  V30 20 1 17 21
M  V30 21 1 19 22
M  V30 22 1 20 23
M  V30 23 1 21 24
M  V30 24 2 22 25
M  V30 25 2 23 26
M  V30 26 1 24 27
M  V30 27 1 25 28
M  V30 28 1 27 29
M  V30 29 1 27 30
M  V30 30 1 28 31
M  V30 31 1 31 32
M  V30 32 3 32 33
M  V30 33 1 7 9
M  V30 34 1 12 15
M  V30 35 2 19 20
M  V30 36 1 25 26
M  V30 END BOND
M  V30 END CTAB
M  END
>  <MolRegNo>
338097

>  <m>
=

>  <Value>
298

>  <Unit>
nM

>  <Type>
EC50

>  <pValue>
6.53

>  <Ligand Efficiency>
0

>  <Binding Efficiency>
0

>  <Surface Efficiency>
0

>  <Assay Index>
256539

>  <Assay Category>


>  <Assay Organism>
Hepatitis C virus

>  <Target ID>
12097

>  <Target Name>
Hepatitis C virus NS5B RNA-dependent RNA polymerase

>  <Target Organism>
Hepatitis C virus

>  <Target Description>
Target is a single protein chain

>  <Sequence Accession>
Q8JXU8

>  <Reference>
J. Med. Chem. 49 (3), 971-983 (2006)

>  <Pubmed ID>
16451063

>  <DOI>
10.1021/jm050855s

$$$$
338097
Actelion Java MolfileCreator 2.0

  0  0  0  0  0  0              0 V3000
M  V30 BEGIN CTAB
M  V30 COUNTS 33 36 0 0 0
M  V30 BEGIN ATOM
M  V30 1 S 0.0 0.0 0.0 0
M  V30 2 O -1.3221 0.7623 0.0 0
M  V30 3 O 1.2864 0.7742 0.0 0
M  V30 4 N -1.2983 -0.7504 0.0 0
M  V30 5 C 1.2983 -0.7265 0.0 0
M  V30 6 C -1.2983 -2.2274 0.0 0
M  V30 7 C 1.2983 -2.2154 0.0 0
M  V30 8 C 2.5728 0.0357 0.0 0
M  V30 9 N -0.0119 -2.9658 0.0 0
M  V30 10 C -2.6085 -2.9778 0.0 0
M  V30 11 C 2.5847 -2.942 0.0 0
M  V30 12 C 3.8592 -0.6908 0.0 0
M  V30 13 C -2.6085 -4.4786 0.0 0
M  V30 14 C -3.9307 -2.2274 0.0 0
M  V30 15 C 3.8711 -2.1678 0.0 0
M  V30 16 O -1.3102 -5.2171 0.0 0
M  V30 17 N -3.9187 -5.2171 0.0 0
M  V30 18 O -3.9545 -0.7146 0.0 0
M  V30 19 C -5.2409 -2.9658 0.0 0
M  V30 20 C -5.229 -4.4548 0.0 0
M  V30 21 C -3.9307 -6.706 0.0 0
M  V30 22 C -6.5511 -2.2035 0.0 0
M  V30 23 C -6.5392 -5.2052 0.0 0
M  V30 24 C -2.6442 -7.4445 0.0 0
M  V30 25 C -7.8614 -2.942 0.0 0
M  V30 26 C -7.8495 -4.4428 0.0 0
M  V30 27 C -2.6562 -8.9334 0.0 0
M  V30 28 O -9.1716 -2.1797 0.0 0
M  V30 29 C -1.3697 -9.6719 0.0 0
M  V30 30 C -3.9664 -9.6719 0.0 0
M  V30 31 C -10.4818 -2.9182 0.0 0
M  V30 32 C -11.7921 -2.1559 0.0 0
M  V30 33 N -13.1142 -1.3936 0.0 0
M  V30 END ATOM
M  V30 BEGIN BOND
M  V30 1 2 1 2
M  V30 2 2 1 3
M  V30 3 1 1 4
M  V30 4 1 1 5
M  V30 5 2 4 6
M  V30 6 2 5 7
M  V30 7 1 5 8
M  V30 8 1 6 9
M  V30 9 1 6 10
M  V30 10 1 7 11
M  V30 11 2 8 12
M  V30 12 1 10 13
M  V30 13 2 10 14
M  V30 14 2 11 15
M  V30 15 2 13 16
M  V30 16 1 13 17
M  V30 17 1 14 18
M  V30 18 1 14 19
M  V30 19 1 17 20
M  V30 20 1 17 21
M  V30 21 1 19 22
M  V30 22 1 20 23
M  V30 23 1 21 24
M  V30 24 2 22 25
M  V30 25 2 23 26
M  V30 26 1 24 27
M  V30 27 1 25 28
M  V30 28 1 27 29
M  V30 29 1 27 30
M  V30 30 1 28 31
M  V30 31 1 31 32
M  V30 32 3 32 33
M  V30 33 1 7 9
M  V30 34 1 12 15
M  V30 35 2 19 20
M  V30 36 1 25 26
M  V30 END BOND
M  V30 END CTAB
M  END
>  <MolRegNo>
338097

>  <m>
=

>  <Value>
1613

>  <Unit>
nM

>  <Type>
EC90

>  <pValue>
0

>  <Ligand Efficiency>
0

>  <Binding Efficiency>
0

>  <Surface Efficiency>
0

>  <Assay Index>
256539

>  <Assay Category>


>  <Assay Organism>
Hepatitis C virus

>  <Target ID>
12097

>  <Target Name>
Hepatitis C virus NS5B RNA-dependent RNA polymerase

>  <Target Organism>
Hepatitis C virus

>  <Target Description>
Target is a single protein chain

>  <Sequence Accession>
Q8JXU8

>  <Reference>
J. Med. Chem. 49 (3), 971-983 (2006)

>  <Pubmed ID>
16451063

>  <DOI>
10.1021/jm050855s

$$$$
338240
Actelion Java MolfileCreator 2.0

  0  0  0  0  0  0              0 V3000
M  V30 BEGIN CTAB
M  V30 COUNTS 30 33 0 0 0
M  V30 BEGIN ATOM
M  V30 1 S 0.0 0.0 0.0 0
M  V30 2 O -1.3233 0.763 0.0 0
M  V30 3 O 1.2876 0.7749 0.0 0
M  V30 4 N -1.2995 -0.7511 0.0 0
M  V30 5 C 1.2995 -0.7272 0.0 0
M  V30 6 C -1.2995 -2.2294 0.0 0
M  V30 7 C 1.2995 -2.2175 0.0 0
M  V30 8 C 2.5752 0.0357 0.0 0
M  V30 9 N -0.0119 -2.9686 0.0 0
M  V30 10 C -2.6109 -2.9805 0.0 0
M  V30 11 C 2.5871 -2.9448 0.0 0
M  V30 12 C 3.8628 -0.6914 0.0 0
M  V30 13 C -2.6109 -4.4827 0.0 0
M  V30 14 C -3.9343 -2.2294 0.0 0
M  V30 15 C 3.8747 -2.1698 0.0 0
M  V30 16 O -1.3114 -5.2219 0.0 0
M  V30 17 N -3.9224 -5.2219 0.0 0
M  V30 18 O -3.9582 -0.7153 0.0 0
M  V30 19 C -5.2458 -2.9686 0.0 0
M  V30 20 C -5.2339 -4.4589 0.0 0
M  V30 21 C -3.9343 -6.7122 0.0 0
M  V30 22 C -6.5572 -2.2056 0.0 0
M  V30 23 C -6.5453 -5.21 0.0 0
M  V30 24 C -2.6467 -7.4514 0.0 0
M  V30 25 C -7.8687 -2.9448 0.0 0
M  V30 26 C -7.8568 -4.447 0.0 0
M  V30 27 C -2.6586 -8.9417 0.0 0
M  V30 28 N -9.1801 -2.1817 0.0 0
M  V30 29 C -1.371 -9.6809 0.0 0
M  V30 30 C -3.9701 -9.6809 0.0 0
M  V30 END ATOM
M  V30 BEGIN BOND
M  V30 1 2 1 2
M  V30 2 2 1 3
M  V30 3 1 1 4
M  V30 4 1 1 5
M  V30 5 2 4 6
M  V30 6 2 5 7
M  V30 7 1 5 8
M  V30 8 1 6 9
M  V30 9 1 6 10
M  V30 10 1 7 11
M  V30 11 2 8 12
M  V30 12 1 10 13
M  V30 13 2 10 14
M  V30 14 2 11 15
M  V30 15 2 13 16
M  V30 16 1 13 17
M  V30 17 1 14 18
M  V30 18 1 14 19
M  V30 19 1 17 20
M  V30 20 1 17 21
M  V30 21 1 19 22
M  V30 22 1 20 23
M  V30 23 1 21 24
M  V30 24 2 22 25
M  V30 25 2 23 26
M  V30 26 1 24 27
M  V30 27 1 25 28
M  V30 28 1 27 29
M  V30 29 1 27 30
M  V30 30 1 7 9
M  V30 31 1 12 15
M  V30 32 2 19 20
M  V30 33 1 25 26
M  V30 END BOND
M  V30 END CTAB
M  END
>  <MolRegNo>
338240

>  <m>
=

>  <Value>
274

>  <Unit>
nM

>  <Type>
EC50

>  <pValue>
6.56

>  <Ligand Efficiency>
0

>  <Binding Efficiency>
0

>  <Surface Efficiency>
0

>  <Assay Index>
256539

>  <Assay Category>


>  <Assay Organism>
Hepatitis C virus

>  <Target ID>
12097

>  <Target Name>
Hepatitis C virus NS5B RNA-dependent RNA polymerase

>  <Target Organism>
Hepatitis C virus

>  <Target Description>
Target is a single protein chain

>  <Sequence Accession>
Q8JXU8

>  <Reference>
J. Med. Chem. 49 (3), 971-983 (2006)

>  <Pubmed ID>
16451063

>  <DOI>
10.1021/jm050855s

$$$$
338240
Actelion Java MolfileCreator 2.0

  0  0  0  0  0  0              0 V3000
M  V30 BEGIN CTAB
M  V30 COUNTS 30 33 0 0 0
M  V30 BEGIN ATOM
M  V30 1 S 0.0 0.0 0.0 0
M  V30 2 O -1.3233 0.763 0.0 0
M  V30 3 O 1.2876 0.7749 0.0 0
M  V30 4 N -1.2995 -0.7511 0.0 0
M  V30 5 C 1.2995 -0.7272 0.0 0
M  V30 6 C -1.2995 -2.2294 0.0 0
M  V30 7 C 1.2995 -2.2175 0.0 0
M  V30 8 C 2.5752 0.0357 0.0 0
M  V30 9 N -0.0119 -2.9686 0.0 0
M  V30 10 C -2.6109 -2.9805 0.0 0
M  V30 11 C 2.5871 -2.9448 0.0 0
M  V30 12 C 3.8628 -0.6914 0.0 0
M  V30 13 C -2.6109 -4.4827 0.0 0
M  V30 14 C -3.9343 -2.2294 0.0 0
M  V30 15 C 3.8747 -2.1698 0.0 0
M  V30 16 O -1.3114 -5.2219 0.0 0
M  V30 17 N -3.9224 -5.2219 0.0 0
M  V30 18 O -3.9582 -0.7153 0.0 0
M  V30 19 C -5.2458 -2.9686 0.0 0
M  V30 20 C -5.2339 -4.4589 0.0 0
M  V30 21 C -3.9343 -6.7122 0.0 0
M  V30 22 C -6.5572 -2.2056 0.0 0
M  V30 23 C -6.5453 -5.21 0.0 0
M  V30 24 C -2.6467 -7.4514 0.0 0
M  V30 25 C -7.8687 -2.9448 0.0 0
M  V30 26 C -7.8568 -4.447 0.0 0
M  V30 27 C -2.6586 -8.9417 0.0 0
M  V30 28 N -9.1801 -2.1817 0.0 0
M  V30 29 C -1.371 -9.6809 0.0 0
M  V30 30 C -3.9701 -9.6809 0.0 0
M  V30 END ATOM
M  V30 BEGIN BOND
M  V30 1 2 1 2
M  V30 2 2 1 3
M  V30 3 1 1 4
M  V30 4 1 1 5
M  V30 5 2 4 6
M  V30 6 2 5 7
M  V30 7 1 5 8
M  V30 8 1 6 9
M  V30 9 1 6 10
M  V30 10 1 7 11
M  V30 11 2 8 12
M  V30 12 1 10 13
M  V30 13 2 10 14
M  V30 14 2 11 15
M  V30 15 2 13 16
M  V30 16 1 13 17
M  V30 17 1 14 18
M  V30 18 1 14 19
M  V30 19 1 17 20
M  V30 20 1 17 21
M  V30 21 1 19 22
M  V30 22 1 20 23
M  V30 23 1 21 24
M  V30 24 2 22 25
M  V30 25 2 23 26
M  V30 26 1 24 27
M  V30 27 1 25 28
M  V30 28 1 27 29
M  V30 29 1 27 30
M  V30 30 1 7 9
M  V30 31 1 12 15
M  V30 32 2 19 20
M  V30 33 1 25 26
M  V30 END BOND
M  V30 END CTAB
M  END
>  <MolRegNo>
338240

>  <m>
=

>  <Value>
1197

>  <Unit>
nM

>  <Type>
EC90

>  <pValue>
0

>  <Ligand Efficiency>
0

>  <Binding Efficiency>
0

>  <Surface Efficiency>
0

>  <Assay Index>
256539

>  <Assay Category>


>  <Assay Organism>
Hepatitis C virus

>  <Target ID>
12097

>  <Target Name>
Hepatitis C virus NS5B RNA-dependent RNA polymerase

>  <Target Organism>
Hepatitis C virus

>  <Target Description>
Target is a single protein chain

>  <Sequence Accession>
Q8JXU8

>  <Reference>
J. Med. Chem. 49 (3), 971-983 (2006)

>  <Pubmed ID>
16451063

>  <DOI>
10.1021/jm050855s

$$$$
338063
Actelion Java MolfileCreator 2.0

  0  0  0  0  0  0              0 V3000
M  V30 BEGIN CTAB
M  V30 COUNTS 30 33 0 0 0
M  V30 BEGIN ATOM
M  V30 1 S 0.0 0.0 0.0 0
M  V30 2 O -1.3233 0.763 0.0 0
M  V30 3 O 1.2876 0.7749 0.0 0
M  V30 4 N -1.2995 -0.7511 0.0 0
M  V30 5 C 1.2995 -0.7272 0.0 0
M  V30 6 C -1.2995 -2.2294 0.0 0
M  V30 7 C 1.2995 -2.2175 0.0 0
M  V30 8 C 2.5752 0.0357 0.0 0
M  V30 9 N -0.0119 -2.9686 0.0 0
M  V30 10 C -2.6109 -2.9805 0.0 0
M  V30 11 C 2.5871 -2.9448 0.0 0
M  V30 12 C 3.8628 -0.6914 0.0 0
M  V30 13 C -2.6109 -4.4827 0.0 0
M  V30 14 C -3.9343 -2.2294 0.0 0
M  V30 15 C 3.8747 -2.1698 0.0 0
M  V30 16 O -1.3114 -5.2219 0.0 0
M  V30 17 N -3.9224 -5.2219 0.0 0
M  V30 18 O -3.9582 -0.7153 0.0 0
M  V30 19 C -5.2458 -2.9686 0.0 0
M  V30 20 C -5.2339 -4.4589 0.0 0
M  V30 21 C -3.9343 -6.7122 0.0 0
M  V30 22 C -6.5572 -2.2056 0.0 0
M  V30 23 C -6.5453 -5.21 0.0 0
M  V30 24 C -2.6467 -7.4514 0.0 0
M  V30 25 C -7.8687 -2.9448 0.0 0
M  V30 26 C -7.8568 -4.447 0.0 0
M  V30 27 C -2.6586 -8.9417 0.0 0
M  V30 28 C -9.1801 -2.1817 0.0 0
M  V30 29 C -1.371 -9.6809 0.0 0
M  V30 30 C -3.9701 -9.6809 0.0 0
M  V30 END ATOM
M  V30 BEGIN BOND
M  V30 1 2 1 2
M  V30 2 2 1 3
M  V30 3 1 1 4
M  V30 4 1 1 5
M  V30 5 2 4 6
M  V30 6 2 5 7
M  V30 7 1 5 8
M  V30 8 1 6 9
M  V30 9 1 6 10
M  V30 10 1 7 11
M  V30 11 2 8 12
M  V30 12 1 10 13
M  V30 13 2 10 14
M  V30 14 2 11 15
M  V30 15 2 13 16
M  V30 16 1 13 17
M  V30 17 1 14 18
M  V30 18 1 14 19
M  V30 19 1 17 20
M  V30 20 1 17 21
M  V30 21 1 19 22
M  V30 22 1 20 23
M  V30 23 1 21 24
M  V30 24 2 22 25
M  V30 25 2 23 26
M  V30 26 1 24 27
M  V30 27 1 25 28
M  V30 28 1 27 29
M  V30 29 1 27 30
M  V30 30 1 7 9
M  V30 31 1 12 15
M  V30 32 2 19 20
M  V30 33 1 25 26
M  V30 END BOND
M  V30 END CTAB
M  END
>  <MolRegNo>
338063

>  <m>
=

>  <Value>
180

>  <Unit>
nM

>  <Type>
EC50

>  <pValue>
6.75

>  <Ligand Efficiency>
0

>  <Binding Efficiency>
0

>  <Surface Efficiency>
0

>  <Assay Index>
256539

>  <Assay Category>


>  <Assay Organism>
Hepatitis C virus

>  <Target ID>
12097

>  <Target Name>
Hepatitis C virus NS5B RNA-dependent RNA polymerase

>  <Target Organism>
Hepatitis C virus

>  <Target Description>
Target is a single protein chain

>  <Sequence Accession>
Q8JXU8

>  <Reference>
J. Med. Chem. 49 (3), 971-983 (2006)

>  <Pubmed ID>
16451063

>  <DOI>
10.1021/jm050855s

$$$$
338063
Actelion Java MolfileCreator 2.0

  0  0  0  0  0  0              0 V3000
M  V30 BEGIN CTAB
M  V30 COUNTS 30 33 0 0 0
M  V30 BEGIN ATOM
M  V30 1 S 0.0 0.0 0.0 0
M  V30 2 O -1.3233 0.763 0.0 0
M  V30 3 O 1.2876 0.7749 0.0 0
M  V30 4 N -1.2995 -0.7511 0.0 0
M  V30 5 C 1.2995 -0.7272 0.0 0
M  V30 6 C -1.2995 -2.2294 0.0 0
M  V30 7 C 1.2995 -2.2175 0.0 0
M  V30 8 C 2.5752 0.0357 0.0 0
M  V30 9 N -0.0119 -2.9686 0.0 0
M  V30 10 C -2.6109 -2.9805 0.0 0
M  V30 11 C 2.5871 -2.9448 0.0 0
M  V30 12 C 3.8628 -0.6914 0.0 0
M  V30 13 C -2.6109 -4.4827 0.0 0
M  V30 14 C -3.9343 -2.2294 0.0 0
M  V30 15 C 3.8747 -2.1698 0.0 0
M  V30 16 O -1.3114 -5.2219 0.0 0
M  V30 17 N -3.9224 -5.2219 0.0 0
M  V30 18 O -3.9582 -0.7153 0.0 0
M  V30 19 C -5.2458 -2.9686 0.0 0
M  V30 20 C -5.2339 -4.4589 0.0 0
M  V30 21 C -3.9343 -6.7122 0.0 0
M  V30 22 C -6.5572 -2.2056 0.0 0
M  V30 23 C -6.5453 -5.21 0.0 0
M  V30 24 C -2.6467 -7.4514 0.0 0
M  V30 25 C -7.8687 -2.9448 0.0 0
M  V30 26 C -7.8568 -4.447 0.0 0
M  V30 27 C -2.6586 -8.9417 0.0 0
M  V30 28 C -9.1801 -2.1817 0.0 0
M  V30 29 C -1.371 -9.6809 0.0 0
M  V30 30 C -3.9701 -9.6809 0.0 0
M  V30 END ATOM
M  V30 BEGIN BOND
M  V30 1 2 1 2
M  V30 2 2 1 3
M  V30 3 1 1 4
M  V30 4 1 1 5
M  V30 5 2 4 6
M  V30 6 2 5 7
M  V30 7 1 5 8
M  V30 8 1 6 9
M  V30 9 1 6 10
M  V30 10 1 7 11
M  V30 11 2 8 12
M  V30 12 1 10 13
M  V30 13 2 10 14
M  V30 14 2 11 15
M  V30 15 2 13 16
M  V30 16 1 13 17
M  V30 17 1 14 18
M  V30 18 1 14 19
M  V30 19 1 17 20
M  V30 20 1 17 21
M  V30 21 1 19 22
M  V30 22 1 20 23
M  V30 23 1 21 24
M  V30 24 2 22 25
M  V30 25 2 23 26
M  V30 26 1 24 27
M  V30 27 1 25 28
M  V30 28 1 27 29
M  V30 29 1 27 30
M  V30 30 1 7 9
M  V30 31 1 12 15
M  V30 32 2 19 20
M  V30 33 1 25 26
M  V30 END BOND
M  V30 END CTAB
M  END
>  <MolRegNo>
338063

>  <m>
=

>  <Value>
831

>  <Unit>
nM

>  <Type>
EC90

>  <pValue>
0

>  <Ligand Efficiency>
0

>  <Binding Efficiency>
0

>  <Surface Efficiency>
0

>  <Assay Index>
256539

>  <Assay Category>


>  <Assay Organism>
Hepatitis C virus

>  <Target ID>
12097

>  <Target Name>
Hepatitis C virus NS5B RNA-dependent RNA polymerase

>  <Target Organism>
Hepatitis C virus

>  <Target Description>
Target is a single protein chain

>  <Sequence Accession>
Q8JXU8

>  <Reference>
J. Med. Chem. 49 (3), 971-983 (2006)

>  <Pubmed ID>
16451063

>  <DOI>
10.1021/jm050855s

$$$$
338093
Actelion Java MolfileCreator 2.0

  0  0  0  0  0  0              0 V3000
M  V30 BEGIN CTAB
M  V30 COUNTS 30 33 0 0 0
M  V30 BEGIN ATOM
M  V30 1 Cl 0.0 0.0 0.0 0
M  V30 2 C 1.279 -0.7411 0.0 0
M  V30 3 C 2.5699 0.0239 0.0 0
M  V30 4 C 1.267 -2.2472 0.0 0
M  V30 5 C 3.8609 -0.7171 0.0 0
M  V30 6 C 2.558 -2.9883 0.0 0
M  V30 7 C 5.1518 0.0478 0.0 0
M  V30 8 C 3.8489 -2.2233 0.0 0
M  V30 9 O 5.1279 1.5658 0.0 0
M  V30 10 C 6.4547 -0.6813 0.0 0
M  V30 11 N 5.1399 -2.9644 0.0 0
M  V30 12 C 6.4547 -2.1874 0.0 0
M  V30 13 C 7.7457 0.0956 0.0 0
M  V30 14 C 5.1279 -4.4585 0.0 0
M  V30 15 O 7.7577 -2.9285 0.0 0
M  V30 16 N 7.7218 1.6017 0.0 0
M  V30 17 N 9.0367 -0.6454 0.0 0
M  V30 18 C 6.4189 -5.1996 0.0 0
M  V30 19 S 9.0008 2.3787 0.0 0
M  V30 20 C 10.3276 0.1314 0.0 0
M  V30 21 C 6.4069 -6.6938 0.0 0
M  V30 22 O 7.674 3.1437 0.0 0
M  V30 23 O 10.2918 3.1556 0.0 0
M  V30 24 C 10.3037 1.6495 0.0 0
M  V30 25 C 11.6186 -0.5976 0.0 0
M  V30 26 C 7.6979 -7.4349 0.0 0
M  V30 27 C 5.0921 -7.4349 0.0 0
M  V30 28 C 11.5827 2.4145 0.0 0
M  V30 29 C 12.9095 0.1792 0.0 0
M  V30 30 C 12.8737 1.6854 0.0 0
M  V30 END ATOM
M  V30 BEGIN BOND
M  V30 1 1 1 2
M  V30 2 2 2 3
M  V30 3 1 2 4
M  V30 4 1 3 5
M  V30 5 2 4 6
M  V30 6 1 5 7
M  V30 7 2 5 8
M  V30 8 1 7 9
M  V30 9 2 7 10
M  V30 10 1 8 11
M  V30 11 1 10 12
M  V30 12 1 10 13
M  V30 13 1 11 14
M  V30 14 2 12 15
M  V30 15 2 13 16
M  V30 16 1 13 17
M  V30 17 1 14 18
M  V30 18 1 16 19
M  V30 19 1 17 20
M  V30 20 1 18 21
M  V30 21 2 19 22
M  V30 22 2 19 23
M  V30 23 1 19 24
M  V30 24 1 20 25
M  V30 25 1 21 26
M  V30 26 1 21 27
M  V30 27 1 24 28
M  V30 28 2 25 29
M  V30 29 2 28 30
M  V30 30 1 6 8
M  V30 31 1 11 12
M  V30 32 2 20 24
M  V30 33 1 29 30
M  V30 END BOND
M  V30 END CTAB
M  END
>  <MolRegNo>
338093

>  <m>
=

>  <Value>
1204

>  <Unit>
nM

>  <Type>
EC50

>  <pValue>
5.92

>  <Ligand Efficiency>
0

>  <Binding Efficiency>
0

>  <Surface Efficiency>
0

>  <Assay Index>
256539

>  <Assay Category>


>  <Assay Organism>
Hepatitis C virus

>  <Target ID>
12097

>  <Target Name>
Hepatitis C virus NS5B RNA-dependent RNA polymerase

>  <Target Organism>
Hepatitis C virus

>  <Target Description>
Target is a single protein chain

>  <Sequence Accession>
Q8JXU8

>  <Reference>
J. Med. Chem. 49 (3), 971-983 (2006)

>  <Pubmed ID>
16451063

>  <DOI>
10.1021/jm050855s

$$$$
338093
Actelion Java MolfileCreator 2.0

  0  0  0  0  0  0              0 V3000
M  V30 BEGIN CTAB
M  V30 COUNTS 30 33 0 0 0
M  V30 BEGIN ATOM
M  V30 1 Cl 0.0 0.0 0.0 0
M  V30 2 C 1.279 -0.7411 0.0 0
M  V30 3 C 2.5699 0.0239 0.0 0
M  V30 4 C 1.267 -2.2472 0.0 0
M  V30 5 C 3.8609 -0.7171 0.0 0
M  V30 6 C 2.558 -2.9883 0.0 0
M  V30 7 C 5.1518 0.0478 0.0 0
M  V30 8 C 3.8489 -2.2233 0.0 0
M  V30 9 O 5.1279 1.5658 0.0 0
M  V30 10 C 6.4547 -0.6813 0.0 0
M  V30 11 N 5.1399 -2.9644 0.0 0
M  V30 12 C 6.4547 -2.1874 0.0 0
M  V30 13 C 7.7457 0.0956 0.0 0
M  V30 14 C 5.1279 -4.4585 0.0 0
M  V30 15 O 7.7577 -2.9285 0.0 0
M  V30 16 N 7.7218 1.6017 0.0 0
M  V30 17 N 9.0367 -0.6454 0.0 0
M  V30 18 C 6.4189 -5.1996 0.0 0
M  V30 19 S 9.0008 2.3787 0.0 0
M  V30 20 C 10.3276 0.1314 0.0 0
M  V30 21 C 6.4069 -6.6938 0.0 0
M  V30 22 O 7.674 3.1437 0.0 0
M  V30 23 O 10.2918 3.1556 0.0 0
M  V30 24 C 10.3037 1.6495 0.0 0
M  V30 25 C 11.6186 -0.5976 0.0 0
M  V30 26 C 7.6979 -7.4349 0.0 0
M  V30 27 C 5.0921 -7.4349 0.0 0
M  V30 28 C 11.5827 2.4145 0.0 0
M  V30 29 C 12.9095 0.1792 0.0 0
M  V30 30 C 12.8737 1.6854 0.0 0
M  V30 END ATOM
M  V30 BEGIN BOND
M  V30 1 1 1 2
M  V30 2 2 2 3
M  V30 3 1 2 4
M  V30 4 1 3 5
M  V30 5 2 4 6
M  V30 6 1 5 7
M  V30 7 2 5 8
M  V30 8 1 7 9
M  V30 9 2 7 10
M  V30 10 1 8 11
M  V30 11 1 10 12
M  V30 12 1 10 13
M  V30 13 1 11 14
M  V30 14 2 12 15
M  V30 15 2 13 16
M  V30 16 1 13 17
M  V30 17 1 14 18
M  V30 18 1 16 19
M  V30 19 1 17 20
M  V30 20 1 18 21
M  V30 21 2 19 22
M  V30 22 2 19 23
M  V30 23 1 19 24
M  V30 24 1 20 25
M  V30 25 1 21 26
M  V30 26 1 21 27
M  V30 27 1 24 28
M  V30 28 2 25 29
M  V30 29 2 28 30
M  V30 30 1 6 8
M  V30 31 1 11 12
M  V30 32 2 20 24
M  V30 33 1 29 30
M  V30 END BOND
M  V30 END CTAB
M  END
>  <MolRegNo>
338093

>  <m>
=

>  <Value>
3832

>  <Unit>
nM

>  <Type>
EC90

>  <pValue>
0

>  <Ligand Efficiency>
0

>  <Binding Efficiency>
0

>  <Surface Efficiency>
0

>  <Assay Index>
256539

>  <Assay Category>


>  <Assay Organism>
Hepatitis C virus

>  <Target ID>
12097

>  <Target Name>
Hepatitis C virus NS5B RNA-dependent RNA polymerase

>  <Target Organism>
Hepatitis C virus

>  <Target Description>
Target is a single protein chain

>  <Sequence Accession>
Q8JXU8

>  <Reference>
J. Med. Chem. 49 (3), 971-983 (2006)

>  <Pubmed ID>
16451063

>  <DOI>
10.1021/jm050855s

$$$$
338092
Actelion Java MolfileCreator 2.0

  0  0  0  0  0  0              0 V3000
M  V30 BEGIN CTAB
M  V30 COUNTS 30 33 0 0 0
M  V30 BEGIN ATOM
M  V30 1 S 0.0 0.0 0.0 0
M  V30 2 O -1.3233 0.763 0.0 0
M  V30 3 O 1.2876 0.7749 0.0 0
M  V30 4 N -1.2995 -0.7511 0.0 0
M  V30 5 C 1.2995 -0.7272 0.0 0
M  V30 6 C -1.2995 -2.2294 0.0 0
M  V30 7 C 1.2995 -2.2175 0.0 0
M  V30 8 C 2.5752 0.0357 0.0 0
M  V30 9 N -0.0119 -2.9686 0.0 0
M  V30 10 C -2.6109 -2.9805 0.0 0
M  V30 11 C 2.5871 -2.9448 0.0 0
M  V30 12 C 3.8628 -0.6914 0.0 0
M  V30 13 C -2.6109 -4.4827 0.0 0
M  V30 14 C -3.9343 -2.2294 0.0 0
M  V30 15 C 3.8747 -2.1698 0.0 0
M  V30 16 O -1.3114 -5.2219 0.0 0
M  V30 17 N -3.9224 -5.2219 0.0 0
M  V30 18 O -3.9582 -0.7153 0.0 0
M  V30 19 C -5.2458 -2.9686 0.0 0
M  V30 20 C -5.2339 -4.4589 0.0 0
M  V30 21 C -3.9343 -6.7122 0.0 0
M  V30 22 C -6.5572 -2.2056 0.0 0
M  V30 23 C -6.5453 -5.21 0.0 0
M  V30 24 C -2.6467 -7.4514 0.0 0
M  V30 25 C -7.8687 -2.9448 0.0 0
M  V30 26 C -7.8568 -4.447 0.0 0
M  V30 27 C -2.6586 -8.9417 0.0 0
M  V30 28 F -9.1801 -2.1817 0.0 0
M  V30 29 C -1.371 -9.6809 0.0 0
M  V30 30 C -3.9701 -9.6809 0.0 0
M  V30 END ATOM
M  V30 BEGIN BOND
M  V30 1 2 1 2
M  V30 2 2 1 3
M  V30 3 1 1 4
M  V30 4 1 1 5
M  V30 5 2 4 6
M  V30 6 2 5 7
M  V30 7 1 5 8
M  V30 8 1 6 9
M  V30 9 1 6 10
M  V30 10 1 7 11
M  V30 11 2 8 12
M  V30 12 1 10 13
M  V30 13 2 10 14
M  V30 14 2 11 15
M  V30 15 2 13 16
M  V30 16 1 13 17
M  V30 17 1 14 18
M  V30 18 1 14 19
M  V30 19 1 17 20
M  V30 20 1 17 21
M  V30 21 1 19 22
M  V30 22 1 20 23
M  V30 23 1 21 24
M  V30 24 2 22 25
M  V30 25 2 23 26
M  V30 26 1 24 27
M  V30 27 1 25 28
M  V30 28 1 27 29
M  V30 29 1 27 30
M  V30 30 1 7 9
M  V30 31 1 12 15
M  V30 32 2 19 20
M  V30 33 1 25 26
M  V30 END BOND
M  V30 END CTAB
M  END
>  <MolRegNo>
338092

>  <m>
=

>  <Value>
261

>  <Unit>
nM

>  <Type>
EC50

>  <pValue>
6.58

>  <Ligand Efficiency>
0

>  <Binding Efficiency>
0

>  <Surface Efficiency>
0

>  <Assay Index>
256539

>  <Assay Category>


>  <Assay Organism>
Hepatitis C virus

>  <Target ID>
12097

>  <Target Name>
Hepatitis C virus NS5B RNA-dependent RNA polymerase

>  <Target Organism>
Hepatitis C virus

>  <Target Description>
Target is a single protein chain

>  <Sequence Accession>
Q8JXU8

>  <Reference>
J. Med. Chem. 49 (3), 971-983 (2006)

>  <Pubmed ID>
16451063

>  <DOI>
10.1021/jm050855s

$$$$
338092
Actelion Java MolfileCreator 2.0

  0  0  0  0  0  0              0 V3000
M  V30 BEGIN CTAB
M  V30 COUNTS 30 33 0 0 0
M  V30 BEGIN ATOM
M  V30 1 S 0.0 0.0 0.0 0
M  V30 2 O -1.3233 0.763 0.0 0
M  V30 3 O 1.2876 0.7749 0.0 0
M  V30 4 N -1.2995 -0.7511 0.0 0
M  V30 5 C 1.2995 -0.7272 0.0 0
M  V30 6 C -1.2995 -2.2294 0.0 0
M  V30 7 C 1.2995 -2.2175 0.0 0
M  V30 8 C 2.5752 0.0357 0.0 0
M  V30 9 N -0.0119 -2.9686 0.0 0
M  V30 10 C -2.6109 -2.9805 0.0 0
M  V30 11 C 2.5871 -2.9448 0.0 0
M  V30 12 C 3.8628 -0.6914 0.0 0
M  V30 13 C -2.6109 -4.4827 0.0 0
M  V30 14 C -3.9343 -2.2294 0.0 0
M  V30 15 C 3.8747 -2.1698 0.0 0
M  V30 16 O -1.3114 -5.2219 0.0 0
M  V30 17 N -3.9224 -5.2219 0.0 0
M  V30 18 O -3.9582 -0.7153 0.0 0
M  V30 19 C -5.2458 -2.9686 0.0 0
M  V30 20 C -5.2339 -4.4589 0.0 0
M  V30 21 C -3.9343 -6.7122 0.0 0
M  V30 22 C -6.5572 -2.2056 0.0 0
M  V30 23 C -6.5453 -5.21 0.0 0
M  V30 24 C -2.6467 -7.4514 0.0 0
M  V30 25 C -7.8687 -2.9448 0.0 0
M  V30 26 C -7.8568 -4.447 0.0 0
M  V30 27 C -2.6586 -8.9417 0.0 0
M  V30 28 F -9.1801 -2.1817 0.0 0
M  V30 29 C -1.371 -9.6809 0.0 0
M  V30 30 C -3.9701 -9.6809 0.0 0
M  V30 END ATOM
M  V30 BEGIN BOND
M  V30 1 2 1 2
M  V30 2 2 1 3
M  V30 3 1 1 4
M  V30 4 1 1 5
M  V30 5 2 4 6
M  V30 6 2 5 7
M  V30 7 1 5 8
M  V30 8 1 6 9
M  V30 9 1 6 10
M  V30 10 1 7 11
M  V30 11 2 8 12
M  V30 12 1 10 13
M  V30 13 2 10 14
M  V30 14 2 11 15
M  V30 15 2 13 16
M  V30 16 1 13 17
M  V30 17 1 14 18
M  V30 18 1 14 19
M  V30 19 1 17 20
M  V30 20 1 17 21
M  V30 21 1 19 22
M  V30 22 1 20 23
M  V30 23 1 21 24
M  V30 24 2 22 25
M  V30 25 2 23 26
M  V30 26 1 24 27
M  V30 27 1 25 28
M  V30 28 1 27 29
M  V30 29 1 27 30
M  V30 30 1 7 9
M  V30 31 1 12 15
M  V30 32 2 19 20
M  V30 33 1 25 26
M  V30 END BOND
M  V30 END CTAB
M  END
>  <MolRegNo>
338092

>  <m>
=

>  <Value>
4953

>  <Unit>
nM

>  <Type>
EC90

>  <pValue>
0

>  <Ligand Efficiency>
0

>  <Binding Efficiency>
0

>  <Surface Efficiency>
0

>  <Assay Index>
256539

>  <Assay Category>


>  <Assay Organism>
Hepatitis C virus

>  <Target ID>
12097

>  <Target Name>
Hepatitis C virus NS5B RNA-dependent RNA polymerase

>  <Target Organism>
Hepatitis C virus

>  <Target Description>
Target is a single protein chain

>  <Sequence Accession>
Q8JXU8

>  <Reference>
J. Med. Chem. 49 (3), 971-983 (2006)

>  <Pubmed ID>
16451063

>  <DOI>
10.1021/jm050855s

$$$$
338222
Actelion Java MolfileCreator 2.0

  0  0  0  0  0  0              0 V3000
M  V30 BEGIN CTAB
M  V30 COUNTS 30 33 0 0 0
M  V30 BEGIN ATOM
M  V30 1 S 0.0 0.0 0.0 0
M  V30 2 O -1.3234 0.763 0.0 0
M  V30 3 O 1.2876 0.7749 0.0 0
M  V30 4 N -1.2996 -0.7511 0.0 0
M  V30 5 C 1.2996 -0.7273 0.0 0
M  V30 6 C -1.2996 -2.2296 0.0 0
M  V30 7 C 1.2996 -2.2176 0.0 0
M  V30 8 C 2.5753 0.0357 0.0 0
M  V30 9 N -0.0119 -2.9688 0.0 0
M  V30 10 C -2.6111 -2.9807 0.0 0
M  V30 11 C 2.5873 -2.9449 0.0 0
M  V30 12 C 3.863 -0.6915 0.0 0
M  V30 13 C -2.6111 -4.483 0.0 0
M  V30 14 C -3.9346 -2.2296 0.0 0
M  V30 15 C 3.8749 -2.1699 0.0 0
M  V30 16 O -1.3115 -5.2223 0.0 0
M  V30 17 N -3.9226 -5.2223 0.0 0
M  V30 18 O -3.9584 -0.7153 0.0 0
M  V30 19 C -5.2461 -2.9688 0.0 0
M  V30 20 C -5.2342 -4.4592 0.0 0
M  V30 21 C -3.9346 -6.7126 0.0 0
M  V30 22 C -6.5576 -2.2057 0.0 0
M  V30 23 C -6.5457 -5.2103 0.0 0
M  V30 24 C -2.6469 -7.4519 0.0 0
M  V30 25 F -6.5696 -0.6915 0.0 0
M  V30 26 C -7.8692 -2.9449 0.0 0
M  V30 27 C -7.8573 -4.4473 0.0 0
M  V30 28 C -2.6588 -8.9423 0.0 0
M  V30 29 C -1.3711 -9.6815 0.0 0
M  V30 30 C -3.9703 -9.6815 0.0 0
M  V30 END ATOM
M  V30 BEGIN BOND
M  V30 1 2 1 2
M  V30 2 2 1 3
M  V30 3 1 1 4
M  V30 4 1 1 5
M  V30 5 2 4 6
M  V30 6 2 5 7
M  V30 7 1 5 8
M  V30 8 1 6 9
M  V30 9 1 6 10
M  V30 10 1 7 11
M  V30 11 2 8 12
M  V30 12 1 10 13
M  V30 13 2 10 14
M  V30 14 2 11 15
M  V30 15 2 13 16
M  V30 16 1 13 17
M  V30 17 1 14 18
M  V30 18 1 14 19
M  V30 19 1 17 20
M  V30 20 1 17 21
M  V30 21 1 19 22
M  V30 22 1 20 23
M  V30 23 1 21 24
M  V30 24 1 22 25
M  V30 25 2 22 26
M  V30 26 2 23 27
M  V30 27 1 24 28
M  V30 28 1 28 29
M  V30 29 1 28 30
M  V30 30 1 7 9
M  V30 31 1 12 15
M  V30 32 2 19 20
M  V30 33 1 26 27
M  V30 END BOND
M  V30 END CTAB
M  END
>  <MolRegNo>
338222

>  <m>
=

>  <Value>
381

>  <Unit>
nM

>  <Type>
EC50

>  <pValue>
6.42

>  <Ligand Efficiency>
0

>  <Binding Efficiency>
0

>  <Surface Efficiency>
0

>  <Assay Index>
256539

>  <Assay Category>


>  <Assay Organism>
Hepatitis C virus

>  <Target ID>
12097

>  <Target Name>
Hepatitis C virus NS5B RNA-dependent RNA polymerase

>  <Target Organism>
Hepatitis C virus

>  <Target Description>
Target is a single protein chain

>  <Sequence Accession>
Q8JXU8

>  <Reference>
J. Med. Chem. 49 (3), 971-983 (2006)

>  <Pubmed ID>
16451063

>  <DOI>
10.1021/jm050855s

$$$$
338222
Actelion Java MolfileCreator 2.0

  0  0  0  0  0  0              0 V3000
M  V30 BEGIN CTAB
M  V30 COUNTS 30 33 0 0 0
M  V30 BEGIN ATOM
M  V30 1 S 0.0 0.0 0.0 0
M  V30 2 O -1.3234 0.763 0.0 0
M  V30 3 O 1.2876 0.7749 0.0 0
M  V30 4 N -1.2996 -0.7511 0.0 0
M  V30 5 C 1.2996 -0.7273 0.0 0
M  V30 6 C -1.2996 -2.2296 0.0 0
M  V30 7 C 1.2996 -2.2176 0.0 0
M  V30 8 C 2.5753 0.0357 0.0 0
M  V30 9 N -0.0119 -2.9688 0.0 0
M  V30 10 C -2.6111 -2.9807 0.0 0
M  V30 11 C 2.5873 -2.9449 0.0 0
M  V30 12 C 3.863 -0.6915 0.0 0
M  V30 13 C -2.6111 -4.483 0.0 0
M  V30 14 C -3.9346 -2.2296 0.0 0
M  V30 15 C 3.8749 -2.1699 0.0 0
M  V30 16 O -1.3115 -5.2223 0.0 0
M  V30 17 N -3.9226 -5.2223 0.0 0
M  V30 18 O -3.9584 -0.7153 0.0 0
M  V30 19 C -5.2461 -2.9688 0.0 0
M  V30 20 C -5.2342 -4.4592 0.0 0
M  V30 21 C -3.9346 -6.7126 0.0 0
M  V30 22 C -6.5576 -2.2057 0.0 0
M  V30 23 C -6.5457 -5.2103 0.0 0
M  V30 24 C -2.6469 -7.4519 0.0 0
M  V30 25 F -6.5696 -0.6915 0.0 0
M  V30 26 C -7.8692 -2.9449 0.0 0
M  V30 27 C -7.8573 -4.4473 0.0 0
M  V30 28 C -2.6588 -8.9423 0.0 0
M  V30 29 C -1.3711 -9.6815 0.0 0
M  V30 30 C -3.9703 -9.6815 0.0 0
M  V30 END ATOM
M  V30 BEGIN BOND
M  V30 1 2 1 2
M  V30 2 2 1 3
M  V30 3 1 1 4
M  V30 4 1 1 5
M  V30 5 2 4 6
M  V30 6 2 5 7
M  V30 7 1 5 8
M  V30 8 1 6 9
M  V30 9 1 6 10
M  V30 10 1 7 11
M  V30 11 2 8 12
M  V30 12 1 10 13
M  V30 13 2 10 14
M  V30 14 2 11 15
M  V30 15 2 13 16
M  V30 16 1 13 17
M  V30 17 1 14 18
M  V30 18 1 14 19
M  V30 19 1 17 20
M  V30 20 1 17 21
M  V30 21 1 19 22
M  V30 22 1 20 23
M  V30 23 1 21 24
M  V30 24 1 22 25
M  V30 25 2 22 26
M  V30 26 2 23 27
M  V30 27 1 24 28
M  V30 28 1 28 29
M  V30 29 1 28 30
M  V30 30 1 7 9
M  V30 31 1 12 15
M  V30 32 2 19 20
M  V30 33 1 26 27
M  V30 END BOND
M  V30 END CTAB
M  END
>  <MolRegNo>
338222

>  <m>
=

>  <Value>
2073

>  <Unit>
nM

>  <Type>
EC90

>  <pValue>
0

>  <Ligand Efficiency>
0

>  <Binding Efficiency>
0

>  <Surface Efficiency>
0

>  <Assay Index>
256539

>  <Assay Category>


>  <Assay Organism>
Hepatitis C virus

>  <Target ID>
12097

>  <Target Name>
Hepatitis C virus NS5B RNA-dependent RNA polymerase

>  <Target Organism>
Hepatitis C virus

>  <Target Description>
Target is a single protein chain

>  <Sequence Accession>
Q8JXU8

>  <Reference>
J. Med. Chem. 49 (3), 971-983 (2006)

>  <Pubmed ID>
16451063

>  <DOI>
10.1021/jm050855s

$$$$
338084
Actelion Java MolfileCreator 2.0

  0  0  0  0  0  0              0 V3000
M  V30 BEGIN CTAB
M  V30 COUNTS 30 34 0 0 0
M  V30 BEGIN ATOM
M  V30 1 S 0.0 0.0 0.0 0
M  V30 2 O -1.3239 0.7633 0.0 0
M  V30 3 O 1.2881 0.7752 0.0 0
M  V30 4 N -1.3001 -0.7514 0.0 0
M  V30 5 C 1.3001 -0.7275 0.0 0
M  V30 6 C -1.3001 -2.2304 0.0 0
M  V30 7 C 1.3001 -2.2185 0.0 0
M  V30 8 C 2.5763 0.0357 0.0 0
M  V30 9 N -0.0119 -2.9699 0.0 0
M  V30 10 C -2.6121 -2.9818 0.0 0
M  V30 11 C 2.5882 -2.9461 0.0 0
M  V30 12 C 3.8645 -0.6917 0.0 0
M  V30 13 C -2.6121 -4.4847 0.0 0
M  V30 14 C -3.936 -2.2304 0.0 0
M  V30 15 C 3.8764 -2.1708 0.0 0
M  V30 16 O -1.312 -5.2242 0.0 0
M  V30 17 N -3.9241 -5.2242 0.0 0
M  V30 18 O -3.9599 -0.7156 0.0 0
M  V30 19 C -5.2481 -2.9699 0.0 0
M  V30 20 C -5.2361 -4.4609 0.0 0
M  V30 21 C -3.936 -6.7152 0.0 0
M  V30 22 C -6.5601 -2.2065 0.0 0
M  V30 23 C -6.5482 -5.2123 0.0 0
M  V30 24 C -2.6479 -7.4547 0.0 0
M  V30 25 C -7.8721 -2.9461 0.0 0
M  V30 26 C -7.8602 -4.4489 0.0 0
M  V30 27 C -1.2643 -6.8225 0.0 0
M  V30 28 C -2.4928 -8.9218 0.0 0
M  V30 29 O -0.2743 -7.9318 0.0 0
M  V30 30 C -1.0376 -9.2319 0.0 0
M  V30 END ATOM
M  V30 BEGIN BOND
M  V30 1 2 1 2
M  V30 2 2 1 3
M  V30 3 1 1 4
M  V30 4 1 1 5
M  V30 5 2 4 6
M  V30 6 2 5 7
M  V30 7 1 5 8
M  V30 8 1 6 9
M  V30 9 1 6 10
M  V30 10 1 7 11
M  V30 11 2 8 12
M  V30 12 1 10 13
M  V30 13 2 10 14
M  V30 14 2 11 15
M  V30 15 2 13 16
M  V30 16 1 13 17
M  V30 17 1 14 18
M  V30 18 1 14 19
M  V30 19 1 17 20
M  V30 20 1 17 21
M  V30 21 1 19 22
M  V30 22 1 20 23
M  V30 23 1 21 24
M  V30 24 2 22 25
M  V30 25 2 23 26
M  V30 26 2 24 27
M  V30 27 1 24 28
M  V30 28 1 27 29
M  V30 29 2 28 30
M  V30 30 1 7 9
M  V30 31 1 12 15
M  V30 32 2 19 20
M  V30 33 1 25 26
M  V30 34 1 29 30
M  V30 END BOND
M  V30 END CTAB
M  END
>  <MolRegNo>
338084

>  <m>
=

>  <Value>
389

>  <Unit>
nM

>  <Type>
EC50

>  <pValue>
6.41

>  <Ligand Efficiency>
0

>  <Binding Efficiency>
0

>  <Surface Efficiency>
0

>  <Assay Index>
256539

>  <Assay Category>


>  <Assay Organism>
Hepatitis C virus

>  <Target ID>
12097

>  <Target Name>
Hepatitis C virus NS5B RNA-dependent RNA polymerase

>  <Target Organism>
Hepatitis C virus

>  <Target Description>
Target is a single protein chain

>  <Sequence Accession>
Q8JXU8

>  <Reference>
J. Med. Chem. 49 (3), 971-983 (2006)

>  <Pubmed ID>
16451063

>  <DOI>
10.1021/jm050855s

$$$$
338084
Actelion Java MolfileCreator 2.0

  0  0  0  0  0  0              0 V3000
M  V30 BEGIN CTAB
M  V30 COUNTS 30 34 0 0 0
M  V30 BEGIN ATOM
M  V30 1 S 0.0 0.0 0.0 0
M  V30 2 O -1.3239 0.7633 0.0 0
M  V30 3 O 1.2881 0.7752 0.0 0
M  V30 4 N -1.3001 -0.7514 0.0 0
M  V30 5 C 1.3001 -0.7275 0.0 0
M  V30 6 C -1.3001 -2.2304 0.0 0
M  V30 7 C 1.3001 -2.2185 0.0 0
M  V30 8 C 2.5763 0.0357 0.0 0
M  V30 9 N -0.0119 -2.9699 0.0 0
M  V30 10 C -2.6121 -2.9818 0.0 0
M  V30 11 C 2.5882 -2.9461 0.0 0
M  V30 12 C 3.8645 -0.6917 0.0 0
M  V30 13 C -2.6121 -4.4847 0.0 0
M  V30 14 C -3.936 -2.2304 0.0 0
M  V30 15 C 3.8764 -2.1708 0.0 0
M  V30 16 O -1.312 -5.2242 0.0 0
M  V30 17 N -3.9241 -5.2242 0.0 0
M  V30 18 O -3.9599 -0.7156 0.0 0
M  V30 19 C -5.2481 -2.9699 0.0 0
M  V30 20 C -5.2361 -4.4609 0.0 0
M  V30 21 C -3.936 -6.7152 0.0 0
M  V30 22 C -6.5601 -2.2065 0.0 0
M  V30 23 C -6.5482 -5.2123 0.0 0
M  V30 24 C -2.6479 -7.4547 0.0 0
M  V30 25 C -7.8721 -2.9461 0.0 0
M  V30 26 C -7.8602 -4.4489 0.0 0
M  V30 27 C -1.2643 -6.8225 0.0 0
M  V30 28 C -2.4928 -8.9218 0.0 0
M  V30 29 O -0.2743 -7.9318 0.0 0
M  V30 30 C -1.0376 -9.2319 0.0 0
M  V30 END ATOM
M  V30 BEGIN BOND
M  V30 1 2 1 2
M  V30 2 2 1 3
M  V30 3 1 1 4
M  V30 4 1 1 5
M  V30 5 2 4 6
M  V30 6 2 5 7
M  V30 7 1 5 8
M  V30 8 1 6 9
M  V30 9 1 6 10
M  V30 10 1 7 11
M  V30 11 2 8 12
M  V30 12 1 10 13
M  V30 13 2 10 14
M  V30 14 2 11 15
M  V30 15 2 13 16
M  V30 16 1 13 17
M  V30 17 1 14 18
M  V30 18 1 14 19
M  V30 19 1 17 20
M  V30 20 1 17 21
M  V30 21 1 19 22
M  V30 22 1 20 23
M  V30 23 1 21 24
M  V30 24 2 22 25
M  V30 25 2 23 26
M  V30 26 2 24 27
M  V30 27 1 24 28
M  V30 28 1 27 29
M  V30 29 2 28 30
M  V30 30 1 7 9
M  V30 31 1 12 15
M  V30 32 2 19 20
M  V30 33 1 25 26
M  V30 34 1 29 30
M  V30 END BOND
M  V30 END CTAB
M  END
>  <MolRegNo>
338084

>  <m>
=

>  <Value>
2529

>  <Unit>
nM

>  <Type>
EC90

>  <pValue>
0

>  <Ligand Efficiency>
0

>  <Binding Efficiency>
0

>  <Surface Efficiency>
0

>  <Assay Index>
256539

>  <Assay Category>


>  <Assay Organism>
Hepatitis C virus

>  <Target ID>
12097

>  <Target Name>
Hepatitis C virus NS5B RNA-dependent RNA polymerase

>  <Target Organism>
Hepatitis C virus

>  <Target Description>
Target is a single protein chain

>  <Sequence Accession>
Q8JXU8

>  <Reference>
J. Med. Chem. 49 (3), 971-983 (2006)

>  <Pubmed ID>
16451063

>  <DOI>
10.1021/jm050855s

$$$$
338125
Actelion Java MolfileCreator 2.0

  0  0  0  0  0  0              0 V3000
M  V30 BEGIN CTAB
M  V30 COUNTS 30 34 0 0 0
M  V30 BEGIN ATOM
M  V30 1 S 0.0 0.0 0.0 0
M  V30 2 O -1.3236 0.7631 0.0 0
M  V30 3 O 1.2878 0.7751 0.0 0
M  V30 4 N -1.2998 -0.7512 0.0 0
M  V30 5 C 1.2998 -0.7274 0.0 0
M  V30 6 C -1.2998 -2.2299 0.0 0
M  V30 7 C 1.2998 -2.218 0.0 0
M  V30 8 C 2.5757 0.0357 0.0 0
M  V30 9 N -0.0119 -2.9693 0.0 0
M  V30 10 C -2.6115 -2.9812 0.0 0
M  V30 11 C 2.5877 -2.9454 0.0 0
M  V30 12 C 3.8636 -0.6916 0.0 0
M  V30 13 C -2.6115 -4.4837 0.0 0
M  V30 14 C -3.9352 -2.2299 0.0 0
M  V30 15 C 3.8756 -2.1703 0.0 0
M  V30 16 O -1.3117 -5.2231 0.0 0
M  V30 17 N -3.9233 -5.2231 0.0 0
M  V30 18 O -3.959 -0.7154 0.0 0
M  V30 19 C -5.2469 -2.9693 0.0 0
M  V30 20 C -5.235 -4.4599 0.0 0
M  V30 21 C -3.9352 -6.7137 0.0 0
M  V30 22 C -6.5587 -2.2061 0.0 0
M  V30 23 C -6.5467 -5.2112 0.0 0
M  V30 24 C -5.2469 -7.453 0.0 0
M  V30 25 C -2.6473 -7.4411 0.0 0
M  V30 26 C -7.8704 -2.9454 0.0 0
M  V30 27 C -7.8585 -4.448 0.0 0
M  V30 28 C -5.2589 -8.9437 0.0 0
M  V30 29 C -2.6473 -8.9317 0.0 0
M  V30 30 C -3.959 -9.683 0.0 0
M  V30 END ATOM
M  V30 BEGIN BOND
M  V30 1 2 1 2
M  V30 2 2 1 3
M  V30 3 1 1 4
M  V30 4 1 1 5
M  V30 5 2 4 6
M  V30 6 2 5 7
M  V30 7 1 5 8
M  V30 8 1 6 9
M  V30 9 1 6 10
M  V30 10 1 7 11
M  V30 11 2 8 12
M  V30 12 1 10 13
M  V30 13 2 10 14
M  V30 14 2 11 15
M  V30 15 2 13 16
M  V30 16 1 13 17
M  V30 17 1 14 18
M  V30 18 1 14 19
M  V30 19 1 17 20
M  V30 20 1 17 21
M  V30 21 1 19 22
M  V30 22 1 20 23
M  V30 23 2 21 24
M  V30 24 1 21 25
M  V30 25 2 22 26
M  V30 26 2 23 27
M  V30 27 1 24 28
M  V30 28 2 25 29
M  V30 29 2 28 30
M  V30 30 1 7 9
M  V30 31 1 12 15
M  V30 32 2 19 20
M  V30 33 1 26 27
M  V30 34 1 29 30
M  V30 END BOND
M  V30 END CTAB
M  END
>  <MolRegNo>
338125

>  <m>
=

>  <Value>
774

>  <Unit>
nM

>  <Type>
EC50

>  <pValue>
6.11

>  <Ligand Efficiency>
0

>  <Binding Efficiency>
0

>  <Surface Efficiency>
0

>  <Assay Index>
256539

>  <Assay Category>


>  <Assay Organism>
Hepatitis C virus

>  <Target ID>
12097

>  <Target Name>
Hepatitis C virus NS5B RNA-dependent RNA polymerase

>  <Target Organism>
Hepatitis C virus

>  <Target Description>
Target is a single protein chain

>  <Sequence Accession>
Q8JXU8

>  <Reference>
J. Med. Chem. 49 (3), 971-983 (2006)

>  <Pubmed ID>
16451063

>  <DOI>
10.1021/jm050855s

$$$$
338125
Actelion Java MolfileCreator 2.0

  0  0  0  0  0  0              0 V3000
M  V30 BEGIN CTAB
M  V30 COUNTS 30 34 0 0 0
M  V30 BEGIN ATOM
M  V30 1 S 0.0 0.0 0.0 0
M  V30 2 O -1.3236 0.7631 0.0 0
M  V30 3 O 1.2878 0.7751 0.0 0
M  V30 4 N -1.2998 -0.7512 0.0 0
M  V30 5 C 1.2998 -0.7274 0.0 0
M  V30 6 C -1.2998 -2.2299 0.0 0
M  V30 7 C 1.2998 -2.218 0.0 0
M  V30 8 C 2.5757 0.0357 0.0 0
M  V30 9 N -0.0119 -2.9693 0.0 0
M  V30 10 C -2.6115 -2.9812 0.0 0
M  V30 11 C 2.5877 -2.9454 0.0 0
M  V30 12 C 3.8636 -0.6916 0.0 0
M  V30 13 C -2.6115 -4.4837 0.0 0
M  V30 14 C -3.9352 -2.2299 0.0 0
M  V30 15 C 3.8756 -2.1703 0.0 0
M  V30 16 O -1.3117 -5.2231 0.0 0
M  V30 17 N -3.9233 -5.2231 0.0 0
M  V30 18 O -3.959 -0.7154 0.0 0
M  V30 19 C -5.2469 -2.9693 0.0 0
M  V30 20 C -5.235 -4.4599 0.0 0
M  V30 21 C -3.9352 -6.7137 0.0 0
M  V30 22 C -6.5587 -2.2061 0.0 0
M  V30 23 C -6.5467 -5.2112 0.0 0
M  V30 24 C -5.2469 -7.453 0.0 0
M  V30 25 C -2.6473 -7.4411 0.0 0
M  V30 26 C -7.8704 -2.9454 0.0 0
M  V30 27 C -7.8585 -4.448 0.0 0
M  V30 28 C -5.2589 -8.9437 0.0 0
M  V30 29 C -2.6473 -8.9317 0.0 0
M  V30 30 C -3.959 -9.683 0.0 0
M  V30 END ATOM
M  V30 BEGIN BOND
M  V30 1 2 1 2
M  V30 2 2 1 3
M  V30 3 1 1 4
M  V30 4 1 1 5
M  V30 5 2 4 6
M  V30 6 2 5 7
M  V30 7 1 5 8
M  V30 8 1 6 9
M  V30 9 1 6 10
M  V30 10 1 7 11
M  V30 11 2 8 12
M  V30 12 1 10 13
M  V30 13 2 10 14
M  V30 14 2 11 15
M  V30 15 2 13 16
M  V30 16 1 13 17
M  V30 17 1 14 18
M  V30 18 1 14 19
M  V30 19 1 17 20
M  V30 20 1 17 21
M  V30 21 1 19 22
M  V30 22 1 20 23
M  V30 23 2 21 24
M  V30 24 1 21 25
M  V30 25 2 22 26
M  V30 26 2 23 27
M  V30 27 1 24 28
M  V30 28 2 25 29
M  V30 29 2 28 30
M  V30 30 1 7 9
M  V30 31 1 12 15
M  V30 32 2 19 20
M  V30 33 1 26 27
M  V30 34 1 29 30
M  V30 END BOND
M  V30 END CTAB
M  END
>  <MolRegNo>
338125

>  <m>
=

>  <Value>
1872

>  <Unit>
nM

>  <Type>
EC90

>  <pValue>
0

>  <Ligand Efficiency>
0

>  <Binding Efficiency>
0

>  <Surface Efficiency>
0

>  <Assay Index>
256539

>  <Assay Category>


>  <Assay Organism>
Hepatitis C virus

>  <Target ID>
12097

>  <Target Name>
Hepatitis C virus NS5B RNA-dependent RNA polymerase

>  <Target Organism>
Hepatitis C virus

>  <Target Description>
Target is a single protein chain

>  <Sequence Accession>
Q8JXU8

>  <Reference>
J. Med. Chem. 49 (3), 971-983 (2006)

>  <Pubmed ID>
16451063

>  <DOI>
10.1021/jm050855s

$$$$
338264
Actelion Java MolfileCreator 2.0

  0  0  0  0  0  0              0 V3000
M  V30 BEGIN CTAB
M  V30 COUNTS 29 33 0 0 0
M  V30 BEGIN ATOM
M  V30 1 S 0.0 0.0 0.0 0
M  V30 2 O -1.3244 0.7636 0.0 0
M  V30 3 O 1.2886 0.7755 0.0 0
M  V30 4 N -1.3005 -0.7517 0.0 0
M  V30 5 C 1.3005 -0.7278 0.0 0
M  V30 6 C -1.3005 -2.2312 0.0 0
M  V30 7 C 1.3005 -2.2193 0.0 0
M  V30 8 C 2.5772 0.0357 0.0 0
M  V30 9 N -0.0119 -2.971 0.0 0
M  V30 10 C -2.613 -2.9829 0.0 0
M  V30 11 C 2.5892 -2.9471 0.0 0
M  V30 12 C 3.8659 -0.692 0.0 0
M  V30 13 C -2.613 -4.4863 0.0 0
M  V30 14 C -3.9375 -2.2312 0.0 0
M  V30 15 C 3.8778 -2.1715 0.0 0
M  V30 16 O -1.3125 -5.2261 0.0 0
M  V30 17 N -3.9255 -5.2261 0.0 0
M  V30 18 O -3.9613 -0.7159 0.0 0
M  V30 19 C -5.25 -2.971 0.0 0
M  V30 20 C -5.238 -4.4625 0.0 0
M  V30 21 C -3.9375 -6.7176 0.0 0
M  V30 22 C -6.5625 -2.2073 0.0 0
M  V30 23 C -6.5505 -5.2142 0.0 0
M  V30 24 C -2.6488 -7.4574 0.0 0
M  V30 25 C -7.875 -2.9471 0.0 0
M  V30 26 C -7.863 -4.4505 0.0 0
M  V30 27 C -2.267 -8.8892 0.0 0
M  V30 28 C -1.2051 -7.0517 0.0 0
M  V30 29 C -0.8232 -8.4835 0.0 0
M  V30 END ATOM
M  V30 BEGIN BOND
M  V30 1 2 1 2
M  V30 2 2 1 3
M  V30 3 1 1 4
M  V30 4 1 1 5
M  V30 5 2 4 6
M  V30 6 2 5 7
M  V30 7 1 5 8
M  V30 8 1 6 9
M  V30 9 1 6 10
M  V30 10 1 7 11
M  V30 11 2 8 12
M  V30 12 1 10 13
M  V30 13 2 10 14
M  V30 14 2 11 15
M  V30 15 2 13 16
M  V30 16 1 13 17
M  V30 17 1 14 18
M  V30 18 1 14 19
M  V30 19 1 17 20
M  V30 20 1 17 21
M  V30 21 1 19 22
M  V30 22 1 20 23
M  V30 23 1 21 24
M  V30 24 2 22 25
M  V30 25 2 23 26
M  V30 26 1 24 27
M  V30 27 1 24 28
M  V30 28 1 27 29
M  V30 29 1 7 9
M  V30 30 1 12 15
M  V30 31 2 19 20
M  V30 32 1 25 26
M  V30 33 1 28 29
M  V30 END BOND
M  V30 END CTAB
M  END
>  <MolRegNo>
338264

>  <m>
=

>  <Value>
241

>  <Unit>
nM

>  <Type>
EC50

>  <pValue>
6.62

>  <Ligand Efficiency>
0

>  <Binding Efficiency>
0

>  <Surface Efficiency>
0

>  <Assay Index>
256539

>  <Assay Category>


>  <Assay Organism>
Hepatitis C virus

>  <Target ID>
12097

>  <Target Name>
Hepatitis C virus NS5B RNA-dependent RNA polymerase

>  <Target Organism>
Hepatitis C virus

>  <Target Description>
Target is a single protein chain

>  <Sequence Accession>
Q8JXU8

>  <Reference>
J. Med. Chem. 49 (3), 971-983 (2006)

>  <Pubmed ID>
16451063

>  <DOI>
10.1021/jm050855s

$$$$
338264
Actelion Java MolfileCreator 2.0

  0  0  0  0  0  0              0 V3000
M  V30 BEGIN CTAB
M  V30 COUNTS 29 33 0 0 0
M  V30 BEGIN ATOM
M  V30 1 S 0.0 0.0 0.0 0
M  V30 2 O -1.3244 0.7636 0.0 0
M  V30 3 O 1.2886 0.7755 0.0 0
M  V30 4 N -1.3005 -0.7517 0.0 0
M  V30 5 C 1.3005 -0.7278 0.0 0
M  V30 6 C -1.3005 -2.2312 0.0 0
M  V30 7 C 1.3005 -2.2193 0.0 0
M  V30 8 C 2.5772 0.0357 0.0 0
M  V30 9 N -0.0119 -2.971 0.0 0
M  V30 10 C -2.613 -2.9829 0.0 0
M  V30 11 C 2.5892 -2.9471 0.0 0
M  V30 12 C 3.8659 -0.692 0.0 0
M  V30 13 C -2.613 -4.4863 0.0 0
M  V30 14 C -3.9375 -2.2312 0.0 0
M  V30 15 C 3.8778 -2.1715 0.0 0
M  V30 16 O -1.3125 -5.2261 0.0 0
M  V30 17 N -3.9255 -5.2261 0.0 0
M  V30 18 O -3.9613 -0.7159 0.0 0
M  V30 19 C -5.25 -2.971 0.0 0
M  V30 20 C -5.238 -4.4625 0.0 0
M  V30 21 C -3.9375 -6.7176 0.0 0
M  V30 22 C -6.5625 -2.2073 0.0 0
M  V30 23 C -6.5505 -5.2142 0.0 0
M  V30 24 C -2.6488 -7.4574 0.0 0
M  V30 25 C -7.875 -2.9471 0.0 0
M  V30 26 C -7.863 -4.4505 0.0 0
M  V30 27 C -2.267 -8.8892 0.0 0
M  V30 28 C -1.2051 -7.0517 0.0 0
M  V30 29 C -0.8232 -8.4835 0.0 0
M  V30 END ATOM
M  V30 BEGIN BOND
M  V30 1 2 1 2
M  V30 2 2 1 3
M  V30 3 1 1 4
M  V30 4 1 1 5
M  V30 5 2 4 6
M  V30 6 2 5 7
M  V30 7 1 5 8
M  V30 8 1 6 9
M  V30 9 1 6 10
M  V30 10 1 7 11
M  V30 11 2 8 12
M  V30 12 1 10 13
M  V30 13 2 10 14
M  V30 14 2 11 15
M  V30 15 2 13 16
M  V30 16 1 13 17
M  V30 17 1 14 18
M  V30 18 1 14 19
M  V30 19 1 17 20
M  V30 20 1 17 21
M  V30 21 1 19 22
M  V30 22 1 20 23
M  V30 23 1 21 24
M  V30 24 2 22 25
M  V30 25 2 23 26
M  V30 26 1 24 27
M  V30 27 1 24 28
M  V30 28 1 27 29
M  V30 29 1 7 9
M  V30 30 1 12 15
M  V30 31 2 19 20
M  V30 32 1 25 26
M  V30 33 1 28 29
M  V30 END BOND
M  V30 END CTAB
M  END
>  <MolRegNo>
338264

>  <m>
=

>  <Value>
1194

>  <Unit>
nM

>  <Type>
EC90

>  <pValue>
0

>  <Ligand Efficiency>
0

>  <Binding Efficiency>
0

>  <Surface Efficiency>
0

>  <Assay Index>
256539

>  <Assay Category>


>  <Assay Organism>
Hepatitis C virus

>  <Target ID>
12097

>  <Target Name>
Hepatitis C virus NS5B RNA-dependent RNA polymerase

>  <Target Organism>
Hepatitis C virus

>  <Target Description>
Target is a single protein chain

>  <Sequence Accession>
Q8JXU8

>  <Reference>
J. Med. Chem. 49 (3), 971-983 (2006)

>  <Pubmed ID>
16451063

>  <DOI>
10.1021/jm050855s

$$$$
338298
Actelion Java MolfileCreator 2.0

  0  0  0  0  0  0              0 V3000
M  V30 BEGIN CTAB
M  V30 COUNTS 29 33 0 0 0
M  V30 BEGIN ATOM
M  V30 1 S 0.0 0.0 0.0 0
M  V30 2 O -1.3227 0.7626 0.0 0
M  V30 3 O 1.2869 0.7745 0.0 0
M  V30 4 N -1.2988 -0.7507 0.0 0
M  V30 5 C 1.2988 -0.7269 0.0 0
M  V30 6 C -1.2988 -2.2283 0.0 0
M  V30 7 C 1.2988 -2.2164 0.0 0
M  V30 8 C 2.5739 0.0357 0.0 0
M  V30 9 N -0.0119 -2.9672 0.0 0
M  V30 10 C -2.6097 -2.9791 0.0 0
M  V30 11 C 2.5858 -2.9433 0.0 0
M  V30 12 C 3.8609 -0.6911 0.0 0
M  V30 13 C -2.6097 -4.4806 0.0 0
M  V30 14 C -3.9324 -2.2283 0.0 0
M  V30 15 C 3.8728 -2.1688 0.0 0
M  V30 16 O -1.3108 -5.2194 0.0 0
M  V30 17 N -3.9205 -5.2194 0.0 0
M  V30 18 O -3.9562 -0.7149 0.0 0
M  V30 19 C -5.2432 -2.9672 0.0 0
M  V30 20 C -5.2313 -4.4567 0.0 0
M  V30 21 C -3.9324 -6.7089 0.0 0
M  V30 22 C -6.554 -2.2045 0.0 0
M  V30 23 C -6.5421 -5.2075 0.0 0
M  V30 24 C -2.6454 -7.4478 0.0 0
M  V30 25 C -7.8648 -2.9433 0.0 0
M  V30 26 C -7.8529 -4.4448 0.0 0
M  V30 27 C -1.3584 -6.6851 0.0 0
M  V30 28 C 0.1429 -6.6613 0.0 0
M  V30 29 C -0.6196 -5.3624 0.0 0
M  V30 END ATOM
M  V30 BEGIN BOND
M  V30 1 2 1 2
M  V30 2 2 1 3
M  V30 3 1 1 4
M  V30 4 1 1 5
M  V30 5 2 4 6
M  V30 6 2 5 7
M  V30 7 1 5 8
M  V30 8 1 6 9
M  V30 9 1 6 10
M  V30 10 1 7 11
M  V30 11 2 8 12
M  V30 12 1 10 13
M  V30 13 2 10 14
M  V30 14 2 11 15
M  V30 15 2 13 16
M  V30 16 1 13 17
M  V30 17 1 14 18
M  V30 18 1 14 19
M  V30 19 1 17 20
M  V30 20 1 17 21
M  V30 21 1 19 22
M  V30 22 1 20 23
M  V30 23 1 21 24
M  V30 24 2 22 25
M  V30 25 2 23 26
M  V30 26 1 24 27
M  V30 27 1 27 28
M  V30 28 1 27 29
M  V30 29 1 7 9
M  V30 30 1 12 15
M  V30 31 2 19 20
M  V30 32 1 25 26
M  V30 33 1 28 29
M  V30 END BOND
M  V30 END CTAB
M  END
>  <MolRegNo>
338298

>  <m>
=

>  <Value>
152

>  <Unit>
nM

>  <Type>
EC50

>  <pValue>
6.82

>  <Ligand Efficiency>
0

>  <Binding Efficiency>
0

>  <Surface Efficiency>
0

>  <Assay Index>
256539

>  <Assay Category>


>  <Assay Organism>
Hepatitis C virus

>  <Target ID>
12097

>  <Target Name>
Hepatitis C virus NS5B RNA-dependent RNA polymerase

>  <Target Organism>
Hepatitis C virus

>  <Target Description>
Target is a single protein chain

>  <Sequence Accession>
Q8JXU8

>  <Reference>
J. Med. Chem. 49 (3), 971-983 (2006)

>  <Pubmed ID>
16451063

>  <DOI>
10.1021/jm050855s

$$$$
338298
Actelion Java MolfileCreator 2.0

  0  0  0  0  0  0              0 V3000
M  V30 BEGIN CTAB
M  V30 COUNTS 29 33 0 0 0
M  V30 BEGIN ATOM
M  V30 1 S 0.0 0.0 0.0 0
M  V30 2 O -1.3227 0.7626 0.0 0
M  V30 3 O 1.2869 0.7745 0.0 0
M  V30 4 N -1.2988 -0.7507 0.0 0
M  V30 5 C 1.2988 -0.7269 0.0 0
M  V30 6 C -1.2988 -2.2283 0.0 0
M  V30 7 C 1.2988 -2.2164 0.0 0
M  V30 8 C 2.5739 0.0357 0.0 0
M  V30 9 N -0.0119 -2.9672 0.0 0
M  V30 10 C -2.6097 -2.9791 0.0 0
M  V30 11 C 2.5858 -2.9433 0.0 0
M  V30 12 C 3.8609 -0.6911 0.0 0
M  V30 13 C -2.6097 -4.4806 0.0 0
M  V30 14 C -3.9324 -2.2283 0.0 0
M  V30 15 C 3.8728 -2.1688 0.0 0
M  V30 16 O -1.3108 -5.2194 0.0 0
M  V30 17 N -3.9205 -5.2194 0.0 0
M  V30 18 O -3.9562 -0.7149 0.0 0
M  V30 19 C -5.2432 -2.9672 0.0 0
M  V30 20 C -5.2313 -4.4567 0.0 0
M  V30 21 C -3.9324 -6.7089 0.0 0
M  V30 22 C -6.554 -2.2045 0.0 0
M  V30 23 C -6.5421 -5.2075 0.0 0
M  V30 24 C -2.6454 -7.4478 0.0 0
M  V30 25 C -7.8648 -2.9433 0.0 0
M  V30 26 C -7.8529 -4.4448 0.0 0
M  V30 27 C -1.3584 -6.6851 0.0 0
M  V30 28 C 0.1429 -6.6613 0.0 0
M  V30 29 C -0.6196 -5.3624 0.0 0
M  V30 END ATOM
M  V30 BEGIN BOND
M  V30 1 2 1 2
M  V30 2 2 1 3
M  V30 3 1 1 4
M  V30 4 1 1 5
M  V30 5 2 4 6
M  V30 6 2 5 7
M  V30 7 1 5 8
M  V30 8 1 6 9
M  V30 9 1 6 10
M  V30 10 1 7 11
M  V30 11 2 8 12
M  V30 12 1 10 13
M  V30 13 2 10 14
M  V30 14 2 11 15
M  V30 15 2 13 16
M  V30 16 1 13 17
M  V30 17 1 14 18
M  V30 18 1 14 19
M  V30 19 1 17 20
M  V30 20 1 17 21
M  V30 21 1 19 22
M  V30 22 1 20 23
M  V30 23 1 21 24
M  V30 24 2 22 25
M  V30 25 2 23 26
M  V30 26 1 24 27
M  V30 27 1 27 28
M  V30 28 1 27 29
M  V30 29 1 7 9
M  V30 30 1 12 15
M  V30 31 2 19 20
M  V30 32 1 25 26
M  V30 33 1 28 29
M  V30 END BOND
M  V30 END CTAB
M  END
>  <MolRegNo>
338298

>  <m>
=

>  <Value>
808

>  <Unit>
nM

>  <Type>
EC90

>  <pValue>
0

>  <Ligand Efficiency>
0

>  <Binding Efficiency>
0

>  <Surface Efficiency>
0

>  <Assay Index>
256539

>  <Assay Category>


>  <Assay Organism>
Hepatitis C virus

>  <Target ID>
12097

>  <Target Name>
Hepatitis C virus NS5B RNA-dependent RNA polymerase

>  <Target Organism>
Hepatitis C virus

>  <Target Description>
Target is a single protein chain

>  <Sequence Accession>
Q8JXU8

>  <Reference>
J. Med. Chem. 49 (3), 971-983 (2006)

>  <Pubmed ID>
16451063

>  <DOI>
10.1021/jm050855s

$$$$
298159
Actelion Java MolfileCreator 2.0

  0  0  0  0  0  0              0 V3000
M  V30 BEGIN CTAB
M  V30 COUNTS 29 32 0 0 0
M  V30 BEGIN ATOM
M  V30 1 S 0.0 0.0 0.0 0
M  V30 2 O -1.5148 0.0591 0.0 0
M  V30 3 O -0.8047 1.29 0.0 0
M  V30 4 N 1.29 0.7574 0.0 0
M  V30 5 C -0.0118 -1.4912 0.0 0
M  V30 6 C 2.58 0.0236 0.0 0
M  V30 7 C 1.2781 -2.2368 0.0 0
M  V30 8 C -1.3255 -2.2368 0.0 0
M  V30 9 N 2.5681 -1.4675 0.0 0
M  V30 10 C 3.87 0.7811 0.0 0
M  V30 11 C 1.2663 -3.728 0.0 0
M  V30 12 C -1.3373 -3.728 0.0 0
M  V30 13 C 3.8582 2.2959 0.0 0
M  V30 14 C 5.16 0.0473 0.0 0
M  V30 15 C -0.0473 -4.4617 0.0 0
M  V30 16 O 2.5445 3.0534 0.0 0
M  V30 17 N 5.1482 3.0534 0.0 0
M  V30 18 O 5.1482 -1.4438 0.0 0
M  V30 19 C 6.45 0.8047 0.0 0
M  V30 20 C 6.4382 2.3196 0.0 0
M  V30 21 C 5.1363 4.5683 0.0 0
M  V30 22 C 7.74 0.071 0.0 0
M  V30 23 C 7.7282 3.077 0.0 0
M  V30 24 C 3.8226 5.3257 0.0 0
M  V30 25 C 9.03 0.8284 0.0 0
M  V30 26 C 9.0182 2.3433 0.0 0
M  V30 27 C 3.8108 6.8406 0.0 0
M  V30 28 C 2.4971 7.598 0.0 0
M  V30 29 C 5.1008 7.598 0.0 0
M  V30 END ATOM
M  V30 BEGIN BOND
M  V30 1 2 1 2
M  V30 2 2 1 3
M  V30 3 1 1 4
M  V30 4 1 1 5
M  V30 5 2 4 6
M  V30 6 2 5 7
M  V30 7 1 5 8
M  V30 8 1 6 9
M  V30 9 1 6 10
M  V30 10 1 7 11
M  V30 11 2 8 12
M  V30 12 1 10 13
M  V30 13 2 10 14
M  V30 14 2 11 15
M  V30 15 2 13 16
M  V30 16 1 13 17
M  V30 17 1 14 18
M  V30 18 1 14 19
M  V30 19 1 17 20
M  V30 20 1 17 21
M  V30 21 1 19 22
M  V30 22 1 20 23
M  V30 23 1 21 24
M  V30 24 2 22 25
M  V30 25 2 23 26
M  V30 26 1 24 27
M  V30 27 1 27 28
M  V30 28 1 27 29
M  V30 29 1 7 9
M  V30 30 1 12 15
M  V30 31 2 19 20
M  V30 32 1 25 26
M  V30 END BOND
M  V30 END CTAB
M  END
>  <MolRegNo>
298159

>  <m>
=

>  <Value>
417

>  <Unit>
nM

>  <Type>
EC50

>  <pValue>
6.38

>  <Ligand Efficiency>
0

>  <Binding Efficiency>
0

>  <Surface Efficiency>
0

>  <Assay Index>
256539

>  <Assay Category>


>  <Assay Organism>
Hepatitis C virus

>  <Target ID>
12097

>  <Target Name>
Hepatitis C virus NS5B RNA-dependent RNA polymerase

>  <Target Organism>
Hepatitis C virus

>  <Target Description>
Target is a single protein chain

>  <Sequence Accession>
Q8JXU8

>  <Reference>
J. Med. Chem. 49 (3), 971-983 (2006)

>  <Pubmed ID>
16451063

>  <DOI>
10.1021/jm050855s

$$$$
298159
Actelion Java MolfileCreator 2.0

  0  0  0  0  0  0              0 V3000
M  V30 BEGIN CTAB
M  V30 COUNTS 29 32 0 0 0
M  V30 BEGIN ATOM
M  V30 1 S 0.0 0.0 0.0 0
M  V30 2 O -1.5148 0.0591 0.0 0
M  V30 3 O -0.8047 1.29 0.0 0
M  V30 4 N 1.29 0.7574 0.0 0
M  V30 5 C -0.0118 -1.4912 0.0 0
M  V30 6 C 2.58 0.0236 0.0 0
M  V30 7 C 1.2781 -2.2368 0.0 0
M  V30 8 C -1.3255 -2.2368 0.0 0
M  V30 9 N 2.5681 -1.4675 0.0 0
M  V30 10 C 3.87 0.7811 0.0 0
M  V30 11 C 1.2663 -3.728 0.0 0
M  V30 12 C -1.3373 -3.728 0.0 0
M  V30 13 C 3.8582 2.2959 0.0 0
M  V30 14 C 5.16 0.0473 0.0 0
M  V30 15 C -0.0473 -4.4617 0.0 0
M  V30 16 O 2.5445 3.0534 0.0 0
M  V30 17 N 5.1482 3.0534 0.0 0
M  V30 18 O 5.1482 -1.4438 0.0 0
M  V30 19 C 6.45 0.8047 0.0 0
M  V30 20 C 6.4382 2.3196 0.0 0
M  V30 21 C 5.1363 4.5683 0.0 0
M  V30 22 C 7.74 0.071 0.0 0
M  V30 23 C 7.7282 3.077 0.0 0
M  V30 24 C 3.8226 5.3257 0.0 0
M  V30 25 C 9.03 0.8284 0.0 0
M  V30 26 C 9.0182 2.3433 0.0 0
M  V30 27 C 3.8108 6.8406 0.0 0
M  V30 28 C 2.4971 7.598 0.0 0
M  V30 29 C 5.1008 7.598 0.0 0
M  V30 END ATOM
M  V30 BEGIN BOND
M  V30 1 2 1 2
M  V30 2 2 1 3
M  V30 3 1 1 4
M  V30 4 1 1 5
M  V30 5 2 4 6
M  V30 6 2 5 7
M  V30 7 1 5 8
M  V30 8 1 6 9
M  V30 9 1 6 10
M  V30 10 1 7 11
M  V30 11 2 8 12
M  V30 12 1 10 13
M  V30 13 2 10 14
M  V30 14 2 11 15
M  V30 15 2 13 16
M  V30 16 1 13 17
M  V30 17 1 14 18
M  V30 18 1 14 19
M  V30 19 1 17 20
M  V30 20 1 17 21
M  V30 21 1 19 22
M  V30 22 1 20 23
M  V30 23 1 21 24
M  V30 24 2 22 25
M  V30 25 2 23 26
M  V30 26 1 24 27
M  V30 27 1 27 28
M  V30 28 1 27 29
M  V30 29 1 7 9
M  V30 30 1 12 15
M  V30 31 2 19 20
M  V30 32 1 25 26
M  V30 END BOND
M  V30 END CTAB
M  END
>  <MolRegNo>
298159

>  <m>
=

>  <Value>
1423

>  <Unit>
nM

>  <Type>
EC90

>  <pValue>
0

>  <Ligand Efficiency>
0

>  <Binding Efficiency>
0

>  <Surface Efficiency>
0

>  <Assay Index>
256539

>  <Assay Category>


>  <Assay Organism>
Hepatitis C virus

>  <Target ID>
12097

>  <Target Name>
Hepatitis C virus NS5B RNA-dependent RNA polymerase

>  <Target Organism>
Hepatitis C virus

>  <Target Description>
Target is a single protein chain

>  <Sequence Accession>
Q8JXU8

>  <Reference>
J. Med. Chem. 49 (3), 971-983 (2006)

>  <Pubmed ID>
16451063

>  <DOI>
10.1021/jm050855s

$$$$
338298
Actelion Java MolfileCreator 2.0

  0  0  0  0  0  0              0 V3000
M  V30 BEGIN CTAB
M  V30 COUNTS 29 33 0 0 0
M  V30 BEGIN ATOM
M  V30 1 S 0.0 0.0 0.0 0
M  V30 2 O -1.3227 0.7626 0.0 0
M  V30 3 O 1.2869 0.7745 0.0 0
M  V30 4 N -1.2988 -0.7507 0.0 0
M  V30 5 C 1.2988 -0.7269 0.0 0
M  V30 6 C -1.2988 -2.2283 0.0 0
M  V30 7 C 1.2988 -2.2164 0.0 0
M  V30 8 C 2.5739 0.0357 0.0 0
M  V30 9 N -0.0119 -2.9672 0.0 0
M  V30 10 C -2.6097 -2.9791 0.0 0
M  V30 11 C 2.5858 -2.9433 0.0 0
M  V30 12 C 3.8609 -0.6911 0.0 0
M  V30 13 C -2.6097 -4.4806 0.0 0
M  V30 14 C -3.9324 -2.2283 0.0 0
M  V30 15 C 3.8728 -2.1688 0.0 0
M  V30 16 O -1.3108 -5.2194 0.0 0
M  V30 17 N -3.9205 -5.2194 0.0 0
M  V30 18 O -3.9562 -0.7149 0.0 0
M  V30 19 C -5.2432 -2.9672 0.0 0
M  V30 20 C -5.2313 -4.4567 0.0 0
M  V30 21 C -3.9324 -6.7089 0.0 0
M  V30 22 C -6.554 -2.2045 0.0 0
M  V30 23 C -6.5421 -5.2075 0.0 0
M  V30 24 C -2.6454 -7.4478 0.0 0
M  V30 25 C -7.8648 -2.9433 0.0 0
M  V30 26 C -7.8529 -4.4448 0.0 0
M  V30 27 C -1.3584 -6.6851 0.0 0
M  V30 28 C 0.1429 -6.6613 0.0 0
M  V30 29 C -0.6196 -5.3624 0.0 0
M  V30 END ATOM
M  V30 BEGIN BOND
M  V30 1 2 1 2
M  V30 2 2 1 3
M  V30 3 1 1 4
M  V30 4 1 1 5
M  V30 5 2 4 6
M  V30 6 2 5 7
M  V30 7 1 5 8
M  V30 8 1 6 9
M  V30 9 1 6 10
M  V30 10 1 7 11
M  V30 11 2 8 12
M  V30 12 1 10 13
M  V30 13 2 10 14
M  V30 14 2 11 15
M  V30 15 2 13 16
M  V30 16 1 13 17
M  V30 17 1 14 18
M  V30 18 1 14 19
M  V30 19 1 17 20
M  V30 20 1 17 21
M  V30 21 1 19 22
M  V30 22 1 20 23
M  V30 23 1 21 24
M  V30 24 2 22 25
M  V30 25 2 23 26
M  V30 26 1 24 27
M  V30 27 1 27 28
M  V30 28 1 27 29
M  V30 29 1 7 9
M  V30 30 1 12 15
M  V30 31 2 19 20
M  V30 32 1 25 26
M  V30 33 1 28 29
M  V30 END BOND
M  V30 END CTAB
M  END
>  <MolRegNo>
338298

>  <m>
=

>  <Value>
100

>  <Unit>
%

>  <Type>
F

>  <pValue>
0

>  <Ligand Efficiency>
0

>  <Binding Efficiency>
0

>  <Surface Efficiency>
0

>  <Assay Index>
256583

>  <Assay Category>


>  <Assay Organism>
Canis lupus familiaris

>  <Target ID>
50588

>  <Target Name>
Canis familiaris

>  <Target Organism>
Canis lupus familiaris

>  <Target Description>
Target is a complete organism

>  <Sequence Accession>


>  <Reference>
J. Med. Chem. 49 (3), 971-983 (2006)

>  <Pubmed ID>
16451063

>  <DOI>
10.1021/jm050855s

$$$$
338168
Actelion Java MolfileCreator 2.0

  0  0  0  0  0  0              0 V3000
M  V30 BEGIN CTAB
M  V30 COUNTS 30 34 0 0 0
M  V30 BEGIN ATOM
M  V30 1 S 0.0 0.0 0.0 0
M  V30 2 O 0.6988 1.3385 0.0 0
M  V30 3 O -0.7225 1.3385 0.0 0
M  V30 4 N -1.3148 -0.7343 0.0 0
M  V30 5 C 1.2911 -0.7343 0.0 0
M  V30 6 C -1.3266 -2.2268 0.0 0
M  V30 7 C 1.2792 -2.2268 0.0 0
M  V30 8 C 2.5822 0.0236 0.0 0
M  V30 9 N -0.0355 -2.9612 0.0 0
M  V30 10 C -2.6414 -2.9612 0.0 0
M  V30 11 C 2.5703 -2.9612 0.0 0
M  V30 12 C 3.8733 -0.7107 0.0 0
M  V30 13 C -2.6533 -4.4537 0.0 0
M  V30 14 C -3.9562 -2.2031 0.0 0
M  V30 15 C 3.8615 -2.2031 0.0 0
M  V30 16 O -1.3621 -5.1881 0.0 0
M  V30 17 N -3.9681 -5.1881 0.0 0
M  V30 18 O -3.9681 -0.687 0.0 0
M  V30 19 C -5.271 -2.9375 0.0 0
M  V30 20 C -5.2829 -4.43 0.0 0
M  V30 21 C -3.9799 -6.6806 0.0 0
M  V30 22 C -6.5859 -2.1795 0.0 0
M  V30 23 C -6.5977 -5.1644 0.0 0
M  V30 24 C -2.6888 -7.415 0.0 0
M  V30 25 C -7.9007 -2.9139 0.0 0
M  V30 26 C -7.9125 -4.4063 0.0 0
M  V30 27 C -2.7006 -8.9075 0.0 0
M  V30 28 F -9.2155 -2.1558 0.0 0
M  V30 29 C -1.9662 -10.1986 0.0 0
M  V30 30 C -3.4587 -10.1986 0.0 0
M  V30 END ATOM
M  V30 BEGIN BOND
M  V30 1 2 1 2
M  V30 2 2 1 3
M  V30 3 1 1 4
M  V30 4 1 1 5
M  V30 5 1 4 6
M  V30 6 2 5 7
M  V30 7 1 5 8
M  V30 8 2 6 9
M  V30 9 1 6 10
M  V30 10 1 7 11
M  V30 11 2 8 12
M  V30 12 1 10 13
M  V30 13 2 10 14
M  V30 14 2 11 15
M  V30 15 2 13 16
M  V30 16 1 13 17
M  V30 17 1 14 18
M  V30 18 1 14 19
M  V30 19 1 17 20
M  V30 20 1 17 21
M  V30 21 1 19 22
M  V30 22 1 20 23
M  V30 23 1 21 24
M  V30 24 2 22 25
M  V30 25 2 23 26
M  V30 26 1 24 27
M  V30 27 1 25 28
M  V30 28 1 27 29
M  V30 29 1 27 30
M  V30 30 1 7 9
M  V30 31 1 12 15
M  V30 32 2 19 20
M  V30 33 1 25 26
M  V30 34 1 29 30
M  V30 END BOND
M  V30 END CTAB
M  END
>  <MolRegNo>
338168

>  <m>
>

>  <Value>
50000

>  <Unit>
nM

>  <Type>
IC50

>  <pValue>
0

>  <Ligand Efficiency>
0

>  <Binding Efficiency>
0

>  <Surface Efficiency>
0

>  <Assay Index>
256545

>  <Assay Category>


>  <Assay Organism>
Homo sapiens

>  <Target ID>
54

>  <Target Name>
DNA polymerase alpha subunit

>  <Target Organism>
Homo sapiens

>  <Target Description>
Target is a single protein chain

>  <Sequence Accession>
P09884

>  <Reference>
J. Med. Chem. 49 (3), 971-983 (2006)

>  <Pubmed ID>
16451063

>  <DOI>
10.1021/jm050855s

$$$$
338298
Actelion Java MolfileCreator 2.0

  0  0  0  0  0  0              0 V3000
M  V30 BEGIN CTAB
M  V30 COUNTS 29 33 0 0 0
M  V30 BEGIN ATOM
M  V30 1 S 0.0 0.0 0.0 0
M  V30 2 O -1.3227 0.7626 0.0 0
M  V30 3 O 1.2869 0.7745 0.0 0
M  V30 4 N -1.2988 -0.7507 0.0 0
M  V30 5 C 1.2988 -0.7269 0.0 0
M  V30 6 C -1.2988 -2.2283 0.0 0
M  V30 7 C 1.2988 -2.2164 0.0 0
M  V30 8 C 2.5739 0.0357 0.0 0
M  V30 9 N -0.0119 -2.9672 0.0 0
M  V30 10 C -2.6097 -2.9791 0.0 0
M  V30 11 C 2.5858 -2.9433 0.0 0
M  V30 12 C 3.8609 -0.6911 0.0 0
M  V30 13 C -2.6097 -4.4806 0.0 0
M  V30 14 C -3.9324 -2.2283 0.0 0
M  V30 15 C 3.8728 -2.1688 0.0 0
M  V30 16 O -1.3108 -5.2194 0.0 0
M  V30 17 N -3.9205 -5.2194 0.0 0
M  V30 18 O -3.9562 -0.7149 0.0 0
M  V30 19 C -5.2432 -2.9672 0.0 0
M  V30 20 C -5.2313 -4.4567 0.0 0
M  V30 21 C -3.9324 -6.7089 0.0 0
M  V30 22 C -6.554 -2.2045 0.0 0
M  V30 23 C -6.5421 -5.2075 0.0 0
M  V30 24 C -2.6454 -7.4478 0.0 0
M  V30 25 C -7.8648 -2.9433 0.0 0
M  V30 26 C -7.8529 -4.4448 0.0 0
M  V30 27 C -1.3584 -6.6851 0.0 0
M  V30 28 C 0.1429 -6.6613 0.0 0
M  V30 29 C -0.6196 -5.3624 0.0 0
M  V30 END ATOM
M  V30 BEGIN BOND
M  V30 1 2 1 2
M  V30 2 2 1 3
M  V30 3 1 1 4
M  V30 4 1 1 5
M  V30 5 2 4 6
M  V30 6 2 5 7
M  V30 7 1 5 8
M  V30 8 1 6 9
M  V30 9 1 6 10
M  V30 10 1 7 11
M  V30 11 2 8 12
M  V30 12 1 10 13
M  V30 13 2 10 14
M  V30 14 2 11 15
M  V30 15 2 13 16
M  V30 16 1 13 17
M  V30 17 1 14 18
M  V30 18 1 14 19
M  V30 19 1 17 20
M  V30 20 1 17 21
M  V30 21 1 19 22
M  V30 22 1 20 23
M  V30 23 1 21 24
M  V30 24 2 22 25
M  V30 25 2 23 26
M  V30 26 1 24 27
M  V30 27 1 27 28
M  V30 28 1 27 29
M  V30 29 1 7 9
M  V30 30 1 12 15
M  V30 31 2 19 20
M  V30 32 1 25 26
M  V30 33 1 28 29
M  V30 END BOND
M  V30 END CTAB
M  END
>  <MolRegNo>
338298

>  <m>
=

>  <Value>
78

>  <Unit>
%

>  <Type>
F

>  <pValue>
0

>  <Ligand Efficiency>
0

>  <Binding Efficiency>
0

>  <Surface Efficiency>
0

>  <Assay Index>
256582

>  <Assay Category>


>  <Assay Organism>
Rattus norvegicus

>  <Target ID>
50597

>  <Target Name>
Rattus norvegicus

>  <Target Organism>
Rattus norvegicus

>  <Target Description>
Target is a complete organism

>  <Sequence Accession>


>  <Reference>
J. Med. Chem. 49 (3), 971-983 (2006)

>  <Pubmed ID>
16451063

>  <DOI>
10.1021/jm050855s

$$$$
298159
Actelion Java MolfileCreator 2.0

  0  0  0  0  0  0              0 V3000
M  V30 BEGIN CTAB
M  V30 COUNTS 29 32 0 0 0
M  V30 BEGIN ATOM
M  V30 1 S 0.0 0.0 0.0 0
M  V30 2 O -1.5148 0.0591 0.0 0
M  V30 3 O -0.8047 1.29 0.0 0
M  V30 4 N 1.29 0.7574 0.0 0
M  V30 5 C -0.0118 -1.4912 0.0 0
M  V30 6 C 2.58 0.0236 0.0 0
M  V30 7 C 1.2781 -2.2368 0.0 0
M  V30 8 C -1.3255 -2.2368 0.0 0
M  V30 9 N 2.5681 -1.4675 0.0 0
M  V30 10 C 3.87 0.7811 0.0 0
M  V30 11 C 1.2663 -3.728 0.0 0
M  V30 12 C -1.3373 -3.728 0.0 0
M  V30 13 C 3.8582 2.2959 0.0 0
M  V30 14 C 5.16 0.0473 0.0 0
M  V30 15 C -0.0473 -4.4617 0.0 0
M  V30 16 O 2.5445 3.0534 0.0 0
M  V30 17 N 5.1482 3.0534 0.0 0
M  V30 18 O 5.1482 -1.4438 0.0 0
M  V30 19 C 6.45 0.8047 0.0 0
M  V30 20 C 6.4382 2.3196 0.0 0
M  V30 21 C 5.1363 4.5683 0.0 0
M  V30 22 C 7.74 0.071 0.0 0
M  V30 23 C 7.7282 3.077 0.0 0
M  V30 24 C 3.8226 5.3257 0.0 0
M  V30 25 C 9.03 0.8284 0.0 0
M  V30 26 C 9.0182 2.3433 0.0 0
M  V30 27 C 3.8108 6.8406 0.0 0
M  V30 28 C 2.4971 7.598 0.0 0
M  V30 29 C 5.1008 7.598 0.0 0
M  V30 END ATOM
M  V30 BEGIN BOND
M  V30 1 2 1 2
M  V30 2 2 1 3
M  V30 3 1 1 4
M  V30 4 1 1 5
M  V30 5 2 4 6
M  V30 6 2 5 7
M  V30 7 1 5 8
M  V30 8 1 6 9
M  V30 9 1 6 10
M  V30 10 1 7 11
M  V30 11 2 8 12
M  V30 12 1 10 13
M  V30 13 2 10 14
M  V30 14 2 11 15
M  V30 15 2 13 16
M  V30 16 1 13 17
M  V30 17 1 14 18
M  V30 18 1 14 19
M  V30 19 1 17 20
M  V30 20 1 17 21
M  V30 21 1 19 22
M  V30 22 1 20 23
M  V30 23 1 21 24
M  V30 24 2 22 25
M  V30 25 2 23 26
M  V30 26 1 24 27
M  V30 27 1 27 28
M  V30 28 1 27 29
M  V30 29 1 7 9
M  V30 30 1 12 15
M  V30 31 2 19 20
M  V30 32 1 25 26
M  V30 END BOND
M  V30 END CTAB
M  END
>  <MolRegNo>
298159

>  <m>
=

>  <Value>
0.6067

>  <Unit>
hr

>  <Type>
T1/2

>  <pValue>
0

>  <Ligand Efficiency>
0

>  <Binding Efficiency>
0

>  <Surface Efficiency>
0

>  <Assay Index>
256558

>  <Assay Category>


>  <Assay Organism>
Rattus norvegicus

>  <Target ID>
50597

>  <Target Name>
Rattus norvegicus

>  <Target Organism>
Rattus norvegicus

>  <Target Description>
Target is a complete organism

>  <Sequence Accession>


>  <Reference>
J. Med. Chem. 49 (3), 971-983 (2006)

>  <Pubmed ID>
16451063

>  <DOI>
10.1021/jm050855s

$$$$
338168
Actelion Java MolfileCreator 2.0

  0  0  0  0  0  0              0 V3000
M  V30 BEGIN CTAB
M  V30 COUNTS 30 34 0 0 0
M  V30 BEGIN ATOM
M  V30 1 S 0.0 0.0 0.0 0
M  V30 2 O 0.6988 1.3385 0.0 0
M  V30 3 O -0.7225 1.3385 0.0 0
M  V30 4 N -1.3148 -0.7343 0.0 0
M  V30 5 C 1.2911 -0.7343 0.0 0
M  V30 6 C -1.3266 -2.2268 0.0 0
M  V30 7 C 1.2792 -2.2268 0.0 0
M  V30 8 C 2.5822 0.0236 0.0 0
M  V30 9 N -0.0355 -2.9612 0.0 0
M  V30 10 C -2.6414 -2.9612 0.0 0
M  V30 11 C 2.5703 -2.9612 0.0 0
M  V30 12 C 3.8733 -0.7107 0.0 0
M  V30 13 C -2.6533 -4.4537 0.0 0
M  V30 14 C -3.9562 -2.2031 0.0 0
M  V30 15 C 3.8615 -2.2031 0.0 0
M  V30 16 O -1.3621 -5.1881 0.0 0
M  V30 17 N -3.9681 -5.1881 0.0 0
M  V30 18 O -3.9681 -0.687 0.0 0
M  V30 19 C -5.271 -2.9375 0.0 0
M  V30 20 C -5.2829 -4.43 0.0 0
M  V30 21 C -3.9799 -6.6806 0.0 0
M  V30 22 C -6.5859 -2.1795 0.0 0
M  V30 23 C -6.5977 -5.1644 0.0 0
M  V30 24 C -2.6888 -7.415 0.0 0
M  V30 25 C -7.9007 -2.9139 0.0 0
M  V30 26 C -7.9125 -4.4063 0.0 0
M  V30 27 C -2.7006 -8.9075 0.0 0
M  V30 28 F -9.2155 -2.1558 0.0 0
M  V30 29 C -1.9662 -10.1986 0.0 0
M  V30 30 C -3.4587 -10.1986 0.0 0
M  V30 END ATOM
M  V30 BEGIN BOND
M  V30 1 2 1 2
M  V30 2 2 1 3
M  V30 3 1 1 4
M  V30 4 1 1 5
M  V30 5 1 4 6
M  V30 6 2 5 7
M  V30 7 1 5 8
M  V30 8 2 6 9
M  V30 9 1 6 10
M  V30 10 1 7 11
M  V30 11 2 8 12
M  V30 12 1 10 13
M  V30 13 2 10 14
M  V30 14 2 11 15
M  V30 15 2 13 16
M  V30 16 1 13 17
M  V30 17 1 14 18
M  V30 18 1 14 19
M  V30 19 1 17 20
M  V30 20 1 17 21
M  V30 21 1 19 22
M  V30 22 1 20 23
M  V30 23 1 21 24
M  V30 24 2 22 25
M  V30 25 2 23 26
M  V30 26 1 24 27
M  V30 27 1 25 28
M  V30 28 1 27 29
M  V30 29 1 27 30
M  V30 30 1 7 9
M  V30 31 1 12 15
M  V30 32 2 19 20
M  V30 33 1 25 26
M  V30 34 1 29 30
M  V30 END BOND
M  V30 END CTAB
M  END
>  <MolRegNo>
338168

>  <m>
>

>  <Value>
50000

>  <Unit>
nM

>  <Type>
IC50

>  <pValue>
0

>  <Ligand Efficiency>
0

>  <Binding Efficiency>
0

>  <Surface Efficiency>
0

>  <Assay Index>
256544

>  <Assay Category>


>  <Assay Organism>
Hepatitis GB virus B

>  <Target ID>
100685

>  <Target Name>
Hepatitis GB virus B NS5B RNA-dependent RNA polymerase

>  <Target Organism>
Hepatitis GB virus B

>  <Target Description>
Target is a single protein chain

>  <Sequence Accession>
Q69422

>  <Reference>
J. Med. Chem. 49 (3), 971-983 (2006)

>  <Pubmed ID>
16451063

>  <DOI>
10.1021/jm050855s

$$$$
338298
Actelion Java MolfileCreator 2.0

  0  0  0  0  0  0              0 V3000
M  V30 BEGIN CTAB
M  V30 COUNTS 29 33 0 0 0
M  V30 BEGIN ATOM
M  V30 1 S 0.0 0.0 0.0 0
M  V30 2 O -1.3227 0.7626 0.0 0
M  V30 3 O 1.2869 0.7745 0.0 0
M  V30 4 N -1.2988 -0.7507 0.0 0
M  V30 5 C 1.2988 -0.7269 0.0 0
M  V30 6 C -1.2988 -2.2283 0.0 0
M  V30 7 C 1.2988 -2.2164 0.0 0
M  V30 8 C 2.5739 0.0357 0.0 0
M  V30 9 N -0.0119 -2.9672 0.0 0
M  V30 10 C -2.6097 -2.9791 0.0 0
M  V30 11 C 2.5858 -2.9433 0.0 0
M  V30 12 C 3.8609 -0.6911 0.0 0
M  V30 13 C -2.6097 -4.4806 0.0 0
M  V30 14 C -3.9324 -2.2283 0.0 0
M  V30 15 C 3.8728 -2.1688 0.0 0
M  V30 16 O -1.3108 -5.2194 0.0 0
M  V30 17 N -3.9205 -5.2194 0.0 0
M  V30 18 O -3.9562 -0.7149 0.0 0
M  V30 19 C -5.2432 -2.9672 0.0 0
M  V30 20 C -5.2313 -4.4567 0.0 0
M  V30 21 C -3.9324 -6.7089 0.0 0
M  V30 22 C -6.554 -2.2045 0.0 0
M  V30 23 C -6.5421 -5.2075 0.0 0
M  V30 24 C -2.6454 -7.4478 0.0 0
M  V30 25 C -7.8648 -2.9433 0.0 0
M  V30 26 C -7.8529 -4.4448 0.0 0
M  V30 27 C -1.3584 -6.6851 0.0 0
M  V30 28 C 0.1429 -6.6613 0.0 0
M  V30 29 C -0.6196 -5.3624 0.0 0
M  V30 END ATOM
M  V30 BEGIN BOND
M  V30 1 2 1 2
M  V30 2 2 1 3
M  V30 3 1 1 4
M  V30 4 1 1 5
M  V30 5 2 4 6
M  V30 6 2 5 7
M  V30 7 1 5 8
M  V30 8 1 6 9
M  V30 9 1 6 10
M  V30 10 1 7 11
M  V30 11 2 8 12
M  V30 12 1 10 13
M  V30 13 2 10 14
M  V30 14 2 11 15
M  V30 15 2 13 16
M  V30 16 1 13 17
M  V30 17 1 14 18
M  V30 18 1 14 19
M  V30 19 1 17 20
M  V30 20 1 17 21
M  V30 21 1 19 22
M  V30 22 1 20 23
M  V30 23 1 21 24
M  V30 24 2 22 25
M  V30 25 2 23 26
M  V30 26 1 24 27
M  V30 27 1 27 28
M  V30 28 1 27 29
M  V30 29 1 7 9
M  V30 30 1 12 15
M  V30 31 2 19 20
M  V30 32 1 25 26
M  V30 33 1 28 29
M  V30 END BOND
M  V30 END CTAB
M  END
>  <MolRegNo>
338298

>  <m>
=

>  <Value>
1.73

>  <Unit>
mL.min-1.kg-1

>  <Type>
CL

>  <pValue>
0

>  <Ligand Efficiency>
0

>  <Binding Efficiency>
0

>  <Surface Efficiency>
0

>  <Assay Index>
256573

>  <Assay Category>


>  <Assay Organism>
Macaca fascicularis

>  <Target ID>
100710

>  <Target Name>
Cynomolgus monkey

>  <Target Organism>
Macaca fascicularis

>  <Target Description>
Target is a complete organism

>  <Sequence Accession>


>  <Reference>
J. Med. Chem. 49 (3), 971-983 (2006)

>  <Pubmed ID>
16451063

>  <DOI>
10.1021/jm050855s

$$$$
338298
Actelion Java MolfileCreator 2.0

  0  0  0  0  0  0              0 V3000
M  V30 BEGIN CTAB
M  V30 COUNTS 29 33 0 0 0
M  V30 BEGIN ATOM
M  V30 1 S 0.0 0.0 0.0 0
M  V30 2 O -1.3227 0.7626 0.0 0
M  V30 3 O 1.2869 0.7745 0.0 0
M  V30 4 N -1.2988 -0.7507 0.0 0
M  V30 5 C 1.2988 -0.7269 0.0 0
M  V30 6 C -1.2988 -2.2283 0.0 0
M  V30 7 C 1.2988 -2.2164 0.0 0
M  V30 8 C 2.5739 0.0357 0.0 0
M  V30 9 N -0.0119 -2.9672 0.0 0
M  V30 10 C -2.6097 -2.9791 0.0 0
M  V30 11 C 2.5858 -2.9433 0.0 0
M  V30 12 C 3.8609 -0.6911 0.0 0
M  V30 13 C -2.6097 -4.4806 0.0 0
M  V30 14 C -3.9324 -2.2283 0.0 0
M  V30 15 C 3.8728 -2.1688 0.0 0
M  V30 16 O -1.3108 -5.2194 0.0 0
M  V30 17 N -3.9205 -5.2194 0.0 0
M  V30 18 O -3.9562 -0.7149 0.0 0
M  V30 19 C -5.2432 -2.9672 0.0 0
M  V30 20 C -5.2313 -4.4567 0.0 0
M  V30 21 C -3.9324 -6.7089 0.0 0
M  V30 22 C -6.554 -2.2045 0.0 0
M  V30 23 C -6.5421 -5.2075 0.0 0
M  V30 24 C -2.6454 -7.4478 0.0 0
M  V30 25 C -7.8648 -2.9433 0.0 0
M  V30 26 C -7.8529 -4.4448 0.0 0
M  V30 27 C -1.3584 -6.6851 0.0 0
M  V30 28 C 0.1429 -6.6613 0.0 0
M  V30 29 C -0.6196 -5.3624 0.0 0
M  V30 END ATOM
M  V30 BEGIN BOND
M  V30 1 2 1 2
M  V30 2 2 1 3
M  V30 3 1 1 4
M  V30 4 1 1 5
M  V30 5 2 4 6
M  V30 6 2 5 7
M  V30 7 1 5 8
M  V30 8 1 6 9
M  V30 9 1 6 10
M  V30 10 1 7 11
M  V30 11 2 8 12
M  V30 12 1 10 13
M  V30 13 2 10 14
M  V30 14 2 11 15
M  V30 15 2 13 16
M  V30 16 1 13 17
M  V30 17 1 14 18
M  V30 18 1 14 19
M  V30 19 1 17 20
M  V30 20 1 17 21
M  V30 21 1 19 22
M  V30 22 1 20 23
M  V30 23 1 21 24
M  V30 24 2 22 25
M  V30 25 2 23 26
M  V30 26 1 24 27
M  V30 27 1 27 28
M  V30 28 1 27 29
M  V30 29 1 7 9
M  V30 30 1 12 15
M  V30 31 2 19 20
M  V30 32 1 25 26
M  V30 33 1 28 29
M  V30 END BOND
M  V30 END CTAB
M  END
>  <MolRegNo>
338298

>  <m>
=

>  <Value>
0.47

>  <Unit>
mL.min-1.kg-1

>  <Type>
CL

>  <pValue>
0

>  <Ligand Efficiency>
0

>  <Binding Efficiency>
0

>  <Surface Efficiency>
0

>  <Assay Index>
256572

>  <Assay Category>


>  <Assay Organism>
Canis lupus familiaris

>  <Target ID>
50588

>  <Target Name>
Canis familiaris

>  <Target Organism>
Canis lupus familiaris

>  <Target Description>
Target is a complete organism

>  <Sequence Accession>


>  <Reference>
J. Med. Chem. 49 (3), 971-983 (2006)

>  <Pubmed ID>
16451063

>  <DOI>
10.1021/jm050855s

$$$$
338298
Actelion Java MolfileCreator 2.0

  0  0  0  0  0  0              0 V3000
M  V30 BEGIN CTAB
M  V30 COUNTS 29 33 0 0 0
M  V30 BEGIN ATOM
M  V30 1 S 0.0 0.0 0.0 0
M  V30 2 O -1.3227 0.7626 0.0 0
M  V30 3 O 1.2869 0.7745 0.0 0
M  V30 4 N -1.2988 -0.7507 0.0 0
M  V30 5 C 1.2988 -0.7269 0.0 0
M  V30 6 C -1.2988 -2.2283 0.0 0
M  V30 7 C 1.2988 -2.2164 0.0 0
M  V30 8 C 2.5739 0.0357 0.0 0
M  V30 9 N -0.0119 -2.9672 0.0 0
M  V30 10 C -2.6097 -2.9791 0.0 0
M  V30 11 C 2.5858 -2.9433 0.0 0
M  V30 12 C 3.8609 -0.6911 0.0 0
M  V30 13 C -2.6097 -4.4806 0.0 0
M  V30 14 C -3.9324 -2.2283 0.0 0
M  V30 15 C 3.8728 -2.1688 0.0 0
M  V30 16 O -1.3108 -5.2194 0.0 0
M  V30 17 N -3.9205 -5.2194 0.0 0
M  V30 18 O -3.9562 -0.7149 0.0 0
M  V30 19 C -5.2432 -2.9672 0.0 0
M  V30 20 C -5.2313 -4.4567 0.0 0
M  V30 21 C -3.9324 -6.7089 0.0 0
M  V30 22 C -6.554 -2.2045 0.0 0
M  V30 23 C -6.5421 -5.2075 0.0 0
M  V30 24 C -2.6454 -7.4478 0.0 0
M  V30 25 C -7.8648 -2.9433 0.0 0
M  V30 26 C -7.8529 -4.4448 0.0 0
M  V30 27 C -1.3584 -6.6851 0.0 0
M  V30 28 C 0.1429 -6.6613 0.0 0
M  V30 29 C -0.6196 -5.3624 0.0 0
M  V30 END ATOM
M  V30 BEGIN BOND
M  V30 1 2 1 2
M  V30 2 2 1 3
M  V30 3 1 1 4
M  V30 4 1 1 5
M  V30 5 2 4 6
M  V30 6 2 5 7
M  V30 7 1 5 8
M  V30 8 1 6 9
M  V30 9 1 6 10
M  V30 10 1 7 11
M  V30 11 2 8 12
M  V30 12 1 10 13
M  V30 13 2 10 14
M  V30 14 2 11 15
M  V30 15 2 13 16
M  V30 16 1 13 17
M  V30 17 1 14 18
M  V30 18 1 14 19
M  V30 19 1 17 20
M  V30 20 1 17 21
M  V30 21 1 19 22
M  V30 22 1 20 23
M  V30 23 1 21 24
M  V30 24 2 22 25
M  V30 25 2 23 26
M  V30 26 1 24 27
M  V30 27 1 27 28
M  V30 28 1 27 29
M  V30 29 1 7 9
M  V30 30 1 12 15
M  V30 31 2 19 20
M  V30 32 1 25 26
M  V30 33 1 28 29
M  V30 END BOND
M  V30 END CTAB
M  END
>  <MolRegNo>
338298

>  <m>
=

>  <Value>
7.917

>  <Unit>
ug.mL-1

>  <Type>
Cmax

>  <pValue>
0

>  <Ligand Efficiency>
0

>  <Binding Efficiency>
0

>  <Surface Efficiency>
0

>  <Assay Index>
256551

>  <Assay Category>


>  <Assay Organism>
Macaca fascicularis

>  <Target ID>
100710

>  <Target Name>
Cynomolgus monkey

>  <Target Organism>
Macaca fascicularis

>  <Target Description>
Target is a complete organism

>  <Sequence Accession>


>  <Reference>
J. Med. Chem. 49 (3), 971-983 (2006)

>  <Pubmed ID>
16451063

>  <DOI>
10.1021/jm050855s

$$$$
338168
Actelion Java MolfileCreator 2.0

  0  0  0  0  0  0              0 V3000
M  V30 BEGIN CTAB
M  V30 COUNTS 30 34 0 0 0
M  V30 BEGIN ATOM
M  V30 1 S 0.0 0.0 0.0 0
M  V30 2 O 0.6988 1.3385 0.0 0
M  V30 3 O -0.7225 1.3385 0.0 0
M  V30 4 N -1.3148 -0.7343 0.0 0
M  V30 5 C 1.2911 -0.7343 0.0 0
M  V30 6 C -1.3266 -2.2268 0.0 0
M  V30 7 C 1.2792 -2.2268 0.0 0
M  V30 8 C 2.5822 0.0236 0.0 0
M  V30 9 N -0.0355 -2.9612 0.0 0
M  V30 10 C -2.6414 -2.9612 0.0 0
M  V30 11 C 2.5703 -2.9612 0.0 0
M  V30 12 C 3.8733 -0.7107 0.0 0
M  V30 13 C -2.6533 -4.4537 0.0 0
M  V30 14 C -3.9562 -2.2031 0.0 0
M  V30 15 C 3.8615 -2.2031 0.0 0
M  V30 16 O -1.3621 -5.1881 0.0 0
M  V30 17 N -3.9681 -5.1881 0.0 0
M  V30 18 O -3.9681 -0.687 0.0 0
M  V30 19 C -5.271 -2.9375 0.0 0
M  V30 20 C -5.2829 -4.43 0.0 0
M  V30 21 C -3.9799 -6.6806 0.0 0
M  V30 22 C -6.5859 -2.1795 0.0 0
M  V30 23 C -6.5977 -5.1644 0.0 0
M  V30 24 C -2.6888 -7.415 0.0 0
M  V30 25 C -7.9007 -2.9139 0.0 0
M  V30 26 C -7.9125 -4.4063 0.0 0
M  V30 27 C -2.7006 -8.9075 0.0 0
M  V30 28 F -9.2155 -2.1558 0.0 0
M  V30 29 C -1.9662 -10.1986 0.0 0
M  V30 30 C -3.4587 -10.1986 0.0 0
M  V30 END ATOM
M  V30 BEGIN BOND
M  V30 1 2 1 2
M  V30 2 2 1 3
M  V30 3 1 1 4
M  V30 4 1 1 5
M  V30 5 1 4 6
M  V30 6 2 5 7
M  V30 7 1 5 8
M  V30 8 2 6 9
M  V30 9 1 6 10
M  V30 10 1 7 11
M  V30 11 2 8 12
M  V30 12 1 10 13
M  V30 13 2 10 14
M  V30 14 2 11 15
M  V30 15 2 13 16
M  V30 16 1 13 17
M  V30 17 1 14 18
M  V30 18 1 14 19
M  V30 19 1 17 20
M  V30 20 1 17 21
M  V30 21 1 19 22
M  V30 22 1 20 23
M  V30 23 1 21 24
M  V30 24 2 22 25
M  V30 25 2 23 26
M  V30 26 1 24 27
M  V30 27 1 25 28
M  V30 28 1 27 29
M  V30 29 1 27 30
M  V30 30 1 7 9
M  V30 31 1 12 15
M  V30 32 2 19 20
M  V30 33 1 25 26
M  V30 34 1 29 30
M  V30 END BOND
M  V30 END CTAB
M  END
>  <MolRegNo>
338168

>  <m>
=

>  <Value>
60

>  <Unit>
%

>  <Type>
Inhibition

>  <pValue>
0

>  <Ligand Efficiency>
0

>  <Binding Efficiency>
0

>  <Surface Efficiency>
0

>  <Assay Index>
256543

>  <Assay Category>


>  <Assay Organism>


>  <Target ID>
12097

>  <Target Name>
Hepatitis C virus NS5B RNA-dependent RNA polymerase

>  <Target Organism>
Hepatitis C virus

>  <Target Description>
Target is a single protein chain

>  <Sequence Accession>
Q8JXU8

>  <Reference>
J. Med. Chem. 49 (3), 971-983 (2006)

>  <Pubmed ID>
16451063

>  <DOI>
10.1021/jm050855s

$$$$
338298
Actelion Java MolfileCreator 2.0

  0  0  0  0  0  0              0 V3000
M  V30 BEGIN CTAB
M  V30 COUNTS 29 33 0 0 0
M  V30 BEGIN ATOM
M  V30 1 S 0.0 0.0 0.0 0
M  V30 2 O -1.3227 0.7626 0.0 0
M  V30 3 O 1.2869 0.7745 0.0 0
M  V30 4 N -1.2988 -0.7507 0.0 0
M  V30 5 C 1.2988 -0.7269 0.0 0
M  V30 6 C -1.2988 -2.2283 0.0 0
M  V30 7 C 1.2988 -2.2164 0.0 0
M  V30 8 C 2.5739 0.0357 0.0 0
M  V30 9 N -0.0119 -2.9672 0.0 0
M  V30 10 C -2.6097 -2.9791 0.0 0
M  V30 11 C 2.5858 -2.9433 0.0 0
M  V30 12 C 3.8609 -0.6911 0.0 0
M  V30 13 C -2.6097 -4.4806 0.0 0
M  V30 14 C -3.9324 -2.2283 0.0 0
M  V30 15 C 3.8728 -2.1688 0.0 0
M  V30 16 O -1.3108 -5.2194 0.0 0
M  V30 17 N -3.9205 -5.2194 0.0 0
M  V30 18 O -3.9562 -0.7149 0.0 0
M  V30 19 C -5.2432 -2.9672 0.0 0
M  V30 20 C -5.2313 -4.4567 0.0 0
M  V30 21 C -3.9324 -6.7089 0.0 0
M  V30 22 C -6.554 -2.2045 0.0 0
M  V30 23 C -6.5421 -5.2075 0.0 0
M  V30 24 C -2.6454 -7.4478 0.0 0
M  V30 25 C -7.8648 -2.9433 0.0 0
M  V30 26 C -7.8529 -4.4448 0.0 0
M  V30 27 C -1.3584 -6.6851 0.0 0
M  V30 28 C 0.1429 -6.6613 0.0 0
M  V30 29 C -0.6196 -5.3624 0.0 0
M  V30 END ATOM
M  V30 BEGIN BOND
M  V30 1 2 1 2
M  V30 2 2 1 3
M  V30 3 1 1 4
M  V30 4 1 1 5
M  V30 5 2 4 6
M  V30 6 2 5 7
M  V30 7 1 5 8
M  V30 8 1 6 9
M  V30 9 1 6 10
M  V30 10 1 7 11
M  V30 11 2 8 12
M  V30 12 1 10 13
M  V30 13 2 10 14
M  V30 14 2 11 15
M  V30 15 2 13 16
M  V30 16 1 13 17
M  V30 17 1 14 18
M  V30 18 1 14 19
M  V30 19 1 17 20
M  V30 20 1 17 21
M  V30 21 1 19 22
M  V30 22 1 20 23
M  V30 23 1 21 24
M  V30 24 2 22 25
M  V30 25 2 23 26
M  V30 26 1 24 27
M  V30 27 1 27 28
M  V30 28 1 27 29
M  V30 29 1 7 9
M  V30 30 1 12 15
M  V30 31 2 19 20
M  V30 32 1 25 26
M  V30 33 1 28 29
M  V30 END BOND
M  V30 END CTAB
M  END
>  <MolRegNo>
338298

>  <m>
=

>  <Value>
1.7

>  <Unit>
mL.min-1.kg-1

>  <Type>
CL

>  <pValue>
0

>  <Ligand Efficiency>
0

>  <Binding Efficiency>
0

>  <Surface Efficiency>
0

>  <Assay Index>
256571

>  <Assay Category>


>  <Assay Organism>
Rattus norvegicus

>  <Target ID>
50597

>  <Target Name>
Rattus norvegicus

>  <Target Organism>
Rattus norvegicus

>  <Target Description>
Target is a complete organism

>  <Sequence Accession>


>  <Reference>
J. Med. Chem. 49 (3), 971-983 (2006)

>  <Pubmed ID>
16451063

>  <DOI>
10.1021/jm050855s

$$$$
338298
Actelion Java MolfileCreator 2.0

  0  0  0  0  0  0              0 V3000
M  V30 BEGIN CTAB
M  V30 COUNTS 29 33 0 0 0
M  V30 BEGIN ATOM
M  V30 1 S 0.0 0.0 0.0 0
M  V30 2 O -1.3227 0.7626 0.0 0
M  V30 3 O 1.2869 0.7745 0.0 0
M  V30 4 N -1.2988 -0.7507 0.0 0
M  V30 5 C 1.2988 -0.7269 0.0 0
M  V30 6 C -1.2988 -2.2283 0.0 0
M  V30 7 C 1.2988 -2.2164 0.0 0
M  V30 8 C 2.5739 0.0357 0.0 0
M  V30 9 N -0.0119 -2.9672 0.0 0
M  V30 10 C -2.6097 -2.9791 0.0 0
M  V30 11 C 2.5858 -2.9433 0.0 0
M  V30 12 C 3.8609 -0.6911 0.0 0
M  V30 13 C -2.6097 -4.4806 0.0 0
M  V30 14 C -3.9324 -2.2283 0.0 0
M  V30 15 C 3.8728 -2.1688 0.0 0
M  V30 16 O -1.3108 -5.2194 0.0 0
M  V30 17 N -3.9205 -5.2194 0.0 0
M  V30 18 O -3.9562 -0.7149 0.0 0
M  V30 19 C -5.2432 -2.9672 0.0 0
M  V30 20 C -5.2313 -4.4567 0.0 0
M  V30 21 C -3.9324 -6.7089 0.0 0
M  V30 22 C -6.554 -2.2045 0.0 0
M  V30 23 C -6.5421 -5.2075 0.0 0
M  V30 24 C -2.6454 -7.4478 0.0 0
M  V30 25 C -7.8648 -2.9433 0.0 0
M  V30 26 C -7.8529 -4.4448 0.0 0
M  V30 27 C -1.3584 -6.6851 0.0 0
M  V30 28 C 0.1429 -6.6613 0.0 0
M  V30 29 C -0.6196 -5.3624 0.0 0
M  V30 END ATOM
M  V30 BEGIN BOND
M  V30 1 2 1 2
M  V30 2 2 1 3
M  V30 3 1 1 4
M  V30 4 1 1 5
M  V30 5 2 4 6
M  V30 6 2 5 7
M  V30 7 1 5 8
M  V30 8 1 6 9
M  V30 9 1 6 10
M  V30 10 1 7 11
M  V30 11 2 8 12
M  V30 12 1 10 13
M  V30 13 2 10 14
M  V30 14 2 11 15
M  V30 15 2 13 16
M  V30 16 1 13 17
M  V30 17 1 14 18
M  V30 18 1 14 19
M  V30 19 1 17 20
M  V30 20 1 17 21
M  V30 21 1 19 22
M  V30 22 1 20 23
M  V30 23 1 21 24
M  V30 24 2 22 25
M  V30 25 2 23 26
M  V30 26 1 24 27
M  V30 27 1 27 28
M  V30 28 1 27 29
M  V30 29 1 7 9
M  V30 30 1 12 15
M  V30 31 2 19 20
M  V30 32 1 25 26
M  V30 33 1 28 29
M  V30 END BOND
M  V30 END CTAB
M  END
>  <MolRegNo>
338298

>  <m>
=

>  <Value>
5.398

>  <Unit>
ug.mL-1

>  <Type>
Cmax

>  <pValue>
0

>  <Ligand Efficiency>
0

>  <Binding Efficiency>
0

>  <Surface Efficiency>
0

>  <Assay Index>
256550

>  <Assay Category>


>  <Assay Organism>
Canis lupus familiaris

>  <Target ID>
50588

>  <Target Name>
Canis familiaris

>  <Target Organism>
Canis lupus familiaris

>  <Target Description>
Target is a complete organism

>  <Sequence Accession>


>  <Reference>
J. Med. Chem. 49 (3), 971-983 (2006)

>  <Pubmed ID>
16451063

>  <DOI>
10.1021/jm050855s

$$$$
338168
Actelion Java MolfileCreator 2.0

  0  0  0  0  0  0              0 V3000
M  V30 BEGIN CTAB
M  V30 COUNTS 30 34 0 0 0
M  V30 BEGIN ATOM
M  V30 1 S 0.0 0.0 0.0 0
M  V30 2 O 0.6988 1.3385 0.0 0
M  V30 3 O -0.7225 1.3385 0.0 0
M  V30 4 N -1.3148 -0.7343 0.0 0
M  V30 5 C 1.2911 -0.7343 0.0 0
M  V30 6 C -1.3266 -2.2268 0.0 0
M  V30 7 C 1.2792 -2.2268 0.0 0
M  V30 8 C 2.5822 0.0236 0.0 0
M  V30 9 N -0.0355 -2.9612 0.0 0
M  V30 10 C -2.6414 -2.9612 0.0 0
M  V30 11 C 2.5703 -2.9612 0.0 0
M  V30 12 C 3.8733 -0.7107 0.0 0
M  V30 13 C -2.6533 -4.4537 0.0 0
M  V30 14 C -3.9562 -2.2031 0.0 0
M  V30 15 C 3.8615 -2.2031 0.0 0
M  V30 16 O -1.3621 -5.1881 0.0 0
M  V30 17 N -3.9681 -5.1881 0.0 0
M  V30 18 O -3.9681 -0.687 0.0 0
M  V30 19 C -5.271 -2.9375 0.0 0
M  V30 20 C -5.2829 -4.43 0.0 0
M  V30 21 C -3.9799 -6.6806 0.0 0
M  V30 22 C -6.5859 -2.1795 0.0 0
M  V30 23 C -6.5977 -5.1644 0.0 0
M  V30 24 C -2.6888 -7.415 0.0 0
M  V30 25 C -7.9007 -2.9139 0.0 0
M  V30 26 C -7.9125 -4.4063 0.0 0
M  V30 27 C -2.7006 -8.9075 0.0 0
M  V30 28 F -9.2155 -2.1558 0.0 0
M  V30 29 C -1.9662 -10.1986 0.0 0
M  V30 30 C -3.4587 -10.1986 0.0 0
M  V30 END ATOM
M  V30 BEGIN BOND
M  V30 1 2 1 2
M  V30 2 2 1 3
M  V30 3 1 1 4
M  V30 4 1 1 5
M  V30 5 1 4 6
M  V30 6 2 5 7
M  V30 7 1 5 8
M  V30 8 2 6 9
M  V30 9 1 6 10
M  V30 10 1 7 11
M  V30 11 2 8 12
M  V30 12 1 10 13
M  V30 13 2 10 14
M  V30 14 2 11 15
M  V30 15 2 13 16
M  V30 16 1 13 17
M  V30 17 1 14 18
M  V30 18 1 14 19
M  V30 19 1 17 20
M  V30 20 1 17 21
M  V30 21 1 19 22
M  V30 22 1 20 23
M  V30 23 1 21 24
M  V30 24 2 22 25
M  V30 25 2 23 26
M  V30 26 1 24 27
M  V30 27 1 25 28
M  V30 28 1 27 29
M  V30 29 1 27 30
M  V30 30 1 7 9
M  V30 31 1 12 15
M  V30 32 2 19 20
M  V30 33 1 25 26
M  V30 34 1 29 30
M  V30 END BOND
M  V30 END CTAB
M  END
>  <MolRegNo>
338168

>  <m>
>

>  <Value>
50000

>  <Unit>
nM

>  <Type>
IC50

>  <pValue>
0

>  <Ligand Efficiency>
0

>  <Binding Efficiency>
0

>  <Surface Efficiency>
0

>  <Assay Index>
256546

>  <Assay Category>


>  <Assay Organism>
Homo sapiens

>  <Target ID>
10206

>  <Target Name>
DNA polymerase beta

>  <Target Organism>
Homo sapiens

>  <Target Description>
Target is a single protein chain

>  <Sequence Accession>
P06746

>  <Reference>
J. Med. Chem. 49 (3), 971-983 (2006)

>  <Pubmed ID>
16451063

>  <DOI>
10.1021/jm050855s

$$$$
338168
Actelion Java MolfileCreator 2.0

  0  0  0  0  0  0              0 V3000
M  V30 BEGIN CTAB
M  V30 COUNTS 30 34 0 0 0
M  V30 BEGIN ATOM
M  V30 1 S 0.0 0.0 0.0 0
M  V30 2 O 0.6988 1.3385 0.0 0
M  V30 3 O -0.7225 1.3385 0.0 0
M  V30 4 N -1.3148 -0.7343 0.0 0
M  V30 5 C 1.2911 -0.7343 0.0 0
M  V30 6 C -1.3266 -2.2268 0.0 0
M  V30 7 C 1.2792 -2.2268 0.0 0
M  V30 8 C 2.5822 0.0236 0.0 0
M  V30 9 N -0.0355 -2.9612 0.0 0
M  V30 10 C -2.6414 -2.9612 0.0 0
M  V30 11 C 2.5703 -2.9612 0.0 0
M  V30 12 C 3.8733 -0.7107 0.0 0
M  V30 13 C -2.6533 -4.4537 0.0 0
M  V30 14 C -3.9562 -2.2031 0.0 0
M  V30 15 C 3.8615 -2.2031 0.0 0
M  V30 16 O -1.3621 -5.1881 0.0 0
M  V30 17 N -3.9681 -5.1881 0.0 0
M  V30 18 O -3.9681 -0.687 0.0 0
M  V30 19 C -5.271 -2.9375 0.0 0
M  V30 20 C -5.2829 -4.43 0.0 0
M  V30 21 C -3.9799 -6.6806 0.0 0
M  V30 22 C -6.5859 -2.1795 0.0 0
M  V30 23 C -6.5977 -5.1644 0.0 0
M  V30 24 C -2.6888 -7.415 0.0 0
M  V30 25 C -7.9007 -2.9139 0.0 0
M  V30 26 C -7.9125 -4.4063 0.0 0
M  V30 27 C -2.7006 -8.9075 0.0 0
M  V30 28 F -9.2155 -2.1558 0.0 0
M  V30 29 C -1.9662 -10.1986 0.0 0
M  V30 30 C -3.4587 -10.1986 0.0 0
M  V30 END ATOM
M  V30 BEGIN BOND
M  V30 1 2 1 2
M  V30 2 2 1 3
M  V30 3 1 1 4
M  V30 4 1 1 5
M  V30 5 1 4 6
M  V30 6 2 5 7
M  V30 7 1 5 8
M  V30 8 2 6 9
M  V30 9 1 6 10
M  V30 10 1 7 11
M  V30 11 2 8 12
M  V30 12 1 10 13
M  V30 13 2 10 14
M  V30 14 2 11 15
M  V30 15 2 13 16
M  V30 16 1 13 17
M  V30 17 1 14 18
M  V30 18 1 14 19
M  V30 19 1 17 20
M  V30 20 1 17 21
M  V30 21 1 19 22
M  V30 22 1 20 23
M  V30 23 1 21 24
M  V30 24 2 22 25
M  V30 25 2 23 26
M  V30 26 1 24 27
M  V30 27 1 25 28
M  V30 28 1 27 29
M  V30 29 1 27 30
M  V30 30 1 7 9
M  V30 31 1 12 15
M  V30 32 2 19 20
M  V30 33 1 25 26
M  V30 34 1 29 30
M  V30 END BOND
M  V30 END CTAB
M  END
>  <MolRegNo>
338168

>  <m>
=

>  <Value>
13

>  <Unit>
nM

>  <Type>
IC50

>  <pValue>
7.89

>  <Ligand Efficiency>
0.36

>  <Binding Efficiency>
18.45

>  <Surface Efficiency>
7.83

>  <Assay Index>
256542

>  <Assay Category>


>  <Assay Organism>
Hepatitis C virus genotype 2

>  <Target ID>
12097

>  <Target Name>
Hepatitis C virus NS5B RNA-dependent RNA polymerase

>  <Target Organism>
Hepatitis C virus

>  <Target Description>
Target is a single protein chain

>  <Sequence Accession>
Q8JXU8

>  <Reference>
J. Med. Chem. 49 (3), 971-983 (2006)

>  <Pubmed ID>
16451063

>  <DOI>
10.1021/jm050855s

$$$$
338168
Actelion Java MolfileCreator 2.0

  0  0  0  0  0  0              0 V3000
M  V30 BEGIN CTAB
M  V30 COUNTS 30 34 0 0 0
M  V30 BEGIN ATOM
M  V30 1 S 0.0 0.0 0.0 0
M  V30 2 O 0.6988 1.3385 0.0 0
M  V30 3 O -0.7225 1.3385 0.0 0
M  V30 4 N -1.3148 -0.7343 0.0 0
M  V30 5 C 1.2911 -0.7343 0.0 0
M  V30 6 C -1.3266 -2.2268 0.0 0
M  V30 7 C 1.2792 -2.2268 0.0 0
M  V30 8 C 2.5822 0.0236 0.0 0
M  V30 9 N -0.0355 -2.9612 0.0 0
M  V30 10 C -2.6414 -2.9612 0.0 0
M  V30 11 C 2.5703 -2.9612 0.0 0
M  V30 12 C 3.8733 -0.7107 0.0 0
M  V30 13 C -2.6533 -4.4537 0.0 0
M  V30 14 C -3.9562 -2.2031 0.0 0
M  V30 15 C 3.8615 -2.2031 0.0 0
M  V30 16 O -1.3621 -5.1881 0.0 0
M  V30 17 N -3.9681 -5.1881 0.0 0
M  V30 18 O -3.9681 -0.687 0.0 0
M  V30 19 C -5.271 -2.9375 0.0 0
M  V30 20 C -5.2829 -4.43 0.0 0
M  V30 21 C -3.9799 -6.6806 0.0 0
M  V30 22 C -6.5859 -2.1795 0.0 0
M  V30 23 C -6.5977 -5.1644 0.0 0
M  V30 24 C -2.6888 -7.415 0.0 0
M  V30 25 C -7.9007 -2.9139 0.0 0
M  V30 26 C -7.9125 -4.4063 0.0 0
M  V30 27 C -2.7006 -8.9075 0.0 0
M  V30 28 F -9.2155 -2.1558 0.0 0
M  V30 29 C -1.9662 -10.1986 0.0 0
M  V30 30 C -3.4587 -10.1986 0.0 0
M  V30 END ATOM
M  V30 BEGIN BOND
M  V30 1 2 1 2
M  V30 2 2 1 3
M  V30 3 1 1 4
M  V30 4 1 1 5
M  V30 5 1 4 6
M  V30 6 2 5 7
M  V30 7 1 5 8
M  V30 8 2 6 9
M  V30 9 1 6 10
M  V30 10 1 7 11
M  V30 11 2 8 12
M  V30 12 1 10 13
M  V30 13 2 10 14
M  V30 14 2 11 15
M  V30 15 2 13 16
M  V30 16 1 13 17
M  V30 17 1 14 18
M  V30 18 1 14 19
M  V30 19 1 17 20
M  V30 20 1 17 21
M  V30 21 1 19 22
M  V30 22 1 20 23
M  V30 23 1 21 24
M  V30 24 2 22 25
M  V30 25 2 23 26
M  V30 26 1 24 27
M  V30 27 1 25 28
M  V30 28 1 27 29
M  V30 29 1 27 30
M  V30 30 1 7 9
M  V30 31 1 12 15
M  V30 32 2 19 20
M  V30 33 1 25 26
M  V30 34 1 29 30
M  V30 END BOND
M  V30 END CTAB
M  END
>  <MolRegNo>
338168

>  <m>
=

>  <Value>
49

>  <Unit>
nM

>  <Type>
IC50

>  <pValue>
7.31

>  <Ligand Efficiency>
0.33

>  <Binding Efficiency>
17.1

>  <Surface Efficiency>
7.25

>  <Assay Index>
256540

>  <Assay Category>


>  <Assay Organism>
Hepatitis C virus

>  <Target ID>
12097

>  <Target Name>
Hepatitis C virus NS5B RNA-dependent RNA polymerase

>  <Target Organism>
Hepatitis C virus

>  <Target Description>
Target is a single protein chain

>  <Sequence Accession>
Q8JXU8

>  <Reference>
J. Med. Chem. 49 (3), 971-983 (2006)

>  <Pubmed ID>
16451063

>  <DOI>
10.1021/jm050855s

$$$$
338168
Actelion Java MolfileCreator 2.0

  0  0  0  0  0  0              0 V3000
M  V30 BEGIN CTAB
M  V30 COUNTS 30 34 0 0 0
M  V30 BEGIN ATOM
M  V30 1 S 0.0 0.0 0.0 0
M  V30 2 O 0.6988 1.3385 0.0 0
M  V30 3 O -0.7225 1.3385 0.0 0
M  V30 4 N -1.3148 -0.7343 0.0 0
M  V30 5 C 1.2911 -0.7343 0.0 0
M  V30 6 C -1.3266 -2.2268 0.0 0
M  V30 7 C 1.2792 -2.2268 0.0 0
M  V30 8 C 2.5822 0.0236 0.0 0
M  V30 9 N -0.0355 -2.9612 0.0 0
M  V30 10 C -2.6414 -2.9612 0.0 0
M  V30 11 C 2.5703 -2.9612 0.0 0
M  V30 12 C 3.8733 -0.7107 0.0 0
M  V30 13 C -2.6533 -4.4537 0.0 0
M  V30 14 C -3.9562 -2.2031 0.0 0
M  V30 15 C 3.8615 -2.2031 0.0 0
M  V30 16 O -1.3621 -5.1881 0.0 0
M  V30 17 N -3.9681 -5.1881 0.0 0
M  V30 18 O -3.9681 -0.687 0.0 0
M  V30 19 C -5.271 -2.9375 0.0 0
M  V30 20 C -5.2829 -4.43 0.0 0
M  V30 21 C -3.9799 -6.6806 0.0 0
M  V30 22 C -6.5859 -2.1795 0.0 0
M  V30 23 C -6.5977 -5.1644 0.0 0
M  V30 24 C -2.6888 -7.415 0.0 0
M  V30 25 C -7.9007 -2.9139 0.0 0
M  V30 26 C -7.9125 -4.4063 0.0 0
M  V30 27 C -2.7006 -8.9075 0.0 0
M  V30 28 F -9.2155 -2.1558 0.0 0
M  V30 29 C -1.9662 -10.1986 0.0 0
M  V30 30 C -3.4587 -10.1986 0.0 0
M  V30 END ATOM
M  V30 BEGIN BOND
M  V30 1 2 1 2
M  V30 2 2 1 3
M  V30 3 1 1 4
M  V30 4 1 1 5
M  V30 5 1 4 6
M  V30 6 2 5 7
M  V30 7 1 5 8
M  V30 8 2 6 9
M  V30 9 1 6 10
M  V30 10 1 7 11
M  V30 11 2 8 12
M  V30 12 1 10 13
M  V30 13 2 10 14
M  V30 14 2 11 15
M  V30 15 2 13 16
M  V30 16 1 13 17
M  V30 17 1 14 18
M  V30 18 1 14 19
M  V30 19 1 17 20
M  V30 20 1 17 21
M  V30 21 1 19 22
M  V30 22 1 20 23
M  V30 23 1 21 24
M  V30 24 2 22 25
M  V30 25 2 23 26
M  V30 26 1 24 27
M  V30 27 1 25 28
M  V30 28 1 27 29
M  V30 29 1 27 30
M  V30 30 1 7 9
M  V30 31 1 12 15
M  V30 32 2 19 20
M  V30 33 1 25 26
M  V30 34 1 29 30
M  V30 END BOND
M  V30 END CTAB
M  END
>  <MolRegNo>
338168

>  <m>
=

>  <Value>
10

>  <Unit>
nM

>  <Type>
IC50

>  <pValue>
8

>  <Ligand Efficiency>
0.36

>  <Binding Efficiency>
18.72

>  <Surface Efficiency>
7.94

>  <Assay Index>
256541

>  <Assay Category>


>  <Assay Organism>
Hepatitis C virus subtype 1b

>  <Target ID>
12097

>  <Target Name>
Hepatitis C virus NS5B RNA-dependent RNA polymerase

>  <Target Organism>
Hepatitis C virus

>  <Target Description>
Target is a single protein chain

>  <Sequence Accession>
Q8JXU8

>  <Reference>
J. Med. Chem. 49 (3), 971-983 (2006)

>  <Pubmed ID>
16451063

>  <DOI>
10.1021/jm050855s

$$$$
298159
Actelion Java MolfileCreator 2.0

  0  0  0  0  0  0              0 V3000
M  V30 BEGIN CTAB
M  V30 COUNTS 29 32 0 0 0
M  V30 BEGIN ATOM
M  V30 1 S 0.0 0.0 0.0 0
M  V30 2 O -1.5148 0.0591 0.0 0
M  V30 3 O -0.8047 1.29 0.0 0
M  V30 4 N 1.29 0.7574 0.0 0
M  V30 5 C -0.0118 -1.4912 0.0 0
M  V30 6 C 2.58 0.0236 0.0 0
M  V30 7 C 1.2781 -2.2368 0.0 0
M  V30 8 C -1.3255 -2.2368 0.0 0
M  V30 9 N 2.5681 -1.4675 0.0 0
M  V30 10 C 3.87 0.7811 0.0 0
M  V30 11 C 1.2663 -3.728 0.0 0
M  V30 12 C -1.3373 -3.728 0.0 0
M  V30 13 C 3.8582 2.2959 0.0 0
M  V30 14 C 5.16 0.0473 0.0 0
M  V30 15 C -0.0473 -4.4617 0.0 0
M  V30 16 O 2.5445 3.0534 0.0 0
M  V30 17 N 5.1482 3.0534 0.0 0
M  V30 18 O 5.1482 -1.4438 0.0 0
M  V30 19 C 6.45 0.8047 0.0 0
M  V30 20 C 6.4382 2.3196 0.0 0
M  V30 21 C 5.1363 4.5683 0.0 0
M  V30 22 C 7.74 0.071 0.0 0
M  V30 23 C 7.7282 3.077 0.0 0
M  V30 24 C 3.8226 5.3257 0.0 0
M  V30 25 C 9.03 0.8284 0.0 0
M  V30 26 C 9.0182 2.3433 0.0 0
M  V30 27 C 3.8108 6.8406 0.0 0
M  V30 28 C 2.4971 7.598 0.0 0
M  V30 29 C 5.1008 7.598 0.0 0
M  V30 END ATOM
M  V30 BEGIN BOND
M  V30 1 2 1 2
M  V30 2 2 1 3
M  V30 3 1 1 4
M  V30 4 1 1 5
M  V30 5 2 4 6
M  V30 6 2 5 7
M  V30 7 1 5 8
M  V30 8 1 6 9
M  V30 9 1 6 10
M  V30 10 1 7 11
M  V30 11 2 8 12
M  V30 12 1 10 13
M  V30 13 2 10 14
M  V30 14 2 11 15
M  V30 15 2 13 16
M  V30 16 1 13 17
M  V30 17 1 14 18
M  V30 18 1 14 19
M  V30 19 1 17 20
M  V30 20 1 17 21
M  V30 21 1 19 22
M  V30 22 1 20 23
M  V30 23 1 21 24
M  V30 24 2 22 25
M  V30 25 2 23 26
M  V30 26 1 24 27
M  V30 27 1 27 28
M  V30 28 1 27 29
M  V30 29 1 7 9
M  V30 30 1 12 15
M  V30 31 2 19 20
M  V30 32 1 25 26
M  V30 END BOND
M  V30 END CTAB
M  END
>  <MolRegNo>
298159

>  <m>
=

>  <Value>
0.001096

>  <Unit>
ug.mL-1

>  <Type>
Cmax

>  <pValue>
0

>  <Ligand Efficiency>
0

>  <Binding Efficiency>
0

>  <Surface Efficiency>
0

>  <Assay Index>
256547

>  <Assay Category>


>  <Assay Organism>
Rattus norvegicus

>  <Target ID>
50597

>  <Target Name>
Rattus norvegicus

>  <Target Organism>
Rattus norvegicus

>  <Target Description>
Target is a complete organism

>  <Sequence Accession>


>  <Reference>
J. Med. Chem. 49 (3), 971-983 (2006)

>  <Pubmed ID>
16451063

>  <DOI>
10.1021/jm050855s

$$$$
298159
Actelion Java MolfileCreator 2.0

  0  0  0  0  0  0              0 V3000
M  V30 BEGIN CTAB
M  V30 COUNTS 29 32 0 0 0
M  V30 BEGIN ATOM
M  V30 1 S 0.0 0.0 0.0 0
M  V30 2 O -1.5148 0.0591 0.0 0
M  V30 3 O -0.8047 1.29 0.0 0
M  V30 4 N 1.29 0.7574 0.0 0
M  V30 5 C -0.0118 -1.4912 0.0 0
M  V30 6 C 2.58 0.0236 0.0 0
M  V30 7 C 1.2781 -2.2368 0.0 0
M  V30 8 C -1.3255 -2.2368 0.0 0
M  V30 9 N 2.5681 -1.4675 0.0 0
M  V30 10 C 3.87 0.7811 0.0 0
M  V30 11 C 1.2663 -3.728 0.0 0
M  V30 12 C -1.3373 -3.728 0.0 0
M  V30 13 C 3.8582 2.2959 0.0 0
M  V30 14 C 5.16 0.0473 0.0 0
M  V30 15 C -0.0473 -4.4617 0.0 0
M  V30 16 O 2.5445 3.0534 0.0 0
M  V30 17 N 5.1482 3.0534 0.0 0
M  V30 18 O 5.1482 -1.4438 0.0 0
M  V30 19 C 6.45 0.8047 0.0 0
M  V30 20 C 6.4382 2.3196 0.0 0
M  V30 21 C 5.1363 4.5683 0.0 0
M  V30 22 C 7.74 0.071 0.0 0
M  V30 23 C 7.7282 3.077 0.0 0
M  V30 24 C 3.8226 5.3257 0.0 0
M  V30 25 C 9.03 0.8284 0.0 0
M  V30 26 C 9.0182 2.3433 0.0 0
M  V30 27 C 3.8108 6.8406 0.0 0
M  V30 28 C 2.4971 7.598 0.0 0
M  V30 29 C 5.1008 7.598 0.0 0
M  V30 END ATOM
M  V30 BEGIN BOND
M  V30 1 2 1 2
M  V30 2 2 1 3
M  V30 3 1 1 4
M  V30 4 1 1 5
M  V30 5 2 4 6
M  V30 6 2 5 7
M  V30 7 1 5 8
M  V30 8 1 6 9
M  V30 9 1 6 10
M  V30 10 1 7 11
M  V30 11 2 8 12
M  V30 12 1 10 13
M  V30 13 2 10 14
M  V30 14 2 11 15
M  V30 15 2 13 16
M  V30 16 1 13 17
M  V30 17 1 14 18
M  V30 18 1 14 19
M  V30 19 1 17 20
M  V30 20 1 17 21
M  V30 21 1 19 22
M  V30 22 1 20 23
M  V30 23 1 21 24
M  V30 24 2 22 25
M  V30 25 2 23 26
M  V30 26 1 24 27
M  V30 27 1 27 28
M  V30 28 1 27 29
M  V30 29 1 7 9
M  V30 30 1 12 15
M  V30 31 2 19 20
M  V30 32 1 25 26
M  V30 END BOND
M  V30 END CTAB
M  END
>  <MolRegNo>
298159

>  <m>
=

>  <Value>
2.23

>  <Unit>
ug.mL-1

>  <Type>
Cmax

>  <pValue>
0

>  <Ligand Efficiency>
0

>  <Binding Efficiency>
0

>  <Surface Efficiency>
0

>  <Assay Index>
256548

>  <Assay Category>


>  <Assay Organism>
Canis lupus familiaris

>  <Target ID>
50588

>  <Target Name>
Canis familiaris

>  <Target Organism>
Canis lupus familiaris

>  <Target Description>
Target is a complete organism

>  <Sequence Accession>


>  <Reference>
J. Med. Chem. 49 (3), 971-983 (2006)

>  <Pubmed ID>
16451063

>  <DOI>
10.1021/jm050855s

$$$$
338298
Actelion Java MolfileCreator 2.0

  0  0  0  0  0  0              0 V3000
M  V30 BEGIN CTAB
M  V30 COUNTS 29 33 0 0 0
M  V30 BEGIN ATOM
M  V30 1 S 0.0 0.0 0.0 0
M  V30 2 O -1.3227 0.7626 0.0 0
M  V30 3 O 1.2869 0.7745 0.0 0
M  V30 4 N -1.2988 -0.7507 0.0 0
M  V30 5 C 1.2988 -0.7269 0.0 0
M  V30 6 C -1.2988 -2.2283 0.0 0
M  V30 7 C 1.2988 -2.2164 0.0 0
M  V30 8 C 2.5739 0.0357 0.0 0
M  V30 9 N -0.0119 -2.9672 0.0 0
M  V30 10 C -2.6097 -2.9791 0.0 0
M  V30 11 C 2.5858 -2.9433 0.0 0
M  V30 12 C 3.8609 -0.6911 0.0 0
M  V30 13 C -2.6097 -4.4806 0.0 0
M  V30 14 C -3.9324 -2.2283 0.0 0
M  V30 15 C 3.8728 -2.1688 0.0 0
M  V30 16 O -1.3108 -5.2194 0.0 0
M  V30 17 N -3.9205 -5.2194 0.0 0
M  V30 18 O -3.9562 -0.7149 0.0 0
M  V30 19 C -5.2432 -2.9672 0.0 0
M  V30 20 C -5.2313 -4.4567 0.0 0
M  V30 21 C -3.9324 -6.7089 0.0 0
M  V30 22 C -6.554 -2.2045 0.0 0
M  V30 23 C -6.5421 -5.2075 0.0 0
M  V30 24 C -2.6454 -7.4478 0.0 0
M  V30 25 C -7.8648 -2.9433 0.0 0
M  V30 26 C -7.8529 -4.4448 0.0 0
M  V30 27 C -1.3584 -6.6851 0.0 0
M  V30 28 C 0.1429 -6.6613 0.0 0
M  V30 29 C -0.6196 -5.3624 0.0 0
M  V30 END ATOM
M  V30 BEGIN BOND
M  V30 1 2 1 2
M  V30 2 2 1 3
M  V30 3 1 1 4
M  V30 4 1 1 5
M  V30 5 2 4 6
M  V30 6 2 5 7
M  V30 7 1 5 8
M  V30 8 1 6 9
M  V30 9 1 6 10
M  V30 10 1 7 11
M  V30 11 2 8 12
M  V30 12 1 10 13
M  V30 13 2 10 14
M  V30 14 2 11 15
M  V30 15 2 13 16
M  V30 16 1 13 17
M  V30 17 1 14 18
M  V30 18 1 14 19
M  V30 19 1 17 20
M  V30 20 1 17 21
M  V30 21 1 19 22
M  V30 22 1 20 23
M  V30 23 1 21 24
M  V30 24 2 22 25
M  V30 25 2 23 26
M  V30 26 1 24 27
M  V30 27 1 27 28
M  V30 28 1 27 29
M  V30 29 1 7 9
M  V30 30 1 12 15
M  V30 31 2 19 20
M  V30 32 1 25 26
M  V30 33 1 28 29
M  V30 END BOND
M  V30 END CTAB
M  END
>  <MolRegNo>
338298

>  <m>
=

>  <Value>
6.46

>  <Unit>
ug.mL-1

>  <Type>
Cmax

>  <pValue>
0

>  <Ligand Efficiency>
0

>  <Binding Efficiency>
0

>  <Surface Efficiency>
0

>  <Assay Index>
256549

>  <Assay Category>


>  <Assay Organism>
Rattus norvegicus

>  <Target ID>
50597

>  <Target Name>
Rattus norvegicus

>  <Target Organism>
Rattus norvegicus

>  <Target Description>
Target is a complete organism

>  <Sequence Accession>


>  <Reference>
J. Med. Chem. 49 (3), 971-983 (2006)

>  <Pubmed ID>
16451063

>  <DOI>
10.1021/jm050855s

$$$$
298159
Actelion Java MolfileCreator 2.0

  0  0  0  0  0  0              0 V3000
M  V30 BEGIN CTAB
M  V30 COUNTS 29 32 0 0 0
M  V30 BEGIN ATOM
M  V30 1 S 0.0 0.0 0.0 0
M  V30 2 O -1.5148 0.0591 0.0 0
M  V30 3 O -0.8047 1.29 0.0 0
M  V30 4 N 1.29 0.7574 0.0 0
M  V30 5 C -0.0118 -1.4912 0.0 0
M  V30 6 C 2.58 0.0236 0.0 0
M  V30 7 C 1.2781 -2.2368 0.0 0
M  V30 8 C -1.3255 -2.2368 0.0 0
M  V30 9 N 2.5681 -1.4675 0.0 0
M  V30 10 C 3.87 0.7811 0.0 0
M  V30 11 C 1.2663 -3.728 0.0 0
M  V30 12 C -1.3373 -3.728 0.0 0
M  V30 13 C 3.8582 2.2959 0.0 0
M  V30 14 C 5.16 0.0473 0.0 0
M  V30 15 C -0.0473 -4.4617 0.0 0
M  V30 16 O 2.5445 3.0534 0.0 0
M  V30 17 N 5.1482 3.0534 0.0 0
M  V30 18 O 5.1482 -1.4438 0.0 0
M  V30 19 C 6.45 0.8047 0.0 0
M  V30 20 C 6.4382 2.3196 0.0 0
M  V30 21 C 5.1363 4.5683 0.0 0
M  V30 22 C 7.74 0.071 0.0 0
M  V30 23 C 7.7282 3.077 0.0 0
M  V30 24 C 3.8226 5.3257 0.0 0
M  V30 25 C 9.03 0.8284 0.0 0
M  V30 26 C 9.0182 2.3433 0.0 0
M  V30 27 C 3.8108 6.8406 0.0 0
M  V30 28 C 2.4971 7.598 0.0 0
M  V30 29 C 5.1008 7.598 0.0 0
M  V30 END ATOM
M  V30 BEGIN BOND
M  V30 1 2 1 2
M  V30 2 2 1 3
M  V30 3 1 1 4
M  V30 4 1 1 5
M  V30 5 2 4 6
M  V30 6 2 5 7
M  V30 7 1 5 8
M  V30 8 1 6 9
M  V30 9 1 6 10
M  V30 10 1 7 11
M  V30 11 2 8 12
M  V30 12 1 10 13
M  V30 13 2 10 14
M  V30 14 2 11 15
M  V30 15 2 13 16
M  V30 16 1 13 17
M  V30 17 1 14 18
M  V30 18 1 14 19
M  V30 19 1 17 20
M  V30 20 1 17 21
M  V30 21 1 19 22
M  V30 22 1 20 23
M  V30 23 1 21 24
M  V30 24 2 22 25
M  V30 25 2 23 26
M  V30 26 1 24 27
M  V30 27 1 27 28
M  V30 28 1 27 29
M  V30 29 1 7 9
M  V30 30 1 12 15
M  V30 31 2 19 20
M  V30 32 1 25 26
M  V30 END BOND
M  V30 END CTAB
M  END
>  <MolRegNo>
298159

>  <m>
=

>  <Value>
14.32

>  <Unit>
hr

>  <Type>
T1/2

>  <pValue>
0

>  <Ligand Efficiency>
0

>  <Binding Efficiency>
0

>  <Surface Efficiency>
0

>  <Assay Index>
256559

>  <Assay Category>


>  <Assay Organism>
Canis lupus familiaris

>  <Target ID>
50588

>  <Target Name>
Canis familiaris

>  <Target Organism>
Canis lupus familiaris

>  <Target Description>
Target is a complete organism

>  <Sequence Accession>


>  <Reference>
J. Med. Chem. 49 (3), 971-983 (2006)

>  <Pubmed ID>
16451063

>  <DOI>
10.1021/jm050855s

$$$$
298159
Actelion Java MolfileCreator 2.0

  0  0  0  0  0  0              0 V3000
M  V30 BEGIN CTAB
M  V30 COUNTS 29 32 0 0 0
M  V30 BEGIN ATOM
M  V30 1 S 0.0 0.0 0.0 0
M  V30 2 O -1.5148 0.0591 0.0 0
M  V30 3 O -0.8047 1.29 0.0 0
M  V30 4 N 1.29 0.7574 0.0 0
M  V30 5 C -0.0118 -1.4912 0.0 0
M  V30 6 C 2.58 0.0236 0.0 0
M  V30 7 C 1.2781 -2.2368 0.0 0
M  V30 8 C -1.3255 -2.2368 0.0 0
M  V30 9 N 2.5681 -1.4675 0.0 0
M  V30 10 C 3.87 0.7811 0.0 0
M  V30 11 C 1.2663 -3.728 0.0 0
M  V30 12 C -1.3373 -3.728 0.0 0
M  V30 13 C 3.8582 2.2959 0.0 0
M  V30 14 C 5.16 0.0473 0.0 0
M  V30 15 C -0.0473 -4.4617 0.0 0
M  V30 16 O 2.5445 3.0534 0.0 0
M  V30 17 N 5.1482 3.0534 0.0 0
M  V30 18 O 5.1482 -1.4438 0.0 0
M  V30 19 C 6.45 0.8047 0.0 0
M  V30 20 C 6.4382 2.3196 0.0 0
M  V30 21 C 5.1363 4.5683 0.0 0
M  V30 22 C 7.74 0.071 0.0 0
M  V30 23 C 7.7282 3.077 0.0 0
M  V30 24 C 3.8226 5.3257 0.0 0
M  V30 25 C 9.03 0.8284 0.0 0
M  V30 26 C 9.0182 2.3433 0.0 0
M  V30 27 C 3.8108 6.8406 0.0 0
M  V30 28 C 2.4971 7.598 0.0 0
M  V30 29 C 5.1008 7.598 0.0 0
M  V30 END ATOM
M  V30 BEGIN BOND
M  V30 1 2 1 2
M  V30 2 2 1 3
M  V30 3 1 1 4
M  V30 4 1 1 5
M  V30 5 2 4 6
M  V30 6 2 5 7
M  V30 7 1 5 8
M  V30 8 1 6 9
M  V30 9 1 6 10
M  V30 10 1 7 11
M  V30 11 2 8 12
M  V30 12 1 10 13
M  V30 13 2 10 14
M  V30 14 2 11 15
M  V30 15 2 13 16
M  V30 16 1 13 17
M  V30 17 1 14 18
M  V30 18 1 14 19
M  V30 19 1 17 20
M  V30 20 1 17 21
M  V30 21 1 19 22
M  V30 22 1 20 23
M  V30 23 1 21 24
M  V30 24 2 22 25
M  V30 25 2 23 26
M  V30 26 1 24 27
M  V30 27 1 27 28
M  V30 28 1 27 29
M  V30 29 1 7 9
M  V30 30 1 12 15
M  V30 31 2 19 20
M  V30 32 1 25 26
M  V30 END BOND
M  V30 END CTAB
M  END
>  <MolRegNo>
298159

>  <m>
=

>  <Value>
10.1

>  <Unit>
mL.min-1.kg-1

>  <Type>
CL

>  <pValue>
0

>  <Ligand Efficiency>
0

>  <Binding Efficiency>
0

>  <Surface Efficiency>
0

>  <Assay Index>
256569

>  <Assay Category>


>  <Assay Organism>
Rattus norvegicus

>  <Target ID>
50597

>  <Target Name>
Rattus norvegicus

>  <Target Organism>
Rattus norvegicus

>  <Target Description>
Target is a complete organism

>  <Sequence Accession>


>  <Reference>
J. Med. Chem. 49 (3), 971-983 (2006)

>  <Pubmed ID>
16451063

>  <DOI>
10.1021/jm050855s

$$$$
298159
Actelion Java MolfileCreator 2.0

  0  0  0  0  0  0              0 V3000
M  V30 BEGIN CTAB
M  V30 COUNTS 29 32 0 0 0
M  V30 BEGIN ATOM
M  V30 1 S 0.0 0.0 0.0 0
M  V30 2 O -1.5148 0.0591 0.0 0
M  V30 3 O -0.8047 1.29 0.0 0
M  V30 4 N 1.29 0.7574 0.0 0
M  V30 5 C -0.0118 -1.4912 0.0 0
M  V30 6 C 2.58 0.0236 0.0 0
M  V30 7 C 1.2781 -2.2368 0.0 0
M  V30 8 C -1.3255 -2.2368 0.0 0
M  V30 9 N 2.5681 -1.4675 0.0 0
M  V30 10 C 3.87 0.7811 0.0 0
M  V30 11 C 1.2663 -3.728 0.0 0
M  V30 12 C -1.3373 -3.728 0.0 0
M  V30 13 C 3.8582 2.2959 0.0 0
M  V30 14 C 5.16 0.0473 0.0 0
M  V30 15 C -0.0473 -4.4617 0.0 0
M  V30 16 O 2.5445 3.0534 0.0 0
M  V30 17 N 5.1482 3.0534 0.0 0
M  V30 18 O 5.1482 -1.4438 0.0 0
M  V30 19 C 6.45 0.8047 0.0 0
M  V30 20 C 6.4382 2.3196 0.0 0
M  V30 21 C 5.1363 4.5683 0.0 0
M  V30 22 C 7.74 0.071 0.0 0
M  V30 23 C 7.7282 3.077 0.0 0
M  V30 24 C 3.8226 5.3257 0.0 0
M  V30 25 C 9.03 0.8284 0.0 0
M  V30 26 C 9.0182 2.3433 0.0 0
M  V30 27 C 3.8108 6.8406 0.0 0
M  V30 28 C 2.4971 7.598 0.0 0
M  V30 29 C 5.1008 7.598 0.0 0
M  V30 END ATOM
M  V30 BEGIN BOND
M  V30 1 2 1 2
M  V30 2 2 1 3
M  V30 3 1 1 4
M  V30 4 1 1 5
M  V30 5 2 4 6
M  V30 6 2 5 7
M  V30 7 1 5 8
M  V30 8 1 6 9
M  V30 9 1 6 10
M  V30 10 1 7 11
M  V30 11 2 8 12
M  V30 12 1 10 13
M  V30 13 2 10 14
M  V30 14 2 11 15
M  V30 15 2 13 16
M  V30 16 1 13 17
M  V30 17 1 14 18
M  V30 18 1 14 19
M  V30 19 1 17 20
M  V30 20 1 17 21
M  V30 21 1 19 22
M  V30 22 1 20 23
M  V30 23 1 21 24
M  V30 24 2 22 25
M  V30 25 2 23 26
M  V30 26 1 24 27
M  V30 27 1 27 28
M  V30 28 1 27 29
M  V30 29 1 7 9
M  V30 30 1 12 15
M  V30 31 2 19 20
M  V30 32 1 25 26
M  V30 END BOND
M  V30 END CTAB
M  END
>  <MolRegNo>
298159

>  <m>
=

>  <Value>
0.5

>  <Unit>
mL.min-1.kg-1

>  <Type>
CL

>  <pValue>
0

>  <Ligand Efficiency>
0

>  <Binding Efficiency>
0

>  <Surface Efficiency>
0

>  <Assay Index>
256570

>  <Assay Category>


>  <Assay Organism>
Canis lupus familiaris

>  <Target ID>
50588

>  <Target Name>
Canis familiaris

>  <Target Organism>
Canis lupus familiaris

>  <Target Description>
Target is a complete organism

>  <Sequence Accession>


>  <Reference>
J. Med. Chem. 49 (3), 971-983 (2006)

>  <Pubmed ID>
16451063

>  <DOI>
10.1021/jm050855s

$$$$
298159
Actelion Java MolfileCreator 2.0

  0  0  0  0  0  0              0 V3000
M  V30 BEGIN CTAB
M  V30 COUNTS 29 32 0 0 0
M  V30 BEGIN ATOM
M  V30 1 S 0.0 0.0 0.0 0
M  V30 2 O -1.5148 0.0591 0.0 0
M  V30 3 O -0.8047 1.29 0.0 0
M  V30 4 N 1.29 0.7574 0.0 0
M  V30 5 C -0.0118 -1.4912 0.0 0
M  V30 6 C 2.58 0.0236 0.0 0
M  V30 7 C 1.2781 -2.2368 0.0 0
M  V30 8 C -1.3255 -2.2368 0.0 0
M  V30 9 N 2.5681 -1.4675 0.0 0
M  V30 10 C 3.87 0.7811 0.0 0
M  V30 11 C 1.2663 -3.728 0.0 0
M  V30 12 C -1.3373 -3.728 0.0 0
M  V30 13 C 3.8582 2.2959 0.0 0
M  V30 14 C 5.16 0.0473 0.0 0
M  V30 15 C -0.0473 -4.4617 0.0 0
M  V30 16 O 2.5445 3.0534 0.0 0
M  V30 17 N 5.1482 3.0534 0.0 0
M  V30 18 O 5.1482 -1.4438 0.0 0
M  V30 19 C 6.45 0.8047 0.0 0
M  V30 20 C 6.4382 2.3196 0.0 0
M  V30 21 C 5.1363 4.5683 0.0 0
M  V30 22 C 7.74 0.071 0.0 0
M  V30 23 C 7.7282 3.077 0.0 0
M  V30 24 C 3.8226 5.3257 0.0 0
M  V30 25 C 9.03 0.8284 0.0 0
M  V30 26 C 9.0182 2.3433 0.0 0
M  V30 27 C 3.8108 6.8406 0.0 0
M  V30 28 C 2.4971 7.598 0.0 0
M  V30 29 C 5.1008 7.598 0.0 0
M  V30 END ATOM
M  V30 BEGIN BOND
M  V30 1 2 1 2
M  V30 2 2 1 3
M  V30 3 1 1 4
M  V30 4 1 1 5
M  V30 5 2 4 6
M  V30 6 2 5 7
M  V30 7 1 5 8
M  V30 8 1 6 9
M  V30 9 1 6 10
M  V30 10 1 7 11
M  V30 11 2 8 12
M  V30 12 1 10 13
M  V30 13 2 10 14
M  V30 14 2 11 15
M  V30 15 2 13 16
M  V30 16 1 13 17
M  V30 17 1 14 18
M  V30 18 1 14 19
M  V30 19 1 17 20
M  V30 20 1 17 21
M  V30 21 1 19 22
M  V30 22 1 20 23
M  V30 23 1 21 24
M  V30 24 2 22 25
M  V30 25 2 23 26
M  V30 26 1 24 27
M  V30 27 1 27 28
M  V30 28 1 27 29
M  V30 29 1 7 9
M  V30 30 1 12 15
M  V30 31 2 19 20
M  V30 32 1 25 26
M  V30 END BOND
M  V30 END CTAB
M  END
>  <MolRegNo>
298159

>  <m>
=

>  <Value>
70

>  <Unit>
%

>  <Type>
F

>  <pValue>
0

>  <Ligand Efficiency>
0

>  <Binding Efficiency>
0

>  <Surface Efficiency>
0

>  <Assay Index>
256580

>  <Assay Category>


>  <Assay Organism>
Rattus norvegicus

>  <Target ID>
50597

>  <Target Name>
Rattus norvegicus

>  <Target Organism>
Rattus norvegicus

>  <Target Description>
Target is a complete organism

>  <Sequence Accession>


>  <Reference>
J. Med. Chem. 49 (3), 971-983 (2006)

>  <Pubmed ID>
16451063

>  <DOI>
10.1021/jm050855s

$$$$
298159
Actelion Java MolfileCreator 2.0

  0  0  0  0  0  0              0 V3000
M  V30 BEGIN CTAB
M  V30 COUNTS 29 32 0 0 0
M  V30 BEGIN ATOM
M  V30 1 S 0.0 0.0 0.0 0
M  V30 2 O -1.5148 0.0591 0.0 0
M  V30 3 O -0.8047 1.29 0.0 0
M  V30 4 N 1.29 0.7574 0.0 0
M  V30 5 C -0.0118 -1.4912 0.0 0
M  V30 6 C 2.58 0.0236 0.0 0
M  V30 7 C 1.2781 -2.2368 0.0 0
M  V30 8 C -1.3255 -2.2368 0.0 0
M  V30 9 N 2.5681 -1.4675 0.0 0
M  V30 10 C 3.87 0.7811 0.0 0
M  V30 11 C 1.2663 -3.728 0.0 0
M  V30 12 C -1.3373 -3.728 0.0 0
M  V30 13 C 3.8582 2.2959 0.0 0
M  V30 14 C 5.16 0.0473 0.0 0
M  V30 15 C -0.0473 -4.4617 0.0 0
M  V30 16 O 2.5445 3.0534 0.0 0
M  V30 17 N 5.1482 3.0534 0.0 0
M  V30 18 O 5.1482 -1.4438 0.0 0
M  V30 19 C 6.45 0.8047 0.0 0
M  V30 20 C 6.4382 2.3196 0.0 0
M  V30 21 C 5.1363 4.5683 0.0 0
M  V30 22 C 7.74 0.071 0.0 0
M  V30 23 C 7.7282 3.077 0.0 0
M  V30 24 C 3.8226 5.3257 0.0 0
M  V30 25 C 9.03 0.8284 0.0 0
M  V30 26 C 9.0182 2.3433 0.0 0
M  V30 27 C 3.8108 6.8406 0.0 0
M  V30 28 C 2.4971 7.598 0.0 0
M  V30 29 C 5.1008 7.598 0.0 0
M  V30 END ATOM
M  V30 BEGIN BOND
M  V30 1 2 1 2
M  V30 2 2 1 3
M  V30 3 1 1 4
M  V30 4 1 1 5
M  V30 5 2 4 6
M  V30 6 2 5 7
M  V30 7 1 5 8
M  V30 8 1 6 9
M  V30 9 1 6 10
M  V30 10 1 7 11
M  V30 11 2 8 12
M  V30 12 1 10 13
M  V30 13 2 10 14
M  V30 14 2 11 15
M  V30 15 2 13 16
M  V30 16 1 13 17
M  V30 17 1 14 18
M  V30 18 1 14 19
M  V30 19 1 17 20
M  V30 20 1 17 21
M  V30 21 1 19 22
M  V30 22 1 20 23
M  V30 23 1 21 24
M  V30 24 2 22 25
M  V30 25 2 23 26
M  V30 26 1 24 27
M  V30 27 1 27 28
M  V30 28 1 27 29
M  V30 29 1 7 9
M  V30 30 1 12 15
M  V30 31 2 19 20
M  V30 32 1 25 26
M  V30 END BOND
M  V30 END CTAB
M  END
>  <MolRegNo>
298159

>  <m>
=

>  <Value>
89

>  <Unit>
%

>  <Type>
F

>  <pValue>
0

>  <Ligand Efficiency>
0

>  <Binding Efficiency>
0

>  <Surface Efficiency>
0

>  <Assay Index>
256581

>  <Assay Category>


>  <Assay Organism>
Canis lupus familiaris

>  <Target ID>
50588

>  <Target Name>
Canis familiaris

>  <Target Organism>
Canis lupus familiaris

>  <Target Description>
Target is a complete organism

>  <Sequence Accession>


>  <Reference>
J. Med. Chem. 49 (3), 971-983 (2006)

>  <Pubmed ID>
16451063

>  <DOI>
10.1021/jm050855s

$$$$
298159
Actelion Java MolfileCreator 2.0

  0  0  0  0  0  0              0 V3000
M  V30 BEGIN CTAB
M  V30 COUNTS 29 32 0 0 0
M  V30 BEGIN ATOM
M  V30 1 S 0.0 0.0 0.0 0
M  V30 2 O -1.5148 0.0591 0.0 0
M  V30 3 O -0.8047 1.29 0.0 0
M  V30 4 N 1.29 0.7574 0.0 0
M  V30 5 C -0.0118 -1.4912 0.0 0
M  V30 6 C 2.58 0.0236 0.0 0
M  V30 7 C 1.2781 -2.2368 0.0 0
M  V30 8 C -1.3255 -2.2368 0.0 0
M  V30 9 N 2.5681 -1.4675 0.0 0
M  V30 10 C 3.87 0.7811 0.0 0
M  V30 11 C 1.2663 -3.728 0.0 0
M  V30 12 C -1.3373 -3.728 0.0 0
M  V30 13 C 3.8582 2.2959 0.0 0
M  V30 14 C 5.16 0.0473 0.0 0
M  V30 15 C -0.0473 -4.4617 0.0 0
M  V30 16 O 2.5445 3.0534 0.0 0
M  V30 17 N 5.1482 3.0534 0.0 0
M  V30 18 O 5.1482 -1.4438 0.0 0
M  V30 19 C 6.45 0.8047 0.0 0
M  V30 20 C 6.4382 2.3196 0.0 0
M  V30 21 C 5.1363 4.5683 0.0 0
M  V30 22 C 7.74 0.071 0.0 0
M  V30 23 C 7.7282 3.077 0.0 0
M  V30 24 C 3.8226 5.3257 0.0 0
M  V30 25 C 9.03 0.8284 0.0 0
M  V30 26 C 9.0182 2.3433 0.0 0
M  V30 27 C 3.8108 6.8406 0.0 0
M  V30 28 C 2.4971 7.598 0.0 0
M  V30 29 C 5.1008 7.598 0.0 0
M  V30 END ATOM
M  V30 BEGIN BOND
M  V30 1 2 1 2
M  V30 2 2 1 3
M  V30 3 1 1 4
M  V30 4 1 1 5
M  V30 5 2 4 6
M  V30 6 2 5 7
M  V30 7 1 5 8
M  V30 8 1 6 9
M  V30 9 1 6 10
M  V30 10 1 7 11
M  V30 11 2 8 12
M  V30 12 1 10 13
M  V30 13 2 10 14
M  V30 14 2 11 15
M  V30 15 2 13 16
M  V30 16 1 13 17
M  V30 17 1 14 18
M  V30 18 1 14 19
M  V30 19 1 17 20
M  V30 20 1 17 21
M  V30 21 1 19 22
M  V30 22 1 20 23
M  V30 23 1 21 24
M  V30 24 2 22 25
M  V30 25 2 23 26
M  V30 26 1 24 27
M  V30 27 1 27 28
M  V30 28 1 27 29
M  V30 29 1 7 9
M  V30 30 1 12 15
M  V30 31 2 19 20
M  V30 32 1 25 26
M  V30 END BOND
M  V30 END CTAB
M  END
>  <MolRegNo>
298159

>  <m>
=

>  <Value>
0.44

>  <Unit>
L.kg-1

>  <Type>
Vdss

>  <pValue>
0

>  <Ligand Efficiency>
0

>  <Binding Efficiency>
0

>  <Surface Efficiency>
0

>  <Assay Index>
256591

>  <Assay Category>


>  <Assay Organism>
Rattus norvegicus

>  <Target ID>
50597

>  <Target Name>
Rattus norvegicus

>  <Target Organism>
Rattus norvegicus

>  <Target Description>
Target is a complete organism

>  <Sequence Accession>


>  <Reference>
J. Med. Chem. 49 (3), 971-983 (2006)

>  <Pubmed ID>
16451063

>  <DOI>
10.1021/jm050855s

$$$$
298159
Actelion Java MolfileCreator 2.0

  0  0  0  0  0  0              0 V3000
M  V30 BEGIN CTAB
M  V30 COUNTS 29 32 0 0 0
M  V30 BEGIN ATOM
M  V30 1 S 0.0 0.0 0.0 0
M  V30 2 O -1.5148 0.0591 0.0 0
M  V30 3 O -0.8047 1.29 0.0 0
M  V30 4 N 1.29 0.7574 0.0 0
M  V30 5 C -0.0118 -1.4912 0.0 0
M  V30 6 C 2.58 0.0236 0.0 0
M  V30 7 C 1.2781 -2.2368 0.0 0
M  V30 8 C -1.3255 -2.2368 0.0 0
M  V30 9 N 2.5681 -1.4675 0.0 0
M  V30 10 C 3.87 0.7811 0.0 0
M  V30 11 C 1.2663 -3.728 0.0 0
M  V30 12 C -1.3373 -3.728 0.0 0
M  V30 13 C 3.8582 2.2959 0.0 0
M  V30 14 C 5.16 0.0473 0.0 0
M  V30 15 C -0.0473 -4.4617 0.0 0
M  V30 16 O 2.5445 3.0534 0.0 0
M  V30 17 N 5.1482 3.0534 0.0 0
M  V30 18 O 5.1482 -1.4438 0.0 0
M  V30 19 C 6.45 0.8047 0.0 0
M  V30 20 C 6.4382 2.3196 0.0 0
M  V30 21 C 5.1363 4.5683 0.0 0
M  V30 22 C 7.74 0.071 0.0 0
M  V30 23 C 7.7282 3.077 0.0 0
M  V30 24 C 3.8226 5.3257 0.0 0
M  V30 25 C 9.03 0.8284 0.0 0
M  V30 26 C 9.0182 2.3433 0.0 0
M  V30 27 C 3.8108 6.8406 0.0 0
M  V30 28 C 2.4971 7.598 0.0 0
M  V30 29 C 5.1008 7.598 0.0 0
M  V30 END ATOM
M  V30 BEGIN BOND
M  V30 1 2 1 2
M  V30 2 2 1 3
M  V30 3 1 1 4
M  V30 4 1 1 5
M  V30 5 2 4 6
M  V30 6 2 5 7
M  V30 7 1 5 8
M  V30 8 1 6 9
M  V30 9 1 6 10
M  V30 10 1 7 11
M  V30 11 2 8 12
M  V30 12 1 10 13
M  V30 13 2 10 14
M  V30 14 2 11 15
M  V30 15 2 13 16
M  V30 16 1 13 17
M  V30 17 1 14 18
M  V30 18 1 14 19
M  V30 19 1 17 20
M  V30 20 1 17 21
M  V30 21 1 19 22
M  V30 22 1 20 23
M  V30 23 1 21 24
M  V30 24 2 22 25
M  V30 25 2 23 26
M  V30 26 1 24 27
M  V30 27 1 27 28
M  V30 28 1 27 29
M  V30 29 1 7 9
M  V30 30 1 12 15
M  V30 31 2 19 20
M  V30 32 1 25 26
M  V30 END BOND
M  V30 END CTAB
M  END
>  <MolRegNo>
298159

>  <m>
=

>  <Value>
0.53

>  <Unit>
L.kg-1

>  <Type>
Vdss

>  <pValue>
0

>  <Ligand Efficiency>
0

>  <Binding Efficiency>
0

>  <Surface Efficiency>
0

>  <Assay Index>
256592

>  <Assay Category>


>  <Assay Organism>
Canis lupus familiaris

>  <Target ID>
50588

>  <Target Name>
Canis familiaris

>  <Target Organism>
Canis lupus familiaris

>  <Target Description>
Target is a complete organism

>  <Sequence Accession>


>  <Reference>
J. Med. Chem. 49 (3), 971-983 (2006)

>  <Pubmed ID>
16451063

>  <DOI>
10.1021/jm050855s

$$$$
338298
Actelion Java MolfileCreator 2.0

  0  0  0  0  0  0              0 V3000
M  V30 BEGIN CTAB
M  V30 COUNTS 29 33 0 0 0
M  V30 BEGIN ATOM
M  V30 1 S 0.0 0.0 0.0 0
M  V30 2 O -1.3227 0.7626 0.0 0
M  V30 3 O 1.2869 0.7745 0.0 0
M  V30 4 N -1.2988 -0.7507 0.0 0
M  V30 5 C 1.2988 -0.7269 0.0 0
M  V30 6 C -1.2988 -2.2283 0.0 0
M  V30 7 C 1.2988 -2.2164 0.0 0
M  V30 8 C 2.5739 0.0357 0.0 0
M  V30 9 N -0.0119 -2.9672 0.0 0
M  V30 10 C -2.6097 -2.9791 0.0 0
M  V30 11 C 2.5858 -2.9433 0.0 0
M  V30 12 C 3.8609 -0.6911 0.0 0
M  V30 13 C -2.6097 -4.4806 0.0 0
M  V30 14 C -3.9324 -2.2283 0.0 0
M  V30 15 C 3.8728 -2.1688 0.0 0
M  V30 16 O -1.3108 -5.2194 0.0 0
M  V30 17 N -3.9205 -5.2194 0.0 0
M  V30 18 O -3.9562 -0.7149 0.0 0
M  V30 19 C -5.2432 -2.9672 0.0 0
M  V30 20 C -5.2313 -4.4567 0.0 0
M  V30 21 C -3.9324 -6.7089 0.0 0
M  V30 22 C -6.554 -2.2045 0.0 0
M  V30 23 C -6.5421 -5.2075 0.0 0
M  V30 24 C -2.6454 -7.4478 0.0 0
M  V30 25 C -7.8648 -2.9433 0.0 0
M  V30 26 C -7.8529 -4.4448 0.0 0
M  V30 27 C -1.3584 -6.6851 0.0 0
M  V30 28 C 0.1429 -6.6613 0.0 0
M  V30 29 C -0.6196 -5.3624 0.0 0
M  V30 END ATOM
M  V30 BEGIN BOND
M  V30 1 2 1 2
M  V30 2 2 1 3
M  V30 3 1 1 4
M  V30 4 1 1 5
M  V30 5 2 4 6
M  V30 6 2 5 7
M  V30 7 1 5 8
M  V30 8 1 6 9
M  V30 9 1 6 10
M  V30 10 1 7 11
M  V30 11 2 8 12
M  V30 12 1 10 13
M  V30 13 2 10 14
M  V30 14 2 11 15
M  V30 15 2 13 16
M  V30 16 1 13 17
M  V30 17 1 14 18
M  V30 18 1 14 19
M  V30 19 1 17 20
M  V30 20 1 17 21
M  V30 21 1 19 22
M  V30 22 1 20 23
M  V30 23 1 21 24
M  V30 24 2 22 25
M  V30 25 2 23 26
M  V30 26 1 24 27
M  V30 27 1 27 28
M  V30 28 1 27 29
M  V30 29 1 7 9
M  V30 30 1 12 15
M  V30 31 2 19 20
M  V30 32 1 25 26
M  V30 33 1 28 29
M  V30 END BOND
M  V30 END CTAB
M  END
>  <MolRegNo>
338298

>  <m>
=

>  <Value>
1.873

>  <Unit>
hr

>  <Type>
T1/2

>  <pValue>
0

>  <Ligand Efficiency>
0

>  <Binding Efficiency>
0

>  <Surface Efficiency>
0

>  <Assay Index>
256560

>  <Assay Category>


>  <Assay Organism>
Rattus norvegicus

>  <Target ID>
50597

>  <Target Name>
Rattus norvegicus

>  <Target Organism>
Rattus norvegicus

>  <Target Description>
Target is a complete organism

>  <Sequence Accession>


>  <Reference>
J. Med. Chem. 49 (3), 971-983 (2006)

>  <Pubmed ID>
16451063

>  <DOI>
10.1021/jm050855s

$$$$
338298
Actelion Java MolfileCreator 2.0

  0  0  0  0  0  0              0 V3000
M  V30 BEGIN CTAB
M  V30 COUNTS 29 33 0 0 0
M  V30 BEGIN ATOM
M  V30 1 S 0.0 0.0 0.0 0
M  V30 2 O -1.3227 0.7626 0.0 0
M  V30 3 O 1.2869 0.7745 0.0 0
M  V30 4 N -1.2988 -0.7507 0.0 0
M  V30 5 C 1.2988 -0.7269 0.0 0
M  V30 6 C -1.2988 -2.2283 0.0 0
M  V30 7 C 1.2988 -2.2164 0.0 0
M  V30 8 C 2.5739 0.0357 0.0 0
M  V30 9 N -0.0119 -2.9672 0.0 0
M  V30 10 C -2.6097 -2.9791 0.0 0
M  V30 11 C 2.5858 -2.9433 0.0 0
M  V30 12 C 3.8609 -0.6911 0.0 0
M  V30 13 C -2.6097 -4.4806 0.0 0
M  V30 14 C -3.9324 -2.2283 0.0 0
M  V30 15 C 3.8728 -2.1688 0.0 0
M  V30 16 O -1.3108 -5.2194 0.0 0
M  V30 17 N -3.9205 -5.2194 0.0 0
M  V30 18 O -3.9562 -0.7149 0.0 0
M  V30 19 C -5.2432 -2.9672 0.0 0
M  V30 20 C -5.2313 -4.4567 0.0 0
M  V30 21 C -3.9324 -6.7089 0.0 0
M  V30 22 C -6.554 -2.2045 0.0 0
M  V30 23 C -6.5421 -5.2075 0.0 0
M  V30 24 C -2.6454 -7.4478 0.0 0
M  V30 25 C -7.8648 -2.9433 0.0 0
M  V30 26 C -7.8529 -4.4448 0.0 0
M  V30 27 C -1.3584 -6.6851 0.0 0
M  V30 28 C 0.1429 -6.6613 0.0 0
M  V30 29 C -0.6196 -5.3624 0.0 0
M  V30 END ATOM
M  V30 BEGIN BOND
M  V30 1 2 1 2
M  V30 2 2 1 3
M  V30 3 1 1 4
M  V30 4 1 1 5
M  V30 5 2 4 6
M  V30 6 2 5 7
M  V30 7 1 5 8
M  V30 8 1 6 9
M  V30 9 1 6 10
M  V30 10 1 7 11
M  V30 11 2 8 12
M  V30 12 1 10 13
M  V30 13 2 10 14
M  V30 14 2 11 15
M  V30 15 2 13 16
M  V30 16 1 13 17
M  V30 17 1 14 18
M  V30 18 1 14 19
M  V30 19 1 17 20
M  V30 20 1 17 21
M  V30 21 1 19 22
M  V30 22 1 20 23
M  V30 23 1 21 24
M  V30 24 2 22 25
M  V30 25 2 23 26
M  V30 26 1 24 27
M  V30 27 1 27 28
M  V30 28 1 27 29
M  V30 29 1 7 9
M  V30 30 1 12 15
M  V30 31 2 19 20
M  V30 32 1 25 26
M  V30 33 1 28 29
M  V30 END BOND
M  V30 END CTAB
M  END
>  <MolRegNo>
338298

>  <m>
=

>  <Value>
4.817

>  <Unit>
hr

>  <Type>
T1/2

>  <pValue>
0

>  <Ligand Efficiency>
0

>  <Binding Efficiency>
0

>  <Surface Efficiency>
0

>  <Assay Index>
256561

>  <Assay Category>


>  <Assay Organism>
Canis lupus familiaris

>  <Target ID>
50588

>  <Target Name>
Canis familiaris

>  <Target Organism>
Canis lupus familiaris

>  <Target Description>
Target is a complete organism

>  <Sequence Accession>


>  <Reference>
J. Med. Chem. 49 (3), 971-983 (2006)

>  <Pubmed ID>
16451063

>  <DOI>
10.1021/jm050855s

$$$$
338298
Actelion Java MolfileCreator 2.0

  0  0  0  0  0  0              0 V3000
M  V30 BEGIN CTAB
M  V30 COUNTS 29 33 0 0 0
M  V30 BEGIN ATOM
M  V30 1 S 0.0 0.0 0.0 0
M  V30 2 O -1.3227 0.7626 0.0 0
M  V30 3 O 1.2869 0.7745 0.0 0
M  V30 4 N -1.2988 -0.7507 0.0 0
M  V30 5 C 1.2988 -0.7269 0.0 0
M  V30 6 C -1.2988 -2.2283 0.0 0
M  V30 7 C 1.2988 -2.2164 0.0 0
M  V30 8 C 2.5739 0.0357 0.0 0
M  V30 9 N -0.0119 -2.9672 0.0 0
M  V30 10 C -2.6097 -2.9791 0.0 0
M  V30 11 C 2.5858 -2.9433 0.0 0
M  V30 12 C 3.8609 -0.6911 0.0 0
M  V30 13 C -2.6097 -4.4806 0.0 0
M  V30 14 C -3.9324 -2.2283 0.0 0
M  V30 15 C 3.8728 -2.1688 0.0 0
M  V30 16 O -1.3108 -5.2194 0.0 0
M  V30 17 N -3.9205 -5.2194 0.0 0
M  V30 18 O -3.9562 -0.7149 0.0 0
M  V30 19 C -5.2432 -2.9672 0.0 0
M  V30 20 C -5.2313 -4.4567 0.0 0
M  V30 21 C -3.9324 -6.7089 0.0 0
M  V30 22 C -6.554 -2.2045 0.0 0
M  V30 23 C -6.5421 -5.2075 0.0 0
M  V30 24 C -2.6454 -7.4478 0.0 0
M  V30 25 C -7.8648 -2.9433 0.0 0
M  V30 26 C -7.8529 -4.4448 0.0 0
M  V30 27 C -1.3584 -6.6851 0.0 0
M  V30 28 C 0.1429 -6.6613 0.0 0
M  V30 29 C -0.6196 -5.3624 0.0 0
M  V30 END ATOM
M  V30 BEGIN BOND
M  V30 1 2 1 2
M  V30 2 2 1 3
M  V30 3 1 1 4
M  V30 4 1 1 5
M  V30 5 2 4 6
M  V30 6 2 5 7
M  V30 7 1 5 8
M  V30 8 1 6 9
M  V30 9 1 6 10
M  V30 10 1 7 11
M  V30 11 2 8 12
M  V30 12 1 10 13
M  V30 13 2 10 14
M  V30 14 2 11 15
M  V30 15 2 13 16
M  V30 16 1 13 17
M  V30 17 1 14 18
M  V30 18 1 14 19
M  V30 19 1 17 20
M  V30 20 1 17 21
M  V30 21 1 19 22
M  V30 22 1 20 23
M  V30 23 1 21 24
M  V30 24 2 22 25
M  V30 25 2 23 26
M  V30 26 1 24 27
M  V30 27 1 27 28
M  V30 28 1 27 29
M  V30 29 1 7 9
M  V30 30 1 12 15
M  V30 31 2 19 20
M  V30 32 1 25 26
M  V30 33 1 28 29
M  V30 END BOND
M  V30 END CTAB
M  END
>  <MolRegNo>
338298

>  <m>
=

>  <Value>
1.35

>  <Unit>
hr

>  <Type>
T1/2

>  <pValue>
0

>  <Ligand Efficiency>
0

>  <Binding Efficiency>
0

>  <Surface Efficiency>
0

>  <Assay Index>
256562

>  <Assay Category>


>  <Assay Organism>
Macaca fascicularis

>  <Target ID>
100710

>  <Target Name>
Cynomolgus monkey

>  <Target Organism>
Macaca fascicularis

>  <Target Description>
Target is a complete organism

>  <Sequence Accession>


>  <Reference>
J. Med. Chem. 49 (3), 971-983 (2006)

>  <Pubmed ID>
16451063

>  <DOI>
10.1021/jm050855s

$$$$
338298
Actelion Java MolfileCreator 2.0

  0  0  0  0  0  0              0 V3000
M  V30 BEGIN CTAB
M  V30 COUNTS 29 33 0 0 0
M  V30 BEGIN ATOM
M  V30 1 S 0.0 0.0 0.0 0
M  V30 2 O -1.3227 0.7626 0.0 0
M  V30 3 O 1.2869 0.7745 0.0 0
M  V30 4 N -1.2988 -0.7507 0.0 0
M  V30 5 C 1.2988 -0.7269 0.0 0
M  V30 6 C -1.2988 -2.2283 0.0 0
M  V30 7 C 1.2988 -2.2164 0.0 0
M  V30 8 C 2.5739 0.0357 0.0 0
M  V30 9 N -0.0119 -2.9672 0.0 0
M  V30 10 C -2.6097 -2.9791 0.0 0
M  V30 11 C 2.5858 -2.9433 0.0 0
M  V30 12 C 3.8609 -0.6911 0.0 0
M  V30 13 C -2.6097 -4.4806 0.0 0
M  V30 14 C -3.9324 -2.2283 0.0 0
M  V30 15 C 3.8728 -2.1688 0.0 0
M  V30 16 O -1.3108 -5.2194 0.0 0
M  V30 17 N -3.9205 -5.2194 0.0 0
M  V30 18 O -3.9562 -0.7149 0.0 0
M  V30 19 C -5.2432 -2.9672 0.0 0
M  V30 20 C -5.2313 -4.4567 0.0 0
M  V30 21 C -3.9324 -6.7089 0.0 0
M  V30 22 C -6.554 -2.2045 0.0 0
M  V30 23 C -6.5421 -5.2075 0.0 0
M  V30 24 C -2.6454 -7.4478 0.0 0
M  V30 25 C -7.8648 -2.9433 0.0 0
M  V30 26 C -7.8529 -4.4448 0.0 0
M  V30 27 C -1.3584 -6.6851 0.0 0
M  V30 28 C 0.1429 -6.6613 0.0 0
M  V30 29 C -0.6196 -5.3624 0.0 0
M  V30 END ATOM
M  V30 BEGIN BOND
M  V30 1 2 1 2
M  V30 2 2 1 3
M  V30 3 1 1 4
M  V30 4 1 1 5
M  V30 5 2 4 6
M  V30 6 2 5 7
M  V30 7 1 5 8
M  V30 8 1 6 9
M  V30 9 1 6 10
M  V30 10 1 7 11
M  V30 11 2 8 12
M  V30 12 1 10 13
M  V30 13 2 10 14
M  V30 14 2 11 15
M  V30 15 2 13 16
M  V30 16 1 13 17
M  V30 17 1 14 18
M  V30 18 1 14 19
M  V30 19 1 17 20
M  V30 20 1 17 21
M  V30 21 1 19 22
M  V30 22 1 20 23
M  V30 23 1 21 24
M  V30 24 2 22 25
M  V30 25 2 23 26
M  V30 26 1 24 27
M  V30 27 1 27 28
M  V30 28 1 27 29
M  V30 29 1 7 9
M  V30 30 1 12 15
M  V30 31 2 19 20
M  V30 32 1 25 26
M  V30 33 1 28 29
M  V30 END BOND
M  V30 END CTAB
M  END
>  <MolRegNo>
338298

>  <m>
>

>  <Value>
40

>  <Unit>
%

>  <Type>
F

>  <pValue>
0

>  <Ligand Efficiency>
0

>  <Binding Efficiency>
0

>  <Surface Efficiency>
0

>  <Assay Index>
256584

>  <Assay Category>


>  <Assay Organism>
Macaca fascicularis

>  <Target ID>
100710

>  <Target Name>
Cynomolgus monkey

>  <Target Organism>
Macaca fascicularis

>  <Target Description>
Target is a complete organism

>  <Sequence Accession>


>  <Reference>
J. Med. Chem. 49 (3), 971-983 (2006)

>  <Pubmed ID>
16451063

>  <DOI>
10.1021/jm050855s

$$$$
338298
Actelion Java MolfileCreator 2.0

  0  0  0  0  0  0              0 V3000
M  V30 BEGIN CTAB
M  V30 COUNTS 29 33 0 0 0
M  V30 BEGIN ATOM
M  V30 1 S 0.0 0.0 0.0 0
M  V30 2 O -1.3227 0.7626 0.0 0
M  V30 3 O 1.2869 0.7745 0.0 0
M  V30 4 N -1.2988 -0.7507 0.0 0
M  V30 5 C 1.2988 -0.7269 0.0 0
M  V30 6 C -1.2988 -2.2283 0.0 0
M  V30 7 C 1.2988 -2.2164 0.0 0
M  V30 8 C 2.5739 0.0357 0.0 0
M  V30 9 N -0.0119 -2.9672 0.0 0
M  V30 10 C -2.6097 -2.9791 0.0 0
M  V30 11 C 2.5858 -2.9433 0.0 0
M  V30 12 C 3.8609 -0.6911 0.0 0
M  V30 13 C -2.6097 -4.4806 0.0 0
M  V30 14 C -3.9324 -2.2283 0.0 0
M  V30 15 C 3.8728 -2.1688 0.0 0
M  V30 16 O -1.3108 -5.2194 0.0 0
M  V30 17 N -3.9205 -5.2194 0.0 0
M  V30 18 O -3.9562 -0.7149 0.0 0
M  V30 19 C -5.2432 -2.9672 0.0 0
M  V30 20 C -5.2313 -4.4567 0.0 0
M  V30 21 C -3.9324 -6.7089 0.0 0
M  V30 22 C -6.554 -2.2045 0.0 0
M  V30 23 C -6.5421 -5.2075 0.0 0
M  V30 24 C -2.6454 -7.4478 0.0 0
M  V30 25 C -7.8648 -2.9433 0.0 0
M  V30 26 C -7.8529 -4.4448 0.0 0
M  V30 27 C -1.3584 -6.6851 0.0 0
M  V30 28 C 0.1429 -6.6613 0.0 0
M  V30 29 C -0.6196 -5.3624 0.0 0
M  V30 END ATOM
M  V30 BEGIN BOND
M  V30 1 2 1 2
M  V30 2 2 1 3
M  V30 3 1 1 4
M  V30 4 1 1 5
M  V30 5 2 4 6
M  V30 6 2 5 7
M  V30 7 1 5 8
M  V30 8 1 6 9
M  V30 9 1 6 10
M  V30 10 1 7 11
M  V30 11 2 8 12
M  V30 12 1 10 13
M  V30 13 2 10 14
M  V30 14 2 11 15
M  V30 15 2 13 16
M  V30 16 1 13 17
M  V30 17 1 14 18
M  V30 18 1 14 19
M  V30 19 1 17 20
M  V30 20 1 17 21
M  V30 21 1 19 22
M  V30 22 1 20 23
M  V30 23 1 21 24
M  V30 24 2 22 25
M  V30 25 2 23 26
M  V30 26 1 24 27
M  V30 27 1 27 28
M  V30 28 1 27 29
M  V30 29 1 7 9
M  V30 30 1 12 15
M  V30 31 2 19 20
M  V30 32 1 25 26
M  V30 33 1 28 29
M  V30 END BOND
M  V30 END CTAB
M  END
>  <MolRegNo>
338298

>  <m>
=

>  <Value>
0.25

>  <Unit>
L.kg-1

>  <Type>
Vdss

>  <pValue>
0

>  <Ligand Efficiency>
0

>  <Binding Efficiency>
0

>  <Surface Efficiency>
0

>  <Assay Index>
256593

>  <Assay Category>


>  <Assay Organism>
Rattus norvegicus

>  <Target ID>
50597

>  <Target Name>
Rattus norvegicus

>  <Target Organism>
Rattus norvegicus

>  <Target Description>
Target is a complete organism

>  <Sequence Accession>


>  <Reference>
J. Med. Chem. 49 (3), 971-983 (2006)

>  <Pubmed ID>
16451063

>  <DOI>
10.1021/jm050855s

$$$$
338298
Actelion Java MolfileCreator 2.0

  0  0  0  0  0  0              0 V3000
M  V30 BEGIN CTAB
M  V30 COUNTS 29 33 0 0 0
M  V30 BEGIN ATOM
M  V30 1 S 0.0 0.0 0.0 0
M  V30 2 O -1.3227 0.7626 0.0 0
M  V30 3 O 1.2869 0.7745 0.0 0
M  V30 4 N -1.2988 -0.7507 0.0 0
M  V30 5 C 1.2988 -0.7269 0.0 0
M  V30 6 C -1.2988 -2.2283 0.0 0
M  V30 7 C 1.2988 -2.2164 0.0 0
M  V30 8 C 2.5739 0.0357 0.0 0
M  V30 9 N -0.0119 -2.9672 0.0 0
M  V30 10 C -2.6097 -2.9791 0.0 0
M  V30 11 C 2.5858 -2.9433 0.0 0
M  V30 12 C 3.8609 -0.6911 0.0 0
M  V30 13 C -2.6097 -4.4806 0.0 0
M  V30 14 C -3.9324 -2.2283 0.0 0
M  V30 15 C 3.8728 -2.1688 0.0 0
M  V30 16 O -1.3108 -5.2194 0.0 0
M  V30 17 N -3.9205 -5.2194 0.0 0
M  V30 18 O -3.9562 -0.7149 0.0 0
M  V30 19 C -5.2432 -2.9672 0.0 0
M  V30 20 C -5.2313 -4.4567 0.0 0
M  V30 21 C -3.9324 -6.7089 0.0 0
M  V30 22 C -6.554 -2.2045 0.0 0
M  V30 23 C -6.5421 -5.2075 0.0 0
M  V30 24 C -2.6454 -7.4478 0.0 0
M  V30 25 C -7.8648 -2.9433 0.0 0
M  V30 26 C -7.8529 -4.4448 0.0 0
M  V30 27 C -1.3584 -6.6851 0.0 0
M  V30 28 C 0.1429 -6.6613 0.0 0
M  V30 29 C -0.6196 -5.3624 0.0 0
M  V30 END ATOM
M  V30 BEGIN BOND
M  V30 1 2 1 2
M  V30 2 2 1 3
M  V30 3 1 1 4
M  V30 4 1 1 5
M  V30 5 2 4 6
M  V30 6 2 5 7
M  V30 7 1 5 8
M  V30 8 1 6 9
M  V30 9 1 6 10
M  V30 10 1 7 11
M  V30 11 2 8 12
M  V30 12 1 10 13
M  V30 13 2 10 14
M  V30 14 2 11 15
M  V30 15 2 13 16
M  V30 16 1 13 17
M  V30 17 1 14 18
M  V30 18 1 14 19
M  V30 19 1 17 20
M  V30 20 1 17 21
M  V30 21 1 19 22
M  V30 22 1 20 23
M  V30 23 1 21 24
M  V30 24 2 22 25
M  V30 25 2 23 26
M  V30 26 1 24 27
M  V30 27 1 27 28
M  V30 28 1 27 29
M  V30 29 1 7 9
M  V30 30 1 12 15
M  V30 31 2 19 20
M  V30 32 1 25 26
M  V30 33 1 28 29
M  V30 END BOND
M  V30 END CTAB
M  END
>  <MolRegNo>
338298

>  <m>
=

>  <Value>
0.15

>  <Unit>
L.kg-1

>  <Type>
Vdss

>  <pValue>
0

>  <Ligand Efficiency>
0

>  <Binding Efficiency>
0

>  <Surface Efficiency>
0

>  <Assay Index>
256594

>  <Assay Category>


>  <Assay Organism>
Canis lupus familiaris

>  <Target ID>
50588

>  <Target Name>
Canis familiaris

>  <Target Organism>
Canis lupus familiaris

>  <Target Description>
Target is a complete organism

>  <Sequence Accession>


>  <Reference>
J. Med. Chem. 49 (3), 971-983 (2006)

>  <Pubmed ID>
16451063

>  <DOI>
10.1021/jm050855s

$$$$
338298
Actelion Java MolfileCreator 2.0

  0  0  0  0  0  0              0 V3000
M  V30 BEGIN CTAB
M  V30 COUNTS 29 33 0 0 0
M  V30 BEGIN ATOM
M  V30 1 S 0.0 0.0 0.0 0
M  V30 2 O -1.3227 0.7626 0.0 0
M  V30 3 O 1.2869 0.7745 0.0 0
M  V30 4 N -1.2988 -0.7507 0.0 0
M  V30 5 C 1.2988 -0.7269 0.0 0
M  V30 6 C -1.2988 -2.2283 0.0 0
M  V30 7 C 1.2988 -2.2164 0.0 0
M  V30 8 C 2.5739 0.0357 0.0 0
M  V30 9 N -0.0119 -2.9672 0.0 0
M  V30 10 C -2.6097 -2.9791 0.0 0
M  V30 11 C 2.5858 -2.9433 0.0 0
M  V30 12 C 3.8609 -0.6911 0.0 0
M  V30 13 C -2.6097 -4.4806 0.0 0
M  V30 14 C -3.9324 -2.2283 0.0 0
M  V30 15 C 3.8728 -2.1688 0.0 0
M  V30 16 O -1.3108 -5.2194 0.0 0
M  V30 17 N -3.9205 -5.2194 0.0 0
M  V30 18 O -3.9562 -0.7149 0.0 0
M  V30 19 C -5.2432 -2.9672 0.0 0
M  V30 20 C -5.2313 -4.4567 0.0 0
M  V30 21 C -3.9324 -6.7089 0.0 0
M  V30 22 C -6.554 -2.2045 0.0 0
M  V30 23 C -6.5421 -5.2075 0.0 0
M  V30 24 C -2.6454 -7.4478 0.0 0
M  V30 25 C -7.8648 -2.9433 0.0 0
M  V30 26 C -7.8529 -4.4448 0.0 0
M  V30 27 C -1.3584 -6.6851 0.0 0
M  V30 28 C 0.1429 -6.6613 0.0 0
M  V30 29 C -0.6196 -5.3624 0.0 0
M  V30 END ATOM
M  V30 BEGIN BOND
M  V30 1 2 1 2
M  V30 2 2 1 3
M  V30 3 1 1 4
M  V30 4 1 1 5
M  V30 5 2 4 6
M  V30 6 2 5 7
M  V30 7 1 5 8
M  V30 8 1 6 9
M  V30 9 1 6 10
M  V30 10 1 7 11
M  V30 11 2 8 12
M  V30 12 1 10 13
M  V30 13 2 10 14
M  V30 14 2 11 15
M  V30 15 2 13 16
M  V30 16 1 13 17
M  V30 17 1 14 18
M  V30 18 1 14 19
M  V30 19 1 17 20
M  V30 20 1 17 21
M  V30 21 1 19 22
M  V30 22 1 20 23
M  V30 23 1 21 24
M  V30 24 2 22 25
M  V30 25 2 23 26
M  V30 26 1 24 27
M  V30 27 1 27 28
M  V30 28 1 27 29
M  V30 29 1 7 9
M  V30 30 1 12 15
M  V30 31 2 19 20
M  V30 32 1 25 26
M  V30 33 1 28 29
M  V30 END BOND
M  V30 END CTAB
M  END
>  <MolRegNo>
338298

>  <m>
=

>  <Value>
0.19

>  <Unit>
L.kg-1

>  <Type>
Vdss

>  <pValue>
0

>  <Ligand Efficiency>
0

>  <Binding Efficiency>
0

>  <Surface Efficiency>
0

>  <Assay Index>
256595

>  <Assay Category>


>  <Assay Organism>
Macaca fascicularis

>  <Target ID>
100710

>  <Target Name>
Cynomolgus monkey

>  <Target Organism>
Macaca fascicularis

>  <Target Description>
Target is a complete organism

>  <Sequence Accession>


>  <Reference>
J. Med. Chem. 49 (3), 971-983 (2006)

>  <Pubmed ID>
16451063

>  <DOI>
10.1021/jm050855s

$$$$
338063
Actelion Java MolfileCreator 2.0

  0  0  0  0  0  0              0 V3000
M  V30 BEGIN CTAB
M  V30 COUNTS 30 33 0 0 0
M  V30 BEGIN ATOM
M  V30 1 S 0.0 0.0 0.0 0
M  V30 2 O -1.3233 0.763 0.0 0
M  V30 3 O 1.2876 0.7749 0.0 0
M  V30 4 N -1.2995 -0.7511 0.0 0
M  V30 5 C 1.2995 -0.7272 0.0 0
M  V30 6 C -1.2995 -2.2294 0.0 0
M  V30 7 C 1.2995 -2.2175 0.0 0
M  V30 8 C 2.5752 0.0357 0.0 0
M  V30 9 N -0.0119 -2.9686 0.0 0
M  V30 10 C -2.6109 -2.9805 0.0 0
M  V30 11 C 2.5871 -2.9448 0.0 0
M  V30 12 C 3.8628 -0.6914 0.0 0
M  V30 13 C -2.6109 -4.4827 0.0 0
M  V30 14 C -3.9343 -2.2294 0.0 0
M  V30 15 C 3.8747 -2.1698 0.0 0
M  V30 16 O -1.3114 -5.2219 0.0 0
M  V30 17 N -3.9224 -5.2219 0.0 0
M  V30 18 O -3.9582 -0.7153 0.0 0
M  V30 19 C -5.2458 -2.9686 0.0 0
M  V30 20 C -5.2339 -4.4589 0.0 0
M  V30 21 C -3.9343 -6.7122 0.0 0
M  V30 22 C -6.5572 -2.2056 0.0 0
M  V30 23 C -6.5453 -5.21 0.0 0
M  V30 24 C -2.6467 -7.4514 0.0 0
M  V30 25 C -7.8687 -2.9448 0.0 0
M  V30 26 C -7.8568 -4.447 0.0 0
M  V30 27 C -2.6586 -8.9417 0.0 0
M  V30 28 C -9.1801 -2.1817 0.0 0
M  V30 29 C -1.371 -9.6809 0.0 0
M  V30 30 C -3.9701 -9.6809 0.0 0
M  V30 END ATOM
M  V30 BEGIN BOND
M  V30 1 2 1 2
M  V30 2 2 1 3
M  V30 3 1 1 4
M  V30 4 1 1 5
M  V30 5 2 4 6
M  V30 6 2 5 7
M  V30 7 1 5 8
M  V30 8 1 6 9
M  V30 9 1 6 10
M  V30 10 1 7 11
M  V30 11 2 8 12
M  V30 12 1 10 13
M  V30 13 2 10 14
M  V30 14 2 11 15
M  V30 15 2 13 16
M  V30 16 1 13 17
M  V30 17 1 14 18
M  V30 18 1 14 19
M  V30 19 1 17 20
M  V30 20 1 17 21
M  V30 21 1 19 22
M  V30 22 1 20 23
M  V30 23 1 21 24
M  V30 24 2 22 25
M  V30 25 2 23 26
M  V30 26 1 24 27
M  V30 27 1 25 28
M  V30 28 1 27 29
M  V30 29 1 27 30
M  V30 30 1 7 9
M  V30 31 1 12 15
M  V30 32 2 19 20
M  V30 33 1 25 26
M  V30 END BOND
M  V30 END CTAB
M  END
>  <MolRegNo>
338063

>  <m>
=

>  <Value>
1.217

>  <Unit>
ug.mL-1

>  <Type>
Cmax

>  <pValue>
0

>  <Ligand Efficiency>
0

>  <Binding Efficiency>
0

>  <Surface Efficiency>
0

>  <Assay Index>
256552

>  <Assay Category>


>  <Assay Organism>
Rattus norvegicus

>  <Target ID>
50597

>  <Target Name>
Rattus norvegicus

>  <Target Organism>
Rattus norvegicus

>  <Target Description>
Target is a complete organism

>  <Sequence Accession>


>  <Reference>
J. Med. Chem. 49 (3), 971-983 (2006)

>  <Pubmed ID>
16451063

>  <DOI>
10.1021/jm050855s

$$$$
338063
Actelion Java MolfileCreator 2.0

  0  0  0  0  0  0              0 V3000
M  V30 BEGIN CTAB
M  V30 COUNTS 30 33 0 0 0
M  V30 BEGIN ATOM
M  V30 1 S 0.0 0.0 0.0 0
M  V30 2 O -1.3233 0.763 0.0 0
M  V30 3 O 1.2876 0.7749 0.0 0
M  V30 4 N -1.2995 -0.7511 0.0 0
M  V30 5 C 1.2995 -0.7272 0.0 0
M  V30 6 C -1.2995 -2.2294 0.0 0
M  V30 7 C 1.2995 -2.2175 0.0 0
M  V30 8 C 2.5752 0.0357 0.0 0
M  V30 9 N -0.0119 -2.9686 0.0 0
M  V30 10 C -2.6109 -2.9805 0.0 0
M  V30 11 C 2.5871 -2.9448 0.0 0
M  V30 12 C 3.8628 -0.6914 0.0 0
M  V30 13 C -2.6109 -4.4827 0.0 0
M  V30 14 C -3.9343 -2.2294 0.0 0
M  V30 15 C 3.8747 -2.1698 0.0 0
M  V30 16 O -1.3114 -5.2219 0.0 0
M  V30 17 N -3.9224 -5.2219 0.0 0
M  V30 18 O -3.9582 -0.7153 0.0 0
M  V30 19 C -5.2458 -2.9686 0.0 0
M  V30 20 C -5.2339 -4.4589 0.0 0
M  V30 21 C -3.9343 -6.7122 0.0 0
M  V30 22 C -6.5572 -2.2056 0.0 0
M  V30 23 C -6.5453 -5.21 0.0 0
M  V30 24 C -2.6467 -7.4514 0.0 0
M  V30 25 C -7.8687 -2.9448 0.0 0
M  V30 26 C -7.8568 -4.447 0.0 0
M  V30 27 C -2.6586 -8.9417 0.0 0
M  V30 28 C -9.1801 -2.1817 0.0 0
M  V30 29 C -1.371 -9.6809 0.0 0
M  V30 30 C -3.9701 -9.6809 0.0 0
M  V30 END ATOM
M  V30 BEGIN BOND
M  V30 1 2 1 2
M  V30 2 2 1 3
M  V30 3 1 1 4
M  V30 4 1 1 5
M  V30 5 2 4 6
M  V30 6 2 5 7
M  V30 7 1 5 8
M  V30 8 1 6 9
M  V30 9 1 6 10
M  V30 10 1 7 11
M  V30 11 2 8 12
M  V30 12 1 10 13
M  V30 13 2 10 14
M  V30 14 2 11 15
M  V30 15 2 13 16
M  V30 16 1 13 17
M  V30 17 1 14 18
M  V30 18 1 14 19
M  V30 19 1 17 20
M  V30 20 1 17 21
M  V30 21 1 19 22
M  V30 22 1 20 23
M  V30 23 1 21 24
M  V30 24 2 22 25
M  V30 25 2 23 26
M  V30 26 1 24 27
M  V30 27 1 25 28
M  V30 28 1 27 29
M  V30 29 1 27 30
M  V30 30 1 7 9
M  V30 31 1 12 15
M  V30 32 2 19 20
M  V30 33 1 25 26
M  V30 END BOND
M  V30 END CTAB
M  END
>  <MolRegNo>
338063

>  <m>
=

>  <Value>
1.958

>  <Unit>
ug.mL-1

>  <Type>
Cmax

>  <pValue>
0

>  <Ligand Efficiency>
0

>  <Binding Efficiency>
0

>  <Surface Efficiency>
0

>  <Assay Index>
256553

>  <Assay Category>


>  <Assay Organism>
Canis lupus familiaris

>  <Target ID>
50588

>  <Target Name>
Canis familiaris

>  <Target Organism>
Canis lupus familiaris

>  <Target Description>
Target is a complete organism

>  <Sequence Accession>


>  <Reference>
J. Med. Chem. 49 (3), 971-983 (2006)

>  <Pubmed ID>
16451063

>  <DOI>
10.1021/jm050855s

$$$$
338063
Actelion Java MolfileCreator 2.0

  0  0  0  0  0  0              0 V3000
M  V30 BEGIN CTAB
M  V30 COUNTS 30 33 0 0 0
M  V30 BEGIN ATOM
M  V30 1 S 0.0 0.0 0.0 0
M  V30 2 O -1.3233 0.763 0.0 0
M  V30 3 O 1.2876 0.7749 0.0 0
M  V30 4 N -1.2995 -0.7511 0.0 0
M  V30 5 C 1.2995 -0.7272 0.0 0
M  V30 6 C -1.2995 -2.2294 0.0 0
M  V30 7 C 1.2995 -2.2175 0.0 0
M  V30 8 C 2.5752 0.0357 0.0 0
M  V30 9 N -0.0119 -2.9686 0.0 0
M  V30 10 C -2.6109 -2.9805 0.0 0
M  V30 11 C 2.5871 -2.9448 0.0 0
M  V30 12 C 3.8628 -0.6914 0.0 0
M  V30 13 C -2.6109 -4.4827 0.0 0
M  V30 14 C -3.9343 -2.2294 0.0 0
M  V30 15 C 3.8747 -2.1698 0.0 0
M  V30 16 O -1.3114 -5.2219 0.0 0
M  V30 17 N -3.9224 -5.2219 0.0 0
M  V30 18 O -3.9582 -0.7153 0.0 0
M  V30 19 C -5.2458 -2.9686 0.0 0
M  V30 20 C -5.2339 -4.4589 0.0 0
M  V30 21 C -3.9343 -6.7122 0.0 0
M  V30 22 C -6.5572 -2.2056 0.0 0
M  V30 23 C -6.5453 -5.21 0.0 0
M  V30 24 C -2.6467 -7.4514 0.0 0
M  V30 25 C -7.8687 -2.9448 0.0 0
M  V30 26 C -7.8568 -4.447 0.0 0
M  V30 27 C -2.6586 -8.9417 0.0 0
M  V30 28 C -9.1801 -2.1817 0.0 0
M  V30 29 C -1.371 -9.6809 0.0 0
M  V30 30 C -3.9701 -9.6809 0.0 0
M  V30 END ATOM
M  V30 BEGIN BOND
M  V30 1 2 1 2
M  V30 2 2 1 3
M  V30 3 1 1 4
M  V30 4 1 1 5
M  V30 5 2 4 6
M  V30 6 2 5 7
M  V30 7 1 5 8
M  V30 8 1 6 9
M  V30 9 1 6 10
M  V30 10 1 7 11
M  V30 11 2 8 12
M  V30 12 1 10 13
M  V30 13 2 10 14
M  V30 14 2 11 15
M  V30 15 2 13 16
M  V30 16 1 13 17
M  V30 17 1 14 18
M  V30 18 1 14 19
M  V30 19 1 17 20
M  V30 20 1 17 21
M  V30 21 1 19 22
M  V30 22 1 20 23
M  V30 23 1 21 24
M  V30 24 2 22 25
M  V30 25 2 23 26
M  V30 26 1 24 27
M  V30 27 1 25 28
M  V30 28 1 27 29
M  V30 29 1 27 30
M  V30 30 1 7 9
M  V30 31 1 12 15
M  V30 32 2 19 20
M  V30 33 1 25 26
M  V30 END BOND
M  V30 END CTAB
M  END
>  <MolRegNo>
338063

>  <m>
=

>  <Value>
2.136

>  <Unit>
ug.mL-1

>  <Type>
Cmax

>  <pValue>
0

>  <Ligand Efficiency>
0

>  <Binding Efficiency>
0

>  <Surface Efficiency>
0

>  <Assay Index>
256554

>  <Assay Category>


>  <Assay Organism>
Macaca fascicularis

>  <Target ID>
100710

>  <Target Name>
Cynomolgus monkey

>  <Target Organism>
Macaca fascicularis

>  <Target Description>
Target is a complete organism

>  <Sequence Accession>


>  <Reference>
J. Med. Chem. 49 (3), 971-983 (2006)

>  <Pubmed ID>
16451063

>  <DOI>
10.1021/jm050855s

$$$$
338063
Actelion Java MolfileCreator 2.0

  0  0  0  0  0  0              0 V3000
M  V30 BEGIN CTAB
M  V30 COUNTS 30 33 0 0 0
M  V30 BEGIN ATOM
M  V30 1 S 0.0 0.0 0.0 0
M  V30 2 O -1.3233 0.763 0.0 0
M  V30 3 O 1.2876 0.7749 0.0 0
M  V30 4 N -1.2995 -0.7511 0.0 0
M  V30 5 C 1.2995 -0.7272 0.0 0
M  V30 6 C -1.2995 -2.2294 0.0 0
M  V30 7 C 1.2995 -2.2175 0.0 0
M  V30 8 C 2.5752 0.0357 0.0 0
M  V30 9 N -0.0119 -2.9686 0.0 0
M  V30 10 C -2.6109 -2.9805 0.0 0
M  V30 11 C 2.5871 -2.9448 0.0 0
M  V30 12 C 3.8628 -0.6914 0.0 0
M  V30 13 C -2.6109 -4.4827 0.0 0
M  V30 14 C -3.9343 -2.2294 0.0 0
M  V30 15 C 3.8747 -2.1698 0.0 0
M  V30 16 O -1.3114 -5.2219 0.0 0
M  V30 17 N -3.9224 -5.2219 0.0 0
M  V30 18 O -3.9582 -0.7153 0.0 0
M  V30 19 C -5.2458 -2.9686 0.0 0
M  V30 20 C -5.2339 -4.4589 0.0 0
M  V30 21 C -3.9343 -6.7122 0.0 0
M  V30 22 C -6.5572 -2.2056 0.0 0
M  V30 23 C -6.5453 -5.21 0.0 0
M  V30 24 C -2.6467 -7.4514 0.0 0
M  V30 25 C -7.8687 -2.9448 0.0 0
M  V30 26 C -7.8568 -4.447 0.0 0
M  V30 27 C -2.6586 -8.9417 0.0 0
M  V30 28 C -9.1801 -2.1817 0.0 0
M  V30 29 C -1.371 -9.6809 0.0 0
M  V30 30 C -3.9701 -9.6809 0.0 0
M  V30 END ATOM
M  V30 BEGIN BOND
M  V30 1 2 1 2
M  V30 2 2 1 3
M  V30 3 1 1 4
M  V30 4 1 1 5
M  V30 5 2 4 6
M  V30 6 2 5 7
M  V30 7 1 5 8
M  V30 8 1 6 9
M  V30 9 1 6 10
M  V30 10 1 7 11
M  V30 11 2 8 12
M  V30 12 1 10 13
M  V30 13 2 10 14
M  V30 14 2 11 15
M  V30 15 2 13 16
M  V30 16 1 13 17
M  V30 17 1 14 18
M  V30 18 1 14 19
M  V30 19 1 17 20
M  V30 20 1 17 21
M  V30 21 1 19 22
M  V30 22 1 20 23
M  V30 23 1 21 24
M  V30 24 2 22 25
M  V30 25 2 23 26
M  V30 26 1 24 27
M  V30 27 1 25 28
M  V30 28 1 27 29
M  V30 29 1 27 30
M  V30 30 1 7 9
M  V30 31 1 12 15
M  V30 32 2 19 20
M  V30 33 1 25 26
M  V30 END BOND
M  V30 END CTAB
M  END
>  <MolRegNo>
338063

>  <m>
=

>  <Value>
5.292

>  <Unit>
hr

>  <Type>
T1/2

>  <pValue>
0

>  <Ligand Efficiency>
0

>  <Binding Efficiency>
0

>  <Surface Efficiency>
0

>  <Assay Index>
256563

>  <Assay Category>


>  <Assay Organism>
Rattus norvegicus

>  <Target ID>
50597

>  <Target Name>
Rattus norvegicus

>  <Target Organism>
Rattus norvegicus

>  <Target Description>
Target is a complete organism

>  <Sequence Accession>


>  <Reference>
J. Med. Chem. 49 (3), 971-983 (2006)

>  <Pubmed ID>
16451063

>  <DOI>
10.1021/jm050855s

$$$$
338063
Actelion Java MolfileCreator 2.0

  0  0  0  0  0  0              0 V3000
M  V30 BEGIN CTAB
M  V30 COUNTS 30 33 0 0 0
M  V30 BEGIN ATOM
M  V30 1 S 0.0 0.0 0.0 0
M  V30 2 O -1.3233 0.763 0.0 0
M  V30 3 O 1.2876 0.7749 0.0 0
M  V30 4 N -1.2995 -0.7511 0.0 0
M  V30 5 C 1.2995 -0.7272 0.0 0
M  V30 6 C -1.2995 -2.2294 0.0 0
M  V30 7 C 1.2995 -2.2175 0.0 0
M  V30 8 C 2.5752 0.0357 0.0 0
M  V30 9 N -0.0119 -2.9686 0.0 0
M  V30 10 C -2.6109 -2.9805 0.0 0
M  V30 11 C 2.5871 -2.9448 0.0 0
M  V30 12 C 3.8628 -0.6914 0.0 0
M  V30 13 C -2.6109 -4.4827 0.0 0
M  V30 14 C -3.9343 -2.2294 0.0 0
M  V30 15 C 3.8747 -2.1698 0.0 0
M  V30 16 O -1.3114 -5.2219 0.0 0
M  V30 17 N -3.9224 -5.2219 0.0 0
M  V30 18 O -3.9582 -0.7153 0.0 0
M  V30 19 C -5.2458 -2.9686 0.0 0
M  V30 20 C -5.2339 -4.4589 0.0 0
M  V30 21 C -3.9343 -6.7122 0.0 0
M  V30 22 C -6.5572 -2.2056 0.0 0
M  V30 23 C -6.5453 -5.21 0.0 0
M  V30 24 C -2.6467 -7.4514 0.0 0
M  V30 25 C -7.8687 -2.9448 0.0 0
M  V30 26 C -7.8568 -4.447 0.0 0
M  V30 27 C -2.6586 -8.9417 0.0 0
M  V30 28 C -9.1801 -2.1817 0.0 0
M  V30 29 C -1.371 -9.6809 0.0 0
M  V30 30 C -3.9701 -9.6809 0.0 0
M  V30 END ATOM
M  V30 BEGIN BOND
M  V30 1 2 1 2
M  V30 2 2 1 3
M  V30 3 1 1 4
M  V30 4 1 1 5
M  V30 5 2 4 6
M  V30 6 2 5 7
M  V30 7 1 5 8
M  V30 8 1 6 9
M  V30 9 1 6 10
M  V30 10 1 7 11
M  V30 11 2 8 12
M  V30 12 1 10 13
M  V30 13 2 10 14
M  V30 14 2 11 15
M  V30 15 2 13 16
M  V30 16 1 13 17
M  V30 17 1 14 18
M  V30 18 1 14 19
M  V30 19 1 17 20
M  V30 20 1 17 21
M  V30 21 1 19 22
M  V30 22 1 20 23
M  V30 23 1 21 24
M  V30 24 2 22 25
M  V30 25 2 23 26
M  V30 26 1 24 27
M  V30 27 1 25 28
M  V30 28 1 27 29
M  V30 29 1 27 30
M  V30 30 1 7 9
M  V30 31 1 12 15
M  V30 32 2 19 20
M  V30 33 1 25 26
M  V30 END BOND
M  V30 END CTAB
M  END
>  <MolRegNo>
338063

>  <m>
=

>  <Value>
9.058

>  <Unit>
hr

>  <Type>
T1/2

>  <pValue>
0

>  <Ligand Efficiency>
0

>  <Binding Efficiency>
0

>  <Surface Efficiency>
0

>  <Assay Index>
256564

>  <Assay Category>


>  <Assay Organism>
Canis lupus familiaris

>  <Target ID>
50588

>  <Target Name>
Canis familiaris

>  <Target Organism>
Canis lupus familiaris

>  <Target Description>
Target is a complete organism

>  <Sequence Accession>


>  <Reference>
J. Med. Chem. 49 (3), 971-983 (2006)

>  <Pubmed ID>
16451063

>  <DOI>
10.1021/jm050855s

$$$$
338063
Actelion Java MolfileCreator 2.0

  0  0  0  0  0  0              0 V3000
M  V30 BEGIN CTAB
M  V30 COUNTS 30 33 0 0 0
M  V30 BEGIN ATOM
M  V30 1 S 0.0 0.0 0.0 0
M  V30 2 O -1.3233 0.763 0.0 0
M  V30 3 O 1.2876 0.7749 0.0 0
M  V30 4 N -1.2995 -0.7511 0.0 0
M  V30 5 C 1.2995 -0.7272 0.0 0
M  V30 6 C -1.2995 -2.2294 0.0 0
M  V30 7 C 1.2995 -2.2175 0.0 0
M  V30 8 C 2.5752 0.0357 0.0 0
M  V30 9 N -0.0119 -2.9686 0.0 0
M  V30 10 C -2.6109 -2.9805 0.0 0
M  V30 11 C 2.5871 -2.9448 0.0 0
M  V30 12 C 3.8628 -0.6914 0.0 0
M  V30 13 C -2.6109 -4.4827 0.0 0
M  V30 14 C -3.9343 -2.2294 0.0 0
M  V30 15 C 3.8747 -2.1698 0.0 0
M  V30 16 O -1.3114 -5.2219 0.0 0
M  V30 17 N -3.9224 -5.2219 0.0 0
M  V30 18 O -3.9582 -0.7153 0.0 0
M  V30 19 C -5.2458 -2.9686 0.0 0
M  V30 20 C -5.2339 -4.4589 0.0 0
M  V30 21 C -3.9343 -6.7122 0.0 0
M  V30 22 C -6.5572 -2.2056 0.0 0
M  V30 23 C -6.5453 -5.21 0.0 0
M  V30 24 C -2.6467 -7.4514 0.0 0
M  V30 25 C -7.8687 -2.9448 0.0 0
M  V30 26 C -7.8568 -4.447 0.0 0
M  V30 27 C -2.6586 -8.9417 0.0 0
M  V30 28 C -9.1801 -2.1817 0.0 0
M  V30 29 C -1.371 -9.6809 0.0 0
M  V30 30 C -3.9701 -9.6809 0.0 0
M  V30 END ATOM
M  V30 BEGIN BOND
M  V30 1 2 1 2
M  V30 2 2 1 3
M  V30 3 1 1 4
M  V30 4 1 1 5
M  V30 5 2 4 6
M  V30 6 2 5 7
M  V30 7 1 5 8
M  V30 8 1 6 9
M  V30 9 1 6 10
M  V30 10 1 7 11
M  V30 11 2 8 12
M  V30 12 1 10 13
M  V30 13 2 10 14
M  V30 14 2 11 15
M  V30 15 2 13 16
M  V30 16 1 13 17
M  V30 17 1 14 18
M  V30 18 1 14 19
M  V30 19 1 17 20
M  V30 20 1 17 21
M  V30 21 1 19 22
M  V30 22 1 20 23
M  V30 23 1 21 24
M  V30 24 2 22 25
M  V30 25 2 23 26
M  V30 26 1 24 27
M  V30 27 1 25 28
M  V30 28 1 27 29
M  V30 29 1 27 30
M  V30 30 1 7 9
M  V30 31 1 12 15
M  V30 32 2 19 20
M  V30 33 1 25 26
M  V30 END BOND
M  V30 END CTAB
M  END
>  <MolRegNo>
338063

>  <m>
=

>  <Value>
0.8283

>  <Unit>
hr

>  <Type>
T1/2

>  <pValue>
0

>  <Ligand Efficiency>
0

>  <Binding Efficiency>
0

>  <Surface Efficiency>
0

>  <Assay Index>
256565

>  <Assay Category>


>  <Assay Organism>
Macaca fascicularis

>  <Target ID>
100710

>  <Target Name>
Cynomolgus monkey

>  <Target Organism>
Macaca fascicularis

>  <Target Description>
Target is a complete organism

>  <Sequence Accession>


>  <Reference>
J. Med. Chem. 49 (3), 971-983 (2006)

>  <Pubmed ID>
16451063

>  <DOI>
10.1021/jm050855s

$$$$
338063
Actelion Java MolfileCreator 2.0

  0  0  0  0  0  0              0 V3000
M  V30 BEGIN CTAB
M  V30 COUNTS 30 33 0 0 0
M  V30 BEGIN ATOM
M  V30 1 S 0.0 0.0 0.0 0
M  V30 2 O -1.3233 0.763 0.0 0
M  V30 3 O 1.2876 0.7749 0.0 0
M  V30 4 N -1.2995 -0.7511 0.0 0
M  V30 5 C 1.2995 -0.7272 0.0 0
M  V30 6 C -1.2995 -2.2294 0.0 0
M  V30 7 C 1.2995 -2.2175 0.0 0
M  V30 8 C 2.5752 0.0357 0.0 0
M  V30 9 N -0.0119 -2.9686 0.0 0
M  V30 10 C -2.6109 -2.9805 0.0 0
M  V30 11 C 2.5871 -2.9448 0.0 0
M  V30 12 C 3.8628 -0.6914 0.0 0
M  V30 13 C -2.6109 -4.4827 0.0 0
M  V30 14 C -3.9343 -2.2294 0.0 0
M  V30 15 C 3.8747 -2.1698 0.0 0
M  V30 16 O -1.3114 -5.2219 0.0 0
M  V30 17 N -3.9224 -5.2219 0.0 0
M  V30 18 O -3.9582 -0.7153 0.0 0
M  V30 19 C -5.2458 -2.9686 0.0 0
M  V30 20 C -5.2339 -4.4589 0.0 0
M  V30 21 C -3.9343 -6.7122 0.0 0
M  V30 22 C -6.5572 -2.2056 0.0 0
M  V30 23 C -6.5453 -5.21 0.0 0
M  V30 24 C -2.6467 -7.4514 0.0 0
M  V30 25 C -7.8687 -2.9448 0.0 0
M  V30 26 C -7.8568 -4.447 0.0 0
M  V30 27 C -2.6586 -8.9417 0.0 0
M  V30 28 C -9.1801 -2.1817 0.0 0
M  V30 29 C -1.371 -9.6809 0.0 0
M  V30 30 C -3.9701 -9.6809 0.0 0
M  V30 END ATOM
M  V30 BEGIN BOND
M  V30 1 2 1 2
M  V30 2 2 1 3
M  V30 3 1 1 4
M  V30 4 1 1 5
M  V30 5 2 4 6
M  V30 6 2 5 7
M  V30 7 1 5 8
M  V30 8 1 6 9
M  V30 9 1 6 10
M  V30 10 1 7 11
M  V30 11 2 8 12
M  V30 12 1 10 13
M  V30 13 2 10 14
M  V30 14 2 11 15
M  V30 15 2 13 16
M  V30 16 1 13 17
M  V30 17 1 14 18
M  V30 18 1 14 19
M  V30 19 1 17 20
M  V30 20 1 17 21
M  V30 21 1 19 22
M  V30 22 1 20 23
M  V30 23 1 21 24
M  V30 24 2 22 25
M  V30 25 2 23 26
M  V30 26 1 24 27
M  V30 27 1 25 28
M  V30 28 1 27 29
M  V30 29 1 27 30
M  V30 30 1 7 9
M  V30 31 1 12 15
M  V30 32 2 19 20
M  V30 33 1 25 26
M  V30 END BOND
M  V30 END CTAB
M  END
>  <MolRegNo>
338063

>  <m>
=

>  <Value>
1.65

>  <Unit>
mL.min-1.kg-1

>  <Type>
CL

>  <pValue>
0

>  <Ligand Efficiency>
0

>  <Binding Efficiency>
0

>  <Surface Efficiency>
0

>  <Assay Index>
256574

>  <Assay Category>


>  <Assay Organism>
Rattus norvegicus

>  <Target ID>
50597

>  <Target Name>
Rattus norvegicus

>  <Target Organism>
Rattus norvegicus

>  <Target Description>
Target is a complete organism

>  <Sequence Accession>


>  <Reference>
J. Med. Chem. 49 (3), 971-983 (2006)

>  <Pubmed ID>
16451063

>  <DOI>
10.1021/jm050855s

$$$$
338063
Actelion Java MolfileCreator 2.0

  0  0  0  0  0  0              0 V3000
M  V30 BEGIN CTAB
M  V30 COUNTS 30 33 0 0 0
M  V30 BEGIN ATOM
M  V30 1 S 0.0 0.0 0.0 0
M  V30 2 O -1.3233 0.763 0.0 0
M  V30 3 O 1.2876 0.7749 0.0 0
M  V30 4 N -1.2995 -0.7511 0.0 0
M  V30 5 C 1.2995 -0.7272 0.0 0
M  V30 6 C -1.2995 -2.2294 0.0 0
M  V30 7 C 1.2995 -2.2175 0.0 0
M  V30 8 C 2.5752 0.0357 0.0 0
M  V30 9 N -0.0119 -2.9686 0.0 0
M  V30 10 C -2.6109 -2.9805 0.0 0
M  V30 11 C 2.5871 -2.9448 0.0 0
M  V30 12 C 3.8628 -0.6914 0.0 0
M  V30 13 C -2.6109 -4.4827 0.0 0
M  V30 14 C -3.9343 -2.2294 0.0 0
M  V30 15 C 3.8747 -2.1698 0.0 0
M  V30 16 O -1.3114 -5.2219 0.0 0
M  V30 17 N -3.9224 -5.2219 0.0 0
M  V30 18 O -3.9582 -0.7153 0.0 0
M  V30 19 C -5.2458 -2.9686 0.0 0
M  V30 20 C -5.2339 -4.4589 0.0 0
M  V30 21 C -3.9343 -6.7122 0.0 0
M  V30 22 C -6.5572 -2.2056 0.0 0
M  V30 23 C -6.5453 -5.21 0.0 0
M  V30 24 C -2.6467 -7.4514 0.0 0
M  V30 25 C -7.8687 -2.9448 0.0 0
M  V30 26 C -7.8568 -4.447 0.0 0
M  V30 27 C -2.6586 -8.9417 0.0 0
M  V30 28 C -9.1801 -2.1817 0.0 0
M  V30 29 C -1.371 -9.6809 0.0 0
M  V30 30 C -3.9701 -9.6809 0.0 0
M  V30 END ATOM
M  V30 BEGIN BOND
M  V30 1 2 1 2
M  V30 2 2 1 3
M  V30 3 1 1 4
M  V30 4 1 1 5
M  V30 5 2 4 6
M  V30 6 2 5 7
M  V30 7 1 5 8
M  V30 8 1 6 9
M  V30 9 1 6 10
M  V30 10 1 7 11
M  V30 11 2 8 12
M  V30 12 1 10 13
M  V30 13 2 10 14
M  V30 14 2 11 15
M  V30 15 2 13 16
M  V30 16 1 13 17
M  V30 17 1 14 18
M  V30 18 1 14 19
M  V30 19 1 17 20
M  V30 20 1 17 21
M  V30 21 1 19 22
M  V30 22 1 20 23
M  V30 23 1 21 24
M  V30 24 2 22 25
M  V30 25 2 23 26
M  V30 26 1 24 27
M  V30 27 1 25 28
M  V30 28 1 27 29
M  V30 29 1 27 30
M  V30 30 1 7 9
M  V30 31 1 12 15
M  V30 32 2 19 20
M  V30 33 1 25 26
M  V30 END BOND
M  V30 END CTAB
M  END
>  <MolRegNo>
338063

>  <m>
=

>  <Value>
1.09

>  <Unit>
mL.min-1.kg-1

>  <Type>
CL

>  <pValue>
0

>  <Ligand Efficiency>
0

>  <Binding Efficiency>
0

>  <Surface Efficiency>
0

>  <Assay Index>
256575

>  <Assay Category>


>  <Assay Organism>
Canis lupus familiaris

>  <Target ID>
50588

>  <Target Name>
Canis familiaris

>  <Target Organism>
Canis lupus familiaris

>  <Target Description>
Target is a complete organism

>  <Sequence Accession>


>  <Reference>
J. Med. Chem. 49 (3), 971-983 (2006)

>  <Pubmed ID>
16451063

>  <DOI>
10.1021/jm050855s

$$$$
338063
Actelion Java MolfileCreator 2.0

  0  0  0  0  0  0              0 V3000
M  V30 BEGIN CTAB
M  V30 COUNTS 30 33 0 0 0
M  V30 BEGIN ATOM
M  V30 1 S 0.0 0.0 0.0 0
M  V30 2 O -1.3233 0.763 0.0 0
M  V30 3 O 1.2876 0.7749 0.0 0
M  V30 4 N -1.2995 -0.7511 0.0 0
M  V30 5 C 1.2995 -0.7272 0.0 0
M  V30 6 C -1.2995 -2.2294 0.0 0
M  V30 7 C 1.2995 -2.2175 0.0 0
M  V30 8 C 2.5752 0.0357 0.0 0
M  V30 9 N -0.0119 -2.9686 0.0 0
M  V30 10 C -2.6109 -2.9805 0.0 0
M  V30 11 C 2.5871 -2.9448 0.0 0
M  V30 12 C 3.8628 -0.6914 0.0 0
M  V30 13 C -2.6109 -4.4827 0.0 0
M  V30 14 C -3.9343 -2.2294 0.0 0
M  V30 15 C 3.8747 -2.1698 0.0 0
M  V30 16 O -1.3114 -5.2219 0.0 0
M  V30 17 N -3.9224 -5.2219 0.0 0
M  V30 18 O -3.9582 -0.7153 0.0 0
M  V30 19 C -5.2458 -2.9686 0.0 0
M  V30 20 C -5.2339 -4.4589 0.0 0
M  V30 21 C -3.9343 -6.7122 0.0 0
M  V30 22 C -6.5572 -2.2056 0.0 0
M  V30 23 C -6.5453 -5.21 0.0 0
M  V30 24 C -2.6467 -7.4514 0.0 0
M  V30 25 C -7.8687 -2.9448 0.0 0
M  V30 26 C -7.8568 -4.447 0.0 0
M  V30 27 C -2.6586 -8.9417 0.0 0
M  V30 28 C -9.1801 -2.1817 0.0 0
M  V30 29 C -1.371 -9.6809 0.0 0
M  V30 30 C -3.9701 -9.6809 0.0 0
M  V30 END ATOM
M  V30 BEGIN BOND
M  V30 1 2 1 2
M  V30 2 2 1 3
M  V30 3 1 1 4
M  V30 4 1 1 5
M  V30 5 2 4 6
M  V30 6 2 5 7
M  V30 7 1 5 8
M  V30 8 1 6 9
M  V30 9 1 6 10
M  V30 10 1 7 11
M  V30 11 2 8 12
M  V30 12 1 10 13
M  V30 13 2 10 14
M  V30 14 2 11 15
M  V30 15 2 13 16
M  V30 16 1 13 17
M  V30 17 1 14 18
M  V30 18 1 14 19
M  V30 19 1 17 20
M  V30 20 1 17 21
M  V30 21 1 19 22
M  V30 22 1 20 23
M  V30 23 1 21 24
M  V30 24 2 22 25
M  V30 25 2 23 26
M  V30 26 1 24 27
M  V30 27 1 25 28
M  V30 28 1 27 29
M  V30 29 1 27 30
M  V30 30 1 7 9
M  V30 31 1 12 15
M  V30 32 2 19 20
M  V30 33 1 25 26
M  V30 END BOND
M  V30 END CTAB
M  END
>  <MolRegNo>
338063

>  <m>
=

>  <Value>
5.32

>  <Unit>
mL.min-1.kg-1

>  <Type>
CL

>  <pValue>
0

>  <Ligand Efficiency>
0

>  <Binding Efficiency>
0

>  <Surface Efficiency>
0

>  <Assay Index>
256576

>  <Assay Category>


>  <Assay Organism>
Macaca fascicularis

>  <Target ID>
100710

>  <Target Name>
Cynomolgus monkey

>  <Target Organism>
Macaca fascicularis

>  <Target Description>
Target is a complete organism

>  <Sequence Accession>


>  <Reference>
J. Med. Chem. 49 (3), 971-983 (2006)

>  <Pubmed ID>
16451063

>  <DOI>
10.1021/jm050855s

$$$$
338063
Actelion Java MolfileCreator 2.0

  0  0  0  0  0  0              0 V3000
M  V30 BEGIN CTAB
M  V30 COUNTS 30 33 0 0 0
M  V30 BEGIN ATOM
M  V30 1 S 0.0 0.0 0.0 0
M  V30 2 O -1.3233 0.763 0.0 0
M  V30 3 O 1.2876 0.7749 0.0 0
M  V30 4 N -1.2995 -0.7511 0.0 0
M  V30 5 C 1.2995 -0.7272 0.0 0
M  V30 6 C -1.2995 -2.2294 0.0 0
M  V30 7 C 1.2995 -2.2175 0.0 0
M  V30 8 C 2.5752 0.0357 0.0 0
M  V30 9 N -0.0119 -2.9686 0.0 0
M  V30 10 C -2.6109 -2.9805 0.0 0
M  V30 11 C 2.5871 -2.9448 0.0 0
M  V30 12 C 3.8628 -0.6914 0.0 0
M  V30 13 C -2.6109 -4.4827 0.0 0
M  V30 14 C -3.9343 -2.2294 0.0 0
M  V30 15 C 3.8747 -2.1698 0.0 0
M  V30 16 O -1.3114 -5.2219 0.0 0
M  V30 17 N -3.9224 -5.2219 0.0 0
M  V30 18 O -3.9582 -0.7153 0.0 0
M  V30 19 C -5.2458 -2.9686 0.0 0
M  V30 20 C -5.2339 -4.4589 0.0 0
M  V30 21 C -3.9343 -6.7122 0.0 0
M  V30 22 C -6.5572 -2.2056 0.0 0
M  V30 23 C -6.5453 -5.21 0.0 0
M  V30 24 C -2.6467 -7.4514 0.0 0
M  V30 25 C -7.8687 -2.9448 0.0 0
M  V30 26 C -7.8568 -4.447 0.0 0
M  V30 27 C -2.6586 -8.9417 0.0 0
M  V30 28 C -9.1801 -2.1817 0.0 0
M  V30 29 C -1.371 -9.6809 0.0 0
M  V30 30 C -3.9701 -9.6809 0.0 0
M  V30 END ATOM
M  V30 BEGIN BOND
M  V30 1 2 1 2
M  V30 2 2 1 3
M  V30 3 1 1 4
M  V30 4 1 1 5
M  V30 5 2 4 6
M  V30 6 2 5 7
M  V30 7 1 5 8
M  V30 8 1 6 9
M  V30 9 1 6 10
M  V30 10 1 7 11
M  V30 11 2 8 12
M  V30 12 1 10 13
M  V30 13 2 10 14
M  V30 14 2 11 15
M  V30 15 2 13 16
M  V30 16 1 13 17
M  V30 17 1 14 18
M  V30 18 1 14 19
M  V30 19 1 17 20
M  V30 20 1 17 21
M  V30 21 1 19 22
M  V30 22 1 20 23
M  V30 23 1 21 24
M  V30 24 2 22 25
M  V30 25 2 23 26
M  V30 26 1 24 27
M  V30 27 1 25 28
M  V30 28 1 27 29
M  V30 29 1 27 30
M  V30 30 1 7 9
M  V30 31 1 12 15
M  V30 32 2 19 20
M  V30 33 1 25 26
M  V30 END BOND
M  V30 END CTAB
M  END
>  <MolRegNo>
338063

>  <m>
=

>  <Value>
100

>  <Unit>
%

>  <Type>
F

>  <pValue>
0

>  <Ligand Efficiency>
0

>  <Binding Efficiency>
0

>  <Surface Efficiency>
0

>  <Assay Index>
256585

>  <Assay Category>


>  <Assay Organism>
Rattus norvegicus

>  <Target ID>
50597

>  <Target Name>
Rattus norvegicus

>  <Target Organism>
Rattus norvegicus

>  <Target Description>
Target is a complete organism

>  <Sequence Accession>


>  <Reference>
J. Med. Chem. 49 (3), 971-983 (2006)

>  <Pubmed ID>
16451063

>  <DOI>
10.1021/jm050855s

$$$$
338063
Actelion Java MolfileCreator 2.0

  0  0  0  0  0  0              0 V3000
M  V30 BEGIN CTAB
M  V30 COUNTS 30 33 0 0 0
M  V30 BEGIN ATOM
M  V30 1 S 0.0 0.0 0.0 0
M  V30 2 O -1.3233 0.763 0.0 0
M  V30 3 O 1.2876 0.7749 0.0 0
M  V30 4 N -1.2995 -0.7511 0.0 0
M  V30 5 C 1.2995 -0.7272 0.0 0
M  V30 6 C -1.2995 -2.2294 0.0 0
M  V30 7 C 1.2995 -2.2175 0.0 0
M  V30 8 C 2.5752 0.0357 0.0 0
M  V30 9 N -0.0119 -2.9686 0.0 0
M  V30 10 C -2.6109 -2.9805 0.0 0
M  V30 11 C 2.5871 -2.9448 0.0 0
M  V30 12 C 3.8628 -0.6914 0.0 0
M  V30 13 C -2.6109 -4.4827 0.0 0
M  V30 14 C -3.9343 -2.2294 0.0 0
M  V30 15 C 3.8747 -2.1698 0.0 0
M  V30 16 O -1.3114 -5.2219 0.0 0
M  V30 17 N -3.9224 -5.2219 0.0 0
M  V30 18 O -3.9582 -0.7153 0.0 0
M  V30 19 C -5.2458 -2.9686 0.0 0
M  V30 20 C -5.2339 -4.4589 0.0 0
M  V30 21 C -3.9343 -6.7122 0.0 0
M  V30 22 C -6.5572 -2.2056 0.0 0
M  V30 23 C -6.5453 -5.21 0.0 0
M  V30 24 C -2.6467 -7.4514 0.0 0
M  V30 25 C -7.8687 -2.9448 0.0 0
M  V30 26 C -7.8568 -4.447 0.0 0
M  V30 27 C -2.6586 -8.9417 0.0 0
M  V30 28 C -9.1801 -2.1817 0.0 0
M  V30 29 C -1.371 -9.6809 0.0 0
M  V30 30 C -3.9701 -9.6809 0.0 0
M  V30 END ATOM
M  V30 BEGIN BOND
M  V30 1 2 1 2
M  V30 2 2 1 3
M  V30 3 1 1 4
M  V30 4 1 1 5
M  V30 5 2 4 6
M  V30 6 2 5 7
M  V30 7 1 5 8
M  V30 8 1 6 9
M  V30 9 1 6 10
M  V30 10 1 7 11
M  V30 11 2 8 12
M  V30 12 1 10 13
M  V30 13 2 10 14
M  V30 14 2 11 15
M  V30 15 2 13 16
M  V30 16 1 13 17
M  V30 17 1 14 18
M  V30 18 1 14 19
M  V30 19 1 17 20
M  V30 20 1 17 21
M  V30 21 1 19 22
M  V30 22 1 20 23
M  V30 23 1 21 24
M  V30 24 2 22 25
M  V30 25 2 23 26
M  V30 26 1 24 27
M  V30 27 1 25 28
M  V30 28 1 27 29
M  V30 29 1 27 30
M  V30 30 1 7 9
M  V30 31 1 12 15
M  V30 32 2 19 20
M  V30 33 1 25 26
M  V30 END BOND
M  V30 END CTAB
M  END
>  <MolRegNo>
338063

>  <m>
>

>  <Value>
50

>  <Unit>
%

>  <Type>
F

>  <pValue>
0

>  <Ligand Efficiency>
0

>  <Binding Efficiency>
0

>  <Surface Efficiency>
0

>  <Assay Index>
256586

>  <Assay Category>


>  <Assay Organism>
Canis lupus familiaris

>  <Target ID>
50588

>  <Target Name>
Canis familiaris

>  <Target Organism>
Canis lupus familiaris

>  <Target Description>
Target is a complete organism

>  <Sequence Accession>


>  <Reference>
J. Med. Chem. 49 (3), 971-983 (2006)

>  <Pubmed ID>
16451063

>  <DOI>
10.1021/jm050855s

$$$$
338063
Actelion Java MolfileCreator 2.0

  0  0  0  0  0  0              0 V3000
M  V30 BEGIN CTAB
M  V30 COUNTS 30 33 0 0 0
M  V30 BEGIN ATOM
M  V30 1 S 0.0 0.0 0.0 0
M  V30 2 O -1.3233 0.763 0.0 0
M  V30 3 O 1.2876 0.7749 0.0 0
M  V30 4 N -1.2995 -0.7511 0.0 0
M  V30 5 C 1.2995 -0.7272 0.0 0
M  V30 6 C -1.2995 -2.2294 0.0 0
M  V30 7 C 1.2995 -2.2175 0.0 0
M  V30 8 C 2.5752 0.0357 0.0 0
M  V30 9 N -0.0119 -2.9686 0.0 0
M  V30 10 C -2.6109 -2.9805 0.0 0
M  V30 11 C 2.5871 -2.9448 0.0 0
M  V30 12 C 3.8628 -0.6914 0.0 0
M  V30 13 C -2.6109 -4.4827 0.0 0
M  V30 14 C -3.9343 -2.2294 0.0 0
M  V30 15 C 3.8747 -2.1698 0.0 0
M  V30 16 O -1.3114 -5.2219 0.0 0
M  V30 17 N -3.9224 -5.2219 0.0 0
M  V30 18 O -3.9582 -0.7153 0.0 0
M  V30 19 C -5.2458 -2.9686 0.0 0
M  V30 20 C -5.2339 -4.4589 0.0 0
M  V30 21 C -3.9343 -6.7122 0.0 0
M  V30 22 C -6.5572 -2.2056 0.0 0
M  V30 23 C -6.5453 -5.21 0.0 0
M  V30 24 C -2.6467 -7.4514 0.0 0
M  V30 25 C -7.8687 -2.9448 0.0 0
M  V30 26 C -7.8568 -4.447 0.0 0
M  V30 27 C -2.6586 -8.9417 0.0 0
M  V30 28 C -9.1801 -2.1817 0.0 0
M  V30 29 C -1.371 -9.6809 0.0 0
M  V30 30 C -3.9701 -9.6809 0.0 0
M  V30 END ATOM
M  V30 BEGIN BOND
M  V30 1 2 1 2
M  V30 2 2 1 3
M  V30 3 1 1 4
M  V30 4 1 1 5
M  V30 5 2 4 6
M  V30 6 2 5 7
M  V30 7 1 5 8
M  V30 8 1 6 9
M  V30 9 1 6 10
M  V30 10 1 7 11
M  V30 11 2 8 12
M  V30 12 1 10 13
M  V30 13 2 10 14
M  V30 14 2 11 15
M  V30 15 2 13 16
M  V30 16 1 13 17
M  V30 17 1 14 18
M  V30 18 1 14 19
M  V30 19 1 17 20
M  V30 20 1 17 21
M  V30 21 1 19 22
M  V30 22 1 20 23
M  V30 23 1 21 24
M  V30 24 2 22 25
M  V30 25 2 23 26
M  V30 26 1 24 27
M  V30 27 1 25 28
M  V30 28 1 27 29
M  V30 29 1 27 30
M  V30 30 1 7 9
M  V30 31 1 12 15
M  V30 32 2 19 20
M  V30 33 1 25 26
M  V30 END BOND
M  V30 END CTAB
M  END
>  <MolRegNo>
338063

>  <m>
>

>  <Value>
53

>  <Unit>
%

>  <Type>
F

>  <pValue>
0

>  <Ligand Efficiency>
0

>  <Binding Efficiency>
0

>  <Surface Efficiency>
0

>  <Assay Index>
256587

>  <Assay Category>


>  <Assay Organism>
Macaca fascicularis

>  <Target ID>
100710

>  <Target Name>
Cynomolgus monkey

>  <Target Organism>
Macaca fascicularis

>  <Target Description>
Target is a complete organism

>  <Sequence Accession>


>  <Reference>
J. Med. Chem. 49 (3), 971-983 (2006)

>  <Pubmed ID>
16451063

>  <DOI>
10.1021/jm050855s

$$$$
338063
Actelion Java MolfileCreator 2.0

  0  0  0  0  0  0              0 V3000
M  V30 BEGIN CTAB
M  V30 COUNTS 30 33 0 0 0
M  V30 BEGIN ATOM
M  V30 1 S 0.0 0.0 0.0 0
M  V30 2 O -1.3233 0.763 0.0 0
M  V30 3 O 1.2876 0.7749 0.0 0
M  V30 4 N -1.2995 -0.7511 0.0 0
M  V30 5 C 1.2995 -0.7272 0.0 0
M  V30 6 C -1.2995 -2.2294 0.0 0
M  V30 7 C 1.2995 -2.2175 0.0 0
M  V30 8 C 2.5752 0.0357 0.0 0
M  V30 9 N -0.0119 -2.9686 0.0 0
M  V30 10 C -2.6109 -2.9805 0.0 0
M  V30 11 C 2.5871 -2.9448 0.0 0
M  V30 12 C 3.8628 -0.6914 0.0 0
M  V30 13 C -2.6109 -4.4827 0.0 0
M  V30 14 C -3.9343 -2.2294 0.0 0
M  V30 15 C 3.8747 -2.1698 0.0 0
M  V30 16 O -1.3114 -5.2219 0.0 0
M  V30 17 N -3.9224 -5.2219 0.0 0
M  V30 18 O -3.9582 -0.7153 0.0 0
M  V30 19 C -5.2458 -2.9686 0.0 0
M  V30 20 C -5.2339 -4.4589 0.0 0
M  V30 21 C -3.9343 -6.7122 0.0 0
M  V30 22 C -6.5572 -2.2056 0.0 0
M  V30 23 C -6.5453 -5.21 0.0 0
M  V30 24 C -2.6467 -7.4514 0.0 0
M  V30 25 C -7.8687 -2.9448 0.0 0
M  V30 26 C -7.8568 -4.447 0.0 0
M  V30 27 C -2.6586 -8.9417 0.0 0
M  V30 28 C -9.1801 -2.1817 0.0 0
M  V30 29 C -1.371 -9.6809 0.0 0
M  V30 30 C -3.9701 -9.6809 0.0 0
M  V30 END ATOM
M  V30 BEGIN BOND
M  V30 1 2 1 2
M  V30 2 2 1 3
M  V30 3 1 1 4
M  V30 4 1 1 5
M  V30 5 2 4 6
M  V30 6 2 5 7
M  V30 7 1 5 8
M  V30 8 1 6 9
M  V30 9 1 6 10
M  V30 10 1 7 11
M  V30 11 2 8 12
M  V30 12 1 10 13
M  V30 13 2 10 14
M  V30 14 2 11 15
M  V30 15 2 13 16
M  V30 16 1 13 17
M  V30 17 1 14 18
M  V30 18 1 14 19
M  V30 19 1 17 20
M  V30 20 1 17 21
M  V30 21 1 19 22
M  V30 22 1 20 23
M  V30 23 1 21 24
M  V30 24 2 22 25
M  V30 25 2 23 26
M  V30 26 1 24 27
M  V30 27 1 25 28
M  V30 28 1 27 29
M  V30 29 1 27 30
M  V30 30 1 7 9
M  V30 31 1 12 15
M  V30 32 2 19 20
M  V30 33 1 25 26
M  V30 END BOND
M  V30 END CTAB
M  END
>  <MolRegNo>
338063

>  <m>
=

>  <Value>
0.81

>  <Unit>
L.kg-1

>  <Type>
Vdss

>  <pValue>
0

>  <Ligand Efficiency>
0

>  <Binding Efficiency>
0

>  <Surface Efficiency>
0

>  <Assay Index>
256596

>  <Assay Category>


>  <Assay Organism>
Rattus norvegicus

>  <Target ID>
50597

>  <Target Name>
Rattus norvegicus

>  <Target Organism>
Rattus norvegicus

>  <Target Description>
Target is a complete organism

>  <Sequence Accession>


>  <Reference>
J. Med. Chem. 49 (3), 971-983 (2006)

>  <Pubmed ID>
16451063

>  <DOI>
10.1021/jm050855s

$$$$
338063
Actelion Java MolfileCreator 2.0

  0  0  0  0  0  0              0 V3000
M  V30 BEGIN CTAB
M  V30 COUNTS 30 33 0 0 0
M  V30 BEGIN ATOM
M  V30 1 S 0.0 0.0 0.0 0
M  V30 2 O -1.3233 0.763 0.0 0
M  V30 3 O 1.2876 0.7749 0.0 0
M  V30 4 N -1.2995 -0.7511 0.0 0
M  V30 5 C 1.2995 -0.7272 0.0 0
M  V30 6 C -1.2995 -2.2294 0.0 0
M  V30 7 C 1.2995 -2.2175 0.0 0
M  V30 8 C 2.5752 0.0357 0.0 0
M  V30 9 N -0.0119 -2.9686 0.0 0
M  V30 10 C -2.6109 -2.9805 0.0 0
M  V30 11 C 2.5871 -2.9448 0.0 0
M  V30 12 C 3.8628 -0.6914 0.0 0
M  V30 13 C -2.6109 -4.4827 0.0 0
M  V30 14 C -3.9343 -2.2294 0.0 0
M  V30 15 C 3.8747 -2.1698 0.0 0
M  V30 16 O -1.3114 -5.2219 0.0 0
M  V30 17 N -3.9224 -5.2219 0.0 0
M  V30 18 O -3.9582 -0.7153 0.0 0
M  V30 19 C -5.2458 -2.9686 0.0 0
M  V30 20 C -5.2339 -4.4589 0.0 0
M  V30 21 C -3.9343 -6.7122 0.0 0
M  V30 22 C -6.5572 -2.2056 0.0 0
M  V30 23 C -6.5453 -5.21 0.0 0
M  V30 24 C -2.6467 -7.4514 0.0 0
M  V30 25 C -7.8687 -2.9448 0.0 0
M  V30 26 C -7.8568 -4.447 0.0 0
M  V30 27 C -2.6586 -8.9417 0.0 0
M  V30 28 C -9.1801 -2.1817 0.0 0
M  V30 29 C -1.371 -9.6809 0.0 0
M  V30 30 C -3.9701 -9.6809 0.0 0
M  V30 END ATOM
M  V30 BEGIN BOND
M  V30 1 2 1 2
M  V30 2 2 1 3
M  V30 3 1 1 4
M  V30 4 1 1 5
M  V30 5 2 4 6
M  V30 6 2 5 7
M  V30 7 1 5 8
M  V30 8 1 6 9
M  V30 9 1 6 10
M  V30 10 1 7 11
M  V30 11 2 8 12
M  V30 12 1 10 13
M  V30 13 2 10 14
M  V30 14 2 11 15
M  V30 15 2 13 16
M  V30 16 1 13 17
M  V30 17 1 14 18
M  V30 18 1 14 19
M  V30 19 1 17 20
M  V30 20 1 17 21
M  V30 21 1 19 22
M  V30 22 1 20 23
M  V30 23 1 21 24
M  V30 24 2 22 25
M  V30 25 2 23 26
M  V30 26 1 24 27
M  V30 27 1 25 28
M  V30 28 1 27 29
M  V30 29 1 27 30
M  V30 30 1 7 9
M  V30 31 1 12 15
M  V30 32 2 19 20
M  V30 33 1 25 26
M  V30 END BOND
M  V30 END CTAB
M  END
>  <MolRegNo>
338063

>  <m>
=

>  <Value>
0.72

>  <Unit>
L.kg-1

>  <Type>
Vdss

>  <pValue>
0

>  <Ligand Efficiency>
0

>  <Binding Efficiency>
0

>  <Surface Efficiency>
0

>  <Assay Index>
256597

>  <Assay Category>


>  <Assay Organism>
Canis lupus familiaris

>  <Target ID>
50588

>  <Target Name>
Canis familiaris

>  <Target Organism>
Canis lupus familiaris

>  <Target Description>
Target is a complete organism

>  <Sequence Accession>


>  <Reference>
J. Med. Chem. 49 (3), 971-983 (2006)

>  <Pubmed ID>
16451063

>  <DOI>
10.1021/jm050855s

$$$$
338063
Actelion Java MolfileCreator 2.0

  0  0  0  0  0  0              0 V3000
M  V30 BEGIN CTAB
M  V30 COUNTS 30 33 0 0 0
M  V30 BEGIN ATOM
M  V30 1 S 0.0 0.0 0.0 0
M  V30 2 O -1.3233 0.763 0.0 0
M  V30 3 O 1.2876 0.7749 0.0 0
M  V30 4 N -1.2995 -0.7511 0.0 0
M  V30 5 C 1.2995 -0.7272 0.0 0
M  V30 6 C -1.2995 -2.2294 0.0 0
M  V30 7 C 1.2995 -2.2175 0.0 0
M  V30 8 C 2.5752 0.0357 0.0 0
M  V30 9 N -0.0119 -2.9686 0.0 0
M  V30 10 C -2.6109 -2.9805 0.0 0
M  V30 11 C 2.5871 -2.9448 0.0 0
M  V30 12 C 3.8628 -0.6914 0.0 0
M  V30 13 C -2.6109 -4.4827 0.0 0
M  V30 14 C -3.9343 -2.2294 0.0 0
M  V30 15 C 3.8747 -2.1698 0.0 0
M  V30 16 O -1.3114 -5.2219 0.0 0
M  V30 17 N -3.9224 -5.2219 0.0 0
M  V30 18 O -3.9582 -0.7153 0.0 0
M  V30 19 C -5.2458 -2.9686 0.0 0
M  V30 20 C -5.2339 -4.4589 0.0 0
M  V30 21 C -3.9343 -6.7122 0.0 0
M  V30 22 C -6.5572 -2.2056 0.0 0
M  V30 23 C -6.5453 -5.21 0.0 0
M  V30 24 C -2.6467 -7.4514 0.0 0
M  V30 25 C -7.8687 -2.9448 0.0 0
M  V30 26 C -7.8568 -4.447 0.0 0
M  V30 27 C -2.6586 -8.9417 0.0 0
M  V30 28 C -9.1801 -2.1817 0.0 0
M  V30 29 C -1.371 -9.6809 0.0 0
M  V30 30 C -3.9701 -9.6809 0.0 0
M  V30 END ATOM
M  V30 BEGIN BOND
M  V30 1 2 1 2
M  V30 2 2 1 3
M  V30 3 1 1 4
M  V30 4 1 1 5
M  V30 5 2 4 6
M  V30 6 2 5 7
M  V30 7 1 5 8
M  V30 8 1 6 9
M  V30 9 1 6 10
M  V30 10 1 7 11
M  V30 11 2 8 12
M  V30 12 1 10 13
M  V30 13 2 10 14
M  V30 14 2 11 15
M  V30 15 2 13 16
M  V30 16 1 13 17
M  V30 17 1 14 18
M  V30 18 1 14 19
M  V30 19 1 17 20
M  V30 20 1 17 21
M  V30 21 1 19 22
M  V30 22 1 20 23
M  V30 23 1 21 24
M  V30 24 2 22 25
M  V30 25 2 23 26
M  V30 26 1 24 27
M  V30 27 1 25 28
M  V30 28 1 27 29
M  V30 29 1 27 30
M  V30 30 1 7 9
M  V30 31 1 12 15
M  V30 32 2 19 20
M  V30 33 1 25 26
M  V30 END BOND
M  V30 END CTAB
M  END
>  <MolRegNo>
338063

>  <m>
=

>  <Value>
0.34

>  <Unit>
L.kg-1

>  <Type>
Vdss

>  <pValue>
0

>  <Ligand Efficiency>
0

>  <Binding Efficiency>
0

>  <Surface Efficiency>
0

>  <Assay Index>
256598

>  <Assay Category>


>  <Assay Organism>
Macaca fascicularis

>  <Target ID>
100710

>  <Target Name>
Cynomolgus monkey

>  <Target Organism>
Macaca fascicularis

>  <Target Description>
Target is a complete organism

>  <Sequence Accession>


>  <Reference>
J. Med. Chem. 49 (3), 971-983 (2006)

>  <Pubmed ID>
16451063

>  <DOI>
10.1021/jm050855s

$$$$
338168
Actelion Java MolfileCreator 2.0

  0  0  0  0  0  0              0 V3000
M  V30 BEGIN CTAB
M  V30 COUNTS 30 34 0 0 0
M  V30 BEGIN ATOM
M  V30 1 S 0.0 0.0 0.0 0
M  V30 2 O 0.6988 1.3385 0.0 0
M  V30 3 O -0.7225 1.3385 0.0 0
M  V30 4 N -1.3148 -0.7343 0.0 0
M  V30 5 C 1.2911 -0.7343 0.0 0
M  V30 6 C -1.3266 -2.2268 0.0 0
M  V30 7 C 1.2792 -2.2268 0.0 0
M  V30 8 C 2.5822 0.0236 0.0 0
M  V30 9 N -0.0355 -2.9612 0.0 0
M  V30 10 C -2.6414 -2.9612 0.0 0
M  V30 11 C 2.5703 -2.9612 0.0 0
M  V30 12 C 3.8733 -0.7107 0.0 0
M  V30 13 C -2.6533 -4.4537 0.0 0
M  V30 14 C -3.9562 -2.2031 0.0 0
M  V30 15 C 3.8615 -2.2031 0.0 0
M  V30 16 O -1.3621 -5.1881 0.0 0
M  V30 17 N -3.9681 -5.1881 0.0 0
M  V30 18 O -3.9681 -0.687 0.0 0
M  V30 19 C -5.271 -2.9375 0.0 0
M  V30 20 C -5.2829 -4.43 0.0 0
M  V30 21 C -3.9799 -6.6806 0.0 0
M  V30 22 C -6.5859 -2.1795 0.0 0
M  V30 23 C -6.5977 -5.1644 0.0 0
M  V30 24 C -2.6888 -7.415 0.0 0
M  V30 25 C -7.9007 -2.9139 0.0 0
M  V30 26 C -7.9125 -4.4063 0.0 0
M  V30 27 C -2.7006 -8.9075 0.0 0
M  V30 28 F -9.2155 -2.1558 0.0 0
M  V30 29 C -1.9662 -10.1986 0.0 0
M  V30 30 C -3.4587 -10.1986 0.0 0
M  V30 END ATOM
M  V30 BEGIN BOND
M  V30 1 2 1 2
M  V30 2 2 1 3
M  V30 3 1 1 4
M  V30 4 1 1 5
M  V30 5 1 4 6
M  V30 6 2 5 7
M  V30 7 1 5 8
M  V30 8 2 6 9
M  V30 9 1 6 10
M  V30 10 1 7 11
M  V30 11 2 8 12
M  V30 12 1 10 13
M  V30 13 2 10 14
M  V30 14 2 11 15
M  V30 15 2 13 16
M  V30 16 1 13 17
M  V30 17 1 14 18
M  V30 18 1 14 19
M  V30 19 1 17 20
M  V30 20 1 17 21
M  V30 21 1 19 22
M  V30 22 1 20 23
M  V30 23 1 21 24
M  V30 24 2 22 25
M  V30 25 2 23 26
M  V30 26 1 24 27
M  V30 27 1 25 28
M  V30 28 1 27 29
M  V30 29 1 27 30
M  V30 30 1 7 9
M  V30 31 1 12 15
M  V30 32 2 19 20
M  V30 33 1 25 26
M  V30 34 1 29 30
M  V30 END BOND
M  V30 END CTAB
M  END
>  <MolRegNo>
338168

>  <m>
=

>  <Value>
4.141

>  <Unit>
ug.mL-1

>  <Type>
Cmax

>  <pValue>
0

>  <Ligand Efficiency>
0

>  <Binding Efficiency>
0

>  <Surface Efficiency>
0

>  <Assay Index>
256555

>  <Assay Category>


>  <Assay Organism>
Rattus norvegicus

>  <Target ID>
50597

>  <Target Name>
Rattus norvegicus

>  <Target Organism>
Rattus norvegicus

>  <Target Description>
Target is a complete organism

>  <Sequence Accession>


>  <Reference>
J. Med. Chem. 49 (3), 971-983 (2006)

>  <Pubmed ID>
16451063

>  <DOI>
10.1021/jm050855s

$$$$
338168
Actelion Java MolfileCreator 2.0

  0  0  0  0  0  0              0 V3000
M  V30 BEGIN CTAB
M  V30 COUNTS 30 34 0 0 0
M  V30 BEGIN ATOM
M  V30 1 S 0.0 0.0 0.0 0
M  V30 2 O 0.6988 1.3385 0.0 0
M  V30 3 O -0.7225 1.3385 0.0 0
M  V30 4 N -1.3148 -0.7343 0.0 0
M  V30 5 C 1.2911 -0.7343 0.0 0
M  V30 6 C -1.3266 -2.2268 0.0 0
M  V30 7 C 1.2792 -2.2268 0.0 0
M  V30 8 C 2.5822 0.0236 0.0 0
M  V30 9 N -0.0355 -2.9612 0.0 0
M  V30 10 C -2.6414 -2.9612 0.0 0
M  V30 11 C 2.5703 -2.9612 0.0 0
M  V30 12 C 3.8733 -0.7107 0.0 0
M  V30 13 C -2.6533 -4.4537 0.0 0
M  V30 14 C -3.9562 -2.2031 0.0 0
M  V30 15 C 3.8615 -2.2031 0.0 0
M  V30 16 O -1.3621 -5.1881 0.0 0
M  V30 17 N -3.9681 -5.1881 0.0 0
M  V30 18 O -3.9681 -0.687 0.0 0
M  V30 19 C -5.271 -2.9375 0.0 0
M  V30 20 C -5.2829 -4.43 0.0 0
M  V30 21 C -3.9799 -6.6806 0.0 0
M  V30 22 C -6.5859 -2.1795 0.0 0
M  V30 23 C -6.5977 -5.1644 0.0 0
M  V30 24 C -2.6888 -7.415 0.0 0
M  V30 25 C -7.9007 -2.9139 0.0 0
M  V30 26 C -7.9125 -4.4063 0.0 0
M  V30 27 C -2.7006 -8.9075 0.0 0
M  V30 28 F -9.2155 -2.1558 0.0 0
M  V30 29 C -1.9662 -10.1986 0.0 0
M  V30 30 C -3.4587 -10.1986 0.0 0
M  V30 END ATOM
M  V30 BEGIN BOND
M  V30 1 2 1 2
M  V30 2 2 1 3
M  V30 3 1 1 4
M  V30 4 1 1 5
M  V30 5 1 4 6
M  V30 6 2 5 7
M  V30 7 1 5 8
M  V30 8 2 6 9
M  V30 9 1 6 10
M  V30 10 1 7 11
M  V30 11 2 8 12
M  V30 12 1 10 13
M  V30 13 2 10 14
M  V30 14 2 11 15
M  V30 15 2 13 16
M  V30 16 1 13 17
M  V30 17 1 14 18
M  V30 18 1 14 19
M  V30 19 1 17 20
M  V30 20 1 17 21
M  V30 21 1 19 22
M  V30 22 1 20 23
M  V30 23 1 21 24
M  V30 24 2 22 25
M  V30 25 2 23 26
M  V30 26 1 24 27
M  V30 27 1 25 28
M  V30 28 1 27 29
M  V30 29 1 27 30
M  V30 30 1 7 9
M  V30 31 1 12 15
M  V30 32 2 19 20
M  V30 33 1 25 26
M  V30 34 1 29 30
M  V30 END BOND
M  V30 END CTAB
M  END
>  <MolRegNo>
338168

>  <m>
=

>  <Value>
4.455

>  <Unit>
ug.mL-1

>  <Type>
Cmax

>  <pValue>
0

>  <Ligand Efficiency>
0

>  <Binding Efficiency>
0

>  <Surface Efficiency>
0

>  <Assay Index>
256556

>  <Assay Category>


>  <Assay Organism>
Canis lupus familiaris

>  <Target ID>
50588

>  <Target Name>
Canis familiaris

>  <Target Organism>
Canis lupus familiaris

>  <Target Description>
Target is a complete organism

>  <Sequence Accession>


>  <Reference>
J. Med. Chem. 49 (3), 971-983 (2006)

>  <Pubmed ID>
16451063

>  <DOI>
10.1021/jm050855s

$$$$
338168
Actelion Java MolfileCreator 2.0

  0  0  0  0  0  0              0 V3000
M  V30 BEGIN CTAB
M  V30 COUNTS 30 34 0 0 0
M  V30 BEGIN ATOM
M  V30 1 S 0.0 0.0 0.0 0
M  V30 2 O 0.6988 1.3385 0.0 0
M  V30 3 O -0.7225 1.3385 0.0 0
M  V30 4 N -1.3148 -0.7343 0.0 0
M  V30 5 C 1.2911 -0.7343 0.0 0
M  V30 6 C -1.3266 -2.2268 0.0 0
M  V30 7 C 1.2792 -2.2268 0.0 0
M  V30 8 C 2.5822 0.0236 0.0 0
M  V30 9 N -0.0355 -2.9612 0.0 0
M  V30 10 C -2.6414 -2.9612 0.0 0
M  V30 11 C 2.5703 -2.9612 0.0 0
M  V30 12 C 3.8733 -0.7107 0.0 0
M  V30 13 C -2.6533 -4.4537 0.0 0
M  V30 14 C -3.9562 -2.2031 0.0 0
M  V30 15 C 3.8615 -2.2031 0.0 0
M  V30 16 O -1.3621 -5.1881 0.0 0
M  V30 17 N -3.9681 -5.1881 0.0 0
M  V30 18 O -3.9681 -0.687 0.0 0
M  V30 19 C -5.271 -2.9375 0.0 0
M  V30 20 C -5.2829 -4.43 0.0 0
M  V30 21 C -3.9799 -6.6806 0.0 0
M  V30 22 C -6.5859 -2.1795 0.0 0
M  V30 23 C -6.5977 -5.1644 0.0 0
M  V30 24 C -2.6888 -7.415 0.0 0
M  V30 25 C -7.9007 -2.9139 0.0 0
M  V30 26 C -7.9125 -4.4063 0.0 0
M  V30 27 C -2.7006 -8.9075 0.0 0
M  V30 28 F -9.2155 -2.1558 0.0 0
M  V30 29 C -1.9662 -10.1986 0.0 0
M  V30 30 C -3.4587 -10.1986 0.0 0
M  V30 END ATOM
M  V30 BEGIN BOND
M  V30 1 2 1 2
M  V30 2 2 1 3
M  V30 3 1 1 4
M  V30 4 1 1 5
M  V30 5 1 4 6
M  V30 6 2 5 7
M  V30 7 1 5 8
M  V30 8 2 6 9
M  V30 9 1 6 10
M  V30 10 1 7 11
M  V30 11 2 8 12
M  V30 12 1 10 13
M  V30 13 2 10 14
M  V30 14 2 11 15
M  V30 15 2 13 16
M  V30 16 1 13 17
M  V30 17 1 14 18
M  V30 18 1 14 19
M  V30 19 1 17 20
M  V30 20 1 17 21
M  V30 21 1 19 22
M  V30 22 1 20 23
M  V30 23 1 21 24
M  V30 24 2 22 25
M  V30 25 2 23 26
M  V30 26 1 24 27
M  V30 27 1 25 28
M  V30 28 1 27 29
M  V30 29 1 27 30
M  V30 30 1 7 9
M  V30 31 1 12 15
M  V30 32 2 19 20
M  V30 33 1 25 26
M  V30 34 1 29 30
M  V30 END BOND
M  V30 END CTAB
M  END
>  <MolRegNo>
338168

>  <m>
=

>  <Value>
5.437

>  <Unit>
ug.mL-1

>  <Type>
Cmax

>  <pValue>
0

>  <Ligand Efficiency>
0

>  <Binding Efficiency>
0

>  <Surface Efficiency>
0

>  <Assay Index>
256557

>  <Assay Category>


>  <Assay Organism>
Macaca fascicularis

>  <Target ID>
100710

>  <Target Name>
Cynomolgus monkey

>  <Target Organism>
Macaca fascicularis

>  <Target Description>
Target is a complete organism

>  <Sequence Accession>


>  <Reference>
J. Med. Chem. 49 (3), 971-983 (2006)

>  <Pubmed ID>
16451063

>  <DOI>
10.1021/jm050855s

$$$$
338168
Actelion Java MolfileCreator 2.0

  0  0  0  0  0  0              0 V3000
M  V30 BEGIN CTAB
M  V30 COUNTS 30 34 0 0 0
M  V30 BEGIN ATOM
M  V30 1 S 0.0 0.0 0.0 0
M  V30 2 O 0.6988 1.3385 0.0 0
M  V30 3 O -0.7225 1.3385 0.0 0
M  V30 4 N -1.3148 -0.7343 0.0 0
M  V30 5 C 1.2911 -0.7343 0.0 0
M  V30 6 C -1.3266 -2.2268 0.0 0
M  V30 7 C 1.2792 -2.2268 0.0 0
M  V30 8 C 2.5822 0.0236 0.0 0
M  V30 9 N -0.0355 -2.9612 0.0 0
M  V30 10 C -2.6414 -2.9612 0.0 0
M  V30 11 C 2.5703 -2.9612 0.0 0
M  V30 12 C 3.8733 -0.7107 0.0 0
M  V30 13 C -2.6533 -4.4537 0.0 0
M  V30 14 C -3.9562 -2.2031 0.0 0
M  V30 15 C 3.8615 -2.2031 0.0 0
M  V30 16 O -1.3621 -5.1881 0.0 0
M  V30 17 N -3.9681 -5.1881 0.0 0
M  V30 18 O -3.9681 -0.687 0.0 0
M  V30 19 C -5.271 -2.9375 0.0 0
M  V30 20 C -5.2829 -4.43 0.0 0
M  V30 21 C -3.9799 -6.6806 0.0 0
M  V30 22 C -6.5859 -2.1795 0.0 0
M  V30 23 C -6.5977 -5.1644 0.0 0
M  V30 24 C -2.6888 -7.415 0.0 0
M  V30 25 C -7.9007 -2.9139 0.0 0
M  V30 26 C -7.9125 -4.4063 0.0 0
M  V30 27 C -2.7006 -8.9075 0.0 0
M  V30 28 F -9.2155 -2.1558 0.0 0
M  V30 29 C -1.9662 -10.1986 0.0 0
M  V30 30 C -3.4587 -10.1986 0.0 0
M  V30 END ATOM
M  V30 BEGIN BOND
M  V30 1 2 1 2
M  V30 2 2 1 3
M  V30 3 1 1 4
M  V30 4 1 1 5
M  V30 5 1 4 6
M  V30 6 2 5 7
M  V30 7 1 5 8
M  V30 8 2 6 9
M  V30 9 1 6 10
M  V30 10 1 7 11
M  V30 11 2 8 12
M  V30 12 1 10 13
M  V30 13 2 10 14
M  V30 14 2 11 15
M  V30 15 2 13 16
M  V30 16 1 13 17
M  V30 17 1 14 18
M  V30 18 1 14 19
M  V30 19 1 17 20
M  V30 20 1 17 21
M  V30 21 1 19 22
M  V30 22 1 20 23
M  V30 23 1 21 24
M  V30 24 2 22 25
M  V30 25 2 23 26
M  V30 26 1 24 27
M  V30 27 1 25 28
M  V30 28 1 27 29
M  V30 29 1 27 30
M  V30 30 1 7 9
M  V30 31 1 12 15
M  V30 32 2 19 20
M  V30 33 1 25 26
M  V30 34 1 29 30
M  V30 END BOND
M  V30 END CTAB
M  END
>  <MolRegNo>
338168

>  <m>
=

>  <Value>
3.037

>  <Unit>
hr

>  <Type>
T1/2

>  <pValue>
0

>  <Ligand Efficiency>
0

>  <Binding Efficiency>
0

>  <Surface Efficiency>
0

>  <Assay Index>
256566

>  <Assay Category>


>  <Assay Organism>
Rattus norvegicus

>  <Target ID>
50597

>  <Target Name>
Rattus norvegicus

>  <Target Organism>
Rattus norvegicus

>  <Target Description>
Target is a complete organism

>  <Sequence Accession>


>  <Reference>
J. Med. Chem. 49 (3), 971-983 (2006)

>  <Pubmed ID>
16451063

>  <DOI>
10.1021/jm050855s

$$$$
338168
Actelion Java MolfileCreator 2.0

  0  0  0  0  0  0              0 V3000
M  V30 BEGIN CTAB
M  V30 COUNTS 30 34 0 0 0
M  V30 BEGIN ATOM
M  V30 1 S 0.0 0.0 0.0 0
M  V30 2 O 0.6988 1.3385 0.0 0
M  V30 3 O -0.7225 1.3385 0.0 0
M  V30 4 N -1.3148 -0.7343 0.0 0
M  V30 5 C 1.2911 -0.7343 0.0 0
M  V30 6 C -1.3266 -2.2268 0.0 0
M  V30 7 C 1.2792 -2.2268 0.0 0
M  V30 8 C 2.5822 0.0236 0.0 0
M  V30 9 N -0.0355 -2.9612 0.0 0
M  V30 10 C -2.6414 -2.9612 0.0 0
M  V30 11 C 2.5703 -2.9612 0.0 0
M  V30 12 C 3.8733 -0.7107 0.0 0
M  V30 13 C -2.6533 -4.4537 0.0 0
M  V30 14 C -3.9562 -2.2031 0.0 0
M  V30 15 C 3.8615 -2.2031 0.0 0
M  V30 16 O -1.3621 -5.1881 0.0 0
M  V30 17 N -3.9681 -5.1881 0.0 0
M  V30 18 O -3.9681 -0.687 0.0 0
M  V30 19 C -5.271 -2.9375 0.0 0
M  V30 20 C -5.2829 -4.43 0.0 0
M  V30 21 C -3.9799 -6.6806 0.0 0
M  V30 22 C -6.5859 -2.1795 0.0 0
M  V30 23 C -6.5977 -5.1644 0.0 0
M  V30 24 C -2.6888 -7.415 0.0 0
M  V30 25 C -7.9007 -2.9139 0.0 0
M  V30 26 C -7.9125 -4.4063 0.0 0
M  V30 27 C -2.7006 -8.9075 0.0 0
M  V30 28 F -9.2155 -2.1558 0.0 0
M  V30 29 C -1.9662 -10.1986 0.0 0
M  V30 30 C -3.4587 -10.1986 0.0 0
M  V30 END ATOM
M  V30 BEGIN BOND
M  V30 1 2 1 2
M  V30 2 2 1 3
M  V30 3 1 1 4
M  V30 4 1 1 5
M  V30 5 1 4 6
M  V30 6 2 5 7
M  V30 7 1 5 8
M  V30 8 2 6 9
M  V30 9 1 6 10
M  V30 10 1 7 11
M  V30 11 2 8 12
M  V30 12 1 10 13
M  V30 13 2 10 14
M  V30 14 2 11 15
M  V30 15 2 13 16
M  V30 16 1 13 17
M  V30 17 1 14 18
M  V30 18 1 14 19
M  V30 19 1 17 20
M  V30 20 1 17 21
M  V30 21 1 19 22
M  V30 22 1 20 23
M  V30 23 1 21 24
M  V30 24 2 22 25
M  V30 25 2 23 26
M  V30 26 1 24 27
M  V30 27 1 25 28
M  V30 28 1 27 29
M  V30 29 1 27 30
M  V30 30 1 7 9
M  V30 31 1 12 15
M  V30 32 2 19 20
M  V30 33 1 25 26
M  V30 34 1 29 30
M  V30 END BOND
M  V30 END CTAB
M  END
>  <MolRegNo>
338168

>  <m>
=

>  <Value>
1.725

>  <Unit>
hr

>  <Type>
T1/2

>  <pValue>
0

>  <Ligand Efficiency>
0

>  <Binding Efficiency>
0

>  <Surface Efficiency>
0

>  <Assay Index>
256567

>  <Assay Category>


>  <Assay Organism>
Canis lupus familiaris

>  <Target ID>
50588

>  <Target Name>
Canis familiaris

>  <Target Organism>
Canis lupus familiaris

>  <Target Description>
Target is a complete organism

>  <Sequence Accession>


>  <Reference>
J. Med. Chem. 49 (3), 971-983 (2006)

>  <Pubmed ID>
16451063

>  <DOI>
10.1021/jm050855s

$$$$
338168
Actelion Java MolfileCreator 2.0

  0  0  0  0  0  0              0 V3000
M  V30 BEGIN CTAB
M  V30 COUNTS 30 34 0 0 0
M  V30 BEGIN ATOM
M  V30 1 S 0.0 0.0 0.0 0
M  V30 2 O 0.6988 1.3385 0.0 0
M  V30 3 O -0.7225 1.3385 0.0 0
M  V30 4 N -1.3148 -0.7343 0.0 0
M  V30 5 C 1.2911 -0.7343 0.0 0
M  V30 6 C -1.3266 -2.2268 0.0 0
M  V30 7 C 1.2792 -2.2268 0.0 0
M  V30 8 C 2.5822 0.0236 0.0 0
M  V30 9 N -0.0355 -2.9612 0.0 0
M  V30 10 C -2.6414 -2.9612 0.0 0
M  V30 11 C 2.5703 -2.9612 0.0 0
M  V30 12 C 3.8733 -0.7107 0.0 0
M  V30 13 C -2.6533 -4.4537 0.0 0
M  V30 14 C -3.9562 -2.2031 0.0 0
M  V30 15 C 3.8615 -2.2031 0.0 0
M  V30 16 O -1.3621 -5.1881 0.0 0
M  V30 17 N -3.9681 -5.1881 0.0 0
M  V30 18 O -3.9681 -0.687 0.0 0
M  V30 19 C -5.271 -2.9375 0.0 0
M  V30 20 C -5.2829 -4.43 0.0 0
M  V30 21 C -3.9799 -6.6806 0.0 0
M  V30 22 C -6.5859 -2.1795 0.0 0
M  V30 23 C -6.5977 -5.1644 0.0 0
M  V30 24 C -2.6888 -7.415 0.0 0
M  V30 25 C -7.9007 -2.9139 0.0 0
M  V30 26 C -7.9125 -4.4063 0.0 0
M  V30 27 C -2.7006 -8.9075 0.0 0
M  V30 28 F -9.2155 -2.1558 0.0 0
M  V30 29 C -1.9662 -10.1986 0.0 0
M  V30 30 C -3.4587 -10.1986 0.0 0
M  V30 END ATOM
M  V30 BEGIN BOND
M  V30 1 2 1 2
M  V30 2 2 1 3
M  V30 3 1 1 4
M  V30 4 1 1 5
M  V30 5 1 4 6
M  V30 6 2 5 7
M  V30 7 1 5 8
M  V30 8 2 6 9
M  V30 9 1 6 10
M  V30 10 1 7 11
M  V30 11 2 8 12
M  V30 12 1 10 13
M  V30 13 2 10 14
M  V30 14 2 11 15
M  V30 15 2 13 16
M  V30 16 1 13 17
M  V30 17 1 14 18
M  V30 18 1 14 19
M  V30 19 1 17 20
M  V30 20 1 17 21
M  V30 21 1 19 22
M  V30 22 1 20 23
M  V30 23 1 21 24
M  V30 24 2 22 25
M  V30 25 2 23 26
M  V30 26 1 24 27
M  V30 27 1 25 28
M  V30 28 1 27 29
M  V30 29 1 27 30
M  V30 30 1 7 9
M  V30 31 1 12 15
M  V30 32 2 19 20
M  V30 33 1 25 26
M  V30 34 1 29 30
M  V30 END BOND
M  V30 END CTAB
M  END
>  <MolRegNo>
338168

>  <m>
=

>  <Value>
1.615

>  <Unit>
hr

>  <Type>
T1/2

>  <pValue>
0

>  <Ligand Efficiency>
0

>  <Binding Efficiency>
0

>  <Surface Efficiency>
0

>  <Assay Index>
256568

>  <Assay Category>


>  <Assay Organism>
Macaca fascicularis

>  <Target ID>
100710

>  <Target Name>
Cynomolgus monkey

>  <Target Organism>
Macaca fascicularis

>  <Target Description>
Target is a complete organism

>  <Sequence Accession>


>  <Reference>
J. Med. Chem. 49 (3), 971-983 (2006)

>  <Pubmed ID>
16451063

>  <DOI>
10.1021/jm050855s

$$$$
338168
Actelion Java MolfileCreator 2.0

  0  0  0  0  0  0              0 V3000
M  V30 BEGIN CTAB
M  V30 COUNTS 30 34 0 0 0
M  V30 BEGIN ATOM
M  V30 1 S 0.0 0.0 0.0 0
M  V30 2 O 0.6988 1.3385 0.0 0
M  V30 3 O -0.7225 1.3385 0.0 0
M  V30 4 N -1.3148 -0.7343 0.0 0
M  V30 5 C 1.2911 -0.7343 0.0 0
M  V30 6 C -1.3266 -2.2268 0.0 0
M  V30 7 C 1.2792 -2.2268 0.0 0
M  V30 8 C 2.5822 0.0236 0.0 0
M  V30 9 N -0.0355 -2.9612 0.0 0
M  V30 10 C -2.6414 -2.9612 0.0 0
M  V30 11 C 2.5703 -2.9612 0.0 0
M  V30 12 C 3.8733 -0.7107 0.0 0
M  V30 13 C -2.6533 -4.4537 0.0 0
M  V30 14 C -3.9562 -2.2031 0.0 0
M  V30 15 C 3.8615 -2.2031 0.0 0
M  V30 16 O -1.3621 -5.1881 0.0 0
M  V30 17 N -3.9681 -5.1881 0.0 0
M  V30 18 O -3.9681 -0.687 0.0 0
M  V30 19 C -5.271 -2.9375 0.0 0
M  V30 20 C -5.2829 -4.43 0.0 0
M  V30 21 C -3.9799 -6.6806 0.0 0
M  V30 22 C -6.5859 -2.1795 0.0 0
M  V30 23 C -6.5977 -5.1644 0.0 0
M  V30 24 C -2.6888 -7.415 0.0 0
M  V30 25 C -7.9007 -2.9139 0.0 0
M  V30 26 C -7.9125 -4.4063 0.0 0
M  V30 27 C -2.7006 -8.9075 0.0 0
M  V30 28 F -9.2155 -2.1558 0.0 0
M  V30 29 C -1.9662 -10.1986 0.0 0
M  V30 30 C -3.4587 -10.1986 0.0 0
M  V30 END ATOM
M  V30 BEGIN BOND
M  V30 1 2 1 2
M  V30 2 2 1 3
M  V30 3 1 1 4
M  V30 4 1 1 5
M  V30 5 1 4 6
M  V30 6 2 5 7
M  V30 7 1 5 8
M  V30 8 2 6 9
M  V30 9 1 6 10
M  V30 10 1 7 11
M  V30 11 2 8 12
M  V30 12 1 10 13
M  V30 13 2 10 14
M  V30 14 2 11 15
M  V30 15 2 13 16
M  V30 16 1 13 17
M  V30 17 1 14 18
M  V30 18 1 14 19
M  V30 19 1 17 20
M  V30 20 1 17 21
M  V30 21 1 19 22
M  V30 22 1 20 23
M  V30 23 1 21 24
M  V30 24 2 22 25
M  V30 25 2 23 26
M  V30 26 1 24 27
M  V30 27 1 25 28
M  V30 28 1 27 29
M  V30 29 1 27 30
M  V30 30 1 7 9
M  V30 31 1 12 15
M  V30 32 2 19 20
M  V30 33 1 25 26
M  V30 34 1 29 30
M  V30 END BOND
M  V30 END CTAB
M  END
>  <MolRegNo>
338168

>  <m>
=

>  <Value>
1.4

>  <Unit>
mL.min-1.kg-1

>  <Type>
CL

>  <pValue>
0

>  <Ligand Efficiency>
0

>  <Binding Efficiency>
0

>  <Surface Efficiency>
0

>  <Assay Index>
256577

>  <Assay Category>


>  <Assay Organism>
Rattus norvegicus

>  <Target ID>
50597

>  <Target Name>
Rattus norvegicus

>  <Target Organism>
Rattus norvegicus

>  <Target Description>
Target is a complete organism

>  <Sequence Accession>


>  <Reference>
J. Med. Chem. 49 (3), 971-983 (2006)

>  <Pubmed ID>
16451063

>  <DOI>
10.1021/jm050855s

$$$$
338168
Actelion Java MolfileCreator 2.0

  0  0  0  0  0  0              0 V3000
M  V30 BEGIN CTAB
M  V30 COUNTS 30 34 0 0 0
M  V30 BEGIN ATOM
M  V30 1 S 0.0 0.0 0.0 0
M  V30 2 O 0.6988 1.3385 0.0 0
M  V30 3 O -0.7225 1.3385 0.0 0
M  V30 4 N -1.3148 -0.7343 0.0 0
M  V30 5 C 1.2911 -0.7343 0.0 0
M  V30 6 C -1.3266 -2.2268 0.0 0
M  V30 7 C 1.2792 -2.2268 0.0 0
M  V30 8 C 2.5822 0.0236 0.0 0
M  V30 9 N -0.0355 -2.9612 0.0 0
M  V30 10 C -2.6414 -2.9612 0.0 0
M  V30 11 C 2.5703 -2.9612 0.0 0
M  V30 12 C 3.8733 -0.7107 0.0 0
M  V30 13 C -2.6533 -4.4537 0.0 0
M  V30 14 C -3.9562 -2.2031 0.0 0
M  V30 15 C 3.8615 -2.2031 0.0 0
M  V30 16 O -1.3621 -5.1881 0.0 0
M  V30 17 N -3.9681 -5.1881 0.0 0
M  V30 18 O -3.9681 -0.687 0.0 0
M  V30 19 C -5.271 -2.9375 0.0 0
M  V30 20 C -5.2829 -4.43 0.0 0
M  V30 21 C -3.9799 -6.6806 0.0 0
M  V30 22 C -6.5859 -2.1795 0.0 0
M  V30 23 C -6.5977 -5.1644 0.0 0
M  V30 24 C -2.6888 -7.415 0.0 0
M  V30 25 C -7.9007 -2.9139 0.0 0
M  V30 26 C -7.9125 -4.4063 0.0 0
M  V30 27 C -2.7006 -8.9075 0.0 0
M  V30 28 F -9.2155 -2.1558 0.0 0
M  V30 29 C -1.9662 -10.1986 0.0 0
M  V30 30 C -3.4587 -10.1986 0.0 0
M  V30 END ATOM
M  V30 BEGIN BOND
M  V30 1 2 1 2
M  V30 2 2 1 3
M  V30 3 1 1 4
M  V30 4 1 1 5
M  V30 5 1 4 6
M  V30 6 2 5 7
M  V30 7 1 5 8
M  V30 8 2 6 9
M  V30 9 1 6 10
M  V30 10 1 7 11
M  V30 11 2 8 12
M  V30 12 1 10 13
M  V30 13 2 10 14
M  V30 14 2 11 15
M  V30 15 2 13 16
M  V30 16 1 13 17
M  V30 17 1 14 18
M  V30 18 1 14 19
M  V30 19 1 17 20
M  V30 20 1 17 21
M  V30 21 1 19 22
M  V30 22 1 20 23
M  V30 23 1 21 24
M  V30 24 2 22 25
M  V30 25 2 23 26
M  V30 26 1 24 27
M  V30 27 1 25 28
M  V30 28 1 27 29
M  V30 29 1 27 30
M  V30 30 1 7 9
M  V30 31 1 12 15
M  V30 32 2 19 20
M  V30 33 1 25 26
M  V30 34 1 29 30
M  V30 END BOND
M  V30 END CTAB
M  END
>  <MolRegNo>
338168

>  <m>
=

>  <Value>
0.86

>  <Unit>
mL.min-1.kg-1

>  <Type>
CL

>  <pValue>
0

>  <Ligand Efficiency>
0

>  <Binding Efficiency>
0

>  <Surface Efficiency>
0

>  <Assay Index>
256578

>  <Assay Category>


>  <Assay Organism>
Canis lupus familiaris

>  <Target ID>
50588

>  <Target Name>
Canis familiaris

>  <Target Organism>
Canis lupus familiaris

>  <Target Description>
Target is a complete organism

>  <Sequence Accession>


>  <Reference>
J. Med. Chem. 49 (3), 971-983 (2006)

>  <Pubmed ID>
16451063

>  <DOI>
10.1021/jm050855s

$$$$
338168
Actelion Java MolfileCreator 2.0

  0  0  0  0  0  0              0 V3000
M  V30 BEGIN CTAB
M  V30 COUNTS 30 34 0 0 0
M  V30 BEGIN ATOM
M  V30 1 S 0.0 0.0 0.0 0
M  V30 2 O 0.6988 1.3385 0.0 0
M  V30 3 O -0.7225 1.3385 0.0 0
M  V30 4 N -1.3148 -0.7343 0.0 0
M  V30 5 C 1.2911 -0.7343 0.0 0
M  V30 6 C -1.3266 -2.2268 0.0 0
M  V30 7 C 1.2792 -2.2268 0.0 0
M  V30 8 C 2.5822 0.0236 0.0 0
M  V30 9 N -0.0355 -2.9612 0.0 0
M  V30 10 C -2.6414 -2.9612 0.0 0
M  V30 11 C 2.5703 -2.9612 0.0 0
M  V30 12 C 3.8733 -0.7107 0.0 0
M  V30 13 C -2.6533 -4.4537 0.0 0
M  V30 14 C -3.9562 -2.2031 0.0 0
M  V30 15 C 3.8615 -2.2031 0.0 0
M  V30 16 O -1.3621 -5.1881 0.0 0
M  V30 17 N -3.9681 -5.1881 0.0 0
M  V30 18 O -3.9681 -0.687 0.0 0
M  V30 19 C -5.271 -2.9375 0.0 0
M  V30 20 C -5.2829 -4.43 0.0 0
M  V30 21 C -3.9799 -6.6806 0.0 0
M  V30 22 C -6.5859 -2.1795 0.0 0
M  V30 23 C -6.5977 -5.1644 0.0 0
M  V30 24 C -2.6888 -7.415 0.0 0
M  V30 25 C -7.9007 -2.9139 0.0 0
M  V30 26 C -7.9125 -4.4063 0.0 0
M  V30 27 C -2.7006 -8.9075 0.0 0
M  V30 28 F -9.2155 -2.1558 0.0 0
M  V30 29 C -1.9662 -10.1986 0.0 0
M  V30 30 C -3.4587 -10.1986 0.0 0
M  V30 END ATOM
M  V30 BEGIN BOND
M  V30 1 2 1 2
M  V30 2 2 1 3
M  V30 3 1 1 4
M  V30 4 1 1 5
M  V30 5 1 4 6
M  V30 6 2 5 7
M  V30 7 1 5 8
M  V30 8 2 6 9
M  V30 9 1 6 10
M  V30 10 1 7 11
M  V30 11 2 8 12
M  V30 12 1 10 13
M  V30 13 2 10 14
M  V30 14 2 11 15
M  V30 15 2 13 16
M  V30 16 1 13 17
M  V30 17 1 14 18
M  V30 18 1 14 19
M  V30 19 1 17 20
M  V30 20 1 17 21
M  V30 21 1 19 22
M  V30 22 1 20 23
M  V30 23 1 21 24
M  V30 24 2 22 25
M  V30 25 2 23 26
M  V30 26 1 24 27
M  V30 27 1 25 28
M  V30 28 1 27 29
M  V30 29 1 27 30
M  V30 30 1 7 9
M  V30 31 1 12 15
M  V30 32 2 19 20
M  V30 33 1 25 26
M  V30 34 1 29 30
M  V30 END BOND
M  V30 END CTAB
M  END
>  <MolRegNo>
338168

>  <m>
=

>  <Value>
0.76

>  <Unit>
mL.min-1.kg-1

>  <Type>
CL

>  <pValue>
0

>  <Ligand Efficiency>
0

>  <Binding Efficiency>
0

>  <Surface Efficiency>
0

>  <Assay Index>
256579

>  <Assay Category>


>  <Assay Organism>
Macaca fascicularis

>  <Target ID>
100710

>  <Target Name>
Cynomolgus monkey

>  <Target Organism>
Macaca fascicularis

>  <Target Description>
Target is a complete organism

>  <Sequence Accession>


>  <Reference>
J. Med. Chem. 49 (3), 971-983 (2006)

>  <Pubmed ID>
16451063

>  <DOI>
10.1021/jm050855s

$$$$
338168
Actelion Java MolfileCreator 2.0

  0  0  0  0  0  0              0 V3000
M  V30 BEGIN CTAB
M  V30 COUNTS 30 34 0 0 0
M  V30 BEGIN ATOM
M  V30 1 S 0.0 0.0 0.0 0
M  V30 2 O 0.6988 1.3385 0.0 0
M  V30 3 O -0.7225 1.3385 0.0 0
M  V30 4 N -1.3148 -0.7343 0.0 0
M  V30 5 C 1.2911 -0.7343 0.0 0
M  V30 6 C -1.3266 -2.2268 0.0 0
M  V30 7 C 1.2792 -2.2268 0.0 0
M  V30 8 C 2.5822 0.0236 0.0 0
M  V30 9 N -0.0355 -2.9612 0.0 0
M  V30 10 C -2.6414 -2.9612 0.0 0
M  V30 11 C 2.5703 -2.9612 0.0 0
M  V30 12 C 3.8733 -0.7107 0.0 0
M  V30 13 C -2.6533 -4.4537 0.0 0
M  V30 14 C -3.9562 -2.2031 0.0 0
M  V30 15 C 3.8615 -2.2031 0.0 0
M  V30 16 O -1.3621 -5.1881 0.0 0
M  V30 17 N -3.9681 -5.1881 0.0 0
M  V30 18 O -3.9681 -0.687 0.0 0
M  V30 19 C -5.271 -2.9375 0.0 0
M  V30 20 C -5.2829 -4.43 0.0 0
M  V30 21 C -3.9799 -6.6806 0.0 0
M  V30 22 C -6.5859 -2.1795 0.0 0
M  V30 23 C -6.5977 -5.1644 0.0 0
M  V30 24 C -2.6888 -7.415 0.0 0
M  V30 25 C -7.9007 -2.9139 0.0 0
M  V30 26 C -7.9125 -4.4063 0.0 0
M  V30 27 C -2.7006 -8.9075 0.0 0
M  V30 28 F -9.2155 -2.1558 0.0 0
M  V30 29 C -1.9662 -10.1986 0.0 0
M  V30 30 C -3.4587 -10.1986 0.0 0
M  V30 END ATOM
M  V30 BEGIN BOND
M  V30 1 2 1 2
M  V30 2 2 1 3
M  V30 3 1 1 4
M  V30 4 1 1 5
M  V30 5 1 4 6
M  V30 6 2 5 7
M  V30 7 1 5 8
M  V30 8 2 6 9
M  V30 9 1 6 10
M  V30 10 1 7 11
M  V30 11 2 8 12
M  V30 12 1 10 13
M  V30 13 2 10 14
M  V30 14 2 11 15
M  V30 15 2 13 16
M  V30 16 1 13 17
M  V30 17 1 14 18
M  V30 18 1 14 19
M  V30 19 1 17 20
M  V30 20 1 17 21
M  V30 21 1 19 22
M  V30 22 1 20 23
M  V30 23 1 21 24
M  V30 24 2 22 25
M  V30 25 2 23 26
M  V30 26 1 24 27
M  V30 27 1 25 28
M  V30 28 1 27 29
M  V30 29 1 27 30
M  V30 30 1 7 9
M  V30 31 1 12 15
M  V30 32 2 19 20
M  V30 33 1 25 26
M  V30 34 1 29 30
M  V30 END BOND
M  V30 END CTAB
M  END
>  <MolRegNo>
338168

>  <m>
=

>  <Value>
44

>  <Unit>
%

>  <Type>
F

>  <pValue>
0

>  <Ligand Efficiency>
0

>  <Binding Efficiency>
0

>  <Surface Efficiency>
0

>  <Assay Index>
256588

>  <Assay Category>


>  <Assay Organism>
Rattus norvegicus

>  <Target ID>
50597

>  <Target Name>
Rattus norvegicus

>  <Target Organism>
Rattus norvegicus

>  <Target Description>
Target is a complete organism

>  <Sequence Accession>


>  <Reference>
J. Med. Chem. 49 (3), 971-983 (2006)

>  <Pubmed ID>
16451063

>  <DOI>
10.1021/jm050855s

$$$$
338168
Actelion Java MolfileCreator 2.0

  0  0  0  0  0  0              0 V3000
M  V30 BEGIN CTAB
M  V30 COUNTS 30 34 0 0 0
M  V30 BEGIN ATOM
M  V30 1 S 0.0 0.0 0.0 0
M  V30 2 O 0.6988 1.3385 0.0 0
M  V30 3 O -0.7225 1.3385 0.0 0
M  V30 4 N -1.3148 -0.7343 0.0 0
M  V30 5 C 1.2911 -0.7343 0.0 0
M  V30 6 C -1.3266 -2.2268 0.0 0
M  V30 7 C 1.2792 -2.2268 0.0 0
M  V30 8 C 2.5822 0.0236 0.0 0
M  V30 9 N -0.0355 -2.9612 0.0 0
M  V30 10 C -2.6414 -2.9612 0.0 0
M  V30 11 C 2.5703 -2.9612 0.0 0
M  V30 12 C 3.8733 -0.7107 0.0 0
M  V30 13 C -2.6533 -4.4537 0.0 0
M  V30 14 C -3.9562 -2.2031 0.0 0
M  V30 15 C 3.8615 -2.2031 0.0 0
M  V30 16 O -1.3621 -5.1881 0.0 0
M  V30 17 N -3.9681 -5.1881 0.0 0
M  V30 18 O -3.9681 -0.687 0.0 0
M  V30 19 C -5.271 -2.9375 0.0 0
M  V30 20 C -5.2829 -4.43 0.0 0
M  V30 21 C -3.9799 -6.6806 0.0 0
M  V30 22 C -6.5859 -2.1795 0.0 0
M  V30 23 C -6.5977 -5.1644 0.0 0
M  V30 24 C -2.6888 -7.415 0.0 0
M  V30 25 C -7.9007 -2.9139 0.0 0
M  V30 26 C -7.9125 -4.4063 0.0 0
M  V30 27 C -2.7006 -8.9075 0.0 0
M  V30 28 F -9.2155 -2.1558 0.0 0
M  V30 29 C -1.9662 -10.1986 0.0 0
M  V30 30 C -3.4587 -10.1986 0.0 0
M  V30 END ATOM
M  V30 BEGIN BOND
M  V30 1 2 1 2
M  V30 2 2 1 3
M  V30 3 1 1 4
M  V30 4 1 1 5
M  V30 5 1 4 6
M  V30 6 2 5 7
M  V30 7 1 5 8
M  V30 8 2 6 9
M  V30 9 1 6 10
M  V30 10 1 7 11
M  V30 11 2 8 12
M  V30 12 1 10 13
M  V30 13 2 10 14
M  V30 14 2 11 15
M  V30 15 2 13 16
M  V30 16 1 13 17
M  V30 17 1 14 18
M  V30 18 1 14 19
M  V30 19 1 17 20
M  V30 20 1 17 21
M  V30 21 1 19 22
M  V30 22 1 20 23
M  V30 23 1 21 24
M  V30 24 2 22 25
M  V30 25 2 23 26
M  V30 26 1 24 27
M  V30 27 1 25 28
M  V30 28 1 27 29
M  V30 29 1 27 30
M  V30 30 1 7 9
M  V30 31 1 12 15
M  V30 32 2 19 20
M  V30 33 1 25 26
M  V30 34 1 29 30
M  V30 END BOND
M  V30 END CTAB
M  END
>  <MolRegNo>
338168

>  <m>
>

>  <Value>
35

>  <Unit>
%

>  <Type>
F

>  <pValue>
0

>  <Ligand Efficiency>
0

>  <Binding Efficiency>
0

>  <Surface Efficiency>
0

>  <Assay Index>
256589

>  <Assay Category>


>  <Assay Organism>
Canis lupus familiaris

>  <Target ID>
50588

>  <Target Name>
Canis familiaris

>  <Target Organism>
Canis lupus familiaris

>  <Target Description>
Target is a complete organism

>  <Sequence Accession>


>  <Reference>
J. Med. Chem. 49 (3), 971-983 (2006)

>  <Pubmed ID>
16451063

>  <DOI>
10.1021/jm050855s

$$$$
338168
Actelion Java MolfileCreator 2.0

  0  0  0  0  0  0              0 V3000
M  V30 BEGIN CTAB
M  V30 COUNTS 30 34 0 0 0
M  V30 BEGIN ATOM
M  V30 1 S 0.0 0.0 0.0 0
M  V30 2 O 0.6988 1.3385 0.0 0
M  V30 3 O -0.7225 1.3385 0.0 0
M  V30 4 N -1.3148 -0.7343 0.0 0
M  V30 5 C 1.2911 -0.7343 0.0 0
M  V30 6 C -1.3266 -2.2268 0.0 0
M  V30 7 C 1.2792 -2.2268 0.0 0
M  V30 8 C 2.5822 0.0236 0.0 0
M  V30 9 N -0.0355 -2.9612 0.0 0
M  V30 10 C -2.6414 -2.9612 0.0 0
M  V30 11 C 2.5703 -2.9612 0.0 0
M  V30 12 C 3.8733 -0.7107 0.0 0
M  V30 13 C -2.6533 -4.4537 0.0 0
M  V30 14 C -3.9562 -2.2031 0.0 0
M  V30 15 C 3.8615 -2.2031 0.0 0
M  V30 16 O -1.3621 -5.1881 0.0 0
M  V30 17 N -3.9681 -5.1881 0.0 0
M  V30 18 O -3.9681 -0.687 0.0 0
M  V30 19 C -5.271 -2.9375 0.0 0
M  V30 20 C -5.2829 -4.43 0.0 0
M  V30 21 C -3.9799 -6.6806 0.0 0
M  V30 22 C -6.5859 -2.1795 0.0 0
M  V30 23 C -6.5977 -5.1644 0.0 0
M  V30 24 C -2.6888 -7.415 0.0 0
M  V30 25 C -7.9007 -2.9139 0.0 0
M  V30 26 C -7.9125 -4.4063 0.0 0
M  V30 27 C -2.7006 -8.9075 0.0 0
M  V30 28 F -9.2155 -2.1558 0.0 0
M  V30 29 C -1.9662 -10.1986 0.0 0
M  V30 30 C -3.4587 -10.1986 0.0 0
M  V30 END ATOM
M  V30 BEGIN BOND
M  V30 1 2 1 2
M  V30 2 2 1 3
M  V30 3 1 1 4
M  V30 4 1 1 5
M  V30 5 1 4 6
M  V30 6 2 5 7
M  V30 7 1 5 8
M  V30 8 2 6 9
M  V30 9 1 6 10
M  V30 10 1 7 11
M  V30 11 2 8 12
M  V30 12 1 10 13
M  V30 13 2 10 14
M  V30 14 2 11 15
M  V30 15 2 13 16
M  V30 16 1 13 17
M  V30 17 1 14 18
M  V30 18 1 14 19
M  V30 19 1 17 20
M  V30 20 1 17 21
M  V30 21 1 19 22
M  V30 22 1 20 23
M  V30 23 1 21 24
M  V30 24 2 22 25
M  V30 25 2 23 26
M  V30 26 1 24 27
M  V30 27 1 25 28
M  V30 28 1 27 29
M  V30 29 1 27 30
M  V30 30 1 7 9
M  V30 31 1 12 15
M  V30 32 2 19 20
M  V30 33 1 25 26
M  V30 34 1 29 30
M  V30 END BOND
M  V30 END CTAB
M  END
>  <MolRegNo>
338168

>  <m>
>

>  <Value>
53

>  <Unit>
%

>  <Type>
F

>  <pValue>
0

>  <Ligand Efficiency>
0

>  <Binding Efficiency>
0

>  <Surface Efficiency>
0

>  <Assay Index>
256590

>  <Assay Category>


>  <Assay Organism>
Macaca fascicularis

>  <Target ID>
100710

>  <Target Name>
Cynomolgus monkey

>  <Target Organism>
Macaca fascicularis

>  <Target Description>
Target is a complete organism

>  <Sequence Accession>


>  <Reference>
J. Med. Chem. 49 (3), 971-983 (2006)

>  <Pubmed ID>
16451063

>  <DOI>
10.1021/jm050855s

$$$$
338168
Actelion Java MolfileCreator 2.0

  0  0  0  0  0  0              0 V3000
M  V30 BEGIN CTAB
M  V30 COUNTS 30 34 0 0 0
M  V30 BEGIN ATOM
M  V30 1 S 0.0 0.0 0.0 0
M  V30 2 O 0.6988 1.3385 0.0 0
M  V30 3 O -0.7225 1.3385 0.0 0
M  V30 4 N -1.3148 -0.7343 0.0 0
M  V30 5 C 1.2911 -0.7343 0.0 0
M  V30 6 C -1.3266 -2.2268 0.0 0
M  V30 7 C 1.2792 -2.2268 0.0 0
M  V30 8 C 2.5822 0.0236 0.0 0
M  V30 9 N -0.0355 -2.9612 0.0 0
M  V30 10 C -2.6414 -2.9612 0.0 0
M  V30 11 C 2.5703 -2.9612 0.0 0
M  V30 12 C 3.8733 -0.7107 0.0 0
M  V30 13 C -2.6533 -4.4537 0.0 0
M  V30 14 C -3.9562 -2.2031 0.0 0
M  V30 15 C 3.8615 -2.2031 0.0 0
M  V30 16 O -1.3621 -5.1881 0.0 0
M  V30 17 N -3.9681 -5.1881 0.0 0
M  V30 18 O -3.9681 -0.687 0.0 0
M  V30 19 C -5.271 -2.9375 0.0 0
M  V30 20 C -5.2829 -4.43 0.0 0
M  V30 21 C -3.9799 -6.6806 0.0 0
M  V30 22 C -6.5859 -2.1795 0.0 0
M  V30 23 C -6.5977 -5.1644 0.0 0
M  V30 24 C -2.6888 -7.415 0.0 0
M  V30 25 C -7.9007 -2.9139 0.0 0
M  V30 26 C -7.9125 -4.4063 0.0 0
M  V30 27 C -2.7006 -8.9075 0.0 0
M  V30 28 F -9.2155 -2.1558 0.0 0
M  V30 29 C -1.9662 -10.1986 0.0 0
M  V30 30 C -3.4587 -10.1986 0.0 0
M  V30 END ATOM
M  V30 BEGIN BOND
M  V30 1 2 1 2
M  V30 2 2 1 3
M  V30 3 1 1 4
M  V30 4 1 1 5
M  V30 5 1 4 6
M  V30 6 2 5 7
M  V30 7 1 5 8
M  V30 8 2 6 9
M  V30 9 1 6 10
M  V30 10 1 7 11
M  V30 11 2 8 12
M  V30 12 1 10 13
M  V30 13 2 10 14
M  V30 14 2 11 15
M  V30 15 2 13 16
M  V30 16 1 13 17
M  V30 17 1 14 18
M  V30 18 1 14 19
M  V30 19 1 17 20
M  V30 20 1 17 21
M  V30 21 1 19 22
M  V30 22 1 20 23
M  V30 23 1 21 24
M  V30 24 2 22 25
M  V30 25 2 23 26
M  V30 26 1 24 27
M  V30 27 1 25 28
M  V30 28 1 27 29
M  V30 29 1 27 30
M  V30 30 1 7 9
M  V30 31 1 12 15
M  V30 32 2 19 20
M  V30 33 1 25 26
M  V30 34 1 29 30
M  V30 END BOND
M  V30 END CTAB
M  END
>  <MolRegNo>
338168

>  <m>
=

>  <Value>
0.36

>  <Unit>
L.kg-1

>  <Type>
Vdss

>  <pValue>
0

>  <Ligand Efficiency>
0

>  <Binding Efficiency>
0

>  <Surface Efficiency>
0

>  <Assay Index>
256599

>  <Assay Category>


>  <Assay Organism>
Rattus norvegicus

>  <Target ID>
50597

>  <Target Name>
Rattus norvegicus

>  <Target Organism>
Rattus norvegicus

>  <Target Description>
Target is a complete organism

>  <Sequence Accession>


>  <Reference>
J. Med. Chem. 49 (3), 971-983 (2006)

>  <Pubmed ID>
16451063

>  <DOI>
10.1021/jm050855s

$$$$
338168
Actelion Java MolfileCreator 2.0

  0  0  0  0  0  0              0 V3000
M  V30 BEGIN CTAB
M  V30 COUNTS 30 34 0 0 0
M  V30 BEGIN ATOM
M  V30 1 S 0.0 0.0 0.0 0
M  V30 2 O 0.6988 1.3385 0.0 0
M  V30 3 O -0.7225 1.3385 0.0 0
M  V30 4 N -1.3148 -0.7343 0.0 0
M  V30 5 C 1.2911 -0.7343 0.0 0
M  V30 6 C -1.3266 -2.2268 0.0 0
M  V30 7 C 1.2792 -2.2268 0.0 0
M  V30 8 C 2.5822 0.0236 0.0 0
M  V30 9 N -0.0355 -2.9612 0.0 0
M  V30 10 C -2.6414 -2.9612 0.0 0
M  V30 11 C 2.5703 -2.9612 0.0 0
M  V30 12 C 3.8733 -0.7107 0.0 0
M  V30 13 C -2.6533 -4.4537 0.0 0
M  V30 14 C -3.9562 -2.2031 0.0 0
M  V30 15 C 3.8615 -2.2031 0.0 0
M  V30 16 O -1.3621 -5.1881 0.0 0
M  V30 17 N -3.9681 -5.1881 0.0 0
M  V30 18 O -3.9681 -0.687 0.0 0
M  V30 19 C -5.271 -2.9375 0.0 0
M  V30 20 C -5.2829 -4.43 0.0 0
M  V30 21 C -3.9799 -6.6806 0.0 0
M  V30 22 C -6.5859 -2.1795 0.0 0
M  V30 23 C -6.5977 -5.1644 0.0 0
M  V30 24 C -2.6888 -7.415 0.0 0
M  V30 25 C -7.9007 -2.9139 0.0 0
M  V30 26 C -7.9125 -4.4063 0.0 0
M  V30 27 C -2.7006 -8.9075 0.0 0
M  V30 28 F -9.2155 -2.1558 0.0 0
M  V30 29 C -1.9662 -10.1986 0.0 0
M  V30 30 C -3.4587 -10.1986 0.0 0
M  V30 END ATOM
M  V30 BEGIN BOND
M  V30 1 2 1 2
M  V30 2 2 1 3
M  V30 3 1 1 4
M  V30 4 1 1 5
M  V30 5 1 4 6
M  V30 6 2 5 7
M  V30 7 1 5 8
M  V30 8 2 6 9
M  V30 9 1 6 10
M  V30 10 1 7 11
M  V30 11 2 8 12
M  V30 12 1 10 13
M  V30 13 2 10 14
M  V30 14 2 11 15
M  V30 15 2 13 16
M  V30 16 1 13 17
M  V30 17 1 14 18
M  V30 18 1 14 19
M  V30 19 1 17 20
M  V30 20 1 17 21
M  V30 21 1 19 22
M  V30 22 1 20 23
M  V30 23 1 21 24
M  V30 24 2 22 25
M  V30 25 2 23 26
M  V30 26 1 24 27
M  V30 27 1 25 28
M  V30 28 1 27 29
M  V30 29 1 27 30
M  V30 30 1 7 9
M  V30 31 1 12 15
M  V30 32 2 19 20
M  V30 33 1 25 26
M  V30 34 1 29 30
M  V30 END BOND
M  V30 END CTAB
M  END
>  <MolRegNo>
338168

>  <m>
=

>  <Value>
0.15

>  <Unit>
L.kg-1

>  <Type>
Vdss

>  <pValue>
0

>  <Ligand Efficiency>
0

>  <Binding Efficiency>
0

>  <Surface Efficiency>
0

>  <Assay Index>
256600

>  <Assay Category>


>  <Assay Organism>
Canis lupus familiaris

>  <Target ID>
50588

>  <Target Name>
Canis familiaris

>  <Target Organism>
Canis lupus familiaris

>  <Target Description>
Target is a complete organism

>  <Sequence Accession>


>  <Reference>
J. Med. Chem. 49 (3), 971-983 (2006)

>  <Pubmed ID>
16451063

>  <DOI>
10.1021/jm050855s

$$$$
338168
Actelion Java MolfileCreator 2.0

  0  0  0  0  0  0              0 V3000
M  V30 BEGIN CTAB
M  V30 COUNTS 30 34 0 0 0
M  V30 BEGIN ATOM
M  V30 1 S 0.0 0.0 0.0 0
M  V30 2 O 0.6988 1.3385 0.0 0
M  V30 3 O -0.7225 1.3385 0.0 0
M  V30 4 N -1.3148 -0.7343 0.0 0
M  V30 5 C 1.2911 -0.7343 0.0 0
M  V30 6 C -1.3266 -2.2268 0.0 0
M  V30 7 C 1.2792 -2.2268 0.0 0
M  V30 8 C 2.5822 0.0236 0.0 0
M  V30 9 N -0.0355 -2.9612 0.0 0
M  V30 10 C -2.6414 -2.9612 0.0 0
M  V30 11 C 2.5703 -2.9612 0.0 0
M  V30 12 C 3.8733 -0.7107 0.0 0
M  V30 13 C -2.6533 -4.4537 0.0 0
M  V30 14 C -3.9562 -2.2031 0.0 0
M  V30 15 C 3.8615 -2.2031 0.0 0
M  V30 16 O -1.3621 -5.1881 0.0 0
M  V30 17 N -3.9681 -5.1881 0.0 0
M  V30 18 O -3.9681 -0.687 0.0 0
M  V30 19 C -5.271 -2.9375 0.0 0
M  V30 20 C -5.2829 -4.43 0.0 0
M  V30 21 C -3.9799 -6.6806 0.0 0
M  V30 22 C -6.5859 -2.1795 0.0 0
M  V30 23 C -6.5977 -5.1644 0.0 0
M  V30 24 C -2.6888 -7.415 0.0 0
M  V30 25 C -7.9007 -2.9139 0.0 0
M  V30 26 C -7.9125 -4.4063 0.0 0
M  V30 27 C -2.7006 -8.9075 0.0 0
M  V30 28 F -9.2155 -2.1558 0.0 0
M  V30 29 C -1.9662 -10.1986 0.0 0
M  V30 30 C -3.4587 -10.1986 0.0 0
M  V30 END ATOM
M  V30 BEGIN BOND
M  V30 1 2 1 2
M  V30 2 2 1 3
M  V30 3 1 1 4
M  V30 4 1 1 5
M  V30 5 1 4 6
M  V30 6 2 5 7
M  V30 7 1 5 8
M  V30 8 2 6 9
M  V30 9 1 6 10
M  V30 10 1 7 11
M  V30 11 2 8 12
M  V30 12 1 10 13
M  V30 13 2 10 14
M  V30 14 2 11 15
M  V30 15 2 13 16
M  V30 16 1 13 17
M  V30 17 1 14 18
M  V30 18 1 14 19
M  V30 19 1 17 20
M  V30 20 1 17 21
M  V30 21 1 19 22
M  V30 22 1 20 23
M  V30 23 1 21 24
M  V30 24 2 22 25
M  V30 25 2 23 26
M  V30 26 1 24 27
M  V30 27 1 25 28
M  V30 28 1 27 29
M  V30 29 1 27 30
M  V30 30 1 7 9
M  V30 31 1 12 15
M  V30 32 2 19 20
M  V30 33 1 25 26
M  V30 34 1 29 30
M  V30 END BOND
M  V30 END CTAB
M  END
>  <MolRegNo>
338168

>  <m>
=

>  <Value>
0.11

>  <Unit>
L.kg-1

>  <Type>
Vdss

>  <pValue>
0

>  <Ligand Efficiency>
0

>  <Binding Efficiency>
0

>  <Surface Efficiency>
0

>  <Assay Index>
256601

>  <Assay Category>


>  <Assay Organism>
Macaca fascicularis

>  <Target ID>
100710

>  <Target Name>
Cynomolgus monkey

>  <Target Organism>
Macaca fascicularis

>  <Target Description>
Target is a complete organism

>  <Sequence Accession>


>  <Reference>
J. Med. Chem. 49 (3), 971-983 (2006)

>  <Pubmed ID>
16451063

>  <DOI>
10.1021/jm050855s

$$$$
338168
Actelion Java MolfileCreator 2.0

  0  0  0  0  0  0              0 V3000
M  V30 BEGIN CTAB
M  V30 COUNTS 30 34 0 0 0
M  V30 BEGIN ATOM
M  V30 1 S 0.0 0.0 0.0 0
M  V30 2 O 0.6988 1.3385 0.0 0
M  V30 3 O -0.7225 1.3385 0.0 0
M  V30 4 N -1.3148 -0.7343 0.0 0
M  V30 5 C 1.2911 -0.7343 0.0 0
M  V30 6 C -1.3266 -2.2268 0.0 0
M  V30 7 C 1.2792 -2.2268 0.0 0
M  V30 8 C 2.5822 0.0236 0.0 0
M  V30 9 N -0.0355 -2.9612 0.0 0
M  V30 10 C -2.6414 -2.9612 0.0 0
M  V30 11 C 2.5703 -2.9612 0.0 0
M  V30 12 C 3.8733 -0.7107 0.0 0
M  V30 13 C -2.6533 -4.4537 0.0 0
M  V30 14 C -3.9562 -2.2031 0.0 0
M  V30 15 C 3.8615 -2.2031 0.0 0
M  V30 16 O -1.3621 -5.1881 0.0 0
M  V30 17 N -3.9681 -5.1881 0.0 0
M  V30 18 O -3.9681 -0.687 0.0 0
M  V30 19 C -5.271 -2.9375 0.0 0
M  V30 20 C -5.2829 -4.43 0.0 0
M  V30 21 C -3.9799 -6.6806 0.0 0
M  V30 22 C -6.5859 -2.1795 0.0 0
M  V30 23 C -6.5977 -5.1644 0.0 0
M  V30 24 C -2.6888 -7.415 0.0 0
M  V30 25 C -7.9007 -2.9139 0.0 0
M  V30 26 C -7.9125 -4.4063 0.0 0
M  V30 27 C -2.7006 -8.9075 0.0 0
M  V30 28 F -9.2155 -2.1558 0.0 0
M  V30 29 C -1.9662 -10.1986 0.0 0
M  V30 30 C -3.4587 -10.1986 0.0 0
M  V30 END ATOM
M  V30 BEGIN BOND
M  V30 1 2 1 2
M  V30 2 2 1 3
M  V30 3 1 1 4
M  V30 4 1 1 5
M  V30 5 1 4 6
M  V30 6 2 5 7
M  V30 7 1 5 8
M  V30 8 2 6 9
M  V30 9 1 6 10
M  V30 10 1 7 11
M  V30 11 2 8 12
M  V30 12 1 10 13
M  V30 13 2 10 14
M  V30 14 2 11 15
M  V30 15 2 13 16
M  V30 16 1 13 17
M  V30 17 1 14 18
M  V30 18 1 14 19
M  V30 19 1 17 20
M  V30 20 1 17 21
M  V30 21 1 19 22
M  V30 22 1 20 23
M  V30 23 1 21 24
M  V30 24 2 22 25
M  V30 25 2 23 26
M  V30 26 1 24 27
M  V30 27 1 25 28
M  V30 28 1 27 29
M  V30 29 1 27 30
M  V30 30 1 7 9
M  V30 31 1 12 15
M  V30 32 2 19 20
M  V30 33 1 25 26
M  V30 34 1 29 30
M  V30 END BOND
M  V30 END CTAB
M  END
>  <MolRegNo>
338168

>  <m>
=

>  <Value>
13000

>  <Unit>
nM

>  <Type>
EC50

>  <pValue>
4.89

>  <Ligand Efficiency>
0

>  <Binding Efficiency>
0

>  <Surface Efficiency>
0

>  <Assay Index>
256603

>  <Assay Category>


>  <Assay Organism>
Hepatitis C virus subtype 1b

>  <Target ID>
50643

>  <Target Name>
Hepatitis C virus

>  <Target Organism>
Hepatitis C virus

>  <Target Description>
Target is a complete organism

>  <Sequence Accession>


>  <Reference>
J. Med. Chem. 49 (3), 971-983 (2006)

>  <Pubmed ID>
16451063

>  <DOI>
10.1021/jm050855s

$$$$
338168
Actelion Java MolfileCreator 2.0

  0  0  0  0  0  0              0 V3000
M  V30 BEGIN CTAB
M  V30 COUNTS 30 34 0 0 0
M  V30 BEGIN ATOM
M  V30 1 S 0.0 0.0 0.0 0
M  V30 2 O 0.6988 1.3385 0.0 0
M  V30 3 O -0.7225 1.3385 0.0 0
M  V30 4 N -1.3148 -0.7343 0.0 0
M  V30 5 C 1.2911 -0.7343 0.0 0
M  V30 6 C -1.3266 -2.2268 0.0 0
M  V30 7 C 1.2792 -2.2268 0.0 0
M  V30 8 C 2.5822 0.0236 0.0 0
M  V30 9 N -0.0355 -2.9612 0.0 0
M  V30 10 C -2.6414 -2.9612 0.0 0
M  V30 11 C 2.5703 -2.9612 0.0 0
M  V30 12 C 3.8733 -0.7107 0.0 0
M  V30 13 C -2.6533 -4.4537 0.0 0
M  V30 14 C -3.9562 -2.2031 0.0 0
M  V30 15 C 3.8615 -2.2031 0.0 0
M  V30 16 O -1.3621 -5.1881 0.0 0
M  V30 17 N -3.9681 -5.1881 0.0 0
M  V30 18 O -3.9681 -0.687 0.0 0
M  V30 19 C -5.271 -2.9375 0.0 0
M  V30 20 C -5.2829 -4.43 0.0 0
M  V30 21 C -3.9799 -6.6806 0.0 0
M  V30 22 C -6.5859 -2.1795 0.0 0
M  V30 23 C -6.5977 -5.1644 0.0 0
M  V30 24 C -2.6888 -7.415 0.0 0
M  V30 25 C -7.9007 -2.9139 0.0 0
M  V30 26 C -7.9125 -4.4063 0.0 0
M  V30 27 C -2.7006 -8.9075 0.0 0
M  V30 28 F -9.2155 -2.1558 0.0 0
M  V30 29 C -1.9662 -10.1986 0.0 0
M  V30 30 C -3.4587 -10.1986 0.0 0
M  V30 END ATOM
M  V30 BEGIN BOND
M  V30 1 2 1 2
M  V30 2 2 1 3
M  V30 3 1 1 4
M  V30 4 1 1 5
M  V30 5 1 4 6
M  V30 6 2 5 7
M  V30 7 1 5 8
M  V30 8 2 6 9
M  V30 9 1 6 10
M  V30 10 1 7 11
M  V30 11 2 8 12
M  V30 12 1 10 13
M  V30 13 2 10 14
M  V30 14 2 11 15
M  V30 15 2 13 16
M  V30 16 1 13 17
M  V30 17 1 14 18
M  V30 18 1 14 19
M  V30 19 1 17 20
M  V30 20 1 17 21
M  V30 21 1 19 22
M  V30 22 1 20 23
M  V30 23 1 21 24
M  V30 24 2 22 25
M  V30 25 2 23 26
M  V30 26 1 24 27
M  V30 27 1 25 28
M  V30 28 1 27 29
M  V30 29 1 27 30
M  V30 30 1 7 9
M  V30 31 1 12 15
M  V30 32 2 19 20
M  V30 33 1 25 26
M  V30 34 1 29 30
M  V30 END BOND
M  V30 END CTAB
M  END
>  <MolRegNo>
338168

>  <m>
=

>  <Value>
180

>  <Unit>
nM

>  <Type>
EC50

>  <pValue>
6.75

>  <Ligand Efficiency>
0

>  <Binding Efficiency>
0

>  <Surface Efficiency>
0

>  <Assay Index>
256604

>  <Assay Category>


>  <Assay Organism>
Hepatitis C virus subtype 1b

>  <Target ID>
50643

>  <Target Name>
Hepatitis C virus

>  <Target Organism>
Hepatitis C virus

>  <Target Description>
Target is a complete organism

>  <Sequence Accession>


>  <Reference>
J. Med. Chem. 49 (3), 971-983 (2006)

>  <Pubmed ID>
16451063

>  <DOI>
10.1021/jm050855s

$$$$
338168
Actelion Java MolfileCreator 2.0

  0  0  0  0  0  0              0 V3000
M  V30 BEGIN CTAB
M  V30 COUNTS 30 34 0 0 0
M  V30 BEGIN ATOM
M  V30 1 S 0.0 0.0 0.0 0
M  V30 2 O 0.6988 1.3385 0.0 0
M  V30 3 O -0.7225 1.3385 0.0 0
M  V30 4 N -1.3148 -0.7343 0.0 0
M  V30 5 C 1.2911 -0.7343 0.0 0
M  V30 6 C -1.3266 -2.2268 0.0 0
M  V30 7 C 1.2792 -2.2268 0.0 0
M  V30 8 C 2.5822 0.0236 0.0 0
M  V30 9 N -0.0355 -2.9612 0.0 0
M  V30 10 C -2.6414 -2.9612 0.0 0
M  V30 11 C 2.5703 -2.9612 0.0 0
M  V30 12 C 3.8733 -0.7107 0.0 0
M  V30 13 C -2.6533 -4.4537 0.0 0
M  V30 14 C -3.9562 -2.2031 0.0 0
M  V30 15 C 3.8615 -2.2031 0.0 0
M  V30 16 O -1.3621 -5.1881 0.0 0
M  V30 17 N -3.9681 -5.1881 0.0 0
M  V30 18 O -3.9681 -0.687 0.0 0
M  V30 19 C -5.271 -2.9375 0.0 0
M  V30 20 C -5.2829 -4.43 0.0 0
M  V30 21 C -3.9799 -6.6806 0.0 0
M  V30 22 C -6.5859 -2.1795 0.0 0
M  V30 23 C -6.5977 -5.1644 0.0 0
M  V30 24 C -2.6888 -7.415 0.0 0
M  V30 25 C -7.9007 -2.9139 0.0 0
M  V30 26 C -7.9125 -4.4063 0.0 0
M  V30 27 C -2.7006 -8.9075 0.0 0
M  V30 28 F -9.2155 -2.1558 0.0 0
M  V30 29 C -1.9662 -10.1986 0.0 0
M  V30 30 C -3.4587 -10.1986 0.0 0
M  V30 END ATOM
M  V30 BEGIN BOND
M  V30 1 2 1 2
M  V30 2 2 1 3
M  V30 3 1 1 4
M  V30 4 1 1 5
M  V30 5 1 4 6
M  V30 6 2 5 7
M  V30 7 1 5 8
M  V30 8 2 6 9
M  V30 9 1 6 10
M  V30 10 1 7 11
M  V30 11 2 8 12
M  V30 12 1 10 13
M  V30 13 2 10 14
M  V30 14 2 11 15
M  V30 15 2 13 16
M  V30 16 1 13 17
M  V30 17 1 14 18
M  V30 18 1 14 19
M  V30 19 1 17 20
M  V30 20 1 17 21
M  V30 21 1 19 22
M  V30 22 1 20 23
M  V30 23 1 21 24
M  V30 24 2 22 25
M  V30 25 2 23 26
M  V30 26 1 24 27
M  V30 27 1 25 28
M  V30 28 1 27 29
M  V30 29 1 27 30
M  V30 30 1 7 9
M  V30 31 1 12 15
M  V30 32 2 19 20
M  V30 33 1 25 26
M  V30 34 1 29 30
M  V30 END BOND
M  V30 END CTAB
M  END
>  <MolRegNo>
338168

>  <m>
>

>  <Value>
20000

>  <Unit>
nM

>  <Type>
EC50

>  <pValue>
0

>  <Ligand Efficiency>
0

>  <Binding Efficiency>
0

>  <Surface Efficiency>
0

>  <Assay Index>
256605

>  <Assay Category>


>  <Assay Organism>
Hepatitis C virus subtype 1b

>  <Target ID>
50643

>  <Target Name>
Hepatitis C virus

>  <Target Organism>
Hepatitis C virus

>  <Target Description>
Target is a complete organism

>  <Sequence Accession>


>  <Reference>
J. Med. Chem. 49 (3), 971-983 (2006)

>  <Pubmed ID>
16451063

>  <DOI>
10.1021/jm050855s

$$$$
338168
Actelion Java MolfileCreator 2.0

  0  0  0  0  0  0              0 V3000
M  V30 BEGIN CTAB
M  V30 COUNTS 30 34 0 0 0
M  V30 BEGIN ATOM
M  V30 1 S 0.0 0.0 0.0 0
M  V30 2 O 0.6988 1.3385 0.0 0
M  V30 3 O -0.7225 1.3385 0.0 0
M  V30 4 N -1.3148 -0.7343 0.0 0
M  V30 5 C 1.2911 -0.7343 0.0 0
M  V30 6 C -1.3266 -2.2268 0.0 0
M  V30 7 C 1.2792 -2.2268 0.0 0
M  V30 8 C 2.5822 0.0236 0.0 0
M  V30 9 N -0.0355 -2.9612 0.0 0
M  V30 10 C -2.6414 -2.9612 0.0 0
M  V30 11 C 2.5703 -2.9612 0.0 0
M  V30 12 C 3.8733 -0.7107 0.0 0
M  V30 13 C -2.6533 -4.4537 0.0 0
M  V30 14 C -3.9562 -2.2031 0.0 0
M  V30 15 C 3.8615 -2.2031 0.0 0
M  V30 16 O -1.3621 -5.1881 0.0 0
M  V30 17 N -3.9681 -5.1881 0.0 0
M  V30 18 O -3.9681 -0.687 0.0 0
M  V30 19 C -5.271 -2.9375 0.0 0
M  V30 20 C -5.2829 -4.43 0.0 0
M  V30 21 C -3.9799 -6.6806 0.0 0
M  V30 22 C -6.5859 -2.1795 0.0 0
M  V30 23 C -6.5977 -5.1644 0.0 0
M  V30 24 C -2.6888 -7.415 0.0 0
M  V30 25 C -7.9007 -2.9139 0.0 0
M  V30 26 C -7.9125 -4.4063 0.0 0
M  V30 27 C -2.7006 -8.9075 0.0 0
M  V30 28 F -9.2155 -2.1558 0.0 0
M  V30 29 C -1.9662 -10.1986 0.0 0
M  V30 30 C -3.4587 -10.1986 0.0 0
M  V30 END ATOM
M  V30 BEGIN BOND
M  V30 1 2 1 2
M  V30 2 2 1 3
M  V30 3 1 1 4
M  V30 4 1 1 5
M  V30 5 1 4 6
M  V30 6 2 5 7
M  V30 7 1 5 8
M  V30 8 2 6 9
M  V30 9 1 6 10
M  V30 10 1 7 11
M  V30 11 2 8 12
M  V30 12 1 10 13
M  V30 13 2 10 14
M  V30 14 2 11 15
M  V30 15 2 13 16
M  V30 16 1 13 17
M  V30 17 1 14 18
M  V30 18 1 14 19
M  V30 19 1 17 20
M  V30 20 1 17 21
M  V30 21 1 19 22
M  V30 22 1 20 23
M  V30 23 1 21 24
M  V30 24 2 22 25
M  V30 25 2 23 26
M  V30 26 1 24 27
M  V30 27 1 25 28
M  V30 28 1 27 29
M  V30 29 1 27 30
M  V30 30 1 7 9
M  V30 31 1 12 15
M  V30 32 2 19 20
M  V30 33 1 25 26
M  V30 34 1 29 30
M  V30 END BOND
M  V30 END CTAB
M  END
>  <MolRegNo>
338168

>  <m>
=

>  <Value>
38

>  <Unit>
nM

>  <Type>
EC50

>  <pValue>
7.42

>  <Ligand Efficiency>
0

>  <Binding Efficiency>
0

>  <Surface Efficiency>
0

>  <Assay Index>
256602

>  <Assay Category>


>  <Assay Organism>
Hepatitis C virus subtype 1b

>  <Target ID>
50643

>  <Target Name>
Hepatitis C virus

>  <Target Organism>
Hepatitis C virus

>  <Target Description>
Target is a complete organism

>  <Sequence Accession>


>  <Reference>
J. Med. Chem. 49 (3), 971-983 (2006)

>  <Pubmed ID>
16451063

>  <DOI>
10.1021/jm050855s

$$$$
338168
Actelion Java MolfileCreator 2.0

  0  0  0  0  0  0              0 V3000
M  V30 BEGIN CTAB
M  V30 COUNTS 30 34 0 0 0
M  V30 BEGIN ATOM
M  V30 1 S 0.0 0.0 0.0 0
M  V30 2 O 0.6988 1.3385 0.0 0
M  V30 3 O -0.7225 1.3385 0.0 0
M  V30 4 N -1.3148 -0.7343 0.0 0
M  V30 5 C 1.2911 -0.7343 0.0 0
M  V30 6 C -1.3266 -2.2268 0.0 0
M  V30 7 C 1.2792 -2.2268 0.0 0
M  V30 8 C 2.5822 0.0236 0.0 0
M  V30 9 N -0.0355 -2.9612 0.0 0
M  V30 10 C -2.6414 -2.9612 0.0 0
M  V30 11 C 2.5703 -2.9612 0.0 0
M  V30 12 C 3.8733 -0.7107 0.0 0
M  V30 13 C -2.6533 -4.4537 0.0 0
M  V30 14 C -3.9562 -2.2031 0.0 0
M  V30 15 C 3.8615 -2.2031 0.0 0
M  V30 16 O -1.3621 -5.1881 0.0 0
M  V30 17 N -3.9681 -5.1881 0.0 0
M  V30 18 O -3.9681 -0.687 0.0 0
M  V30 19 C -5.271 -2.9375 0.0 0
M  V30 20 C -5.2829 -4.43 0.0 0
M  V30 21 C -3.9799 -6.6806 0.0 0
M  V30 22 C -6.5859 -2.1795 0.0 0
M  V30 23 C -6.5977 -5.1644 0.0 0
M  V30 24 C -2.6888 -7.415 0.0 0
M  V30 25 C -7.9007 -2.9139 0.0 0
M  V30 26 C -7.9125 -4.4063 0.0 0
M  V30 27 C -2.7006 -8.9075 0.0 0
M  V30 28 F -9.2155 -2.1558 0.0 0
M  V30 29 C -1.9662 -10.1986 0.0 0
M  V30 30 C -3.4587 -10.1986 0.0 0
M  V30 END ATOM
M  V30 BEGIN BOND
M  V30 1 2 1 2
M  V30 2 2 1 3
M  V30 3 1 1 4
M  V30 4 1 1 5
M  V30 5 1 4 6
M  V30 6 2 5 7
M  V30 7 1 5 8
M  V30 8 2 6 9
M  V30 9 1 6 10
M  V30 10 1 7 11
M  V30 11 2 8 12
M  V30 12 1 10 13
M  V30 13 2 10 14
M  V30 14 2 11 15
M  V30 15 2 13 16
M  V30 16 1 13 17
M  V30 17 1 14 18
M  V30 18 1 14 19
M  V30 19 1 17 20
M  V30 20 1 17 21
M  V30 21 1 19 22
M  V30 22 1 20 23
M  V30 23 1 21 24
M  V30 24 2 22 25
M  V30 25 2 23 26
M  V30 26 1 24 27
M  V30 27 1 25 28
M  V30 28 1 27 29
M  V30 29 1 27 30
M  V30 30 1 7 9
M  V30 31 1 12 15
M  V30 32 2 19 20
M  V30 33 1 25 26
M  V30 34 1 29 30
M  V30 END BOND
M  V30 END CTAB
M  END
>  <MolRegNo>
338168

>  <m>
=

>  <Value>
1000

>  <Unit>
nM

>  <Type>
IC50

>  <pValue>
6

>  <Ligand Efficiency>
0

>  <Binding Efficiency>
0

>  <Surface Efficiency>
0

>  <Assay Index>
256606

>  <Assay Category>


>  <Assay Organism>
Homo sapiens

>  <Target ID>
12911

>  <Target Name>
Cytochrome P450 2C9

>  <Target Organism>
Homo sapiens

>  <Target Description>
Target is a single protein chain

>  <Sequence Accession>
P11712

>  <Reference>
J. Med. Chem. 49 (3), 971-983 (2006)

>  <Pubmed ID>
16451063

>  <DOI>
10.1021/jm050855s

$$$$
338168
Actelion Java MolfileCreator 2.0

  0  0  0  0  0  0              0 V3000
M  V30 BEGIN CTAB
M  V30 COUNTS 30 34 0 0 0
M  V30 BEGIN ATOM
M  V30 1 S 0.0 0.0 0.0 0
M  V30 2 O 0.6988 1.3385 0.0 0
M  V30 3 O -0.7225 1.3385 0.0 0
M  V30 4 N -1.3148 -0.7343 0.0 0
M  V30 5 C 1.2911 -0.7343 0.0 0
M  V30 6 C -1.3266 -2.2268 0.0 0
M  V30 7 C 1.2792 -2.2268 0.0 0
M  V30 8 C 2.5822 0.0236 0.0 0
M  V30 9 N -0.0355 -2.9612 0.0 0
M  V30 10 C -2.6414 -2.9612 0.0 0
M  V30 11 C 2.5703 -2.9612 0.0 0
M  V30 12 C 3.8733 -0.7107 0.0 0
M  V30 13 C -2.6533 -4.4537 0.0 0
M  V30 14 C -3.9562 -2.2031 0.0 0
M  V30 15 C 3.8615 -2.2031 0.0 0
M  V30 16 O -1.3621 -5.1881 0.0 0
M  V30 17 N -3.9681 -5.1881 0.0 0
M  V30 18 O -3.9681 -0.687 0.0 0
M  V30 19 C -5.271 -2.9375 0.0 0
M  V30 20 C -5.2829 -4.43 0.0 0
M  V30 21 C -3.9799 -6.6806 0.0 0
M  V30 22 C -6.5859 -2.1795 0.0 0
M  V30 23 C -6.5977 -5.1644 0.0 0
M  V30 24 C -2.6888 -7.415 0.0 0
M  V30 25 C -7.9007 -2.9139 0.0 0
M  V30 26 C -7.9125 -4.4063 0.0 0
M  V30 27 C -2.7006 -8.9075 0.0 0
M  V30 28 F -9.2155 -2.1558 0.0 0
M  V30 29 C -1.9662 -10.1986 0.0 0
M  V30 30 C -3.4587 -10.1986 0.0 0
M  V30 END ATOM
M  V30 BEGIN BOND
M  V30 1 2 1 2
M  V30 2 2 1 3
M  V30 3 1 1 4
M  V30 4 1 1 5
M  V30 5 1 4 6
M  V30 6 2 5 7
M  V30 7 1 5 8
M  V30 8 2 6 9
M  V30 9 1 6 10
M  V30 10 1 7 11
M  V30 11 2 8 12
M  V30 12 1 10 13
M  V30 13 2 10 14
M  V30 14 2 11 15
M  V30 15 2 13 16
M  V30 16 1 13 17
M  V30 17 1 14 18
M  V30 18 1 14 19
M  V30 19 1 17 20
M  V30 20 1 17 21
M  V30 21 1 19 22
M  V30 22 1 20 23
M  V30 23 1 21 24
M  V30 24 2 22 25
M  V30 25 2 23 26
M  V30 26 1 24 27
M  V30 27 1 25 28
M  V30 28 1 27 29
M  V30 29 1 27 30
M  V30 30 1 7 9
M  V30 31 1 12 15
M  V30 32 2 19 20
M  V30 33 1 25 26
M  V30 34 1 29 30
M  V30 END BOND
M  V30 END CTAB
M  END
>  <MolRegNo>
338168

>  <m>


>  <Value>
0

>  <Unit>


>  <Type>
Activity

>  <pValue>
0

>  <Ligand Efficiency>
0

>  <Binding Efficiency>
0

>  <Surface Efficiency>
0

>  <Assay Index>
256607

>  <Assay Category>


>  <Assay Organism>
Homo sapiens

>  <Target ID>
17045

>  <Target Name>
Cytochrome P450 3A4

>  <Target Organism>
Homo sapiens

>  <Target Description>
Target is a single protein chain

>  <Sequence Accession>
P08684

>  <Reference>
J. Med. Chem. 49 (3), 971-983 (2006)

>  <Pubmed ID>
16451063

>  <DOI>
10.1021/jm050855s

$$$$
338168
Actelion Java MolfileCreator 2.0

  0  0  0  0  0  0              0 V3000
M  V30 BEGIN CTAB
M  V30 COUNTS 30 34 0 0 0
M  V30 BEGIN ATOM
M  V30 1 S 0.0 0.0 0.0 0
M  V30 2 O 0.6988 1.3385 0.0 0
M  V30 3 O -0.7225 1.3385 0.0 0
M  V30 4 N -1.3148 -0.7343 0.0 0
M  V30 5 C 1.2911 -0.7343 0.0 0
M  V30 6 C -1.3266 -2.2268 0.0 0
M  V30 7 C 1.2792 -2.2268 0.0 0
M  V30 8 C 2.5822 0.0236 0.0 0
M  V30 9 N -0.0355 -2.9612 0.0 0
M  V30 10 C -2.6414 -2.9612 0.0 0
M  V30 11 C 2.5703 -2.9612 0.0 0
M  V30 12 C 3.8733 -0.7107 0.0 0
M  V30 13 C -2.6533 -4.4537 0.0 0
M  V30 14 C -3.9562 -2.2031 0.0 0
M  V30 15 C 3.8615 -2.2031 0.0 0
M  V30 16 O -1.3621 -5.1881 0.0 0
M  V30 17 N -3.9681 -5.1881 0.0 0
M  V30 18 O -3.9681 -0.687 0.0 0
M  V30 19 C -5.271 -2.9375 0.0 0
M  V30 20 C -5.2829 -4.43 0.0 0
M  V30 21 C -3.9799 -6.6806 0.0 0
M  V30 22 C -6.5859 -2.1795 0.0 0
M  V30 23 C -6.5977 -5.1644 0.0 0
M  V30 24 C -2.6888 -7.415 0.0 0
M  V30 25 C -7.9007 -2.9139 0.0 0
M  V30 26 C -7.9125 -4.4063 0.0 0
M  V30 27 C -2.7006 -8.9075 0.0 0
M  V30 28 F -9.2155 -2.1558 0.0 0
M  V30 29 C -1.9662 -10.1986 0.0 0
M  V30 30 C -3.4587 -10.1986 0.0 0
M  V30 END ATOM
M  V30 BEGIN BOND
M  V30 1 2 1 2
M  V30 2 2 1 3
M  V30 3 1 1 4
M  V30 4 1 1 5
M  V30 5 1 4 6
M  V30 6 2 5 7
M  V30 7 1 5 8
M  V30 8 2 6 9
M  V30 9 1 6 10
M  V30 10 1 7 11
M  V30 11 2 8 12
M  V30 12 1 10 13
M  V30 13 2 10 14
M  V30 14 2 11 15
M  V30 15 2 13 16
M  V30 16 1 13 17
M  V30 17 1 14 18
M  V30 18 1 14 19
M  V30 19 1 17 20
M  V30 20 1 17 21
M  V30 21 1 19 22
M  V30 22 1 20 23
M  V30 23 1 21 24
M  V30 24 2 22 25
M  V30 25 2 23 26
M  V30 26 1 24 27
M  V30 27 1 25 28
M  V30 28 1 27 29
M  V30 29 1 27 30
M  V30 30 1 7 9
M  V30 31 1 12 15
M  V30 32 2 19 20
M  V30 33 1 25 26
M  V30 34 1 29 30
M  V30 END BOND
M  V30 END CTAB
M  END
>  <MolRegNo>
338168

>  <m>
=

>  <Value>
5300

>  <Unit>
nM

>  <Type>
EC50

>  <pValue>
5.28

>  <Ligand Efficiency>
0.24

>  <Binding Efficiency>
12.34

>  <Surface Efficiency>
5.24

>  <Assay Index>
256608

>  <Assay Category>


>  <Assay Organism>
Homo sapiens

>  <Target ID>
11912

>  <Target Name>
Pregnane X receptor

>  <Target Organism>
Homo sapiens

>  <Target Description>
Target is a single protein chain

>  <Sequence Accession>
O75469

>  <Reference>
J. Med. Chem. 49 (3), 971-983 (2006)

>  <Pubmed ID>
16451063

>  <DOI>
10.1021/jm050855s

$$$$
