10209030
  -OEChem-09172222043D

 68 73  0     0  0  0  0  0  0999 V2000
    6.9704   -4.3502   -2.0333 F   0  0  0  0  0  0  0  0  0  0  0  0
    6.7069    4.2141    1.7546 F   0  0  0  0  0  0  0  0  0  0  0  0
    2.9545   -0.7612    1.2157 O   0  0  0  0  0  0  0  0  0  0  0  0
   -8.3837   -2.4861    1.4855 O   0  0  0  0  0  0  0  0  0  0  0  0
   -9.4655   -0.9317    0.2284 O   0  0  0  0  0  0  0  0  0  0  0  0
   -3.2276    0.3722   -0.1972 N   0  0  0  0  0  0  0  0  0  0  0  0
   -3.4503   -1.4044    1.1153 N   0  0  0  0  0  0  0  0  0  0  0  0
   -2.5868    1.4597   -0.9483 C   0  0  0  0  0  0  0  0  0  0  0  0
   -2.9961    2.8477   -0.4277 C   0  0  0  0  0  0  0  0  0  0  0  0
   -2.8144    1.3345   -2.4640 C   0  0  0  0  0  0  0  0  0  0  0  0
   -2.2937    3.9610   -1.2028 C   0  0  0  0  0  0  0  0  0  0  0  0
   -2.1132    2.4577   -3.2256 C   0  0  0  0  0  0  0  0  0  0  0  0
   -2.5238    3.8330   -2.7061 C   0  0  0  0  0  0  0  0  0  0  0  0
   -4.5746    0.1312   -0.1382 C   0  0  0  0  0  0  0  0  0  0  0  0
   -2.5977   -0.5688    0.5658 C   0  0  0  0  0  0  0  0  0  0  0  0
   -4.6886   -0.9836    0.6878 C   0  0  0  0  0  0  0  0  0  0  0  0
   -1.1624   -0.6183    0.7336 C   0  0  0  0  0  0  0  0  0  0  0  0
   -5.6707    0.7711   -0.7178 C   0  0  0  0  0  0  0  0  0  0  0  0
   -5.9643   -1.5042    0.9635 C   0  0  0  0  0  0  0  0  0  0  0  0
   -6.9329    0.2395   -0.4329 C   0  0  0  0  0  0  0  0  0  0  0  0
   -7.0794   -0.8779    0.3926 C   0  0  0  0  0  0  0  0  0  0  0  0
   -0.5611    0.0810    1.7778 C   0  0  0  0  0  0  0  0  0  0  0  0
   -0.3857   -1.3652   -0.1495 C   0  0  0  0  0  0  0  0  0  0  0  0
    0.8235    0.0330    1.9397 C   0  0  0  0  0  0  0  0  0  0  0  0
    0.9988   -1.4131    0.0124 C   0  0  0  0  0  0  0  0  0  0  0  0
    1.6035   -0.7141    1.0571 C   0  0  0  0  0  0  0  0  0  0  0  0
   -8.4099   -1.3978    0.6686 C   0  0  0  0  0  0  0  0  0  0  0  0
    3.7524   -0.2838    0.1335 C   0  0  0  0  0  0  0  0  0  0  0  0
    4.6205   -1.3807   -0.4519 C   0  0  0  0  0  0  0  0  0  0  0  0
    4.5487    0.9286    0.5696 C   0  0  0  0  0  0  0  0  0  0  0  0
    4.9557   -1.3305   -1.7920 C   0  0  0  0  0  0  0  0  0  0  0  0
    4.8728    1.8950   -0.3653 C   0  0  0  0  0  0  0  0  0  0  0  0
    5.0547   -2.4036    0.3702 C   0  0  0  0  0  0  0  0  0  0  0  0
    4.9333    1.0406    1.8936 C   0  0  0  0  0  0  0  0  0  0  0  0
    5.7542   -2.3400   -2.3296 C   0  0  0  0  0  0  0  0  0  0  0  0
    5.6062    3.0111    0.0372 C   0  0  0  0  0  0  0  0  0  0  0  0
    5.8533   -3.4131   -0.1673 C   0  0  0  0  0  0  0  0  0  0  0  0
    5.6668    2.1566    2.2961 C   0  0  0  0  0  0  0  0  0  0  0  0
    6.2029   -3.3814   -1.5173 C   0  0  0  0  0  0  0  0  0  0  0  0
    6.0033    3.1419    1.3680 C   0  0  0  0  0  0  0  0  0  0  0  0
   -1.5070    1.3682   -0.7844 H   0  0  0  0  0  0  0  0  0  0  0  0
   -4.0760    3.0061   -0.4994 H   0  0  0  0  0  0  0  0  0  0  0  0
   -2.7439    2.9335    0.6367 H   0  0  0  0  0  0  0  0  0  0  0  0
   -2.4356    0.3671   -2.8169 H   0  0  0  0  0  0  0  0  0  0  0  0
   -3.8778    1.3573   -2.7190 H   0  0  0  0  0  0  0  0  0  0  0  0
   -1.2172    3.9271   -0.9943 H   0  0  0  0  0  0  0  0  0  0  0  0
   -2.6546    4.9358   -0.8558 H   0  0  0  0  0  0  0  0  0  0  0  0
   -1.0267    2.3407   -3.1288 H   0  0  0  0  0  0  0  0  0  0  0  0
   -2.3478    2.3813   -4.2934 H   0  0  0  0  0  0  0  0  0  0  0  0
   -1.9572    4.6093   -3.2325 H   0  0  0  0  0  0  0  0  0  0  0  0
   -3.5843    4.0046   -2.9283 H   0  0  0  0  0  0  0  0  0  0  0  0
   -5.5830    1.6384   -1.3592 H   0  0  0  0  0  0  0  0  0  0  0  0
   -6.0402   -2.3724    1.6092 H   0  0  0  0  0  0  0  0  0  0  0  0
   -7.8036    0.7218   -0.8724 H   0  0  0  0  0  0  0  0  0  0  0  0
   -1.1558    0.6685    2.4730 H   0  0  0  0  0  0  0  0  0  0  0  0
   -0.8431   -1.9165   -0.9675 H   0  0  0  0  0  0  0  0  0  0  0  0
    1.2894    0.5802    2.7546 H   0  0  0  0  0  0  0  0  0  0  0  0
    1.5905   -2.0086   -0.6773 H   0  0  0  0  0  0  0  0  0  0  0  0
    3.0813    0.0627   -0.6680 H   0  0  0  0  0  0  0  0  0  0  0  0
   -9.2850   -2.8295    1.6651 H   0  0  0  0  0  0  0  0  0  0  0  0
    4.6086   -0.5285   -2.4364 H   0  0  0  0  0  0  0  0  0  0  0  0
    4.5659    1.8085   -1.4033 H   0  0  0  0  0  0  0  0  0  0  0  0
    4.8026   -2.4425    1.4255 H   0  0  0  0  0  0  0  0  0  0  0  0
    4.6939    0.2814    2.6320 H   0  0  0  0  0  0  0  0  0  0  0  0
    6.0257   -2.3162   -3.3808 H   0  0  0  0  0  0  0  0  0  0  0  0
    5.8673    3.7792   -0.6849 H   0  0  0  0  0  0  0  0  0  0  0  0
    6.2049   -4.2229    0.4653 H   0  0  0  0  0  0  0  0  0  0  0  0
    5.9782    2.2578    3.3316 H   0  0  0  0  0  0  0  0  0  0  0  0
  1 39  1  0  0  0  0
  2 40  1  0  0  0  0
  3 26  1  0  0  0  0
  3 28  1  0  0  0  0
  4 27  1  0  0  0  0
  4 60  1  0  0  0  0
  5 27  2  0  0  0  0
  6  8  1  0  0  0  0
  6 14  1  0  0  0  0
  6 15  1  0  0  0  0
  7 15  2  0  0  0  0
  7 16  1  0  0  0  0
  8  9  1  0  0  0  0
  8 10  1  0  0  0  0
  8 41  1  0  0  0  0
  9 11  1  0  0  0  0
  9 42  1  0  0  0  0
  9 43  1  0  0  0  0
 10 12  1  0  0  0  0
 10 44  1  0  0  0  0
 10 45  1  0  0  0  0
 11 13  1  0  0  0  0
 11 46  1  0  0  0  0
 11 47  1  0  0  0  0
 12 13  1  0  0  0  0
 12 48  1  0  0  0  0
 12 49  1  0  0  0  0
 13 50  1  0  0  0  0
 13 51  1  0  0  0  0
 14 16  2  0  0  0  0
 14 18  1  0  0  0  0
 15 17  1  0  0  0  0
 16 19  1  0  0  0  0
 17 22  2  0  0  0  0
 17 23  1  0  0  0  0
 18 20  2  0  0  0  0
 18 52  1  0  0  0  0
 19 21  2  0  0  0  0
 19 53  1  0  0  0  0
 20 21  1  0  0  0  0
 20 54  1  0  0  0  0
 21 27  1  0  0  0  0
 22 24  1  0  0  0  0
 22 55  1  0  0  0  0
 23 25  2  0  0  0  0
 23 56  1  0  0  0  0
 24 26  2  0  0  0  0
 24 57  1  0  0  0  0
 25 26  1  0  0  0  0
 25 58  1  0  0  0  0
 28 29  1  0  0  0  0
 28 30  1  0  0  0  0
 28 59  1  0  0  0  0
 29 31  2  0  0  0  0
 29 33  1  0  0  0  0
 30 32  2  0  0  0  0
 30 34  1  0  0  0  0
 31 35  1  0  0  0  0
 31 61  1  0  0  0  0
 32 36  1  0  0  0  0
 32 62  1  0  0  0  0
 33 37  2  0  0  0  0
 33 63  1  0  0  0  0
 34 38  2  0  0  0  0
 34 64  1  0  0  0  0
 35 39  2  0  0  0  0
 35 65  1  0  0  0  0
 36 40  2  0  0  0  0
 36 66  1  0  0  0  0
 37 39  1  0  0  0  0
 37 67  1  0  0  0  0
 38 40  1  0  0  0  0
 38 68  1  0  0  0  0
M  END
> <PUBCHEM_COMPOUND_CID>
10209030

> <PUBCHEM_CONFORMER_RMSD>
1

> <PUBCHEM_CONFORMER_DIVERSEORDER>
1
17
11
5
20
15
18
16
19
8
14
2
10
9
12
7
22
21
23
6
3
13
4

> <PUBCHEM_MMFF94_PARTIAL_CHARGES>
51
1 -0.19
14 -0.15
15 0.13
16 0.23
17 0.05
18 -0.15
19 -0.15
2 -0.19
20 -0.15
21 0.09
22 -0.15
23 -0.15
24 -0.15
25 -0.15
26 0.08
27 0.63
28 0.57
29 -0.14
3 -0.36
30 -0.14
31 -0.15
32 -0.15
33 -0.15
34 -0.15
35 -0.15
36 -0.15
37 -0.15
38 -0.15
39 0.19
4 -0.65
40 0.19
5 -0.57
52 0.15
53 0.15
54 0.15
55 0.15
56 0.15
57 0.15
58 0.15
6 0.05
60 0.5
61 0.15
62 0.15
63 0.15
64 0.15
65 0.15
66 0.15
67 0.15
68 0.15
7 -0.57
8 0.26

> <PUBCHEM_EFFECTIVE_ROTOR_COUNT>
8.2

> <PUBCHEM_PHARMACOPHORE_FEATURES>
11
1 3 acceptor
1 4 acceptor
1 5 acceptor
3 4 5 27 anion
3 6 7 15 cation
5 6 7 14 15 16 rings
6 14 16 18 19 20 21 rings
6 17 22 23 24 25 26 rings
6 29 31 33 35 37 39 rings
6 30 32 34 36 38 40 rings
6 8 9 10 11 12 13 rings

> <PUBCHEM_HEAVY_ATOM_COUNT>
40

> <PUBCHEM_ATOM_DEF_STEREO_COUNT>
0

> <PUBCHEM_ATOM_UDEF_STEREO_COUNT>
0

> <PUBCHEM_BOND_DEF_STEREO_COUNT>
0

> <PUBCHEM_BOND_UDEF_STEREO_COUNT>
0

> <PUBCHEM_ISOTOPIC_ATOM_COUNT>
0

> <PUBCHEM_COMPONENT_COUNT>
1

> <PUBCHEM_CACTVS_TAUTO_COUNT>
1

> <PUBCHEM_CONFORMER_ID>
009BC70600000001

> <PUBCHEM_MMFF94_ENERGY>
109.5571

> <PUBCHEM_FEATURE_SELFOVERLAP>
55.989

> <PUBCHEM_SHAPE_FINGERPRINT>
10670039 82 17459479857658549902
11135926 11 17702930548801078752
11411753 29 18339643339451484612
11607047 191 16557321952403079784
12664476 115 18408322186081830772
13673619 4 18342741784893938483
13782708 43 18342458106177479415
13811026 1 18259979384223600213
14068700 675 17240202140744409917
14118638 360 17561092418613971984
15082195 135 18115040683635000956
15131766 46 17630876308220544848
15183329 4 17241904098982608366
15198563 99 17968374542947110005
15264996 44 18114192976917325748
15336146 87 17895186650106189334
16991971 28 18041006168017625671
18393751 57 18189324822319193203
19303781 99 17630882699865065478
21779490 71 18269554016877388600
23516275 100 17896318189496432532
23522609 53 16844473637620113403
249057 25 16153984630576221352
2747138 104 18041286521648695561
3044373 193 18410298038209100670
34797466 226 18409166640422463578
4149490 64 18341328981283116858
44317340 157 18202560692102659114
46194498 28 18341613686026987918
6086070 43 18122342385757155610
9831232 110 18059300837932079998
9962374 69 18060135428009635030

> <PUBCHEM_SHAPE_MULTIPOLES>
781.06
24.04
4.77
2.41
20.13
2.64
1.15
-11.42
-2.5
-7.61
2.04
-2.37
1.12
9.19

> <PUBCHEM_SHAPE_SELFOVERLAP>
1736.793

> <PUBCHEM_SHAPE_VOLUME>
418.9

> <PUBCHEM_COORDINATE_TYPE>
2
5
10

$$$$
