REMARK  Name = 
REMARK  7 active torsions:
REMARK  status: ('A' for Active; 'I' for Inactive)
REMARK    1  A    between atoms: C_2  and  C_4
REMARK    2  A    between atoms: C_11  and  C_12
REMARK    3  A    between atoms: C_15  and  O_16
REMARK    4  A    between atoms: O_16  and  C_17
REMARK    5  A    between atoms: C_17  and  C_18
REMARK    6  A    between atoms: C_17  and  C_25
REMARK    7  A    between atoms: N_34  and  C_35
REMARK                            x       y       z     vdW  Elec       q    Type
REMARK                         _______ _______ _______ _____ _____    ______ ____
ROOT
ATOM      1  C   UNL     1       6.625  -5.293  -1.633  0.00  0.00    +0.018 A 
ATOM      2  C   UNL     1       7.709  -5.296  -2.515  0.00  0.00    +0.015 A 
ATOM      3  C   UNL     1       8.542  -6.415  -2.598  0.00  0.00    +0.046 A 
ATOM      4  C   UNL     1       8.320  -7.536  -1.792  0.00  0.00    +0.122 A 
ATOM      5  C   UNL     1       7.254  -7.523  -0.895  0.00  0.00    +0.046 A 
ATOM      6  C   UNL     1       6.418  -6.403  -0.809  0.00  0.00    +0.015 A 
ENDROOT
BRANCH   1  14
ATOM      7  C   UNL     1       3.173  -0.506  -0.609  0.00  0.00    -0.001 A 
ATOM      8  C   UNL     1       2.754  -0.711  -1.934  0.00  0.00    +0.012 A 
ATOM      9  C   UNL     1       3.246  -1.761  -2.718  0.00  0.00    +0.028 A 
ATOM     10  C   UNL     1       4.187  -2.619  -2.135  0.00  0.00    +0.069 A 
ATOM     11  C   UNL     1       4.631  -2.444  -0.826  0.00  0.00    +0.090 A 
ATOM     12  C   UNL     1       4.124  -1.385  -0.055  0.00  0.00    +0.039 A 
ATOM     13  N   UNL     1       5.551  -3.405  -0.489  0.00  0.00    -0.228 NA
ATOM     14  C   UNL     1       5.711  -4.154  -1.561  0.00  0.00    +0.142 A 
ATOM     15  N   UNL     1       4.861  -3.740  -2.576  0.00  0.00    -0.320 N 
BRANCH  15  16
ATOM     16  C   UNL     1       4.677  -4.416  -3.858  0.00  0.00    +0.089 C 
ATOM     17  C   UNL     1       3.247  -4.946  -4.062  0.00  0.00    +0.025 C 
ATOM     18  C   UNL     1       3.120  -5.697  -5.387  0.00  0.00    +0.002 C 
ATOM     19  C   UNL     1       3.584  -4.844  -6.565  0.00  0.00    +0.000 C 
ATOM     20  C   UNL     1       5.008  -4.332  -6.365  0.00  0.00    +0.002 C 
ATOM     21  C   UNL     1       5.156  -3.571  -5.048  0.00  0.00    +0.025 C 
ENDBRANCH  15  16
BRANCH   7  23
ATOM     22  O   UNL     1       1.757   1.393  -0.365  0.00  0.00    -0.545 OA
ATOM     23  C   UNL     1       2.610   0.641   0.207  0.00  0.00    +0.072 C 
ATOM     24  O   UNL     1       3.028   0.769   1.400  0.00  0.00    -0.545 OA
ENDBRANCH   7  23
ENDBRANCH   1  14
BRANCH   4  25
ATOM     25  O   UNL     1       9.179  -8.570  -2.023  0.00  0.00    -0.480 OA
BRANCH  25  26
ATOM     26  C   UNL     1       9.297  -9.695  -1.130  0.00  0.00    +0.234 C 
BRANCH  26  27
ATOM     27  C   UNL     1       9.650  -9.304   0.310  0.00  0.00    -0.003 A 
ATOM     28  C   UNL     1      10.842  -8.585   0.536  0.00  0.00    +0.010 A 
ATOM     29  C   UNL     1      11.221  -8.210   1.826  0.00  0.00    +0.039 A 
ATOM     30  C   UNL     1      10.410  -8.546   2.901  0.00  0.00    +0.123 A 
ATOM     31  F   UNL     1      10.777  -8.196   4.141  0.00  0.00    -0.205 F 
ATOM     32  C   UNL     1       9.225  -9.244   2.709  0.00  0.00    +0.039 A 
ATOM     33  C   UNL     1       8.844  -9.619   1.418  0.00  0.00    +0.010 A 
ENDBRANCH  26  27
BRANCH  26  34
ATOM     34  C   UNL     1       8.279 -10.822  -1.358  0.00  0.00    -0.003 A 
ATOM     35  C   UNL     1       8.486 -12.078  -0.749  0.00  0.00    +0.010 A 
ATOM     36  C   UNL     1       7.596 -13.135  -0.954  0.00  0.00    +0.039 A 
ATOM     37  C   UNL     1       6.499 -12.952  -1.784  0.00  0.00    +0.123 A 
ATOM     38  F   UNL     1       5.646 -13.965  -1.983  0.00  0.00    -0.205 F 
ATOM     39  C   UNL     1       6.282 -11.738  -2.419  0.00  0.00    +0.039 A 
ATOM     40  C   UNL     1       7.174 -10.681  -2.216  0.00  0.00    +0.010 A 
ENDBRANCH  26  34
ENDBRANCH  25  26
ENDBRANCH   4  25
TORSDOF 7
