
 OpenBabel09182209113D

 40 45  0  0  1  0  0  0  0  0999 V2000
    4.0750  -11.1520    2.2670 C   0  0  0  0  0  0  0  0  0  0  0  0
    2.8460  -10.4960    2.1580 C   0  0  0  0  0  3  0  0  0  0  0  0
    2.7120   -9.1810    2.6120 C   0  0  0  0  0  3  0  0  0  0  0  0
    3.7900   -8.5090    3.1960 C   0  0  0  0  0  0  0  0  0  0  0  0
    5.0090   -9.1730    3.3260 C   0  0  0  0  0  3  0  0  0  0  0  0
    5.1470  -10.4910    2.8740 C   0  0  0  0  0  3  0  0  0  0  0  0
    4.7540  -16.3980   -0.5450 C   0  0  0  0  0  0  0  0  0  0  0  0
    4.9360  -16.9010    0.7540 C   0  0  0  0  0  3  0  0  0  0  0  0
    4.8690  -16.0810    1.8870 C   0  0  0  0  0  3  0  0  0  0  0  0
    4.6110  -14.7190    1.6880 C   0  0  0  0  0  0  0  0  0  0  0  0
    4.4310  -14.1830    0.4140 C   0  0  0  0  0  0  0  0  0  0  0  0
    4.5010  -15.0220   -0.7100 C   0  0  0  0  0  3  0  0  0  0  0  0
    4.1970  -12.8330    0.4810 N   0  0  0  0  0  0  0  0  0  0  0  0
    4.2550  -12.5110    1.7570 C   0  0  0  0  0  0  0  0  0  0  0  0
    4.4570  -13.6410    2.5360 N   0  0  0  0  0  0  0  0  0  0  0  0
    4.4470  -13.6790    3.9960 C   0  0  0  0  0  3  0  0  0  0  0  0
    5.7720  -13.2100    4.6220 C   0  0  0  0  0  2  0  0  0  0  0  0
    5.7340  -13.3260    6.1460 C   0  0  0  0  0  2  0  0  0  0  0  0
    4.5340  -12.5910    6.7370 C   0  0  0  0  0  2  0  0  0  0  0  0
    3.2210  -13.0690    6.1240 C   0  0  0  0  0  2  0  0  0  0  0  0
    3.2340  -12.9550    4.6000 C   0  0  0  0  0  2  0  0  0  0  0  0
    5.9490  -17.8860   -1.9690 O   0  0  0  0  0  1  0  0  0  0  0  0
    4.8300  -17.3220   -1.7440 C   0  0  0  0  0  0  0  0  0  0  0  0
    3.7750  -17.4660   -2.4380 O   0  0  0  0  0  0  0  0  0  0  0  0
    3.5250   -7.2160    3.5390 O   0  0  0  0  0  0  0  0  0  0  0  0
    4.5190   -6.1750    3.4680 C   0  0  1  0  0  3  0  0  0  0  0  0
    5.1550   -6.0250    2.0810 C   0  0  0  0  0  0  0  0  0  0  0  0
    6.5540   -5.8620    2.0000 C   0  0  0  0  0  3  0  0  0  0  0  0
    7.1890   -5.7100    0.7660 C   0  0  0  0  0  3  0  0  0  0  0  0
    6.4330   -5.7250   -0.3980 C   0  0  0  0  0  0  0  0  0  0  0  0
    7.0390   -5.5690   -1.5820 F   0  0  0  0  0  0  0  0  0  0  0  0
    5.0550   -5.8940   -0.3510 C   0  0  0  0  0  3  0  0  0  0  0  0
    4.4190   -6.0470    0.8840 C   0  0  0  0  0  3  0  0  0  0  0  0
    4.1970   -4.9060    4.2710 C   0  0  0  0  0  0  0  0  0  0  0  0
    2.9590   -4.2590    4.0790 C   0  0  0  0  0  3  0  0  0  0  0  0
    2.6410   -3.0880    4.7730 C   0  0  0  0  0  3  0  0  0  0  0  0
    3.5660   -2.5440    5.6520 C   0  0  0  0  0  0  0  0  0  0  0  0
    3.2640   -1.4210    6.3160 F   0  0  0  0  0  0  0  0  0  0  0  0
    4.8030   -3.1420    5.8430 C   0  0  0  0  0  3  0  0  0  0  0  0
    5.1220   -4.3110    5.1480 C   0  0  0  0  0  3  0  0  0  0  0  0
  1  6  1  0  0  0  0
  2  1  2  0  0  0  0
  2  3  1  0  0  0  0
  3  4  2  0  0  0  0
  4  5  1  0  0  0  0
  4 25  1  0  0  0  0
  6  5  2  0  0  0  0
  7  8  1  0  0  0  0
  8  9  2  0  0  0  0
 10  9  1  0  0  0  0
 10 15  1  0  0  0  0
 11 13  1  0  0  0  0
 11 10  2  0  0  0  0
 12  7  2  0  0  0  0
 12 11  1  0  0  0  0
 13 14  2  0  0  0  0
 14  1  1  0  0  0  0
 14 15  1  0  0  0  0
 15 16  1  0  0  0  0
 16 21  1  0  0  0  0
 16 17  1  0  0  0  0
 17 18  1  0  0  0  0
 18 19  1  0  0  0  0
 20 19  1  0  0  0  0
 21 20  1  0  0  0  0
 22 23  1  0  0  0  0
 23  7  1  0  0  0  0
 24 23  2  0  0  0  0
 26 25  1  6  0  0  0
 26 34  1  0  0  0  0
 27 26  1  0  0  0  0
 28 27  1  0  0  0  0
 29 28  2  0  0  0  0
 30 32  2  0  0  0  0
 30 29  1  0  0  0  0
 31 30  1  0  0  0  0
 32 33  1  0  0  0  0
 33 27  2  0  0  0  0
 34 40  1  0  0  0  0
 35 34  2  0  0  0  0
 35 36  1  0  0  0  0
 36 37  2  0  0  0  0
 37 39  1  0  0  0  0
 37 38  1  0  0  0  0
 40 39  2  0  0  0  0
M  END
>  <minimizedAffinity>
-9.41825581

$$$$
