
 OpenBabel09182209113D

 40 45  0  0  1  0  0  0  0  0999 V2000
    6.3020   -6.7090    0.5070 C   0  0  0  0  0  0  0  0  0  0  0  0
    7.5450   -6.6560    1.1420 C   0  0  0  0  0  3  0  0  0  0  0  0
    8.5390   -5.7960    0.6660 C   0  0  0  0  0  3  0  0  0  0  0  0
    8.3160   -4.9940   -0.4570 C   0  0  0  0  0  0  0  0  0  0  0  0
    7.0840   -5.0650   -1.1050 C   0  0  0  0  0  3  0  0  0  0  0  0
    6.0870   -5.9260   -0.6310 C   0  0  0  0  0  3  0  0  0  0  0  0
    2.0510  -10.6770    1.9460 C   0  0  0  0  0  0  0  0  0  0  0  0
    1.9020   -9.8780    3.0910 C   0  0  0  0  0  3  0  0  0  0  0  0
    2.6730   -8.7290    3.3040 C   0  0  0  0  0  3  0  0  0  0  0  0
    3.6160   -8.3910    2.3250 C   0  0  0  0  0  0  0  0  0  0  0  0
    3.7970   -9.1630    1.1800 C   0  0  0  0  0  0  0  0  0  0  0  0
    3.0130  -10.3110    0.9840 C   0  0  0  0  0  3  0  0  0  0  0  0
    4.7780   -8.6300    0.3810 N   0  0  0  0  0  0  0  0  0  0  0  0
    5.2300   -7.5660    1.0120 C   0  0  0  0  0  0  0  0  0  0  0  0
    4.5150   -7.3530    2.1820 N   0  0  0  0  0  0  0  0  0  0  0  0
    4.6580   -6.1990    3.0660 C   0  0  0  0  0  3  0  0  0  0  0  0
    4.2780   -4.8700    2.3910 C   0  0  0  0  0  2  0  0  0  0  0  0
    4.5010   -3.6870    3.3330 C   0  0  0  0  0  2  0  0  0  0  0  0
    3.7720   -3.8790    4.6610 C   0  0  0  0  0  2  0  0  0  0  0  0
    4.1630   -5.1920    5.3340 C   0  0  0  0  0  2  0  0  0  0  0  0
    3.9410   -6.3900    4.4110 C   0  0  0  0  0  2  0  0  0  0  0  0
    0.2800  -12.1220    2.6150 O   0  0  0  0  0  1  0  0  0  0  0  0
    1.1920  -11.9110    1.7520 C   0  0  0  0  0  0  0  0  0  0  0  0
    1.4410  -12.6440    0.7450 O   0  0  0  0  0  0  0  0  0  0  0  0
    9.3550   -4.1670   -0.7690 O   0  0  0  0  0  0  0  0  0  0  0  0
    9.4990   -2.8520   -0.1980 C   0  0  1  0  0  3  0  0  0  0  0  0
    9.3880   -2.8280    1.3310 C   0  0  0  0  0  0  0  0  0  0  0  0
   10.5770   -2.7900    2.0880 C   0  0  0  0  0  3  0  0  0  0  0  0
   10.5400   -2.7780    3.4830 C   0  0  0  0  0  3  0  0  0  0  0  0
    9.3140   -2.7980    4.1340 C   0  0  0  0  0  0  0  0  0  0  0  0
    9.2760   -2.7960    5.4730 F   0  0  0  0  0  0  0  0  0  0  0  0
    8.1260   -2.8250    3.4160 C   0  0  0  0  0  3  0  0  0  0  0  0
    8.1620   -2.8360    2.0190 C   0  0  0  0  0  3  0  0  0  0  0  0
   10.5470   -1.9550   -0.8740 C   0  0  0  0  0  0  0  0  0  0  0  0
   10.3200   -0.5650   -0.9600 C   0  0  0  0  0  3  0  0  0  0  0  0
   11.2380    0.2790   -1.5900 C   0  0  0  0  0  3  0  0  0  0  0  0
   12.3840   -0.2610   -2.1560 C   0  0  0  0  0  0  0  0  0  0  0  0
   13.2630    0.5460   -2.7620 F   0  0  0  0  0  0  0  0  0  0  0  0
   12.6230   -1.6270   -2.1130 C   0  0  0  0  0  3  0  0  0  0  0  0
   11.7030   -2.4720   -1.4850 C   0  0  0  0  0  3  0  0  0  0  0  0
  1 14  1  0  0  0  0
  1  2  1  0  0  0  0
  3  2  2  0  0  0  0
  4  3  1  0  0  0  0
  5  6  1  0  0  0  0
  5  4  2  0  0  0  0
  6  1  2  0  0  0  0
  7  8  1  0  0  0  0
  8  9  2  0  0  0  0
 10  9  1  0  0  0  0
 11 10  2  0  0  0  0
 12 11  1  0  0  0  0
 12  7  2  0  0  0  0
 13 14  2  0  0  0  0
 13 11  1  0  0  0  0
 14 15  1  0  0  0  0
 15 10  1  0  0  0  0
 15 16  1  0  0  0  0
 16 21  1  0  0  0  0
 17 16  1  0  0  0  0
 17 18  1  0  0  0  0
 18 19  1  0  0  0  0
 19 20  1  0  0  0  0
 21 20  1  0  0  0  0
 23  7  1  0  0  0  0
 23 22  1  0  0  0  0
 24 23  2  0  0  0  0
 25  4  1  0  0  0  0
 26 25  1  1  0  0  0
 26 27  1  0  0  0  0
 27 33  2  0  0  0  0
 27 28  1  0  0  0  0
 28 29  2  0  0  0  0
 29 30  1  0  0  0  0
 30 31  1  0  0  0  0
 32 30  2  0  0  0  0
 33 32  1  0  0  0  0
 34 26  1  0  0  0  0
 35 34  1  0  0  0  0
 36 35  2  0  0  0  0
 37 39  2  0  0  0  0
 37 36  1  0  0  0  0
 38 37  1  0  0  0  0
 39 40  1  0  0  0  0
 40 34  2  0  0  0  0
M  END
>  <minimizedAffinity>
-10.4906445

$$$$
