
 OpenBabel09182209113D

 40 45  0  0  1  0  0  0  0  0999 V2000
    3.6610  -10.7320    1.8830 C   0  0  0  0  0  0  0  0  0  0  0  0
    2.7150   -9.7270    2.1050 C   0  0  0  0  0  3  0  0  0  0  0  0
    3.0770   -8.5620    2.7870 C   0  0  0  0  0  3  0  0  0  0  0  0
    4.3760   -8.3910    3.2740 C   0  0  0  0  0  0  0  0  0  0  0  0
    5.3120   -9.4030    3.0750 C   0  0  0  0  0  3  0  0  0  0  0  0
    4.9520  -10.5720    2.3920 C   0  0  0  0  0  3  0  0  0  0  0  0
    2.2840  -15.2150   -1.8430 C   0  0  0  0  0  0  0  0  0  0  0  0
    2.3510  -16.0020   -0.6820 C   0  0  0  0  0  3  0  0  0  0  0  0
    2.6420  -15.4560    0.5740 C   0  0  0  0  0  3  0  0  0  0  0  0
    2.8700  -14.0760    0.6430 C   0  0  0  0  0  0  0  0  0  0  0  0
    2.8180  -13.2640   -0.4880 C   0  0  0  0  0  0  0  0  0  0  0  0
    2.5230  -13.8310   -1.7390 C   0  0  0  0  0  3  0  0  0  0  0  0
    3.0800  -11.9560   -0.1640 N   0  0  0  0  0  0  0  0  0  0  0  0
    3.3200  -11.9390    1.1310 C   0  0  0  0  0  0  0  0  0  0  0  0
    3.1550  -13.2050    1.6750 N   0  0  0  0  0  0  0  0  0  0  0  0
    3.2160  -13.5330    3.0970 C   0  0  0  0  0  3  0  0  0  0  0  0
    1.8910  -14.0910    3.6460 C   0  0  0  0  0  2  0  0  0  0  0  0
    1.9850  -14.3610    5.1470 C   0  0  0  0  0  2  0  0  0  0  0  0
    3.1670  -15.2660    5.4840 C   0  0  0  0  0  2  0  0  0  0  0  0
    4.4810  -14.7010    4.9500 C   0  0  0  0  0  2  0  0  0  0  0  0
    4.4120  -14.4310    3.4480 C   0  0  0  0  0  2  0  0  0  0  0  0
    1.8540  -15.0640   -4.1810 O   0  0  0  0  0  0  0  0  0  0  0  0
    1.9600  -15.8470   -3.1830 C   0  0  0  0  0  0  0  0  0  0  0  0
    1.8190  -17.1090   -3.2140 O   0  0  0  0  0  1  0  0  0  0  0  0
    4.5960   -7.1830    3.8690 O   0  0  0  0  0  0  0  0  0  0  0  0
    4.4210   -5.9330    3.1740 C   0  0  1  0  0  3  0  0  0  0  0  0
    4.2290   -4.7310    4.1060 C   0  0  0  0  0  0  0  0  0  0  0  0
    3.0580   -3.9560    3.9690 C   0  0  0  0  0  3  0  0  0  0  0  0
    2.8330   -2.8450    4.7820 C   0  0  0  0  0  3  0  0  0  0  0  0
    3.7720   -2.5000    5.7440 C   0  0  0  0  0  0  0  0  0  0  0  0
    3.5620   -1.4280    6.5190 F   0  0  0  0  0  0  0  0  0  0  0  0
    4.9290   -3.2500    5.9110 C   0  0  0  0  0  3  0  0  0  0  0  0
    5.1560   -4.3630    5.0970 C   0  0  0  0  0  3  0  0  0  0  0  0
    5.2830   -5.7570    1.9150 C   0  0  0  0  0  0  0  0  0  0  0  0
    4.7140   -5.9940    0.6460 C   0  0  0  0  0  3  0  0  0  0  0  0
    5.4740   -5.8700   -0.5200 C   0  0  0  0  0  3  0  0  0  0  0  0
    6.8150   -5.5240   -0.4270 C   0  0  0  0  0  0  0  0  0  0  0  0
    7.5450   -5.4060   -1.5440 F   0  0  0  0  0  0  0  0  0  0  0  0
    7.4110   -5.3110    0.8070 C   0  0  0  0  0  3  0  0  0  0  0  0
    6.6510   -5.4380    1.9740 C   0  0  0  0  0  3  0  0  0  0  0  0
  1  2  2  0  0  0  0
  1  6  1  0  0  0  0
  2  3  1  0  0  0  0
  3  4  2  0  0  0  0
  4 25  1  0  0  0  0
  5  4  1  0  0  0  0
  6  5  2  0  0  0  0
  7 12  2  0  0  0  0
  7  8  1  0  0  0  0
  8  9  2  0  0  0  0
  9 10  1  0  0  0  0
 10 15  1  0  0  0  0
 11 13  1  0  0  0  0
 11 10  2  0  0  0  0
 12 11  1  0  0  0  0
 13 14  2  0  0  0  0
 14 15  1  0  0  0  0
 14  1  1  0  0  0  0
 15 16  1  0  0  0  0
 16 21  1  0  0  0  0
 16 17  1  0  0  0  0
 17 18  1  0  0  0  0
 18 19  1  0  0  0  0
 20 19  1  0  0  0  0
 21 20  1  0  0  0  0
 22 23  2  0  0  0  0
 23  7  1  0  0  0  0
 24 23  1  0  0  0  0
 26 25  1  1  0  0  0
 26 27  1  0  0  0  0
 27 33  1  0  0  0  0
 28 27  2  0  0  0  0
 28 29  1  0  0  0  0
 29 30  2  0  0  0  0
 30 32  1  0  0  0  0
 30 31  1  0  0  0  0
 33 32  2  0  0  0  0
 34 40  1  0  0  0  0
 34 26  1  0  0  0  0
 35 34  2  0  0  0  0
 36 37  2  0  0  0  0
 36 35  1  0  0  0  0
 37 39  1  0  0  0  0
 38 37  1  0  0  0  0
 39 40  2  0  0  0  0
M  END
>  <minimizedAffinity>
-9.83813572

$$$$
