
 OpenBabel09182209113D

 40 45  0  0  1  0  0  0  0  0999 V2000
    3.6830  -10.5880    1.7070 C   0  0  0  0  0  0  0  0  0  0  0  0
    4.9870  -10.3590    2.1550 C   0  0  0  0  0  3  0  0  0  0  0  0
    5.2770   -9.2240    2.9170 C   0  0  0  0  0  3  0  0  0  0  0  0
    4.2800   -8.2940    3.2270 C   0  0  0  0  0  0  0  0  0  0  0  0
    2.9850   -8.5100    2.7600 C   0  0  0  0  0  3  0  0  0  0  0  0
    2.6920   -9.6460    1.9950 C   0  0  0  0  0  3  0  0  0  0  0  0
    2.2440  -15.0380   -2.0360 C   0  0  0  0  0  0  0  0  0  0  0  0
    2.4310  -15.8500   -0.9040 C   0  0  0  0  0  3  0  0  0  0  0  0
    2.7870  -15.3220    0.3420 C   0  0  0  0  0  3  0  0  0  0  0  0
    2.9560  -13.9340    0.4330 C   0  0  0  0  0  0  0  0  0  0  0  0
    2.7850  -13.0980   -0.6680 C   0  0  0  0  0  0  0  0  0  0  0  0
    2.4260  -13.6470   -1.9100 C   0  0  0  0  0  3  0  0  0  0  0  0
    3.0110  -11.7880   -0.3270 N   0  0  0  0  0  0  0  0  0  0  0  0
    3.3440  -11.7910    0.9480 C   0  0  0  0  0  0  0  0  0  0  0  0
    3.2760  -13.0760    1.4660 N   0  0  0  0  0  0  0  0  0  0  0  0
    3.4550  -13.4360    2.8710 C   0  0  0  0  0  3  0  0  0  0  0  0
    2.1800  -14.0070    3.5150 C   0  0  0  0  0  2  0  0  0  0  0  0
    2.3990  -14.3110    4.9970 C   0  0  0  0  0  2  0  0  0  0  0  0
    3.6040  -15.2230    5.2140 C   0  0  0  0  0  2  0  0  0  0  0  0
    4.8690  -14.6450    4.5850 C   0  0  0  0  0  2  0  0  0  0  0  0
    4.6750  -14.3410    3.1000 C   0  0  0  0  0  2  0  0  0  0  0  0
    1.5240  -16.8810   -3.3610 O   0  0  0  0  0  1  0  0  0  0  0  0
    1.8520  -15.6510   -3.3660 C   0  0  0  0  0  0  0  0  0  0  0  0
    1.8790  -14.8960   -4.3870 O   0  0  0  0  0  0  0  0  0  0  0  0
    4.6990   -7.2690    4.0230 O   0  0  0  0  0  0  0  0  0  0  0  0
    4.9100   -5.9340    3.5220 C   0  0  1  0  0  3  0  0  0  0  0  0
    5.4240   -5.8920    2.0790 C   0  0  0  0  0  0  0  0  0  0  0  0
    6.8150   -5.8060    1.8650 C   0  0  0  0  0  3  0  0  0  0  0  0
    7.3420   -5.7540    0.5740 C   0  0  0  0  0  3  0  0  0  0  0  0
    6.4840   -5.7930   -0.5160 C   0  0  0  0  0  0  0  0  0  0  0  0
    6.9870   -5.7330   -1.7560 F   0  0  0  0  0  0  0  0  0  0  0  0
    5.1100   -5.8880   -0.3380 C   0  0  0  0  0  3  0  0  0  0  0  0
    4.5810   -5.9410    0.9540 C   0  0  0  0  0  3  0  0  0  0  0  0
    3.8660   -4.8970    3.9620 C   0  0  0  0  0  0  0  0  0  0  0  0
    4.0740   -3.5340    3.6650 C   0  0  0  0  0  3  0  0  0  0  0  0
    3.1600   -2.5590    4.0710 C   0  0  0  0  0  3  0  0  0  0  0  0
    2.0370   -2.9350    4.7950 C   0  0  0  0  0  0  0  0  0  0  0  0
    1.1610   -2.0010    5.1870 F   0  0  0  0  0  0  0  0  0  0  0  0
    1.8170   -4.2640    5.1270 C   0  0  0  0  0  3  0  0  0  0  0  0
    2.7330   -5.2390    4.7220 C   0  0  0  0  0  3  0  0  0  0  0  0
  1  6  2  0  0  0  0
  1  2  1  0  0  0  0
  2  3  2  0  0  0  0
  3  4  1  0  0  0  0
  4 25  1  0  0  0  0
  5  4  2  0  0  0  0
  6  5  1  0  0  0  0
  7 12  2  0  0  0  0
  7  8  1  0  0  0  0
  8  9  2  0  0  0  0
  9 10  1  0  0  0  0
 10 15  1  0  0  0  0
 11 13  1  0  0  0  0
 11 10  2  0  0  0  0
 12 11  1  0  0  0  0
 13 14  2  0  0  0  0
 14 15  1  0  0  0  0
 14  1  1  0  0  0  0
 15 16  1  0  0  0  0
 16 21  1  0  0  0  0
 16 17  1  0  0  0  0
 17 18  1  0  0  0  0
 18 19  1  0  0  0  0
 20 19  1  0  0  0  0
 21 20  1  0  0  0  0
 23 22  1  0  0  0  0
 23  7  1  0  0  0  0
 24 23  2  0  0  0  0
 26 34  1  0  0  0  0
 26 25  1  6  0  0  0
 27 26  1  0  0  0  0
 28 27  1  0  0  0  0
 29 28  2  0  0  0  0
 30 32  2  0  0  0  0
 30 29  1  0  0  0  0
 31 30  1  0  0  0  0
 32 33  1  0  0  0  0
 33 27  2  0  0  0  0
 34 40  1  0  0  0  0
 35 34  2  0  0  0  0
 35 36  1  0  0  0  0
 36 37  2  0  0  0  0
 37 39  1  0  0  0  0
 37 38  1  0  0  0  0
 40 39  2  0  0  0  0
M  END
>  <minimizedAffinity>
-9.51604271

$$$$
