
 OpenBabel09182209113D

 40 45  0  0  1  0  0  0  0  0999 V2000
    6.2420   -6.5280    0.5350 C   0  0  0  0  0  0  0  0  0  0  0  0
    6.1170   -5.8570   -0.6840 C   0  0  0  0  0  3  0  0  0  0  0  0
    7.1500   -5.0320   -1.1390 C   0  0  0  0  0  3  0  0  0  0  0  0
    8.3090   -4.8490   -0.3800 C   0  0  0  0  0  0  0  0  0  0  0  0
    8.4230   -5.4990    0.8470 C   0  0  0  0  0  3  0  0  0  0  0  0
    7.3900   -6.3260    1.3060 C   0  0  0  0  0  3  0  0  0  0  0  0
    2.1150  -10.6700    1.8380 C   0  0  0  0  0  0  0  0  0  0  0  0
    1.9430   -9.9150    3.0100 C   0  0  0  0  0  3  0  0  0  0  0  0
    2.6790   -8.7510    3.2620 C   0  0  0  0  0  3  0  0  0  0  0  0
    3.6110   -8.3510    2.2950 C   0  0  0  0  0  0  0  0  0  0  0  0
    3.8130   -9.0770    1.1240 C   0  0  0  0  0  0  0  0  0  0  0  0
    3.0640  -10.2420    0.8880 C   0  0  0  0  0  3  0  0  0  0  0  0
    4.7760   -8.4880    0.3440 N   0  0  0  0  0  0  0  0  0  0  0  0
    5.1970   -7.4330    1.0110 C   0  0  0  0  0  0  0  0  0  0  0  0
    4.4780   -7.2830    2.1880 N   0  0  0  0  0  0  0  0  0  0  0  0
    4.5870   -6.1560    3.1110 C   0  0  0  0  0  3  0  0  0  0  0  0
    4.1480   -4.8190    2.4870 C   0  0  0  0  0  2  0  0  0  0  0  0
    4.3370   -3.6630    3.4690 C   0  0  0  0  0  2  0  0  0  0  0  0
    3.6320   -3.9300    4.7960 C   0  0  0  0  0  2  0  0  0  0  0  0
    4.0810   -5.2500    5.4180 C   0  0  0  0  0  2  0  0  0  0  0  0
    3.8930   -6.4220    4.4560 C   0  0  0  0  0  2  0  0  0  0  0  0
    1.6250  -12.6530    0.6150 O   0  0  0  0  0  0  0  0  0  0  0  0
    1.2930  -11.9210    1.6020 C   0  0  0  0  0  0  0  0  0  0  0  0
    0.3340  -12.1500    2.4040 O   0  0  0  0  0  1  0  0  0  0  0  0
    9.2510   -4.0630   -0.9760 O   0  0  0  0  0  0  0  0  0  0  0  0
   10.3850   -3.5330   -0.2620 C   0  0  1  0  0  3  0  0  0  0  0  0
   11.4830   -2.9770   -1.1770 C   0  0  0  0  0  0  0  0  0  0  0  0
   12.6760   -3.7160   -1.3170 C   0  0  0  0  0  3  0  0  0  0  0  0
   13.7150   -3.2550   -2.1280 C   0  0  0  0  0  3  0  0  0  0  0  0
   13.5690   -2.0540   -2.8080 C   0  0  0  0  0  0  0  0  0  0  0  0
   14.5690   -1.6050   -3.5780 F   0  0  0  0  0  0  0  0  0  0  0  0
   12.4020   -1.3100   -2.6980 C   0  0  0  0  0  3  0  0  0  0  0  0
   11.3610   -1.7700   -1.8880 C   0  0  0  0  0  3  0  0  0  0  0  0
   10.0500   -2.7750    1.0310 C   0  0  0  0  0  0  0  0  0  0  0  0
    9.2370   -1.6240    0.9690 C   0  0  0  0  0  3  0  0  0  0  0  0
    8.9320   -0.8930    2.1200 C   0  0  0  0  0  3  0  0  0  0  0  0
    9.4510   -1.2970    3.3420 C   0  0  0  0  0  0  0  0  0  0  0  0
    9.1610   -0.5970    4.4460 F   0  0  0  0  0  0  0  0  0  0  0  0
   10.2750   -2.4090    3.4320 C   0  0  0  0  0  3  0  0  0  0  0  0
   10.5830   -3.1390    2.2800 C   0  0  0  0  0  3  0  0  0  0  0  0
  1 14  1  0  0  0  0
  1  6  1  0  0  0  0
  2  1  2  0  0  0  0
  3  2  1  0  0  0  0
  3  4  2  0  0  0  0
  4  5  1  0  0  0  0
  5  6  2  0  0  0  0
  7  8  1  0  0  0  0
  8  9  2  0  0  0  0
 10  9  1  0  0  0  0
 11 10  2  0  0  0  0
 12 11  1  0  0  0  0
 12  7  2  0  0  0  0
 13 14  2  0  0  0  0
 13 11  1  0  0  0  0
 14 15  1  0  0  0  0
 15 10  1  0  0  0  0
 15 16  1  0  0  0  0
 16 21  1  0  0  0  0
 17 16  1  0  0  0  0
 17 18  1  0  0  0  0
 18 19  1  0  0  0  0
 19 20  1  0  0  0  0
 21 20  1  0  0  0  0
 22 23  2  0  0  0  0
 23  7  1  0  0  0  0
 23 24  1  0  0  0  0
 25  4  1  0  0  0  0
 26 25  1  6  0  0  0
 26 34  1  0  0  0  0
 27 26  1  0  0  0  0
 28 27  1  0  0  0  0
 29 28  2  0  0  0  0
 30 32  2  0  0  0  0
 30 29  1  0  0  0  0
 31 30  1  0  0  0  0
 32 33  1  0  0  0  0
 33 27  2  0  0  0  0
 34 40  1  0  0  0  0
 35 34  2  0  0  0  0
 35 36  1  0  0  0  0
 36 37  2  0  0  0  0
 37 39  1  0  0  0  0
 37 38  1  0  0  0  0
 40 39  2  0  0  0  0
M  END
>  <minimizedAffinity>
-10.6550713

$$$$
