Compound 1
Actelion Java MolfileCreator 2.0

  0  0  0  0  0  0              0 V3000
M  V30 BEGIN CTAB
M  V30 COUNTS 28 30 0 0 0
M  V30 BEGIN ATOM
M  V30 1 I 12.9903 3.75 0.0 0
M  V30 2 C 12.9903 2.2499 0.0 0
M  V30 3 C 11.6913 1.4999 0.0 0
M  V30 4 C 14.2894 1.5 0.0 0
M  V30 5 O 10.3923 2.2499 0.0 0
M  V30 6 C 11.6913 0.0 0.0 0
M  V30 7 C 14.2894 0.0 0.0 0
M  V30 8 C 9.0932 1.4999 0.0 0
M  V30 9 C 12.9903 -0.75 0.0 0
M  V30 10 C 7.7942 2.2499 0.0 0
M  V30 11 C 9.0932 0.0 0.0 0
M  V30 12 C 6.4951 1.5 0.0 0
M  V30 13 C 7.7942 -0.75 0.0 0
M  V30 14 C 6.4951 0.0 0.0 0
M  V30 15 C 5.1961 -0.75 0.0 0
M  V30 16 C 3.8971 0.0 0.0 0
M  V30 17 N 3.8971 1.4999 0.0 0
M  V30 18 C 2.598 -0.75 0.0 0
M  V30 19 C 2.598 2.2499 0.0 0
M  V30 20 O 2.598 -2.25 0.0 0
M  V30 21 O 1.299 0.0 0.0 0 CHG=-1
M  V30 22 O 1.299 1.4999 0.0 0
M  V30 23 C 2.598 3.75 0.0 0
M  V30 24 C 1.299 4.4999 0.0 0
M  V30 25 C 3.8971 4.5 0.0 0
M  V30 26 C 1.299 5.9999 0.0 0
M  V30 27 C 3.8971 6.0 0.0 0
M  V30 28 C 2.598 6.7499 0.0 0
M  V30 END ATOM
M  V30 BEGIN BOND
M  V30 1 1 1 2
M  V30 2 2 2 3
M  V30 3 1 2 4
M  V30 4 1 3 5
M  V30 5 1 3 6
M  V30 6 2 4 7
M  V30 7 1 5 8
M  V30 8 2 6 9
M  V30 9 2 8 10
M  V30 10 1 8 11
M  V30 11 1 10 12
M  V30 12 2 11 13
M  V30 13 2 12 14
M  V30 14 1 14 15
M  V30 15 2 15 16
M  V30 16 1 16 17
M  V30 17 1 16 18
M  V30 18 1 17 19
M  V30 19 2 18 20
M  V30 20 1 18 21
M  V30 21 2 19 22
M  V30 22 1 19 23
M  V30 23 2 23 24
M  V30 24 1 23 25
M  V30 25 1 24 26
M  V30 26 2 25 27
M  V30 27 2 26 28
M  V30 28 1 7 9
M  V30 29 1 13 14
M  V30 30 1 27 28
M  V30 END BOND
M  V30 END CTAB
M  END
>  <smiles>
c1ccc(cc1)C(=O)N/C(=C\c2ccc(cc2)Oc3ccccc3I)/C(=O)[O-]

$$$$
Compound 2
Actelion Java MolfileCreator 2.0

  0  0  0  0  0  0              0 V3000
M  V30 BEGIN CTAB
M  V30 COUNTS 29 31 0 0 0
M  V30 BEGIN ATOM
M  V30 1 Cl 12.9903 3.75 0.0 0
M  V30 2 C 12.9903 2.2499 0.0 0
M  V30 3 C 11.6913 1.4999 0.0 0
M  V30 4 C 14.2894 1.5 0.0 0
M  V30 5 O 10.3923 2.2499 0.0 0
M  V30 6 C 11.6913 0.0 0.0 0
M  V30 7 C 14.2894 0.0 0.0 0
M  V30 8 C 9.0932 1.4999 0.0 0
M  V30 9 F 10.3923 -0.75 0.0 0
M  V30 10 C 12.9903 -0.75 0.0 0
M  V30 11 C 7.7942 2.2499 0.0 0
M  V30 12 C 9.0932 0.0 0.0 0
M  V30 13 C 6.4951 1.5 0.0 0
M  V30 14 C 7.7942 -0.75 0.0 0
M  V30 15 C 6.4951 0.0 0.0 0
M  V30 16 C 5.1961 -0.75 0.0 0
M  V30 17 C 3.8971 0.0 0.0 0
M  V30 18 N 3.8971 1.4999 0.0 0
M  V30 19 C 2.598 -0.75 0.0 0
M  V30 20 C 2.598 2.2499 0.0 0
M  V30 21 O 2.598 -2.25 0.0 0
M  V30 22 O 1.299 0.0 0.0 0 CHG=-1
M  V30 23 O 1.299 1.4999 0.0 0
M  V30 24 C 2.598 3.75 0.0 0
M  V30 25 C 1.299 4.4999 0.0 0
M  V30 26 C 3.8971 4.5 0.0 0
M  V30 27 C 1.299 5.9999 0.0 0
M  V30 28 C 3.8971 6.0 0.0 0
M  V30 29 C 2.598 6.7499 0.0 0
M  V30 END ATOM
M  V30 BEGIN BOND
M  V30 1 1 1 2
M  V30 2 2 2 3
M  V30 3 1 2 4
M  V30 4 1 3 5
M  V30 5 1 3 6
M  V30 6 2 4 7
M  V30 7 1 5 8
M  V30 8 1 6 9
M  V30 9 2 6 10
M  V30 10 2 8 11
M  V30 11 1 8 12
M  V30 12 1 11 13
M  V30 13 2 12 14
M  V30 14 2 13 15
M  V30 15 1 15 16
M  V30 16 2 16 17
M  V30 17 1 17 18
M  V30 18 1 17 19
M  V30 19 1 18 20
M  V30 20 2 19 21
M  V30 21 1 19 22
M  V30 22 2 20 23
M  V30 23 1 20 24
M  V30 24 2 24 25
M  V30 25 1 24 26
M  V30 26 1 25 27
M  V30 27 2 26 28
M  V30 28 2 27 29
M  V30 29 1 7 10
M  V30 30 1 14 15
M  V30 31 1 28 29
M  V30 END BOND
M  V30 END CTAB
M  END
>  <smiles>
c1ccc(cc1)C(=O)N/C(=C\c2ccc(cc2)Oc3c(cccc3Cl)F)/C(=O)[O-]

$$$$
Compound 3
Actelion Java MolfileCreator 2.0

  0  0  0  0  0  0              0 V3000
M  V30 BEGIN CTAB
M  V30 COUNTS 28 30 0 0 0
M  V30 BEGIN ATOM
M  V30 1 Br 12.9903 3.75 0.0 0
M  V30 2 C 12.9903 2.2499 0.0 0
M  V30 3 C 11.6913 1.4999 0.0 0
M  V30 4 C 14.2894 1.5 0.0 0
M  V30 5 O 10.3923 2.2499 0.0 0
M  V30 6 C 11.6913 0.0 0.0 0
M  V30 7 C 14.2894 0.0 0.0 0
M  V30 8 C 9.0932 1.4999 0.0 0
M  V30 9 C 12.9903 -0.75 0.0 0
M  V30 10 C 7.7942 2.2499 0.0 0
M  V30 11 C 9.0932 0.0 0.0 0
M  V30 12 C 6.4951 1.5 0.0 0
M  V30 13 C 7.7942 -0.75 0.0 0
M  V30 14 C 6.4951 0.0 0.0 0
M  V30 15 C 5.1961 -0.75 0.0 0
M  V30 16 C 3.8971 0.0 0.0 0
M  V30 17 N 3.8971 1.4999 0.0 0
M  V30 18 C 2.598 -0.75 0.0 0
M  V30 19 C 2.598 2.2499 0.0 0
M  V30 20 O 2.598 -2.25 0.0 0
M  V30 21 O 1.299 0.0 0.0 0 CHG=-1
M  V30 22 O 1.299 1.4999 0.0 0
M  V30 23 C 2.598 3.75 0.0 0
M  V30 24 C 1.299 4.4999 0.0 0
M  V30 25 C 3.8971 4.5 0.0 0
M  V30 26 C 1.299 5.9999 0.0 0
M  V30 27 C 3.8971 6.0 0.0 0
M  V30 28 C 2.598 6.7499 0.0 0
M  V30 END ATOM
M  V30 BEGIN BOND
M  V30 1 1 1 2
M  V30 2 2 2 3
M  V30 3 1 2 4
M  V30 4 1 3 5
M  V30 5 1 3 6
M  V30 6 2 4 7
M  V30 7 1 5 8
M  V30 8 2 6 9
M  V30 9 2 8 10
M  V30 10 1 8 11
M  V30 11 1 10 12
M  V30 12 2 11 13
M  V30 13 2 12 14
M  V30 14 1 14 15
M  V30 15 2 15 16
M  V30 16 1 16 17
M  V30 17 1 16 18
M  V30 18 1 17 19
M  V30 19 2 18 20
M  V30 20 1 18 21
M  V30 21 2 19 22
M  V30 22 1 19 23
M  V30 23 2 23 24
M  V30 24 1 23 25
M  V30 25 1 24 26
M  V30 26 2 25 27
M  V30 27 2 26 28
M  V30 28 1 7 9
M  V30 29 1 13 14
M  V30 30 1 27 28
M  V30 END BOND
M  V30 END CTAB
M  END
>  <smiles>
c1ccc(cc1)C(=O)N/C(=C\c2ccc(cc2)Oc3ccccc3Br)/C(=O)[O-]

$$$$
Compound 4
Actelion Java MolfileCreator 2.0

  0  0  0  0  0  0              0 V3000
M  V30 BEGIN CTAB
M  V30 COUNTS 26 28 0 0 0
M  V30 BEGIN ATOM
M  V30 1 Cl 1.4625 -4.2446 0.0 0
M  V30 2 C 2.0726 -5.6149 0.0 0
M  V30 3 C 3.5644 -5.7717 0.0 0
M  V30 4 C 1.191 -6.8285 0.0 0
M  V30 5 C 4.4461 -4.5582 0.0 0
M  V30 6 C 4.1745 -7.1421 0.0 0
M  V30 7 C 1.8011 -8.1988 0.0 0
M  V30 8 S 3.9826 -3.1316 0.0 0
M  V30 9 C 5.9461 -4.5582 0.0 0
M  V30 10 C 3.2929 -8.3556 0.0 0
M  V30 11 C 5.1961 -2.25 0.0 0
M  V30 12 C 6.4096 -3.1316 0.0 0
M  V30 13 C 5.1961 -0.75 0.0 0
M  V30 14 C 3.8971 0.0 0.0 0
M  V30 15 N 2.598 -0.75 0.0 0
M  V30 16 C 3.8971 1.5 0.0 0
M  V30 17 C 1.299 0.0 0.0 0
M  V30 18 O 5.1961 2.25 0.0 0
M  V30 19 O 2.598 2.25 0.0 0 CHG=-1
M  V30 20 O 1.299 1.5 0.0 0
M  V30 21 C 0.0 -0.75 0.0 0
M  V30 22 C -1.299 0.0 0.0 0
M  V30 23 C 0.0 -2.2499 0.0 0
M  V30 24 C -2.598 -0.7499 0.0 0
M  V30 25 C -1.299 -2.9999 0.0 0
M  V30 26 C -2.598 -2.2499 0.0 0
M  V30 END ATOM
M  V30 BEGIN BOND
M  V30 1 1 1 2
M  V30 2 2 2 3
M  V30 3 1 2 4
M  V30 4 1 3 5
M  V30 5 1 3 6
M  V30 6 2 4 7
M  V30 7 1 5 8
M  V30 8 2 5 9
M  V30 9 2 6 10
M  V30 10 1 8 11
M  V30 11 1 9 12
M  V30 12 1 11 13
M  V30 13 2 13 14
M  V30 14 1 14 15
M  V30 15 1 14 16
M  V30 16 1 15 17
M  V30 17 2 16 18
M  V30 18 1 16 19
M  V30 19 2 17 20
M  V30 20 1 17 21
M  V30 21 2 21 22
M  V30 22 1 21 23
M  V30 23 1 22 24
M  V30 24 2 23 25
M  V30 25 2 24 26
M  V30 26 1 7 10
M  V30 27 2 11 12
M  V30 28 1 25 26
M  V30 END BOND
M  V30 END CTAB
M  END
>  <smiles>
c1ccc(cc1)C(=O)N/C(=C\c2ccc(s2)c3ccccc3Cl)/C(=O)[O-]

$$$$
Compound 5
Actelion Java MolfileCreator 2.0

  0  0  0  0  0  0              0 V3000
M  V30 BEGIN CTAB
M  V30 COUNTS 29 31 0 0 0
M  V30 BEGIN ATOM
M  V30 1 Cl 12.9903 3.75 0.0 0
M  V30 2 C 12.9903 2.2499 0.0 0
M  V30 3 C 11.6913 1.4999 0.0 0
M  V30 4 C 14.2894 1.5 0.0 0
M  V30 5 O 10.3923 2.2499 0.0 0
M  V30 6 C 11.6913 0.0 0.0 0
M  V30 7 C 14.2894 0.0 0.0 0
M  V30 8 C 9.0932 1.4999 0.0 0
M  V30 9 N 10.3923 -0.75 0.0 0
M  V30 10 C 12.9903 -0.75 0.0 0
M  V30 11 C 7.7942 2.2499 0.0 0
M  V30 12 C 9.0932 0.0 0.0 0
M  V30 13 C 6.4951 1.5 0.0 0
M  V30 14 C 7.7942 -0.75 0.0 0
M  V30 15 C 6.4951 0.0 0.0 0
M  V30 16 C 5.1961 -0.75 0.0 0
M  V30 17 C 3.8971 0.0 0.0 0
M  V30 18 N 3.8971 1.4999 0.0 0
M  V30 19 C 2.598 -0.75 0.0 0
M  V30 20 C 2.598 2.2499 0.0 0
M  V30 21 O 2.598 -2.25 0.0 0
M  V30 22 O 1.299 0.0 0.0 0 CHG=-1
M  V30 23 O 1.299 1.4999 0.0 0
M  V30 24 C 2.598 3.75 0.0 0
M  V30 25 C 1.299 4.4999 0.0 0
M  V30 26 C 3.8971 4.5 0.0 0
M  V30 27 C 1.299 5.9999 0.0 0
M  V30 28 C 3.8971 6.0 0.0 0
M  V30 29 C 2.598 6.7499 0.0 0
M  V30 END ATOM
M  V30 BEGIN BOND
M  V30 1 1 1 2
M  V30 2 2 2 3
M  V30 3 1 2 4
M  V30 4 1 3 5
M  V30 5 1 3 6
M  V30 6 2 4 7
M  V30 7 1 5 8
M  V30 8 1 6 9
M  V30 9 2 6 10
M  V30 10 2 8 11
M  V30 11 1 8 12
M  V30 12 1 11 13
M  V30 13 2 12 14
M  V30 14 2 13 15
M  V30 15 1 15 16
M  V30 16 2 16 17
M  V30 17 1 17 18
M  V30 18 1 17 19
M  V30 19 1 18 20
M  V30 20 2 19 21
M  V30 21 1 19 22
M  V30 22 2 20 23
M  V30 23 1 20 24
M  V30 24 2 24 25
M  V30 25 1 24 26
M  V30 26 1 25 27
M  V30 27 2 26 28
M  V30 28 2 27 29
M  V30 29 1 7 10
M  V30 30 1 14 15
M  V30 31 1 28 29
M  V30 END BOND
M  V30 END CTAB
M  END
>  <smiles>
c1ccc(cc1)C(=O)N/C(=C\c2ccc(cc2)Oc3c(cccc3Cl)N)/C(=O)[O-]

$$$$
Compound 6
Actelion Java MolfileCreator 2.0

  0  0  0  0  0  0              0 V3000
M  V30 BEGIN CTAB
M  V30 COUNTS 28 30 0 0 0
M  V30 BEGIN ATOM
M  V30 1 Cl 12.9903 3.75 0.0 0
M  V30 2 C 12.9903 2.2499 0.0 0
M  V30 3 C 11.6913 1.4999 0.0 0
M  V30 4 C 14.2894 1.5 0.0 0
M  V30 5 O 10.3923 2.2499 0.0 0
M  V30 6 C 11.6913 0.0 0.0 0
M  V30 7 C 14.2894 0.0 0.0 0
M  V30 8 C 9.0932 1.4999 0.0 0
M  V30 9 C 12.9903 -0.75 0.0 0
M  V30 10 C 7.7942 2.2499 0.0 0
M  V30 11 C 9.0932 0.0 0.0 0
M  V30 12 C 6.4951 1.5 0.0 0
M  V30 13 C 7.7942 -0.75 0.0 0
M  V30 14 C 6.4951 0.0 0.0 0
M  V30 15 C 5.1961 -0.75 0.0 0
M  V30 16 C 3.8971 0.0 0.0 0
M  V30 17 N 3.8971 1.4999 0.0 0
M  V30 18 C 2.598 -0.75 0.0 0
M  V30 19 C 2.598 2.2499 0.0 0
M  V30 20 O 2.598 -2.25 0.0 0
M  V30 21 O 1.299 0.0 0.0 0 CHG=-1
M  V30 22 O 1.299 1.4999 0.0 0
M  V30 23 C 2.598 3.75 0.0 0
M  V30 24 C 1.299 4.4999 0.0 0
M  V30 25 C 3.8971 4.5 0.0 0
M  V30 26 C 1.299 5.9999 0.0 0
M  V30 27 C 3.8971 6.0 0.0 0
M  V30 28 C 2.598 6.7499 0.0 0
M  V30 END ATOM
M  V30 BEGIN BOND
M  V30 1 1 1 2
M  V30 2 2 2 3
M  V30 3 1 2 4
M  V30 4 1 3 5
M  V30 5 1 3 6
M  V30 6 2 4 7
M  V30 7 1 5 8
M  V30 8 2 6 9
M  V30 9 2 8 10
M  V30 10 1 8 11
M  V30 11 1 10 12
M  V30 12 2 11 13
M  V30 13 2 12 14
M  V30 14 1 14 15
M  V30 15 2 15 16
M  V30 16 1 16 17
M  V30 17 1 16 18
M  V30 18 1 17 19
M  V30 19 2 18 20
M  V30 20 1 18 21
M  V30 21 2 19 22
M  V30 22 1 19 23
M  V30 23 2 23 24
M  V30 24 1 23 25
M  V30 25 1 24 26
M  V30 26 2 25 27
M  V30 27 2 26 28
M  V30 28 1 7 9
M  V30 29 1 13 14
M  V30 30 1 27 28
M  V30 END BOND
M  V30 END CTAB
M  END
>  <smiles>
c1ccc(cc1)C(=O)N/C(=C\c2ccc(cc2)Oc3ccccc3Cl)/C(=O)[O-]

$$$$
Compound 7
Actelion Java MolfileCreator 2.0

  0  0  0  0  0  0              0 V3000
M  V30 BEGIN CTAB
M  V30 COUNTS 29 31 0 0 0
M  V30 BEGIN ATOM
M  V30 1 Cl 12.9903 3.75 0.0 0
M  V30 2 C 12.9903 2.2499 0.0 0
M  V30 3 C 11.6913 1.4999 0.0 0
M  V30 4 C 14.2894 1.5 0.0 0
M  V30 5 O 10.3923 2.2499 0.0 0
M  V30 6 C 11.6913 0.0 0.0 0
M  V30 7 C 14.2894 0.0 0.0 0
M  V30 8 C 9.0932 1.4999 0.0 0
M  V30 9 C 12.9903 -0.75 0.0 0
M  V30 10 C 10.3923 -0.75 0.0 0
M  V30 11 C 7.7942 2.2499 0.0 0
M  V30 12 C 9.0932 0.0 0.0 0
M  V30 13 C 6.4951 1.5 0.0 0
M  V30 14 C 7.7942 -0.75 0.0 0
M  V30 15 C 6.4951 0.0 0.0 0
M  V30 16 C 5.1961 -0.75 0.0 0
M  V30 17 C 3.8971 0.0 0.0 0
M  V30 18 N 3.8971 1.4999 0.0 0
M  V30 19 C 2.598 -0.75 0.0 0
M  V30 20 C 2.598 2.2499 0.0 0
M  V30 21 O 2.598 -2.25 0.0 0
M  V30 22 O 1.299 0.0 0.0 0 CHG=-1
M  V30 23 O 1.299 1.4999 0.0 0
M  V30 24 C 2.598 3.75 0.0 0
M  V30 25 C 1.299 4.4999 0.0 0
M  V30 26 C 3.8971 4.5 0.0 0
M  V30 27 C 1.299 5.9999 0.0 0
M  V30 28 C 3.8971 6.0 0.0 0
M  V30 29 C 2.598 6.7499 0.0 0
M  V30 END ATOM
M  V30 BEGIN BOND
M  V30 1 1 1 2
M  V30 2 2 2 3
M  V30 3 1 2 4
M  V30 4 1 3 5
M  V30 5 1 3 6
M  V30 6 2 4 7
M  V30 7 1 5 8
M  V30 8 2 6 9
M  V30 9 1 6 10
M  V30 10 2 8 11
M  V30 11 1 8 12
M  V30 12 1 11 13
M  V30 13 2 12 14
M  V30 14 2 13 15
M  V30 15 1 15 16
M  V30 16 2 16 17
M  V30 17 1 17 18
M  V30 18 1 17 19
M  V30 19 1 18 20
M  V30 20 2 19 21
M  V30 21 1 19 22
M  V30 22 2 20 23
M  V30 23 1 20 24
M  V30 24 2 24 25
M  V30 25 1 24 26
M  V30 26 1 25 27
M  V30 27 2 26 28
M  V30 28 2 27 29
M  V30 29 1 7 9
M  V30 30 1 14 15
M  V30 31 1 28 29
M  V30 END BOND
M  V30 END CTAB
M  END
>  <smiles>
Cc1cccc(c1Oc2ccc(cc2)/C=C(/C(=O)[O-])\NC(=O)c3ccccc3)Cl

$$$$
Compound 8
Actelion Java MolfileCreator 2.0

  0  0  0  0  0  0              0 V3000
M  V30 BEGIN CTAB
M  V30 COUNTS 28 30 0 0 0
M  V30 BEGIN ATOM
M  V30 1 O 5.1961 -2.2499 0.0 0
M  V30 2 C 3.8971 -2.9999 0.0 0
M  V30 3 N 2.598 -2.2499 0.0 0
M  V30 4 C 3.8971 -4.5 0.0 0
M  V30 5 C 2.598 -0.75 0.0 0
M  V30 6 C 2.598 -5.2499 0.0 0
M  V30 7 C 5.1961 -5.25 0.0 0
M  V30 8 C 3.8971 0.0 0.0 0
M  V30 9 C 1.299 0.0 0.0 0
M  V30 10 C 2.598 -6.7499 0.0 0
M  V30 11 C 5.1961 -6.75 0.0 0
M  V30 12 O 3.8971 1.4999 0.0 0
M  V30 13 O 5.1961 -0.7499 0.0 0 CHG=-1
M  V30 14 C 0.0 -0.75 0.0 0
M  V30 15 C 3.8971 -7.4999 0.0 0
M  V30 16 C -1.299 0.0 0.0 0
M  V30 17 C 0.0 -2.2499 0.0 0
M  V30 18 C -2.598 -0.7499 0.0 0
M  V30 19 C -1.299 -2.9999 0.0 0
M  V30 20 C -2.598 -2.2499 0.0 0
M  V30 21 O -3.8971 -2.9999 0.0 0
M  V30 22 C -3.8971 -4.4999 0.0 0
M  V30 23 C -5.1961 -5.2499 0.0 0
M  V30 24 C -2.598 -5.2499 0.0 0
M  V30 25 C -5.1961 -6.7499 0.0 0
M  V30 26 C -6.4951 -4.4999 0.0 0
M  V30 27 C -2.598 -6.7499 0.0 0
M  V30 28 C -3.8971 -7.4999 0.0 0
M  V30 END ATOM
M  V30 BEGIN BOND
M  V30 1 2 1 2
M  V30 2 1 2 3
M  V30 3 1 2 4
M  V30 4 1 3 5
M  V30 5 2 4 6
M  V30 6 1 4 7
M  V30 7 1 5 8
M  V30 8 2 5 9
M  V30 9 1 6 10
M  V30 10 2 7 11
M  V30 11 2 8 12
M  V30 12 1 8 13
M  V30 13 1 9 14
M  V30 14 2 10 15
M  V30 15 2 14 16
M  V30 16 1 14 17
M  V30 17 1 16 18
M  V30 18 2 17 19
M  V30 19 2 18 20
M  V30 20 1 20 21
M  V30 21 1 21 22
M  V30 22 2 22 23
M  V30 23 1 22 24
M  V30 24 1 23 25
M  V30 25 1 23 26
M  V30 26 2 24 27
M  V30 27 2 25 28
M  V30 28 1 11 15
M  V30 29 1 19 20
M  V30 30 1 27 28
M  V30 END BOND
M  V30 END CTAB
M  END
>  <smiles>
Cc1ccccc1Oc2ccc(cc2)/C=C(/C(=O)[O-])\NC(=O)c3ccccc3

$$$$
Compound 9
Actelion Java MolfileCreator 2.0

  0  0  0  0  0  0              0 V3000
M  V30 BEGIN CTAB
M  V30 COUNTS 29 31 0 0 0
M  V30 BEGIN ATOM
M  V30 1 Br 12.9903 3.75 0.0 0
M  V30 2 C 12.9903 2.2499 0.0 0
M  V30 3 C 11.6913 1.4999 0.0 0
M  V30 4 C 14.2894 1.5 0.0 0
M  V30 5 O 10.3923 2.2499 0.0 0
M  V30 6 C 11.6913 0.0 0.0 0
M  V30 7 C 14.2894 0.0 0.0 0
M  V30 8 C 9.0932 1.4999 0.0 0
M  V30 9 F 10.3923 -0.75 0.0 0
M  V30 10 C 12.9903 -0.75 0.0 0
M  V30 11 C 7.7942 2.2499 0.0 0
M  V30 12 C 9.0932 0.0 0.0 0
M  V30 13 C 6.4951 1.5 0.0 0
M  V30 14 C 7.7942 -0.75 0.0 0
M  V30 15 C 6.4951 0.0 0.0 0
M  V30 16 C 5.1961 -0.75 0.0 0
M  V30 17 C 3.8971 0.0 0.0 0
M  V30 18 N 3.8971 1.4999 0.0 0
M  V30 19 C 2.598 -0.75 0.0 0
M  V30 20 C 2.598 2.2499 0.0 0
M  V30 21 O 2.598 -2.25 0.0 0
M  V30 22 O 1.299 0.0 0.0 0 CHG=-1
M  V30 23 O 1.299 1.4999 0.0 0
M  V30 24 C 2.598 3.75 0.0 0
M  V30 25 C 1.299 4.4999 0.0 0
M  V30 26 C 3.8971 4.5 0.0 0
M  V30 27 C 1.299 5.9999 0.0 0
M  V30 28 C 3.8971 6.0 0.0 0
M  V30 29 C 2.598 6.7499 0.0 0
M  V30 END ATOM
M  V30 BEGIN BOND
M  V30 1 1 1 2
M  V30 2 2 2 3
M  V30 3 1 2 4
M  V30 4 1 3 5
M  V30 5 1 3 6
M  V30 6 2 4 7
M  V30 7 1 5 8
M  V30 8 1 6 9
M  V30 9 2 6 10
M  V30 10 2 8 11
M  V30 11 1 8 12
M  V30 12 1 11 13
M  V30 13 2 12 14
M  V30 14 2 13 15
M  V30 15 1 15 16
M  V30 16 2 16 17
M  V30 17 1 17 18
M  V30 18 1 17 19
M  V30 19 1 18 20
M  V30 20 2 19 21
M  V30 21 1 19 22
M  V30 22 2 20 23
M  V30 23 1 20 24
M  V30 24 2 24 25
M  V30 25 1 24 26
M  V30 26 1 25 27
M  V30 27 2 26 28
M  V30 28 2 27 29
M  V30 29 1 7 10
M  V30 30 1 14 15
M  V30 31 1 28 29
M  V30 END BOND
M  V30 END CTAB
M  END
>  <smiles>
c1ccc(cc1)C(=O)N/C(=C\c2ccc(cc2)Oc3c(cccc3Br)F)/C(=O)[O-]

$$$$
Compound 10
Actelion Java MolfileCreator 2.0

  0  0  0  0  0  0              0 V3000
M  V30 BEGIN CTAB
M  V30 COUNTS 27 28 0 0 0
M  V30 BEGIN ATOM
M  V30 1 I 16.8874 -4.5 0.0 0
M  V30 2 C 15.5884 -5.25 0.0 0
M  V30 3 C 14.2894 -4.5 0.0 0
M  V30 4 C 15.5884 -6.7499 0.0 0
M  V30 5 O 14.2894 -3.0 0.0 0
M  V30 6 C 12.9903 -5.25 0.0 0
M  V30 7 C 14.2894 -7.5 0.0 0
M  V30 8 C 12.9903 -2.25 0.0 0
M  V30 9 C 12.9903 -6.75 0.0 0
M  V30 10 C 12.9903 -0.75 0.0 0
M  V30 11 C 11.6913 -3.0 0.0 0
M  V30 12 C 11.6913 0.0 0.0 0
M  V30 13 C 10.3923 -2.25 0.0 0
M  V30 14 C 10.3923 -0.75 0.0 0
M  V30 15 C 9.0932 0.0 0.0 0
M  V30 16 C 7.7942 -0.75 0.0 0
M  V30 17 N 7.7942 -2.25 0.0 0
M  V30 18 C 6.4951 0.0 0.0 0
M  V30 19 C 6.4951 -2.9999 0.0 0
M  V30 20 O 5.1961 -0.75 0.0 0
M  V30 21 O 6.4951 1.5 0.0 0 CHG=-1
M  V30 22 O 5.1961 -2.2499 0.0 0
M  V30 23 C 6.4951 -4.5 0.0 0
M  V30 24 C 5.1961 -5.25 0.0 0
M  V30 25 C 5.1961 -6.75 0.0 0
M  V30 26 O 6.4951 -7.5 0.0 0
M  V30 27 O 3.8971 -7.4999 0.0 0 CHG=-1
M  V30 END ATOM
M  V30 BEGIN BOND
M  V30 1 1 1 2
M  V30 2 2 2 3
M  V30 3 1 2 4
M  V30 4 1 3 5
M  V30 5 1 3 6
M  V30 6 2 4 7
M  V30 7 1 5 8
M  V30 8 2 6 9
M  V30 9 2 8 10
M  V30 10 1 8 11
M  V30 11 1 10 12
M  V30 12 2 11 13
M  V30 13 2 12 14
M  V30 14 1 14 15
M  V30 15 2 15 16
M  V30 16 1 16 17
M  V30 17 1 16 18
M  V30 18 1 17 19
M  V30 19 2 18 20
M  V30 20 1 18 21
M  V30 21 2 19 22
M  V30 22 1 19 23
M  V30 23 1 23 24
M  V30 24 1 24 25
M  V30 25 2 25 26
M  V30 26 1 25 27
M  V30 27 1 7 9
M  V30 28 1 13 14
M  V30 END BOND
M  V30 END CTAB
M  END
>  <smiles>
c1ccc(c(c1)Oc2ccc(cc2)/C=C(/C(=O)[O-])\NC(=O)CCC(=O)[O-])I

$$$$
Compound 11
Actelion Java MolfileCreator 2.0

  0  0  0  0  0  0              0 V3000
M  V30 BEGIN CTAB
M  V30 COUNTS 33 35 0 0 0
M  V30 BEGIN ATOM
M  V30 1 Br 4.3301 6.0 0.0 0
M  V30 2 C 3.4641 5.4999 0.0 0
M  V30 3 C 3.4641 4.4999 0.0 0
M  V30 4 C 2.598 5.9999 0.0 0
M  V30 5 O 4.3301 3.9999 0.0 0
M  V30 6 C 2.598 3.9999 0.0 0
M  V30 7 C 1.732 5.5 0.0 0
M  V30 8 C 4.3301 2.9999 0.0 0
M  V30 9 C 1.732 4.5 0.0 0
M  V30 10 C 5.1961 2.4999 0.0 0
M  V30 11 C 3.4641 2.4999 0.0 0
M  V30 12 C 5.1961 1.4999 0.0 0
M  V30 13 C 3.4641 1.4999 0.0 0
M  V30 14 C 4.3301 0.9999 0.0 0
M  V30 15 C 4.3301 0.0 0.0 0
M  V30 16 C 3.4641 -0.5 0.0 0
M  V30 17 N 2.598 0.0 0.0 0
M  V30 18 C 3.4641 -1.5 0.0 0
M  V30 19 C 1.732 -0.5 0.0 0
M  V30 20 O 2.598 -1.9999 0.0 0
M  V30 21 O 4.3301 -2.0 0.0 0 CHG=-1
M  V30 22 O 1.732 -1.5 0.0 0
M  V30 23 C 0.866 0.0 0.0 0
M  V30 24 C 0.0 -0.5 0.0 0
M  V30 25 C -0.866 0.0 0.0 0
M  V30 26 C 0.0 -1.4999 0.0 0
M  V30 27 C -1.732 -0.4999 0.0 0
M  V30 28 C -0.866 -1.9999 0.0 0
M  V30 29 C -1.732 -1.4999 0.0 0
M  V30 30 C -2.598 -1.9999 0.0 0
M  V30 31 F -2.098 -2.866 0.0 0
M  V30 32 F -3.4641 -2.4999 0.0 0
M  V30 33 F -3.098 -1.1339 0.0 0
M  V30 END ATOM
M  V30 BEGIN BOND
M  V30 1 1 1 2
M  V30 2 2 2 3
M  V30 3 1 2 4
M  V30 4 1 3 5
M  V30 5 1 3 6
M  V30 6 2 4 7
M  V30 7 1 5 8
M  V30 8 2 6 9
M  V30 9 2 8 10
M  V30 10 1 8 11
M  V30 11 1 10 12
M  V30 12 2 11 13
M  V30 13 2 12 14
M  V30 14 1 14 15
M  V30 15 2 15 16
M  V30 16 1 16 17
M  V30 17 1 16 18
M  V30 18 1 17 19
M  V30 19 2 18 20
M  V30 20 1 18 21
M  V30 21 2 19 22
M  V30 22 1 19 23
M  V30 23 1 23 24
M  V30 24 2 24 25
M  V30 25 1 24 26
M  V30 26 1 25 27
M  V30 27 2 26 28
M  V30 28 2 27 29
M  V30 29 1 29 30
M  V30 30 1 30 31
M  V30 31 1 30 32
M  V30 32 1 30 33
M  V30 33 1 7 9
M  V30 34 1 13 14
M  V30 35 1 28 29
M  V30 END BOND
M  V30 END CTAB
M  END
>  <smiles>
c1ccc(c(c1)Oc2ccc(cc2)/C=C(/C(=O)[O-])\NC(=O)Cc3ccc(cc3)C(F)(F)F)Br

$$$$
Compound 12
Actelion Java MolfileCreator 2.0

  0  0  0  0  0  0              0 V3000
M  V30 BEGIN CTAB
M  V30 COUNTS 37 40 0 0 0
M  V30 BEGIN ATOM
M  V30 1 Br 7.7942 4.0 0.0 0
M  V30 2 C 7.7942 3.0 0.0 0
M  V30 3 C 6.9282 2.5 0.0 0
M  V30 4 C 8.6602 2.5 0.0 0
M  V30 5 O 6.0621 3.0 0.0 0
M  V30 6 C 6.9282 1.5 0.0 0
M  V30 7 C 8.6602 1.5 0.0 0
M  V30 8 C 5.1961 2.5 0.0 0
M  V30 9 C 7.7942 1.0 0.0 0
M  V30 10 C 4.3301 3.0 0.0 0
M  V30 11 C 5.1961 1.5 0.0 0
M  V30 12 C 3.4641 2.5 0.0 0
M  V30 13 C 4.3301 1.0 0.0 0
M  V30 14 C 3.4641 1.5 0.0 0
M  V30 15 C 2.598 1.0 0.0 0
M  V30 16 C 2.598 0.0 0.0 0
M  V30 17 N 3.4641 -0.5 0.0 0
M  V30 18 C 1.732 -0.5 0.0 0
M  V30 19 C 3.4641 -1.5 0.0 0
M  V30 20 O 1.732 -1.5 0.0 0
M  V30 21 N 0.866 0.0 0.0 0
M  V30 22 O 2.598 -2.0 0.0 0
M  V30 23 C 4.3301 -2.0 0.0 0
M  V30 24 C 0.0 -0.5 0.0 0
M  V30 25 C 4.3301 -3.0 0.0 0
M  V30 26 C 5.1961 -1.5 0.0 0
M  V30 27 C -0.866 0.0 0.0 0
M  V30 28 C 0.0 -1.4999 0.0 0
M  V30 29 C 5.1961 -3.5 0.0 0
M  V30 30 C 6.0621 -2.0 0.0 0
M  V30 31 C -0.866 1.0 0.0 0
M  V30 32 C -1.732 -0.4999 0.0 0
M  V30 33 C -0.866 -1.9999 0.0 0
M  V30 34 C 6.0621 -3.0 0.0 0
M  V30 35 O 0.0 1.5 0.0 0
M  V30 36 O -1.732 1.5 0.0 0 CHG=-1
M  V30 37 C -1.732 -1.4999 0.0 0
M  V30 END ATOM
M  V30 BEGIN BOND
M  V30 1 1 1 2
M  V30 2 2 2 3
M  V30 3 1 2 4
M  V30 4 1 3 5
M  V30 5 1 3 6
M  V30 6 2 4 7
M  V30 7 1 5 8
M  V30 8 2 6 9
M  V30 9 2 8 10
M  V30 10 1 8 11
M  V30 11 1 10 12
M  V30 12 2 11 13
M  V30 13 2 12 14
M  V30 14 1 14 15
M  V30 15 2 15 16
M  V30 16 1 16 17
M  V30 17 1 16 18
M  V30 18 1 17 19
M  V30 19 2 18 20
M  V30 20 1 18 21
M  V30 21 2 19 22
M  V30 22 1 19 23
M  V30 23 1 21 24
M  V30 24 2 23 25
M  V30 25 1 23 26
M  V30 26 2 24 27
M  V30 27 1 24 28
M  V30 28 1 25 29
M  V30 29 2 26 30
M  V30 30 1 27 31
M  V30 31 1 27 32
M  V30 32 2 28 33
M  V30 33 2 29 34
M  V30 34 2 31 35
M  V30 35 1 31 36
M  V30 36 2 32 37
M  V30 37 1 7 9
M  V30 38 1 13 14
M  V30 39 1 30 34
M  V30 40 1 33 37
M  V30 END BOND
M  V30 END CTAB
M  END
>  <smiles>
c1ccc(cc1)C(=O)N/C(=C\c2ccc(cc2)Oc3ccccc3Br)/C(=O)Nc4ccccc4C(=O)[O-]

$$$$
Compound 13
Actelion Java MolfileCreator 2.0

  0  0  0  0  0  0              0 V3000
M  V30 BEGIN CTAB
M  V30 COUNTS 29 31 0 0 0
M  V30 BEGIN ATOM
M  V30 1 Br 12.9903 3.75 0.0 0
M  V30 2 C 12.9903 2.2499 0.0 0
M  V30 3 C 11.6913 1.4999 0.0 0
M  V30 4 C 14.2894 1.5 0.0 0
M  V30 5 O 10.3923 2.2499 0.0 0
M  V30 6 C 11.6913 0.0 0.0 0
M  V30 7 C 14.2894 0.0 0.0 0
M  V30 8 C 9.0932 1.4999 0.0 0
M  V30 9 C 12.9903 -0.75 0.0 0
M  V30 10 C 7.7942 2.2499 0.0 0
M  V30 11 C 9.0932 0.0 0.0 0
M  V30 12 C 6.4951 1.5 0.0 0
M  V30 13 C 7.7942 -0.75 0.0 0
M  V30 14 C 6.4951 0.0 0.0 0
M  V30 15 C 5.1961 -0.75 0.0 0
M  V30 16 C 3.8971 0.0 0.0 0
M  V30 17 N 3.8971 1.4999 0.0 0
M  V30 18 C 2.598 -0.75 0.0 0
M  V30 19 C 2.598 2.2499 0.0 0
M  V30 20 O 2.598 -2.25 0.0 0
M  V30 21 O 1.299 0.0 0.0 0 CHG=-1
M  V30 22 O 1.299 1.4999 0.0 0
M  V30 23 C 2.598 3.75 0.0 0
M  V30 24 C 1.299 4.4999 0.0 0
M  V30 25 C 3.8971 4.5 0.0 0
M  V30 26 C 1.299 5.9999 0.0 0
M  V30 27 C 3.8971 6.0 0.0 0
M  V30 28 C 2.598 6.7499 0.0 0
M  V30 29 C 2.598 8.25 0.0 0
M  V30 END ATOM
M  V30 BEGIN BOND
M  V30 1 1 1 2
M  V30 2 2 2 3
M  V30 3 1 2 4
M  V30 4 1 3 5
M  V30 5 1 3 6
M  V30 6 2 4 7
M  V30 7 1 5 8
M  V30 8 2 6 9
M  V30 9 2 8 10
M  V30 10 1 8 11
M  V30 11 1 10 12
M  V30 12 2 11 13
M  V30 13 2 12 14
M  V30 14 1 14 15
M  V30 15 2 15 16
M  V30 16 1 16 17
M  V30 17 1 16 18
M  V30 18 1 17 19
M  V30 19 2 18 20
M  V30 20 1 18 21
M  V30 21 2 19 22
M  V30 22 1 19 23
M  V30 23 2 23 24
M  V30 24 1 23 25
M  V30 25 1 24 26
M  V30 26 2 25 27
M  V30 27 2 26 28
M  V30 28 1 28 29
M  V30 29 1 7 9
M  V30 30 1 13 14
M  V30 31 1 27 28
M  V30 END BOND
M  V30 END CTAB
M  END
>  <smiles>
Cc1ccc(cc1)C(=O)N/C(=C\c2ccc(cc2)Oc3ccccc3Br)/C(=O)[O-]

$$$$
Compound 14
Actelion Java MolfileCreator 2.0

  0  0  0  0  0  0              0 V3000
M  V30 BEGIN CTAB
M  V30 COUNTS 28 30 0 0 0
M  V30 BEGIN ATOM
M  V30 1 Br 12.9903 3.75 0.0 0
M  V30 2 C 12.9903 2.2499 0.0 0
M  V30 3 C 11.6913 1.4999 0.0 0
M  V30 4 C 14.2894 1.5 0.0 0
M  V30 5 O 10.3923 2.2499 0.0 0
M  V30 6 C 11.6913 0.0 0.0 0
M  V30 7 C 14.2894 0.0 0.0 0
M  V30 8 C 9.0932 1.4999 0.0 0
M  V30 9 C 12.9903 -0.75 0.0 0
M  V30 10 C 7.7942 2.2499 0.0 0
M  V30 11 C 9.0932 0.0 0.0 0
M  V30 12 C 6.4951 1.5 0.0 0
M  V30 13 C 7.7942 -0.75 0.0 0
M  V30 14 C 6.4951 0.0 0.0 0
M  V30 15 C 5.1961 -0.75 0.0 0
M  V30 16 C 3.8971 0.0 0.0 0
M  V30 17 N 3.8971 1.4999 0.0 0
M  V30 18 C 2.598 -0.75 0.0 0
M  V30 19 C 2.598 2.2499 0.0 0
M  V30 20 O 2.598 -2.25 0.0 0
M  V30 21 N 1.299 0.0 0.0 0
M  V30 22 O 1.299 1.4999 0.0 0
M  V30 23 C 2.598 3.75 0.0 0
M  V30 24 C 1.299 4.4999 0.0 0
M  V30 25 C 3.8971 4.5 0.0 0
M  V30 26 C 1.299 5.9999 0.0 0
M  V30 27 C 3.8971 6.0 0.0 0
M  V30 28 C 2.598 6.7499 0.0 0
M  V30 END ATOM
M  V30 BEGIN BOND
M  V30 1 1 1 2
M  V30 2 2 2 3
M  V30 3 1 2 4
M  V30 4 1 3 5
M  V30 5 1 3 6
M  V30 6 2 4 7
M  V30 7 1 5 8
M  V30 8 2 6 9
M  V30 9 2 8 10
M  V30 10 1 8 11
M  V30 11 1 10 12
M  V30 12 2 11 13
M  V30 13 2 12 14
M  V30 14 1 14 15
M  V30 15 2 15 16
M  V30 16 1 16 17
M  V30 17 1 16 18
M  V30 18 1 17 19
M  V30 19 2 18 20
M  V30 20 1 18 21
M  V30 21 2 19 22
M  V30 22 1 19 23
M  V30 23 2 23 24
M  V30 24 1 23 25
M  V30 25 1 24 26
M  V30 26 2 25 27
M  V30 27 2 26 28
M  V30 28 1 7 9
M  V30 29 1 13 14
M  V30 30 1 27 28
M  V30 END BOND
M  V30 END CTAB
M  END
>  <smiles>
c1ccc(cc1)C(=O)N/C(=C\c2ccc(cc2)Oc3ccccc3Br)/C(=O)N

$$$$
Compound 15
Actelion Java MolfileCreator 2.0

  0  0  0  0  0  0              0 V3000
M  V30 BEGIN CTAB
M  V30 COUNTS 29 31 0 0 0
M  V30 BEGIN ATOM
M  V30 1 Br 7.7942 4.0 0.0 0
M  V30 2 C 7.7942 3.0 0.0 0
M  V30 3 C 6.9282 2.5 0.0 0
M  V30 4 C 8.6602 2.5 0.0 0
M  V30 5 O 6.0621 3.0 0.0 0
M  V30 6 C 6.9282 1.5 0.0 0
M  V30 7 C 8.6602 1.5 0.0 0
M  V30 8 C 5.1961 2.5 0.0 0
M  V30 9 C 7.7942 1.0 0.0 0
M  V30 10 C 4.3301 3.0 0.0 0
M  V30 11 C 5.1961 1.5 0.0 0
M  V30 12 C 3.4641 2.5 0.0 0
M  V30 13 C 4.3301 1.0 0.0 0
M  V30 14 C 3.4641 1.5 0.0 0
M  V30 15 C 2.598 1.0 0.0 0
M  V30 16 C 2.598 0.0 0.0 0
M  V30 17 N 3.4641 -0.5 0.0 0
M  V30 18 C 1.732 -0.5 0.0 0
M  V30 19 C 3.4641 -1.5 0.0 0
M  V30 20 O 1.732 -1.5 0.0 0
M  V30 21 N 0.866 0.0 0.0 0
M  V30 22 O 2.598 -2.0 0.0 0
M  V30 23 C 4.3301 -2.0 0.0 0
M  V30 24 N 0.0 -0.5 0.0 0
M  V30 25 C 4.3301 -3.0 0.0 0
M  V30 26 C 5.1961 -1.5 0.0 0
M  V30 27 C 5.1961 -3.5 0.0 0
M  V30 28 C 6.0621 -2.0 0.0 0
M  V30 29 C 6.0621 -3.0 0.0 0
M  V30 END ATOM
M  V30 BEGIN BOND
M  V30 1 1 1 2
M  V30 2 2 2 3
M  V30 3 1 2 4
M  V30 4 1 3 5
M  V30 5 1 3 6
M  V30 6 2 4 7
M  V30 7 1 5 8
M  V30 8 2 6 9
M  V30 9 2 8 10
M  V30 10 1 8 11
M  V30 11 1 10 12
M  V30 12 2 11 13
M  V30 13 2 12 14
M  V30 14 1 14 15
M  V30 15 2 15 16
M  V30 16 1 16 17
M  V30 17 1 16 18
M  V30 18 1 17 19
M  V30 19 2 18 20
M  V30 20 1 18 21
M  V30 21 2 19 22
M  V30 22 1 19 23
M  V30 23 1 21 24
M  V30 24 2 23 25
M  V30 25 1 23 26
M  V30 26 1 25 27
M  V30 27 2 26 28
M  V30 28 2 27 29
M  V30 29 1 7 9
M  V30 30 1 13 14
M  V30 31 1 28 29
M  V30 END BOND
M  V30 END CTAB
M  END
>  <smiles>
c1ccc(cc1)C(=O)N/C(=C\c2ccc(cc2)Oc3ccccc3Br)/C(=O)NN

$$$$
Compound 16
Actelion Java MolfileCreator 2.0

  0  0  0  0  0  0              0 V3000
M  V30 BEGIN CTAB
M  V30 COUNTS 30 32 0 0 0
M  V30 BEGIN ATOM
M  V30 1 Br 8.6602 -4.4999 0.0 0
M  V30 2 C 8.6602 -3.4999 0.0 0
M  V30 3 C 7.7942 -2.9999 0.0 0
M  V30 4 C 9.5262 -2.9999 0.0 0
M  V30 5 O 6.9282 -3.4999 0.0 0
M  V30 6 C 7.7942 -1.9999 0.0 0
M  V30 7 C 9.5262 -1.9999 0.0 0
M  V30 8 C 6.0621 -2.9999 0.0 0
M  V30 9 C 8.6602 -1.4999 0.0 0
M  V30 10 C 5.1961 -3.4999 0.0 0
M  V30 11 C 6.0621 -1.9999 0.0 0
M  V30 12 C 4.3301 -2.9999 0.0 0
M  V30 13 C 5.1961 -1.4999 0.0 0
M  V30 14 C 4.3301 -1.9999 0.0 0
M  V30 15 C 3.4641 -1.5 0.0 0
M  V30 16 C 3.4641 -0.5 0.0 0
M  V30 17 N 4.3301 0.0 0.0 0
M  V30 18 C 2.598 0.0 0.0 0
M  V30 19 C 4.3301 0.9999 0.0 0
M  V30 20 O 2.598 1.0 0.0 0
M  V30 21 N 1.732 -0.5 0.0 0
M  V30 22 O 3.4641 1.5 0.0 0
M  V30 23 C 5.1961 1.4999 0.0 0
M  V30 24 O 0.866 0.0 0.0 0
M  V30 25 C 6.0621 0.9999 0.0 0
M  V30 26 C 5.1961 2.4999 0.0 0
M  V30 27 C 0.0 -0.5 0.0 0
M  V30 28 C 6.9282 1.4999 0.0 0
M  V30 29 C 6.0621 2.9999 0.0 0
M  V30 30 C 6.9282 2.4999 0.0 0
M  V30 END ATOM
M  V30 BEGIN BOND
M  V30 1 1 1 2
M  V30 2 2 2 3
M  V30 3 1 2 4
M  V30 4 1 3 5
M  V30 5 1 3 6
M  V30 6 2 4 7
M  V30 7 1 5 8
M  V30 8 2 6 9
M  V30 9 2 8 10
M  V30 10 1 8 11
M  V30 11 1 10 12
M  V30 12 2 11 13
M  V30 13 2 12 14
M  V30 14 1 14 15
M  V30 15 2 15 16
M  V30 16 1 16 17
M  V30 17 1 16 18
M  V30 18 1 17 19
M  V30 19 2 18 20
M  V30 20 1 18 21
M  V30 21 2 19 22
M  V30 22 1 19 23
M  V30 23 1 21 24
M  V30 24 2 23 25
M  V30 25 1 23 26
M  V30 26 1 24 27
M  V30 27 1 25 28
M  V30 28 2 26 29
M  V30 29 2 28 30
M  V30 30 1 7 9
M  V30 31 1 13 14
M  V30 32 1 29 30
M  V30 END BOND
M  V30 END CTAB
M  END
>  <smiles>
CONC(=O)/C(=C/c1ccc(cc1)Oc2ccccc2Br)/NC(=O)c3ccccc3

$$$$
Compound 17
Actelion Java MolfileCreator 2.0

  0  0  0  0  0  0              0 V3000
M  V30 BEGIN CTAB
M  V30 COUNTS 34 36 0 0 0
M  V30 BEGIN ATOM
M  V30 1 Br 5.1961 -6.4999 0.0 0
M  V30 2 C 6.0621 -6.0 0.0 0
M  V30 3 C 6.0621 -4.9999 0.0 0
M  V30 4 C 6.9282 -6.5 0.0 0
M  V30 5 O 5.1961 -4.5 0.0 0
M  V30 6 C 6.9282 -4.4999 0.0 0
M  V30 7 C 7.7942 -6.0 0.0 0
M  V30 8 C 5.1961 -3.4999 0.0 0
M  V30 9 C 7.7942 -5.0 0.0 0
M  V30 10 C 4.3301 -3.0 0.0 0
M  V30 11 C 6.0621 -2.9999 0.0 0
M  V30 12 C 4.3301 -2.0 0.0 0
M  V30 13 C 6.0621 -1.9999 0.0 0
M  V30 14 C 5.1961 -1.5 0.0 0
M  V30 15 C 5.1961 -0.5 0.0 0
M  V30 16 C 4.3301 0.0 0.0 0
M  V30 17 N 3.4641 -0.5 0.0 0
M  V30 18 C 4.3301 1.0 0.0 0
M  V30 19 C 2.598 0.0 0.0 0
M  V30 20 O 5.1961 1.4999 0.0 0
M  V30 21 O 3.4641 1.5 0.0 0 CHG=-1
M  V30 22 O 2.598 1.0 0.0 0
M  V30 23 C 1.732 -0.5 0.0 0
M  V30 24 C 0.866 0.0 0.0 0
M  V30 25 C 0.0 -0.5 0.0 0
M  V30 26 C -0.866 0.0 0.0 0
M  V30 27 C 0.0 -1.4999 0.0 0
M  V30 28 C -1.732 -0.4999 0.0 0
M  V30 29 C -0.866 -1.9999 0.0 0
M  V30 30 C -1.732 -1.4999 0.0 0
M  V30 31 C -2.598 -1.9999 0.0 0
M  V30 32 F -2.098 -2.866 0.0 0
M  V30 33 F -3.4641 -2.4999 0.0 0
M  V30 34 F -3.098 -1.1339 0.0 0
M  V30 END ATOM
M  V30 BEGIN BOND
M  V30 1 1 1 2
M  V30 2 2 2 3
M  V30 3 1 2 4
M  V30 4 1 3 5
M  V30 5 1 3 6
M  V30 6 2 4 7
M  V30 7 1 5 8
M  V30 8 2 6 9
M  V30 9 2 8 10
M  V30 10 1 8 11
M  V30 11 1 10 12
M  V30 12 2 11 13
M  V30 13 2 12 14
M  V30 14 1 14 15
M  V30 15 2 15 16
M  V30 16 1 16 17
M  V30 17 1 16 18
M  V30 18 1 17 19
M  V30 19 2 18 20
M  V30 20 1 18 21
M  V30 21 2 19 22
M  V30 22 1 19 23
M  V30 23 1 23 24
M  V30 24 1 24 25
M  V30 25 2 25 26
M  V30 26 1 25 27
M  V30 27 1 26 28
M  V30 28 2 27 29
M  V30 29 2 28 30
M  V30 30 1 30 31
M  V30 31 1 31 32
M  V30 32 1 31 33
M  V30 33 1 31 34
M  V30 34 1 7 9
M  V30 35 1 13 14
M  V30 36 1 29 30
M  V30 END BOND
M  V30 END CTAB
M  END
>  <smiles>
c1ccc(c(c1)Oc2ccc(cc2)/C=C(/C(=O)[O-])\NC(=O)CCc3ccc(cc3)C(F)(F)F)Br

$$$$
Compound 18
Actelion Java MolfileCreator 2.0

  0  0  0  0  0  0              0 V3000
M  V30 BEGIN CTAB
M  V30 COUNTS 30 32 0 0 0
M  V30 BEGIN ATOM
M  V30 1 Br 4.3301 6.0 0.0 0
M  V30 2 C 3.4641 5.4999 0.0 0
M  V30 3 C 3.4641 4.4999 0.0 0
M  V30 4 C 2.598 5.9999 0.0 0
M  V30 5 O 4.3301 3.9999 0.0 0
M  V30 6 C 2.598 3.9999 0.0 0
M  V30 7 C 1.732 5.5 0.0 0
M  V30 8 C 4.3301 2.9999 0.0 0
M  V30 9 C 1.732 4.5 0.0 0
M  V30 10 C 5.1961 2.4999 0.0 0
M  V30 11 C 3.4641 2.4999 0.0 0
M  V30 12 C 5.1961 1.4999 0.0 0
M  V30 13 C 3.4641 1.4999 0.0 0
M  V30 14 C 4.3301 0.9999 0.0 0
M  V30 15 C 4.3301 0.0 0.0 0
M  V30 16 C 3.4641 -0.5 0.0 0
M  V30 17 N 2.598 0.0 0.0 0
M  V30 18 C 3.4641 -1.5 0.0 0
M  V30 19 C 1.732 -0.5 0.0 0
M  V30 20 O 2.598 -1.9999 0.0 0
M  V30 21 O 4.3301 -2.0 0.0 0 CHG=-1
M  V30 22 O 1.732 -1.5 0.0 0
M  V30 23 C 0.866 0.0 0.0 0
M  V30 24 C 0.0 -0.5 0.0 0
M  V30 25 C -0.866 0.0 0.0 0
M  V30 26 C 0.0 -1.4999 0.0 0
M  V30 27 C -1.732 -0.4999 0.0 0
M  V30 28 C -0.866 -1.9999 0.0 0
M  V30 29 C -1.732 -1.4999 0.0 0
M  V30 30 Br -2.598 -1.9999 0.0 0
M  V30 END ATOM
M  V30 BEGIN BOND
M  V30 1 1 1 2
M  V30 2 2 2 3
M  V30 3 1 2 4
M  V30 4 1 3 5
M  V30 5 1 3 6
M  V30 6 2 4 7
M  V30 7 1 5 8
M  V30 8 2 6 9
M  V30 9 2 8 10
M  V30 10 1 8 11
M  V30 11 1 10 12
M  V30 12 2 11 13
M  V30 13 2 12 14
M  V30 14 1 14 15
M  V30 15 2 15 16
M  V30 16 1 16 17
M  V30 17 1 16 18
M  V30 18 1 17 19
M  V30 19 2 18 20
M  V30 20 1 18 21
M  V30 21 2 19 22
M  V30 22 1 19 23
M  V30 23 1 23 24
M  V30 24 2 24 25
M  V30 25 1 24 26
M  V30 26 1 25 27
M  V30 27 2 26 28
M  V30 28 2 27 29
M  V30 29 1 29 30
M  V30 30 1 7 9
M  V30 31 1 13 14
M  V30 32 1 28 29
M  V30 END BOND
M  V30 END CTAB
M  END
>  <smiles>
c1ccc(c(c1)Oc2ccc(cc2)/C=C(/C(=O)[O-])\NC(=O)Cc3ccc(cc3)Br)Br

$$$$
Compound 19
Actelion Java MolfileCreator 2.0

  0  0  0  0  0  0              0 V3000
M  V30 BEGIN CTAB
M  V30 COUNTS 31 33 0 0 0
M  V30 BEGIN ATOM
M  V30 1 Br 5.1961 -6.4999 0.0 0
M  V30 2 C 6.0621 -6.0 0.0 0
M  V30 3 C 6.0621 -4.9999 0.0 0
M  V30 4 C 6.9282 -6.5 0.0 0
M  V30 5 O 5.1961 -4.5 0.0 0
M  V30 6 C 6.9282 -4.4999 0.0 0
M  V30 7 C 7.7942 -6.0 0.0 0
M  V30 8 C 5.1961 -3.4999 0.0 0
M  V30 9 C 7.7942 -5.0 0.0 0
M  V30 10 C 4.3301 -3.0 0.0 0
M  V30 11 C 6.0621 -2.9999 0.0 0
M  V30 12 C 4.3301 -2.0 0.0 0
M  V30 13 C 6.0621 -1.9999 0.0 0
M  V30 14 C 5.1961 -1.5 0.0 0
M  V30 15 C 5.1961 -0.5 0.0 0
M  V30 16 C 4.3301 0.0 0.0 0
M  V30 17 N 3.4641 -0.5 0.0 0
M  V30 18 C 4.3301 1.0 0.0 0
M  V30 19 C 2.598 0.0 0.0 0
M  V30 20 O 5.1961 1.4999 0.0 0
M  V30 21 O 3.4641 1.5 0.0 0 CHG=-1
M  V30 22 O 2.598 1.0 0.0 0
M  V30 23 C 1.732 -0.5 0.0 0
M  V30 24 C 0.866 0.0 0.0 0
M  V30 25 C 0.0 -0.5 0.0 0
M  V30 26 C -0.866 0.0 0.0 0
M  V30 27 C 0.0 -1.4999 0.0 0
M  V30 28 C -1.732 -0.4999 0.0 0
M  V30 29 C -0.866 -1.9999 0.0 0
M  V30 30 C -1.732 -1.4999 0.0 0
M  V30 31 F -2.598 -1.9999 0.0 0
M  V30 END ATOM
M  V30 BEGIN BOND
M  V30 1 1 1 2
M  V30 2 2 2 3
M  V30 3 1 2 4
M  V30 4 1 3 5
M  V30 5 1 3 6
M  V30 6 2 4 7
M  V30 7 1 5 8
M  V30 8 2 6 9
M  V30 9 2 8 10
M  V30 10 1 8 11
M  V30 11 1 10 12
M  V30 12 2 11 13
M  V30 13 2 12 14
M  V30 14 1 14 15
M  V30 15 2 15 16
M  V30 16 1 16 17
M  V30 17 1 16 18
M  V30 18 1 17 19
M  V30 19 2 18 20
M  V30 20 1 18 21
M  V30 21 2 19 22
M  V30 22 1 19 23
M  V30 23 1 23 24
M  V30 24 1 24 25
M  V30 25 2 25 26
M  V30 26 1 25 27
M  V30 27 1 26 28
M  V30 28 2 27 29
M  V30 29 2 28 30
M  V30 30 1 30 31
M  V30 31 1 7 9
M  V30 32 1 13 14
M  V30 33 1 29 30
M  V30 END BOND
M  V30 END CTAB
M  END
>  <smiles>
c1ccc(c(c1)Oc2ccc(cc2)/C=C(/C(=O)[O-])\NC(=O)CCc3ccc(cc3)F)Br

$$$$
Compound 20
Actelion Java MolfileCreator 2.0

  0  0  0  0  0  0              0 V3000
M  V30 BEGIN CTAB
M  V30 COUNTS 30 32 0 0 0
M  V30 BEGIN ATOM
M  V30 1 Br 4.3301 6.0 0.0 0
M  V30 2 C 3.4641 5.4999 0.0 0
M  V30 3 C 3.4641 4.4999 0.0 0
M  V30 4 C 2.598 5.9999 0.0 0
M  V30 5 O 4.3301 3.9999 0.0 0
M  V30 6 C 2.598 3.9999 0.0 0
M  V30 7 C 1.732 5.5 0.0 0
M  V30 8 C 4.3301 2.9999 0.0 0
M  V30 9 C 1.732 4.5 0.0 0
M  V30 10 C 5.1961 2.4999 0.0 0
M  V30 11 C 3.4641 2.4999 0.0 0
M  V30 12 C 5.1961 1.4999 0.0 0
M  V30 13 C 3.4641 1.4999 0.0 0
M  V30 14 C 4.3301 0.9999 0.0 0
M  V30 15 C 4.3301 0.0 0.0 0
M  V30 16 C 3.4641 -0.5 0.0 0
M  V30 17 N 2.598 0.0 0.0 0
M  V30 18 C 3.4641 -1.5 0.0 0
M  V30 19 C 1.732 -0.5 0.0 0
M  V30 20 O 2.598 -1.9999 0.0 0
M  V30 21 O 4.3301 -2.0 0.0 0 CHG=-1
M  V30 22 O 1.732 -1.5 0.0 0
M  V30 23 C 0.866 0.0 0.0 0
M  V30 24 C 0.0 -0.5 0.0 0
M  V30 25 C -0.866 0.0 0.0 0
M  V30 26 C 0.0 -1.4999 0.0 0
M  V30 27 C -1.732 -0.4999 0.0 0
M  V30 28 C -0.866 -1.9999 0.0 0
M  V30 29 C -1.732 -1.4999 0.0 0
M  V30 30 Cl -2.598 -1.9999 0.0 0
M  V30 END ATOM
M  V30 BEGIN BOND
M  V30 1 1 1 2
M  V30 2 2 2 3
M  V30 3 1 2 4
M  V30 4 1 3 5
M  V30 5 1 3 6
M  V30 6 2 4 7
M  V30 7 1 5 8
M  V30 8 2 6 9
M  V30 9 2 8 10
M  V30 10 1 8 11
M  V30 11 1 10 12
M  V30 12 2 11 13
M  V30 13 2 12 14
M  V30 14 1 14 15
M  V30 15 2 15 16
M  V30 16 1 16 17
M  V30 17 1 16 18
M  V30 18 1 17 19
M  V30 19 2 18 20
M  V30 20 1 18 21
M  V30 21 2 19 22
M  V30 22 1 19 23
M  V30 23 1 23 24
M  V30 24 2 24 25
M  V30 25 1 24 26
M  V30 26 1 25 27
M  V30 27 2 26 28
M  V30 28 2 27 29
M  V30 29 1 29 30
M  V30 30 1 7 9
M  V30 31 1 13 14
M  V30 32 1 28 29
M  V30 END BOND
M  V30 END CTAB
M  END
>  <smiles>
c1ccc(c(c1)Oc2ccc(cc2)/C=C(/C(=O)[O-])\NC(=O)Cc3ccc(cc3)Cl)Br

$$$$
Compound 21
Actelion Java MolfileCreator 2.0

  0  0  0  0  0  0              0 V3000
M  V30 BEGIN CTAB
M  V30 COUNTS 30 32 0 0 0
M  V30 BEGIN ATOM
M  V30 1 I 9.0932 -7.4999 0.0 0
M  V30 2 C 7.7942 -6.7499 0.0 0
M  V30 3 C 6.4951 -7.4999 0.0 0
M  V30 4 C 7.7942 -5.2499 0.0 0
M  V30 5 C 5.1961 -6.75 0.0 0
M  V30 6 C 6.4951 -4.5 0.0 0
M  V30 7 C 5.1961 -5.25 0.0 0
M  V30 8 C 3.8971 -4.5 0.0 0
M  V30 9 C 3.8971 -2.9999 0.0 0
M  V30 10 O 5.1961 -2.2499 0.0 0
M  V30 11 N 2.598 -2.2499 0.0 0
M  V30 12 C 2.598 -0.75 0.0 0
M  V30 13 C 3.8971 0.0 0.0 0
M  V30 14 C 1.299 0.0 0.0 0
M  V30 15 O 3.8971 1.4999 0.0 0
M  V30 16 O 5.1961 -0.7499 0.0 0 CHG=-1
M  V30 17 C 0.0 -0.75 0.0 0
M  V30 18 C -1.299 0.0 0.0 0
M  V30 19 C 0.0 -2.2499 0.0 0
M  V30 20 C -2.598 -0.7499 0.0 0
M  V30 21 C -1.299 -2.9999 0.0 0
M  V30 22 C -2.598 -2.2499 0.0 0
M  V30 23 O -3.8971 -2.9999 0.0 0
M  V30 24 C -3.8971 -4.4999 0.0 0
M  V30 25 C -5.1961 -5.2499 0.0 0
M  V30 26 C -2.598 -5.2499 0.0 0
M  V30 27 Br -6.4951 -4.4999 0.0 0
M  V30 28 C -5.1961 -6.7499 0.0 0
M  V30 29 C -2.598 -6.7499 0.0 0
M  V30 30 C -3.8971 -7.4999 0.0 0
M  V30 END ATOM
M  V30 BEGIN BOND
M  V30 1 1 1 2
M  V30 2 2 2 3
M  V30 3 1 2 4
M  V30 4 1 3 5
M  V30 5 2 4 6
M  V30 6 2 5 7
M  V30 7 1 7 8
M  V30 8 1 8 9
M  V30 9 2 9 10
M  V30 10 1 9 11
M  V30 11 1 11 12
M  V30 12 1 12 13
M  V30 13 2 12 14
M  V30 14 2 13 15
M  V30 15 1 13 16
M  V30 16 1 14 17
M  V30 17 2 17 18
M  V30 18 1 17 19
M  V30 19 1 18 20
M  V30 20 2 19 21
M  V30 21 2 20 22
M  V30 22 1 22 23
M  V30 23 1 23 24
M  V30 24 2 24 25
M  V30 25 1 24 26
M  V30 26 1 25 27
M  V30 27 1 25 28
M  V30 28 2 26 29
M  V30 29 2 28 30
M  V30 30 1 6 7
M  V30 31 1 21 22
M  V30 32 1 29 30
M  V30 END BOND
M  V30 END CTAB
M  END
>  <smiles>
c1ccc(c(c1)Oc2ccc(cc2)/C=C(/C(=O)[O-])\NC(=O)Cc3ccc(cc3)I)Br

$$$$
Compound 22
Actelion Java MolfileCreator 2.0

  0  0  0  0  0  0              0 V3000
M  V30 BEGIN CTAB
M  V30 COUNTS 29 31 0 0 0
M  V30 BEGIN ATOM
M  V30 1 Br 12.9903 3.75 0.0 0
M  V30 2 C 12.9903 2.2499 0.0 0
M  V30 3 C 11.6913 1.4999 0.0 0
M  V30 4 C 14.2894 1.5 0.0 0
M  V30 5 O 10.3923 2.2499 0.0 0
M  V30 6 C 11.6913 0.0 0.0 0
M  V30 7 C 14.2894 0.0 0.0 0
M  V30 8 C 9.0932 1.4999 0.0 0
M  V30 9 C 12.9903 -0.75 0.0 0
M  V30 10 C 7.7942 2.2499 0.0 0
M  V30 11 C 9.0932 0.0 0.0 0
M  V30 12 C 6.4951 1.5 0.0 0
M  V30 13 C 7.7942 -0.75 0.0 0
M  V30 14 C 6.4951 0.0 0.0 0
M  V30 15 C 5.1961 -0.75 0.0 0
M  V30 16 C 3.8971 0.0 0.0 0
M  V30 17 N 3.8971 1.4999 0.0 0
M  V30 18 C 2.598 -0.75 0.0 0
M  V30 19 C 2.598 2.2499 0.0 0
M  V30 20 O 2.598 -2.25 0.0 0
M  V30 21 O 1.299 0.0 0.0 0 CHG=-1
M  V30 22 O 1.299 1.4999 0.0 0
M  V30 23 C 2.598 3.75 0.0 0
M  V30 24 C 1.299 4.4999 0.0 0
M  V30 25 C 3.8971 4.5 0.0 0
M  V30 26 C 1.299 5.9999 0.0 0
M  V30 27 C 3.8971 6.0 0.0 0
M  V30 28 C 2.598 6.7499 0.0 0
M  V30 29 Br 2.598 8.25 0.0 0
M  V30 END ATOM
M  V30 BEGIN BOND
M  V30 1 1 1 2
M  V30 2 2 2 3
M  V30 3 1 2 4
M  V30 4 1 3 5
M  V30 5 1 3 6
M  V30 6 2 4 7
M  V30 7 1 5 8
M  V30 8 2 6 9
M  V30 9 2 8 10
M  V30 10 1 8 11
M  V30 11 1 10 12
M  V30 12 2 11 13
M  V30 13 2 12 14
M  V30 14 1 14 15
M  V30 15 2 15 16
M  V30 16 1 16 17
M  V30 17 1 16 18
M  V30 18 1 17 19
M  V30 19 2 18 20
M  V30 20 1 18 21
M  V30 21 2 19 22
M  V30 22 1 19 23
M  V30 23 2 23 24
M  V30 24 1 23 25
M  V30 25 1 24 26
M  V30 26 2 25 27
M  V30 27 2 26 28
M  V30 28 1 28 29
M  V30 29 1 7 9
M  V30 30 1 13 14
M  V30 31 1 27 28
M  V30 END BOND
M  V30 END CTAB
M  END
>  <smiles>
c1ccc(c(c1)Oc2ccc(cc2)/C=C(/C(=O)[O-])\NC(=O)c3ccc(cc3)Br)Br

$$$$
Compound 23
Actelion Java MolfileCreator 2.0

  0  0  0  0  0  0              0 V3000
M  V30 BEGIN CTAB
M  V30 COUNTS 32 34 0 0 0
M  V30 BEGIN ATOM
M  V30 1 Br 9.5262 3.9999 0.0 0
M  V30 2 C 9.5262 2.9999 0.0 0
M  V30 3 C 8.6602 2.4999 0.0 0
M  V30 4 C 10.3923 2.4999 0.0 0
M  V30 5 O 7.7942 2.9999 0.0 0
M  V30 6 C 8.6602 1.4999 0.0 0
M  V30 7 C 10.3923 1.4999 0.0 0
M  V30 8 C 6.9282 2.4999 0.0 0
M  V30 9 C 9.5262 0.9999 0.0 0
M  V30 10 C 6.0621 2.9999 0.0 0
M  V30 11 C 6.9282 1.4999 0.0 0
M  V30 12 C 5.1961 2.4999 0.0 0
M  V30 13 C 6.0621 0.9999 0.0 0
M  V30 14 C 5.1961 1.4999 0.0 0
M  V30 15 C 4.3301 0.9999 0.0 0
M  V30 16 C 4.3301 0.0 0.0 0
M  V30 17 N 5.1961 -0.5 0.0 0
M  V30 18 C 3.4641 -0.5 0.0 0
M  V30 19 C 5.1961 -1.5 0.0 0
M  V30 20 O 3.4641 -1.5 0.0 0
M  V30 21 N 2.598 0.0 0.0 0
M  V30 22 O 4.3301 -2.0 0.0 0
M  V30 23 C 6.0621 -1.9999 0.0 0
M  V30 24 C 1.732 -0.5 0.0 0
M  V30 25 C 6.0621 -3.0 0.0 0
M  V30 26 C 6.9282 -1.5 0.0 0
M  V30 27 C 0.866 0.0 0.0 0
M  V30 28 C 6.9282 -3.5 0.0 0
M  V30 29 C 7.7942 -2.0 0.0 0
M  V30 30 O 0.866 1.0 0.0 0
M  V30 31 O 0.0 -0.5 0.0 0 CHG=-1
M  V30 32 C 7.7942 -2.9999 0.0 0
M  V30 END ATOM
M  V30 BEGIN BOND
M  V30 1 1 1 2
M  V30 2 2 2 3
M  V30 3 1 2 4
M  V30 4 1 3 5
M  V30 5 1 3 6
M  V30 6 2 4 7
M  V30 7 1 5 8
M  V30 8 2 6 9
M  V30 9 2 8 10
M  V30 10 1 8 11
M  V30 11 1 10 12
M  V30 12 2 11 13
M  V30 13 2 12 14
M  V30 14 1 14 15
M  V30 15 2 15 16
M  V30 16 1 16 17
M  V30 17 1 16 18
M  V30 18 1 17 19
M  V30 19 2 18 20
M  V30 20 1 18 21
M  V30 21 2 19 22
M  V30 22 1 19 23
M  V30 23 1 21 24
M  V30 24 2 23 25
M  V30 25 1 23 26
M  V30 26 1 24 27
M  V30 27 1 25 28
M  V30 28 2 26 29
M  V30 29 2 27 30
M  V30 30 1 27 31
M  V30 31 2 28 32
M  V30 32 1 7 9
M  V30 33 1 13 14
M  V30 34 1 29 32
M  V30 END BOND
M  V30 END CTAB
M  END
>  <smiles>
c1ccc(cc1)C(=O)N/C(=C\c2ccc(cc2)Oc3ccccc3Br)/C(=O)NCC(=O)[O-]

$$$$
Compound 24
Actelion Java MolfileCreator 2.0

  0  0  0  0  0  0              0 V3000
M  V30 BEGIN CTAB
M  V30 COUNTS 31 33 0 0 0
M  V30 BEGIN ATOM
M  V30 1 Br 5.1961 -6.4999 0.0 0
M  V30 2 C 6.0621 -6.0 0.0 0
M  V30 3 C 6.0621 -4.9999 0.0 0
M  V30 4 C 6.9282 -6.5 0.0 0
M  V30 5 O 5.1961 -4.5 0.0 0
M  V30 6 C 6.9282 -4.4999 0.0 0
M  V30 7 C 7.7942 -6.0 0.0 0
M  V30 8 C 5.1961 -3.4999 0.0 0
M  V30 9 C 7.7942 -5.0 0.0 0
M  V30 10 C 4.3301 -3.0 0.0 0
M  V30 11 C 6.0621 -2.9999 0.0 0
M  V30 12 C 4.3301 -2.0 0.0 0
M  V30 13 C 6.0621 -1.9999 0.0 0
M  V30 14 C 5.1961 -1.5 0.0 0
M  V30 15 C 5.1961 -0.5 0.0 0
M  V30 16 C 4.3301 0.0 0.0 0
M  V30 17 N 3.4641 -0.5 0.0 0
M  V30 18 C 4.3301 1.0 0.0 0
M  V30 19 C 2.598 0.0 0.0 0
M  V30 20 O 5.1961 1.4999 0.0 0
M  V30 21 O 3.4641 1.5 0.0 0 CHG=-1
M  V30 22 O 2.598 1.0 0.0 0
M  V30 23 C 1.732 -0.5 0.0 0
M  V30 24 C 0.866 0.0 0.0 0
M  V30 25 C 0.0 -0.5 0.0 0
M  V30 26 C -0.866 0.0 0.0 0
M  V30 27 C 0.0 -1.4999 0.0 0
M  V30 28 C -1.732 -0.4999 0.0 0
M  V30 29 C -0.866 -1.9999 0.0 0
M  V30 30 C -1.732 -1.4999 0.0 0
M  V30 31 Cl -2.598 -1.9999 0.0 0
M  V30 END ATOM
M  V30 BEGIN BOND
M  V30 1 1 1 2
M  V30 2 2 2 3
M  V30 3 1 2 4
M  V30 4 1 3 5
M  V30 5 1 3 6
M  V30 6 2 4 7
M  V30 7 1 5 8
M  V30 8 2 6 9
M  V30 9 2 8 10
M  V30 10 1 8 11
M  V30 11 1 10 12
M  V30 12 2 11 13
M  V30 13 2 12 14
M  V30 14 1 14 15
M  V30 15 2 15 16
M  V30 16 1 16 17
M  V30 17 1 16 18
M  V30 18 1 17 19
M  V30 19 2 18 20
M  V30 20 1 18 21
M  V30 21 2 19 22
M  V30 22 1 19 23
M  V30 23 1 23 24
M  V30 24 1 24 25
M  V30 25 2 25 26
M  V30 26 1 25 27
M  V30 27 1 26 28
M  V30 28 2 27 29
M  V30 29 2 28 30
M  V30 30 1 30 31
M  V30 31 1 7 9
M  V30 32 1 13 14
M  V30 33 1 29 30
M  V30 END BOND
M  V30 END CTAB
M  END
>  <smiles>
c1ccc(c(c1)Oc2ccc(cc2)/C=C(/C(=O)[O-])\NC(=O)CCc3ccc(cc3)Cl)Br

$$$$
Compound 25
Actelion Java MolfileCreator 2.0

  0  0  0  0  0  0              0 V3000
M  V30 BEGIN CTAB
M  V30 COUNTS 28 30 0 0 0
M  V30 BEGIN ATOM
M  V30 1 Br 12.9903 3.75 0.0 0
M  V30 2 C 12.9903 2.2499 0.0 0
M  V30 3 C 11.6913 1.4999 0.0 0
M  V30 4 C 14.2894 1.5 0.0 0
M  V30 5 O 10.3923 2.2499 0.0 0
M  V30 6 C 11.6913 0.0 0.0 0
M  V30 7 C 14.2894 0.0 0.0 0
M  V30 8 C 9.0932 1.4999 0.0 0
M  V30 9 C 12.9903 -0.75 0.0 0
M  V30 10 C 7.7942 2.2499 0.0 0
M  V30 11 C 9.0932 0.0 0.0 0
M  V30 12 C 6.4951 1.5 0.0 0
M  V30 13 C 7.7942 -0.75 0.0 0
M  V30 14 C 6.4951 0.0 0.0 0
M  V30 15 C 5.1961 -0.75 0.0 0
M  V30 16 C 3.8971 0.0 0.0 0
M  V30 17 N 3.8971 1.4999 0.0 0
M  V30 18 C 2.598 -0.75 0.0 0
M  V30 19 C 2.598 2.2499 0.0 0
M  V30 20 O 2.598 -2.25 0.0 0
M  V30 21 O 1.299 0.0 0.0 0 CHG=-1
M  V30 22 O 1.299 1.4999 0.0 0
M  V30 23 C 2.598 3.75 0.0 0
M  V30 24 C 1.299 4.4999 0.0 0
M  V30 25 C 3.8971 4.5 0.0 0
M  V30 26 C 1.299 5.9999 0.0 0
M  V30 27 C 3.8971 6.0 0.0 0
M  V30 28 C 2.598 6.7499 0.0 0
M  V30 END ATOM
M  V30 BEGIN BOND
M  V30 1 1 1 2
M  V30 2 2 2 3
M  V30 3 1 2 4
M  V30 4 1 3 5
M  V30 5 1 3 6
M  V30 6 2 4 7
M  V30 7 1 5 8
M  V30 8 2 6 9
M  V30 9 2 8 10
M  V30 10 1 8 11
M  V30 11 1 10 12
M  V30 12 2 11 13
M  V30 13 2 12 14
M  V30 14 1 14 15
M  V30 15 2 15 16
M  V30 16 1 16 17
M  V30 17 1 16 18
M  V30 18 1 17 19
M  V30 19 2 18 20
M  V30 20 1 18 21
M  V30 21 2 19 22
M  V30 22 1 19 23
M  V30 23 1 23 24
M  V30 24 1 23 25
M  V30 25 1 24 26
M  V30 26 1 25 27
M  V30 27 1 26 28
M  V30 28 1 7 9
M  V30 29 1 13 14
M  V30 30 1 27 28
M  V30 END BOND
M  V30 END CTAB
M  END
>  <smiles>
c1ccc(c(c1)Oc2ccc(cc2)/C=C(/C(=O)[O-])\NC(=O)C3CCCCC3)Br

$$$$
Compound 26
Actelion Java MolfileCreator 2.0

  0  0  0  0  0  0              0 V3000
M  V30 BEGIN CTAB
M  V30 COUNTS 29 31 0 0 0
M  V30 BEGIN ATOM
M  V30 1 Br 12.9903 3.75 0.0 0
M  V30 2 C 12.9903 2.2499 0.0 0
M  V30 3 C 11.6913 1.4999 0.0 0
M  V30 4 C 14.2894 1.5 0.0 0
M  V30 5 O 10.3923 2.2499 0.0 0
M  V30 6 C 11.6913 0.0 0.0 0
M  V30 7 C 14.2894 0.0 0.0 0
M  V30 8 C 9.0932 1.4999 0.0 0
M  V30 9 F 10.3923 -0.75 0.0 0
M  V30 10 C 12.9903 -0.75 0.0 0
M  V30 11 C 7.7942 2.2499 0.0 0
M  V30 12 C 9.0932 0.0 0.0 0
M  V30 13 C 6.4951 1.5 0.0 0
M  V30 14 C 7.7942 -0.75 0.0 0
M  V30 15 C 6.4951 0.0 0.0 0
M  V30 16 C 5.1961 -0.75 0.0 0
M  V30 17 C 3.8971 0.0 0.0 0
M  V30 18 N 3.8971 1.4999 0.0 0
M  V30 19 C 2.598 -0.75 0.0 0
M  V30 20 C 2.598 2.2499 0.0 0
M  V30 21 O 2.598 -2.25 0.0 0
M  V30 22 O 1.299 0.0 0.0 0 CHG=-1
M  V30 23 O 1.299 1.4999 0.0 0
M  V30 24 C 2.598 3.75 0.0 0
M  V30 25 C 1.299 4.4999 0.0 0
M  V30 26 C 3.8971 4.5 0.0 0
M  V30 27 C 1.299 5.9999 0.0 0
M  V30 28 C 3.8971 6.0 0.0 0
M  V30 29 C 2.598 6.7499 0.0 0
M  V30 END ATOM
M  V30 BEGIN BOND
M  V30 1 1 1 2
M  V30 2 2 2 3
M  V30 3 1 2 4
M  V30 4 1 3 5
M  V30 5 1 3 6
M  V30 6 2 4 7
M  V30 7 1 5 8
M  V30 8 1 6 9
M  V30 9 2 6 10
M  V30 10 2 8 11
M  V30 11 1 8 12
M  V30 12 1 11 13
M  V30 13 2 12 14
M  V30 14 2 13 15
M  V30 15 1 15 16
M  V30 16 2 16 17
M  V30 17 1 17 18
M  V30 18 1 17 19
M  V30 19 1 18 20
M  V30 20 2 19 21
M  V30 21 1 19 22
M  V30 22 2 20 23
M  V30 23 1 20 24
M  V30 24 2 24 25
M  V30 25 1 24 26
M  V30 26 1 25 27
M  V30 27 2 26 28
M  V30 28 2 27 29
M  V30 29 1 7 10
M  V30 30 1 14 15
M  V30 31 1 28 29
M  V30 END BOND
M  V30 END CTAB
M  END
>  <smiles>
c1ccc(cc1)C(=O)N/C(=C\c2ccc(cc2)Oc3c(cccc3Br)F)/C(=O)[O-]

$$$$
Compound 27
Actelion Java MolfileCreator 2.0

  0  0  0  0  0  0              0 V3000
M  V30 BEGIN CTAB
M  V30 COUNTS 30 32 0 0 0
M  V30 BEGIN ATOM
M  V30 1 Br 3.4641 -6.5 0.0 0
M  V30 2 C 4.3301 -6.0 0.0 0
M  V30 3 C 4.3301 -4.9999 0.0 0
M  V30 4 C 5.1961 -6.5 0.0 0
M  V30 5 O 3.4641 -4.4999 0.0 0
M  V30 6 C 5.1961 -4.4999 0.0 0
M  V30 7 C 6.0621 -6.0 0.0 0
M  V30 8 C 3.4641 -3.5 0.0 0
M  V30 9 C 6.0621 -5.0 0.0 0
M  V30 10 C 2.598 -3.0 0.0 0
M  V30 11 C 4.3301 -3.0 0.0 0
M  V30 12 C 2.598 -2.0 0.0 0
M  V30 13 C 4.3301 -1.9999 0.0 0
M  V30 14 C 3.4641 -1.5 0.0 0
M  V30 15 C 3.4641 -0.5 0.0 0
M  V30 16 C 2.598 0.0 0.0 0
M  V30 17 N 1.732 -0.5 0.0 0
M  V30 18 C 2.598 1.0 0.0 0
M  V30 19 C 0.866 0.0 0.0 0
M  V30 20 O 3.4641 1.4999 0.0 0
M  V30 21 O 1.732 1.5 0.0 0 CHG=-1
M  V30 22 O 0.866 1.0 0.0 0
M  V30 23 C 0.0 -0.5 0.0 0
M  V30 24 C -0.866 0.0 0.0 0
M  V30 25 C 0.0 -1.4999 0.0 0
M  V30 26 F -0.866 1.0 0.0 0
M  V30 27 C -1.732 -0.4999 0.0 0
M  V30 28 C -0.866 -1.9999 0.0 0
M  V30 29 C -1.732 -1.4999 0.0 0
M  V30 30 F -2.598 -1.9999 0.0 0
M  V30 END ATOM
M  V30 BEGIN BOND
M  V30 1 1 1 2
M  V30 2 2 2 3
M  V30 3 1 2 4
M  V30 4 1 3 5
M  V30 5 1 3 6
M  V30 6 2 4 7
M  V30 7 1 5 8
M  V30 8 2 6 9
M  V30 9 2 8 10
M  V30 10 1 8 11
M  V30 11 1 10 12
M  V30 12 2 11 13
M  V30 13 2 12 14
M  V30 14 1 14 15
M  V30 15 2 15 16
M  V30 16 1 16 17
M  V30 17 1 16 18
M  V30 18 1 17 19
M  V30 19 2 18 20
M  V30 20 1 18 21
M  V30 21 2 19 22
M  V30 22 1 19 23
M  V30 23 2 23 24
M  V30 24 1 23 25
M  V30 25 1 24 26
M  V30 26 1 24 27
M  V30 27 2 25 28
M  V30 28 2 27 29
M  V30 29 1 29 30
M  V30 30 1 7 9
M  V30 31 1 13 14
M  V30 32 1 28 29
M  V30 END BOND
M  V30 END CTAB
M  END
>  <smiles>
c1ccc(c(c1)Oc2ccc(cc2)/C=C(/C(=O)[O-])\NC(=O)c3ccc(cc3F)F)Br

$$$$
Compound 28
Actelion Java MolfileCreator 2.0

  0  0  0  0  0  0              0 V3000
M  V30 BEGIN CTAB
M  V30 COUNTS 28 29 0 0 0
M  V30 BEGIN ATOM
M  V30 1 I 18.1865 3.75 0.0 0
M  V30 2 C 18.1865 2.25 0.0 0
M  V30 3 C 16.8874 1.5 0.0 0
M  V30 4 C 19.4855 1.5 0.0 0
M  V30 5 O 15.5884 2.25 0.0 0
M  V30 6 C 16.8874 0.0 0.0 0
M  V30 7 C 19.4855 0.0 0.0 0
M  V30 8 C 14.2894 1.5 0.0 0
M  V30 9 C 18.1865 -0.7499 0.0 0
M  V30 10 C 12.9903 2.25 0.0 0
M  V30 11 C 14.2894 0.0 0.0 0
M  V30 12 C 11.6913 1.5 0.0 0
M  V30 13 C 12.9903 -0.7499 0.0 0
M  V30 14 C 11.6913 0.0 0.0 0
M  V30 15 C 10.3923 -0.75 0.0 0
M  V30 16 C 9.0932 0.0 0.0 0
M  V30 17 N 9.0932 1.5 0.0 0
M  V30 18 C 7.7942 -0.7499 0.0 0
M  V30 19 C 7.7942 2.25 0.0 0
M  V30 20 O 7.7942 -2.2499 0.0 0
M  V30 21 O 6.4951 0.0 0.0 0 CHG=-1
M  V30 22 O 6.4951 1.5 0.0 0
M  V30 23 C 7.7942 3.75 0.0 0
M  V30 24 C 6.4951 4.5 0.0 0
M  V30 25 C 6.4951 6.0 0.0 0
M  V30 26 C 5.1961 6.75 0.0 0
M  V30 27 O 3.8971 6.0 0.0 0
M  V30 28 O 5.1961 8.25 0.0 0 CHG=-1
M  V30 END ATOM
M  V30 BEGIN BOND
M  V30 1 1 1 2
M  V30 2 2 2 3
M  V30 3 1 2 4
M  V30 4 1 3 5
M  V30 5 1 3 6
M  V30 6 2 4 7
M  V30 7 1 5 8
M  V30 8 2 6 9
M  V30 9 2 8 10
M  V30 10 1 8 11
M  V30 11 1 10 12
M  V30 12 2 11 13
M  V30 13 2 12 14
M  V30 14 1 14 15
M  V30 15 2 15 16
M  V30 16 1 16 17
M  V30 17 1 16 18
M  V30 18 1 17 19
M  V30 19 2 18 20
M  V30 20 1 18 21
M  V30 21 2 19 22
M  V30 22 1 19 23
M  V30 23 1 23 24
M  V30 24 1 24 25
M  V30 25 1 25 26
M  V30 26 2 26 27
M  V30 27 1 26 28
M  V30 28 1 7 9
M  V30 29 1 13 14
M  V30 END BOND
M  V30 END CTAB
M  END
>  <smiles>
c1ccc(c(c1)Oc2ccc(cc2)/C=C(/C(=O)[O-])\NC(=O)CCCC(=O)[O-])I

$$$$
Compound 29
Actelion Java MolfileCreator 2.0

  0  0  0  0  0  0              0 V3000
M  V30 BEGIN CTAB
M  V30 COUNTS 29 31 0 0 0
M  V30 BEGIN ATOM
M  V30 1 Br 12.9903 3.75 0.0 0
M  V30 2 C 12.9903 2.2499 0.0 0
M  V30 3 C 11.6913 1.4999 0.0 0
M  V30 4 C 14.2894 1.5 0.0 0
M  V30 5 O 10.3923 2.2499 0.0 0
M  V30 6 C 11.6913 0.0 0.0 0
M  V30 7 C 14.2894 0.0 0.0 0
M  V30 8 C 9.0932 1.4999 0.0 0
M  V30 9 C 12.9903 -0.75 0.0 0
M  V30 10 C 7.7942 2.2499 0.0 0
M  V30 11 C 9.0932 0.0 0.0 0
M  V30 12 C 6.4951 1.5 0.0 0
M  V30 13 C 7.7942 -0.75 0.0 0
M  V30 14 C 6.4951 0.0 0.0 0
M  V30 15 C 5.1961 -0.75 0.0 0
M  V30 16 C 3.8971 0.0 0.0 0
M  V30 17 N 3.8971 1.4999 0.0 0
M  V30 18 C 2.598 -0.75 0.0 0
M  V30 19 C 2.598 2.2499 0.0 0
M  V30 20 O 2.598 -2.25 0.0 0
M  V30 21 O 1.299 0.0 0.0 0 CHG=-1
M  V30 22 O 1.299 1.4999 0.0 0
M  V30 23 C 2.598 3.75 0.0 0
M  V30 24 C 1.299 4.4999 0.0 0
M  V30 25 C 3.8971 4.5 0.0 0
M  V30 26 C 1.299 5.9999 0.0 0
M  V30 27 C 3.8971 6.0 0.0 0
M  V30 28 F 0.0 6.7499 0.0 0
M  V30 29 C 2.598 6.7499 0.0 0
M  V30 END ATOM
M  V30 BEGIN BOND
M  V30 1 1 1 2
M  V30 2 2 2 3
M  V30 3 1 2 4
M  V30 4 1 3 5
M  V30 5 1 3 6
M  V30 6 2 4 7
M  V30 7 1 5 8
M  V30 8 2 6 9
M  V30 9 2 8 10
M  V30 10 1 8 11
M  V30 11 1 10 12
M  V30 12 2 11 13
M  V30 13 2 12 14
M  V30 14 1 14 15
M  V30 15 2 15 16
M  V30 16 1 16 17
M  V30 17 1 16 18
M  V30 18 1 17 19
M  V30 19 2 18 20
M  V30 20 1 18 21
M  V30 21 2 19 22
M  V30 22 1 19 23
M  V30 23 2 23 24
M  V30 24 1 23 25
M  V30 25 1 24 26
M  V30 26 2 25 27
M  V30 27 1 26 28
M  V30 28 2 26 29
M  V30 29 1 7 9
M  V30 30 1 13 14
M  V30 31 1 27 29
M  V30 END BOND
M  V30 END CTAB
M  END
>  <smiles>
c1ccc(c(c1)Oc2ccc(cc2)/C=C(/C(=O)[O-])\NC(=O)c3cccc(c3)F)Br

$$$$
Compound 30
Actelion Java MolfileCreator 2.0

  0  0  0  0  0  0              0 V3000
M  V30 BEGIN CTAB
M  V30 COUNTS 32 36 0 0 0
M  V30 BEGIN ATOM
M  V30 1 Br -1.7002 -4.9101 0.0 0
M  V30 2 C -1.8926 -3.9287 0.0 0
M  V30 3 C -1.1389 -3.2715 0.0 0
M  V30 4 C -2.8386 -3.6046 0.0 0
M  V30 5 O -0.1929 -3.5956 0.0 0
M  V30 6 C -1.3312 -2.2902 0.0 0
M  V30 7 C -3.0309 -2.6233 0.0 0
M  V30 8 C 0.5607 -2.9384 0.0 0
M  V30 9 C -2.2772 -1.9661 0.0 0
M  V30 10 C 1.5067 -3.2625 0.0 0
M  V30 11 C 0.3684 -1.9571 0.0 0
M  V30 12 C 2.2604 -2.6053 0.0 0
M  V30 13 C 1.1221 -1.2998 0.0 0
M  V30 14 C 2.0681 -1.6239 0.0 0
M  V30 15 C 2.8218 -0.9667 0.0 0
M  V30 16 C 2.6295 0.0145 0.0 0
M  V30 17 N 1.6834 0.3386 0.0 0
M  V30 18 C 3.3832 0.6718 0.0 0
M  V30 19 C 1.4911 1.32 0.0 0
M  V30 20 O 4.3292 0.3477 0.0 0
M  V30 21 O 3.1908 1.6531 0.0 0 CHG=-1
M  V30 22 O 2.2448 1.9772 0.0 0
M  V30 23 C 0.5613 1.6385 0.0 0
M  V30 24 C -0.0902 0.7711 0.0 0
M  V30 25 C 0.1458 2.3111 0.0 0
M  V30 26 C 0.565 2.5839 0.0 0
M  V30 27 C -1.1038 1.122 0.0 0
M  V30 28 C -0.9954 2.7641 0.0 0
M  V30 29 C -0.3871 2.9587 0.0 0
M  V30 30 C -1.5919 1.9105 0.0 0
M  V30 31 C -1.0759 1.9121 0.0 0
M  V30 32 C -0.9575 3.7113 0.0 0
M  V30 END ATOM
M  V30 BEGIN BOND
M  V30 1 1 1 2
M  V30 2 2 2 3
M  V30 3 1 2 4
M  V30 4 1 3 5
M  V30 5 1 3 6
M  V30 6 2 4 7
M  V30 7 1 5 8
M  V30 8 2 6 9
M  V30 9 2 8 10
M  V30 10 1 8 11
M  V30 11 1 10 12
M  V30 12 2 11 13
M  V30 13 2 12 14
M  V30 14 1 14 15
M  V30 15 2 15 16
M  V30 16 1 16 17
M  V30 17 1 16 18
M  V30 18 1 17 19
M  V30 19 2 18 20
M  V30 20 1 18 21
M  V30 21 2 19 22
M  V30 22 1 19 23
M  V30 23 1 23 24
M  V30 24 1 23 25
M  V30 25 1 23 26
M  V30 26 1 24 27
M  V30 27 1 25 28
M  V30 28 1 26 29
M  V30 29 1 27 30
M  V30 30 1 27 31
M  V30 31 1 28 32
M  V30 32 1 7 9
M  V30 33 1 13 14
M  V30 34 1 28 30
M  V30 35 1 29 31
M  V30 36 1 29 32
M  V30 END BOND
M  V30 END CTAB
M  END
>  <smiles>
c1ccc(c(c1)Oc2ccc(cc2)/C=C(/C(=O)[O-])\NC(=O)C34CC5CC(C3)CC(C5)C4)Br

$$$$
Compound 31
Actelion Java MolfileCreator 2.0

  0  0  0  0  0  0              0 V3000
M  V30 BEGIN CTAB
M  V30 COUNTS 29 31 0 0 0
M  V30 BEGIN ATOM
M  V30 1 Br 12.9903 3.75 0.0 0
M  V30 2 C 12.9903 2.2499 0.0 0
M  V30 3 C 11.6913 1.4999 0.0 0
M  V30 4 C 14.2894 1.5 0.0 0
M  V30 5 O 10.3923 2.2499 0.0 0
M  V30 6 C 11.6913 0.0 0.0 0
M  V30 7 C 14.2894 0.0 0.0 0
M  V30 8 C 9.0932 1.4999 0.0 0
M  V30 9 C 12.9903 -0.75 0.0 0
M  V30 10 C 7.7942 2.2499 0.0 0
M  V30 11 C 9.0932 0.0 0.0 0
M  V30 12 C 6.4951 1.5 0.0 0
M  V30 13 C 7.7942 -0.75 0.0 0
M  V30 14 C 6.4951 0.0 0.0 0
M  V30 15 C 5.1961 -0.75 0.0 0
M  V30 16 C 3.8971 0.0 0.0 0
M  V30 17 N 3.8971 1.4999 0.0 0
M  V30 18 C 2.598 -0.75 0.0 0
M  V30 19 C 2.598 2.2499 0.0 0
M  V30 20 O 2.598 -2.25 0.0 0
M  V30 21 O 1.299 0.0 0.0 0 CHG=-1
M  V30 22 O 1.299 1.4999 0.0 0
M  V30 23 C 2.598 3.75 0.0 0
M  V30 24 C 1.299 4.4999 0.0 0
M  V30 25 C 3.8971 4.5 0.0 0
M  V30 26 F 0.0 3.7499 0.0 0
M  V30 27 C 1.299 5.9999 0.0 0
M  V30 28 C 3.8971 6.0 0.0 0
M  V30 29 C 2.598 6.7499 0.0 0
M  V30 END ATOM
M  V30 BEGIN BOND
M  V30 1 1 1 2
M  V30 2 2 2 3
M  V30 3 1 2 4
M  V30 4 1 3 5
M  V30 5 1 3 6
M  V30 6 2 4 7
M  V30 7 1 5 8
M  V30 8 2 6 9
M  V30 9 2 8 10
M  V30 10 1 8 11
M  V30 11 1 10 12
M  V30 12 2 11 13
M  V30 13 2 12 14
M  V30 14 1 14 15
M  V30 15 2 15 16
M  V30 16 1 16 17
M  V30 17 1 16 18
M  V30 18 1 17 19
M  V30 19 2 18 20
M  V30 20 1 18 21
M  V30 21 2 19 22
M  V30 22 1 19 23
M  V30 23 2 23 24
M  V30 24 1 23 25
M  V30 25 1 24 26
M  V30 26 1 24 27
M  V30 27 2 25 28
M  V30 28 2 27 29
M  V30 29 1 7 9
M  V30 30 1 13 14
M  V30 31 1 28 29
M  V30 END BOND
M  V30 END CTAB
M  END
>  <smiles>
c1ccc(c(c1)C(=O)N/C(=C\c2ccc(cc2)Oc3ccccc3Br)/C(=O)[O-])F

$$$$
Compound 32
Actelion Java MolfileCreator 2.0

  0  0  0  0  0  0              0 V3000
M  V30 BEGIN CTAB
M  V30 COUNTS 29 32 0 0 0
M  V30 BEGIN ATOM
M  V30 1 Br 8.6602 2.4999 0.0 0
M  V30 2 C 8.6602 1.4999 0.0 0
M  V30 3 C 7.7942 0.9999 0.0 0
M  V30 4 C 9.5262 1.0 0.0 0
M  V30 5 O 6.9282 1.4999 0.0 0
M  V30 6 C 7.7942 0.0 0.0 0
M  V30 7 C 9.5262 0.0 0.0 0
M  V30 8 C 6.0621 0.9999 0.0 0
M  V30 9 C 8.6602 -0.5 0.0 0
M  V30 10 C 5.1961 1.4999 0.0 0
M  V30 11 C 6.0621 0.0 0.0 0
M  V30 12 C 4.3301 0.9999 0.0 0
M  V30 13 C 5.1961 -0.5 0.0 0
M  V30 14 C 4.3301 0.0 0.0 0
M  V30 15 C 3.4641 -0.5 0.0 0
M  V30 16 C 2.598 0.0 0.0 0
M  V30 17 N 2.598 0.9999 0.0 0
M  V30 18 C 1.732 -0.5 0.0 0
M  V30 19 C 1.732 1.4999 0.0 0
M  V30 20 O 1.732 -1.5 0.0 0
M  V30 21 O 0.866 0.0 0.0 0 CHG=-1
M  V30 22 O 0.866 0.9999 0.0 0
M  V30 23 C 1.732 2.4999 0.0 0 CFG=2
M  V30 24 C 0.923 3.0877 0.0 0 CFG=1
M  V30 25 C 2.541 3.0877 0.0 0
M  V30 26 C 1.232 4.0388 0.0 0
M  V30 27 C 0.3836 4.3558 0.0 0
M  V30 28 C 2.232 4.0388 0.0 0 CFG=2
M  V30 29 C 1.1927 4.9436 0.0 0
M  V30 END ATOM
M  V30 BEGIN BOND
M  V30 1 1 1 2
M  V30 2 2 2 3
M  V30 3 1 2 4
M  V30 4 1 3 5
M  V30 5 1 3 6
M  V30 6 2 4 7
M  V30 7 1 5 8
M  V30 8 2 6 9
M  V30 9 2 8 10
M  V30 10 1 8 11
M  V30 11 1 10 12
M  V30 12 2 11 13
M  V30 13 2 12 14
M  V30 14 1 14 15
M  V30 15 2 15 16
M  V30 16 1 16 17
M  V30 17 1 16 18
M  V30 18 1 17 19
M  V30 19 2 18 20
M  V30 20 1 18 21
M  V30 21 2 19 22
M  V30 22 1 23 19 CFG=3
M  V30 23 1 24 23
M  V30 24 1 23 25
M  V30 25 1 24 26 CFG=1
M  V30 26 1 24 27
M  V30 27 1 28 25 CFG=3
M  V30 28 1 27 29
M  V30 29 1 7 9
M  V30 30 1 13 14
M  V30 31 1 26 28
M  V30 32 1 28 29
M  V30 END BOND
M  V30 BEGIN COLLECTION
M  V30 MDLV30/STEABS ATOMS=(3 23 24 28)
M  V30 END COLLECTION
M  V30 END CTAB
M  END
>  <smiles>
c1ccc(c(c1)Oc2ccc(cc2)/C=C(/C(=O)[O-])\NC(=O)[C@H]3C[C@H]4CC[C@@H]3C4)Br

$$$$
Compound 33
Actelion Java MolfileCreator 2.0

  0  0  0  0  0  0              0 V3000
M  V30 BEGIN CTAB
M  V30 COUNTS 29 31 0 0 0
M  V30 BEGIN ATOM
M  V30 1 Br 12.9903 3.75 0.0 0
M  V30 2 C 12.9903 2.2499 0.0 0
M  V30 3 C 11.6913 1.4999 0.0 0
M  V30 4 C 14.2894 1.5 0.0 0
M  V30 5 O 10.3923 2.2499 0.0 0
M  V30 6 C 11.6913 0.0 0.0 0
M  V30 7 C 14.2894 0.0 0.0 0
M  V30 8 C 9.0932 1.4999 0.0 0
M  V30 9 C 12.9903 -0.75 0.0 0
M  V30 10 C 7.7942 2.2499 0.0 0
M  V30 11 C 9.0932 0.0 0.0 0
M  V30 12 C 6.4951 1.5 0.0 0
M  V30 13 C 7.7942 -0.75 0.0 0
M  V30 14 C 6.4951 0.0 0.0 0
M  V30 15 C 5.1961 -0.75 0.0 0
M  V30 16 C 3.8971 0.0 0.0 0
M  V30 17 N 3.8971 1.4999 0.0 0
M  V30 18 C 2.598 -0.75 0.0 0
M  V30 19 C 2.598 2.2499 0.0 0
M  V30 20 O 2.598 -2.25 0.0 0
M  V30 21 O 1.299 0.0 0.0 0 CHG=-1
M  V30 22 O 1.299 1.4999 0.0 0
M  V30 23 C 2.598 3.75 0.0 0
M  V30 24 C 1.299 4.4999 0.0 0
M  V30 25 C 3.8971 4.5 0.0 0
M  V30 26 O 0.0 3.7499 0.0 0
M  V30 27 C 1.299 5.9999 0.0 0
M  V30 28 C 3.8971 6.0 0.0 0
M  V30 29 C 2.598 6.7499 0.0 0
M  V30 END ATOM
M  V30 BEGIN BOND
M  V30 1 1 1 2
M  V30 2 2 2 3
M  V30 3 1 2 4
M  V30 4 1 3 5
M  V30 5 1 3 6
M  V30 6 2 4 7
M  V30 7 1 5 8
M  V30 8 2 6 9
M  V30 9 2 8 10
M  V30 10 1 8 11
M  V30 11 1 10 12
M  V30 12 2 11 13
M  V30 13 2 12 14
M  V30 14 1 14 15
M  V30 15 2 15 16
M  V30 16 1 16 17
M  V30 17 1 16 18
M  V30 18 1 17 19
M  V30 19 2 18 20
M  V30 20 1 18 21
M  V30 21 2 19 22
M  V30 22 1 19 23
M  V30 23 2 23 24
M  V30 24 1 23 25
M  V30 25 1 24 26
M  V30 26 1 24 27
M  V30 27 2 25 28
M  V30 28 2 27 29
M  V30 29 1 7 9
M  V30 30 1 13 14
M  V30 31 1 28 29
M  V30 END BOND
M  V30 END CTAB
M  END
>  <smiles>
c1ccc(c(c1)C(=O)N/C(=C\c2ccc(cc2)Oc3ccccc3Br)/C(=O)[O-])O

$$$$
Compound 34
Actelion Java MolfileCreator 2.0

  0  0  0  0  0  0              0 V3000
M  V30 BEGIN CTAB
M  V30 COUNTS 28 30 0 0 0
M  V30 BEGIN ATOM
M  V30 1 Br 12.9903 3.75 0.0 0
M  V30 2 C 12.9903 2.2499 0.0 0
M  V30 3 C 11.6913 1.4999 0.0 0
M  V30 4 C 14.2894 1.5 0.0 0
M  V30 5 O 10.3923 2.2499 0.0 0
M  V30 6 C 11.6913 0.0 0.0 0
M  V30 7 C 14.2894 0.0 0.0 0
M  V30 8 C 9.0932 1.4999 0.0 0
M  V30 9 C 12.9903 -0.75 0.0 0
M  V30 10 C 7.7942 2.2499 0.0 0
M  V30 11 C 9.0932 0.0 0.0 0
M  V30 12 C 6.4951 1.5 0.0 0
M  V30 13 C 7.7942 -0.75 0.0 0
M  V30 14 C 6.4951 0.0 0.0 0
M  V30 15 C 5.1961 -0.75 0.0 0
M  V30 16 C 3.8971 0.0 0.0 0
M  V30 17 N 3.8971 1.4999 0.0 0
M  V30 18 C 2.598 -0.75 0.0 0
M  V30 19 C 2.598 2.2499 0.0 0
M  V30 20 O 2.598 -2.25 0.0 0
M  V30 21 O 1.299 0.0 0.0 0 CHG=-1
M  V30 22 O 1.299 1.4999 0.0 0
M  V30 23 C 2.598 3.75 0.0 0
M  V30 24 C 1.299 4.4999 0.0 0
M  V30 25 C 3.8971 4.5 0.0 0
M  V30 26 C 1.299 5.9999 0.0 0
M  V30 27 C 3.8971 6.0 0.0 0
M  V30 28 C 2.598 6.7499 0.0 0
M  V30 END ATOM
M  V30 BEGIN BOND
M  V30 1 1 1 2
M  V30 2 2 2 3
M  V30 3 1 2 4
M  V30 4 1 3 5
M  V30 5 1 3 6
M  V30 6 2 4 7
M  V30 7 1 5 8
M  V30 8 2 6 9
M  V30 9 2 8 10
M  V30 10 1 8 11
M  V30 11 1 10 12
M  V30 12 2 11 13
M  V30 13 2 12 14
M  V30 14 1 14 15
M  V30 15 2 15 16
M  V30 16 1 16 17
M  V30 17 1 16 18
M  V30 18 1 17 19
M  V30 19 2 18 20
M  V30 20 1 18 21
M  V30 21 2 19 22
M  V30 22 1 19 23
M  V30 23 2 23 24
M  V30 24 1 23 25
M  V30 25 1 24 26
M  V30 26 2 25 27
M  V30 27 2 26 28
M  V30 28 1 7 9
M  V30 29 1 13 14
M  V30 30 1 27 28
M  V30 END BOND
M  V30 END CTAB
M  END
>  <smiles>
c1ccc(cc1)C(=O)N/C(=C\c2ccc(cc2)Oc3ccccc3Br)/C(=O)[O-]

$$$$
Compound 35
Actelion Java MolfileCreator 2.0

  0  0  0  0  0  0              0 V3000
M  V30 BEGIN CTAB
M  V30 COUNTS 29 31 0 0 0
M  V30 BEGIN ATOM
M  V30 1 Br 12.9903 3.75 0.0 0
M  V30 2 C 12.9903 2.2499 0.0 0
M  V30 3 C 11.6913 1.4999 0.0 0
M  V30 4 C 14.2894 1.5 0.0 0
M  V30 5 O 10.3923 2.2499 0.0 0
M  V30 6 C 11.6913 0.0 0.0 0
M  V30 7 C 14.2894 0.0 0.0 0
M  V30 8 C 9.0932 1.4999 0.0 0
M  V30 9 C 12.9903 -0.75 0.0 0
M  V30 10 C 7.7942 2.2499 0.0 0
M  V30 11 C 9.0932 0.0 0.0 0
M  V30 12 C 6.4951 1.5 0.0 0
M  V30 13 C 7.7942 -0.75 0.0 0
M  V30 14 C 6.4951 0.0 0.0 0
M  V30 15 C 5.1961 -0.75 0.0 0
M  V30 16 C 3.8971 0.0 0.0 0
M  V30 17 N 3.8971 1.4999 0.0 0
M  V30 18 C 2.598 -0.75 0.0 0
M  V30 19 C 2.598 2.2499 0.0 0
M  V30 20 O 2.598 -2.25 0.0 0
M  V30 21 O 1.299 0.0 0.0 0 CHG=-1
M  V30 22 O 1.299 1.4999 0.0 0
M  V30 23 C 2.598 3.75 0.0 0
M  V30 24 C 1.299 4.4999 0.0 0
M  V30 25 C 3.8971 4.5 0.0 0
M  V30 26 C 1.299 5.9999 0.0 0
M  V30 27 C 3.8971 6.0 0.0 0
M  V30 28 C 2.598 6.7499 0.0 0
M  V30 29 Cl 2.598 8.25 0.0 0
M  V30 END ATOM
M  V30 BEGIN BOND
M  V30 1 1 1 2
M  V30 2 2 2 3
M  V30 3 1 2 4
M  V30 4 1 3 5
M  V30 5 1 3 6
M  V30 6 2 4 7
M  V30 7 1 5 8
M  V30 8 2 6 9
M  V30 9 2 8 10
M  V30 10 1 8 11
M  V30 11 1 10 12
M  V30 12 2 11 13
M  V30 13 2 12 14
M  V30 14 1 14 15
M  V30 15 2 15 16
M  V30 16 1 16 17
M  V30 17 1 16 18
M  V30 18 1 17 19
M  V30 19 2 18 20
M  V30 20 1 18 21
M  V30 21 2 19 22
M  V30 22 1 19 23
M  V30 23 2 23 24
M  V30 24 1 23 25
M  V30 25 1 24 26
M  V30 26 2 25 27
M  V30 27 2 26 28
M  V30 28 1 28 29
M  V30 29 1 7 9
M  V30 30 1 13 14
M  V30 31 1 27 28
M  V30 END BOND
M  V30 END CTAB
M  END
>  <smiles>
c1ccc(c(c1)Oc2ccc(cc2)/C=C(/C(=O)[O-])\NC(=O)c3ccc(cc3)Cl)Br

$$$$
Compound 36
Actelion Java MolfileCreator 2.0

  0  0  0  0  0  0              0 V3000
M  V30 BEGIN CTAB
M  V30 COUNTS 28 30 0 0 0
M  V30 BEGIN ATOM
M  V30 1 Br 9.5262 -3.0 0.0 0
M  V30 2 C 8.6602 -3.5 0.0 0
M  V30 3 C 7.7942 -3.0 0.0 0
M  V30 4 C 8.6602 -4.5 0.0 0
M  V30 5 O 7.7942 -2.0 0.0 0
M  V30 6 C 6.9282 -3.5 0.0 0
M  V30 7 C 7.7942 -5.0 0.0 0
M  V30 8 C 6.9282 -1.5 0.0 0
M  V30 9 C 6.9282 -4.5 0.0 0
M  V30 10 C 6.9282 -0.5 0.0 0
M  V30 11 C 6.0621 -2.0 0.0 0
M  V30 12 C 6.0621 0.0 0.0 0
M  V30 13 C 5.1961 -1.5 0.0 0
M  V30 14 C 5.1961 -0.5 0.0 0
M  V30 15 C 4.3301 0.0 0.0 0
M  V30 16 C 3.4641 -0.5 0.0 0
M  V30 17 N 3.4641 -1.5 0.0 0
M  V30 18 C 2.598 0.0 0.0 0
M  V30 19 C 2.598 -1.9999 0.0 0
M  V30 20 O 1.732 -0.4999 0.0 0
M  V30 21 O 2.598 0.9999 0.0 0 CHG=-1
M  V30 22 O 1.732 -1.4999 0.0 0
M  V30 23 C 2.598 -2.9999 0.0 0
M  V30 24 C 1.732 -3.5 0.0 0
M  V30 25 C 1.6275 -4.4945 0.0 0
M  V30 26 C 0.8185 -3.0932 0.0 0
M  V30 27 C 0.6493 -4.7024 0.0 0
M  V30 28 C 0.1493 -3.8364 0.0 0
M  V30 END ATOM
M  V30 BEGIN BOND
M  V30 1 1 1 2
M  V30 2 2 2 3
M  V30 3 1 2 4
M  V30 4 1 3 5
M  V30 5 1 3 6
M  V30 6 2 4 7
M  V30 7 1 5 8
M  V30 8 2 6 9
M  V30 9 2 8 10
M  V30 10 1 8 11
M  V30 11 1 10 12
M  V30 12 2 11 13
M  V30 13 2 12 14
M  V30 14 1 14 15
M  V30 15 2 15 16
M  V30 16 1 16 17
M  V30 17 1 16 18
M  V30 18 1 17 19
M  V30 19 2 18 20
M  V30 20 1 18 21
M  V30 21 2 19 22
M  V30 22 1 19 23
M  V30 23 1 23 24
M  V30 24 1 24 25
M  V30 25 1 24 26
M  V30 26 1 25 27
M  V30 27 1 26 28
M  V30 28 1 7 9
M  V30 29 1 13 14
M  V30 30 1 27 28
M  V30 END BOND
M  V30 END CTAB
M  END
>  <smiles>
c1ccc(c(c1)Oc2ccc(cc2)/C=C(/C(=O)[O-])\NC(=O)CC3CCCC3)Br

$$$$
Compound 37
Actelion Java MolfileCreator 2.0

  0  0  0  0  0  0              0 V3000
M  V30 BEGIN CTAB
M  V30 COUNTS 30 32 0 0 0
M  V30 BEGIN ATOM
M  V30 1 Br 3.4641 -6.5 0.0 0
M  V30 2 C 4.3301 -6.0 0.0 0
M  V30 3 C 4.3301 -4.9999 0.0 0
M  V30 4 C 5.1961 -6.5 0.0 0
M  V30 5 O 3.4641 -4.4999 0.0 0
M  V30 6 C 5.1961 -4.4999 0.0 0
M  V30 7 C 6.0621 -6.0 0.0 0
M  V30 8 C 3.4641 -3.5 0.0 0
M  V30 9 C 6.0621 -5.0 0.0 0
M  V30 10 C 2.598 -3.0 0.0 0
M  V30 11 C 4.3301 -3.0 0.0 0
M  V30 12 C 2.598 -2.0 0.0 0
M  V30 13 C 4.3301 -1.9999 0.0 0
M  V30 14 C 3.4641 -1.5 0.0 0
M  V30 15 C 3.4641 -0.5 0.0 0
M  V30 16 C 2.598 0.0 0.0 0
M  V30 17 N 1.732 -0.5 0.0 0
M  V30 18 C 2.598 1.0 0.0 0
M  V30 19 C 0.866 0.0 0.0 0
M  V30 20 O 3.4641 1.4999 0.0 0
M  V30 21 O 1.732 1.5 0.0 0 CHG=-1
M  V30 22 O 0.866 1.0 0.0 0
M  V30 23 C 0.0 -0.5 0.0 0
M  V30 24 C -0.866 0.0 0.0 0
M  V30 25 C 0.0 -1.4999 0.0 0
M  V30 26 C -1.732 -0.4999 0.0 0
M  V30 27 C -0.866 1.0 0.0 0
M  V30 28 C -0.866 -1.9999 0.0 0
M  V30 29 C -1.732 -1.4999 0.0 0
M  V30 30 C -1.732 1.5 0.0 0
M  V30 END ATOM
M  V30 BEGIN BOND
M  V30 1 1 1 2
M  V30 2 2 2 3
M  V30 3 1 2 4
M  V30 4 1 3 5
M  V30 5 1 3 6
M  V30 6 2 4 7
M  V30 7 1 5 8
M  V30 8 2 6 9
M  V30 9 2 8 10
M  V30 10 1 8 11
M  V30 11 1 10 12
M  V30 12 2 11 13
M  V30 13 2 12 14
M  V30 14 1 14 15
M  V30 15 2 15 16
M  V30 16 1 16 17
M  V30 17 1 16 18
M  V30 18 1 17 19
M  V30 19 2 18 20
M  V30 20 1 18 21
M  V30 21 2 19 22
M  V30 22 1 19 23
M  V30 23 2 23 24
M  V30 24 1 23 25
M  V30 25 1 24 26
M  V30 26 1 24 27
M  V30 27 2 25 28
M  V30 28 2 26 29
M  V30 29 1 27 30
M  V30 30 1 7 9
M  V30 31 1 13 14
M  V30 32 1 28 29
M  V30 END BOND
M  V30 END CTAB
M  END
>  <smiles>
CCc1ccccc1C(=O)N/C(=C\c2ccc(cc2)Oc3ccccc3Br)/C(=O)[O-]

$$$$
Compound 38
Actelion Java MolfileCreator 2.0

  0  0  0  0  0  0              0 V3000
M  V30 BEGIN CTAB
M  V30 COUNTS 30 32 0 0 0
M  V30 BEGIN ATOM
M  V30 1 Br 3.4641 -6.5 0.0 0
M  V30 2 C 4.3301 -6.0 0.0 0
M  V30 3 C 4.3301 -4.9999 0.0 0
M  V30 4 C 5.1961 -6.5 0.0 0
M  V30 5 O 3.4641 -4.4999 0.0 0
M  V30 6 C 5.1961 -4.4999 0.0 0
M  V30 7 C 6.0621 -6.0 0.0 0
M  V30 8 C 3.4641 -3.5 0.0 0
M  V30 9 C 6.0621 -5.0 0.0 0
M  V30 10 C 2.598 -3.0 0.0 0
M  V30 11 C 4.3301 -3.0 0.0 0
M  V30 12 C 2.598 -2.0 0.0 0
M  V30 13 C 4.3301 -1.9999 0.0 0
M  V30 14 C 3.4641 -1.5 0.0 0
M  V30 15 C 3.4641 -0.5 0.0 0
M  V30 16 C 2.598 0.0 0.0 0
M  V30 17 N 1.732 -0.5 0.0 0
M  V30 18 C 2.598 1.0 0.0 0
M  V30 19 C 0.866 0.0 0.0 0
M  V30 20 O 3.4641 1.4999 0.0 0
M  V30 21 O 1.732 1.5 0.0 0 CHG=-1
M  V30 22 O 0.866 1.0 0.0 0
M  V30 23 C 0.0 -0.5 0.0 0
M  V30 24 C -0.866 0.0 0.0 0
M  V30 25 C 0.0 -1.4999 0.0 0
M  V30 26 C -1.732 -0.4999 0.0 0
M  V30 27 C -0.866 -1.9999 0.0 0
M  V30 28 F -2.598 0.0 0.0 0
M  V30 29 C -1.732 -1.4999 0.0 0
M  V30 30 F -2.598 -1.9999 0.0 0
M  V30 END ATOM
M  V30 BEGIN BOND
M  V30 1 1 1 2
M  V30 2 2 2 3
M  V30 3 1 2 4
M  V30 4 1 3 5
M  V30 5 1 3 6
M  V30 6 2 4 7
M  V30 7 1 5 8
M  V30 8 2 6 9
M  V30 9 2 8 10
M  V30 10 1 8 11
M  V30 11 1 10 12
M  V30 12 2 11 13
M  V30 13 2 12 14
M  V30 14 1 14 15
M  V30 15 2 15 16
M  V30 16 1 16 17
M  V30 17 1 16 18
M  V30 18 1 17 19
M  V30 19 2 18 20
M  V30 20 1 18 21
M  V30 21 2 19 22
M  V30 22 1 19 23
M  V30 23 2 23 24
M  V30 24 1 23 25
M  V30 25 1 24 26
M  V30 26 2 25 27
M  V30 27 1 26 28
M  V30 28 2 26 29
M  V30 29 1 29 30
M  V30 30 1 7 9
M  V30 31 1 13 14
M  V30 32 1 27 29
M  V30 END BOND
M  V30 END CTAB
M  END
>  <smiles>
c1ccc(c(c1)Oc2ccc(cc2)/C=C(/C(=O)[O-])\NC(=O)c3ccc(c(c3)F)F)Br

$$$$
Compound 39
Actelion Java MolfileCreator 2.0

  0  0  0  0  0  0              0 V3000
M  V30 BEGIN CTAB
M  V30 COUNTS 21 22 0 0 0
M  V30 BEGIN ATOM
M  V30 1 Cl 3.8971 -4.5 0.0 0
M  V30 2 C 3.8971 -3.0 0.0 0
M  V30 3 C 5.1961 -2.25 0.0 0
M  V30 4 C 2.598 -2.25 0.0 0
M  V30 5 Cl 6.4952 -3.0 0.0 0
M  V30 6 C 5.1961 -0.75 0.0 0
M  V30 7 O 1.299 -3.0 0.0 0 CHG=-1
M  V30 8 C 2.598 -0.75 0.0 0
M  V30 9 Cl 6.4952 0.0 0.0 0
M  V30 10 C 3.8971 0.0 0.0 0
M  V30 11 S 1.299 0.0 0.0 0
M  V30 12 O 2.049 1.299 0.0 0
M  V30 13 O 0.549 1.299 0.0 0
M  V30 14 N 0.0 -0.75 0.0 0
M  V30 15 C -1.3703 -0.1398 0.0 0 CFG=2
M  V30 16 C -0.1567 -2.2417 0.0 0
M  V30 17 C -1.6821 1.3273 0.0 0
M  V30 18 C -2.374 -1.2546 0.0 0
M  V30 19 C -1.624 -2.5536 0.0 0
M  V30 20 O -0.5674 2.331 0.0 0
M  V30 21 O -3.1087 1.7908 0.0 0 CHG=-1
M  V30 END ATOM
M  V30 BEGIN BOND
M  V30 1 1 1 2
M  V30 2 2 2 3
M  V30 3 1 2 4
M  V30 4 1 3 5
M  V30 5 1 3 6
M  V30 6 1 4 7
M  V30 7 2 4 8
M  V30 8 1 6 9
M  V30 9 2 6 10
M  V30 10 1 8 11
M  V30 11 2 11 12
M  V30 12 2 11 13
M  V30 13 1 11 14
M  V30 14 1 15 14
M  V30 15 1 14 16
M  V30 16 1 15 17 CFG=1
M  V30 17 1 15 18
M  V30 18 1 16 19
M  V30 19 2 17 20
M  V30 20 1 17 21
M  V30 21 1 8 10
M  V30 22 1 18 19
M  V30 END BOND
M  V30 BEGIN COLLECTION
M  V30 MDLV30/STEABS ATOMS=(1 15)
M  V30 END COLLECTION
M  V30 END CTAB
M  END
>  <smiles>
c1c(c(c(c(c1Cl)Cl)Cl)[O-])S(=O)(=O)N2CCC[C@H]2C(=O)[O-]

$$$$
Compound 40
Actelion Java MolfileCreator 2.0

  0  0  0  0  0  0              0 V3000
M  V30 BEGIN CTAB
M  V30 COUNTS 21 22 0 0 0
M  V30 BEGIN ATOM
M  V30 1 Cl 3.8971 -4.5 0.0 0
M  V30 2 C 3.8971 -3.0 0.0 0
M  V30 3 C 5.1961 -2.25 0.0 0
M  V30 4 C 2.598 -2.25 0.0 0
M  V30 5 Cl 6.4952 -3.0 0.0 0
M  V30 6 C 5.1961 -0.75 0.0 0
M  V30 7 O 1.299 -3.0 0.0 0
M  V30 8 C 2.598 -0.75 0.0 0
M  V30 9 Cl 6.4952 0.0 0.0 0
M  V30 10 C 3.8971 0.0 0.0 0
M  V30 11 S 1.299 0.0 0.0 0
M  V30 12 O 2.049 1.299 0.0 0
M  V30 13 O 0.549 1.299 0.0 0
M  V30 14 N 0.0 -0.75 0.0 0
M  V30 15 C -1.3703 -0.1398 0.0 0 CFG=2
M  V30 16 C -0.1567 -2.2417 0.0 0
M  V30 17 C -1.6821 1.3273 0.0 0
M  V30 18 C -2.374 -1.2546 0.0 0
M  V30 19 C -1.624 -2.5536 0.0 0
M  V30 20 O -0.5674 2.331 0.0 0
M  V30 21 O -3.1087 1.7908 0.0 0 CHG=-1
M  V30 END ATOM
M  V30 BEGIN BOND
M  V30 1 1 1 2
M  V30 2 2 2 3
M  V30 3 1 2 4
M  V30 4 1 3 5
M  V30 5 1 3 6
M  V30 6 1 4 7
M  V30 7 2 4 8
M  V30 8 1 6 9
M  V30 9 2 6 10
M  V30 10 1 8 11
M  V30 11 2 11 12
M  V30 12 2 11 13
M  V30 13 1 11 14
M  V30 14 1 15 14
M  V30 15 1 14 16
M  V30 16 1 15 17 CFG=1
M  V30 17 1 15 18
M  V30 18 1 16 19
M  V30 19 2 17 20
M  V30 20 1 17 21
M  V30 21 1 8 10
M  V30 22 1 18 19
M  V30 END BOND
M  V30 BEGIN COLLECTION
M  V30 MDLV30/STEABS ATOMS=(1 15)
M  V30 END COLLECTION
M  V30 END CTAB
M  END
>  <smiles>
c1c(c(c(c(c1Cl)Cl)Cl)O)S(=O)(=O)N2CCC[C@H]2C(=O)[O-]

$$$$
Compound 41
Actelion Java MolfileCreator 2.0

  0  0  0  0  0  0              0 V3000
M  V30 BEGIN CTAB
M  V30 COUNTS 20 21 0 0 0
M  V30 BEGIN ATOM
M  V30 1 Br 6.4952 0.0 0.0 0
M  V30 2 C 5.1961 -0.75 0.0 0
M  V30 3 C 3.8971 0.0 0.0 0
M  V30 4 C 5.1961 -2.25 0.0 0
M  V30 5 O 3.8971 1.5 0.0 0
M  V30 6 C 2.598 -0.75 0.0 0
M  V30 7 C 3.8971 -3.0 0.0 0
M  V30 8 S 1.299 0.0 0.0 0
M  V30 9 C 2.598 -2.25 0.0 0
M  V30 10 Cl 3.8971 -4.5 0.0 0
M  V30 11 O 2.049 1.299 0.0 0
M  V30 12 O 0.549 1.299 0.0 0
M  V30 13 N 0.0 -0.75 0.0 0
M  V30 14 C -1.3703 -0.1398 0.0 0 CFG=2
M  V30 15 C -0.1567 -2.2417 0.0 0
M  V30 16 C -1.6821 1.3273 0.0 0
M  V30 17 C -2.374 -1.2546 0.0 0
M  V30 18 C -1.624 -2.5536 0.0 0
M  V30 19 O -0.5674 2.331 0.0 0
M  V30 20 O -3.1087 1.7908 0.0 0 CHG=-1
M  V30 END ATOM
M  V30 BEGIN BOND
M  V30 1 1 1 2
M  V30 2 2 2 3
M  V30 3 1 2 4
M  V30 4 1 3 5
M  V30 5 1 3 6
M  V30 6 2 4 7
M  V30 7 1 6 8
M  V30 8 2 6 9
M  V30 9 1 7 10
M  V30 10 2 8 11
M  V30 11 2 8 12
M  V30 12 1 8 13
M  V30 13 1 14 13
M  V30 14 1 13 15
M  V30 15 1 14 16 CFG=1
M  V30 16 1 14 17
M  V30 17 1 15 18
M  V30 18 2 16 19
M  V30 19 1 16 20
M  V30 20 1 7 9
M  V30 21 1 17 18
M  V30 END BOND
M  V30 BEGIN COLLECTION
M  V30 MDLV30/STEABS ATOMS=(1 14)
M  V30 END COLLECTION
M  V30 END CTAB
M  END
>  <smiles>
c1c(cc(c(c1S(=O)(=O)N2CCC[C@H]2C(=O)[O-])O)Br)Cl

$$$$
Compound 42
Actelion Java MolfileCreator 2.0

  0  0  0  0  0  0              0 V3000
M  V30 BEGIN CTAB
M  V30 COUNTS 20 21 0 0 0
M  V30 BEGIN ATOM
M  V30 1 Br 6.4952 0.0 0.0 0
M  V30 2 C 5.1961 -0.75 0.0 0
M  V30 3 C 3.8971 0.0 0.0 0
M  V30 4 C 5.1961 -2.25 0.0 0
M  V30 5 O 3.8971 1.5 0.0 0 CHG=-1
M  V30 6 C 2.598 -0.75 0.0 0
M  V30 7 C 3.8971 -3.0 0.0 0
M  V30 8 S 1.299 0.0 0.0 0
M  V30 9 C 2.598 -2.25 0.0 0
M  V30 10 Cl 3.8971 -4.5 0.0 0
M  V30 11 O 2.049 1.299 0.0 0
M  V30 12 O 0.549 1.299 0.0 0
M  V30 13 N 0.0 -0.75 0.0 0
M  V30 14 C -1.3703 -0.1398 0.0 0 CFG=2
M  V30 15 C -0.1567 -2.2417 0.0 0
M  V30 16 C -1.6821 1.3273 0.0 0
M  V30 17 C -2.374 -1.2546 0.0 0
M  V30 18 C -1.624 -2.5536 0.0 0
M  V30 19 O -0.5674 2.331 0.0 0
M  V30 20 O -3.1087 1.7908 0.0 0 CHG=-1
M  V30 END ATOM
M  V30 BEGIN BOND
M  V30 1 1 1 2
M  V30 2 2 2 3
M  V30 3 1 2 4
M  V30 4 1 3 5
M  V30 5 1 3 6
M  V30 6 2 4 7
M  V30 7 1 6 8
M  V30 8 2 6 9
M  V30 9 1 7 10
M  V30 10 2 8 11
M  V30 11 2 8 12
M  V30 12 1 8 13
M  V30 13 1 14 13
M  V30 14 1 13 15
M  V30 15 1 14 16 CFG=1
M  V30 16 1 14 17
M  V30 17 1 15 18
M  V30 18 2 16 19
M  V30 19 1 16 20
M  V30 20 1 7 9
M  V30 21 1 17 18
M  V30 END BOND
M  V30 BEGIN COLLECTION
M  V30 MDLV30/STEABS ATOMS=(1 14)
M  V30 END COLLECTION
M  V30 END CTAB
M  END
>  <smiles>
c1c(cc(c(c1S(=O)(=O)N2CCC[C@H]2C(=O)[O-])[O-])Br)Cl

$$$$
Compound 43
Actelion Java MolfileCreator 2.0

  0  0  0  0  0  0              0 V3000
M  V30 BEGIN CTAB
M  V30 COUNTS 22 24 0 0 0
M  V30 BEGIN ATOM
M  V30 1 Cl 6.4952 0.0 0.0 0
M  V30 2 C 5.1961 -0.75 0.0 0
M  V30 3 C 3.8971 0.0 0.0 0
M  V30 4 C 5.1961 -2.25 0.0 0
M  V30 5 O 3.8971 1.5 0.0 0 CHG=-1
M  V30 6 C 2.598 -0.75 0.0 0
M  V30 7 C 3.8971 -3.0 0.0 0
M  V30 8 S 1.299 0.0 0.0 0
M  V30 9 C 2.598 -2.25 0.0 0
M  V30 10 Cl 3.8971 -4.5 0.0 0
M  V30 11 O 2.049 1.299 0.0 0
M  V30 12 O 0.549 1.299 0.0 0
M  V30 13 N 0.0 -0.75 0.0 0
M  V30 14 C -1.3703 -0.1398 0.0 0 CFG=2
M  V30 15 C -0.1567 -2.2417 0.0 0
M  V30 16 C -1.6821 1.3273 0.0 0
M  V30 17 C -2.374 -1.2546 0.0 0
M  V30 18 C -1.624 -2.5536 0.0 0
M  V30 19 N -0.6784 2.442 0.0 0
M  V30 20 N -3.0525 1.9374 0.0 0 CHG=-1
M  V30 21 N -1.4284 3.741 0.0 0
M  V30 22 N -2.8957 3.4292 0.0 0
M  V30 END ATOM
M  V30 BEGIN BOND
M  V30 1 1 1 2
M  V30 2 2 2 3
M  V30 3 1 2 4
M  V30 4 1 3 5
M  V30 5 1 3 6
M  V30 6 2 4 7
M  V30 7 1 6 8
M  V30 8 2 6 9
M  V30 9 1 7 10
M  V30 10 2 8 11
M  V30 11 2 8 12
M  V30 12 1 8 13
M  V30 13 1 14 13
M  V30 14 1 13 15
M  V30 15 1 14 16 CFG=1
M  V30 16 1 14 17
M  V30 17 1 15 18
M  V30 18 2 16 19
M  V30 19 1 16 20
M  V30 20 1 19 21
M  V30 21 1 20 22
M  V30 22 1 7 9
M  V30 23 1 17 18
M  V30 24 2 21 22
M  V30 END BOND
M  V30 BEGIN COLLECTION
M  V30 MDLV30/STEABS ATOMS=(1 14)
M  V30 END COLLECTION
M  V30 END CTAB
M  END
>  <smiles>
c1c(cc(c(c1S(=O)(=O)N2CCC[C@H]2c3[n-]nnn3)[O-])Cl)Cl

$$$$
Compound 44
Actelion Java MolfileCreator 2.0

  0  0  0  0  0  0              0 V3000
M  V30 BEGIN CTAB
M  V30 COUNTS 22 24 0 0 0
M  V30 BEGIN ATOM
M  V30 1 Cl 6.4952 0.0 0.0 0
M  V30 2 C 5.1961 -0.75 0.0 0
M  V30 3 C 3.8971 0.0 0.0 0
M  V30 4 C 5.1961 -2.25 0.0 0
M  V30 5 O 3.8971 1.5 0.0 0
M  V30 6 C 2.598 -0.75 0.0 0
M  V30 7 C 3.8971 -3.0 0.0 0
M  V30 8 S 1.299 0.0 0.0 0
M  V30 9 C 2.598 -2.25 0.0 0
M  V30 10 Cl 3.8971 -4.5 0.0 0
M  V30 11 O 2.049 1.299 0.0 0
M  V30 12 O 0.549 1.299 0.0 0
M  V30 13 N 0.0 -0.75 0.0 0
M  V30 14 C -1.3703 -0.1398 0.0 0 CFG=2
M  V30 15 C -0.1567 -2.2417 0.0 0
M  V30 16 C -1.6821 1.3273 0.0 0
M  V30 17 C -2.374 -1.2546 0.0 0
M  V30 18 C -1.624 -2.5536 0.0 0
M  V30 19 N -0.6784 2.442 0.0 0
M  V30 20 N -3.0525 1.9374 0.0 0 CHG=-1
M  V30 21 N -1.4284 3.741 0.0 0
M  V30 22 N -2.8957 3.4292 0.0 0
M  V30 END ATOM
M  V30 BEGIN BOND
M  V30 1 1 1 2
M  V30 2 2 2 3
M  V30 3 1 2 4
M  V30 4 1 3 5
M  V30 5 1 3 6
M  V30 6 2 4 7
M  V30 7 1 6 8
M  V30 8 2 6 9
M  V30 9 1 7 10
M  V30 10 2 8 11
M  V30 11 2 8 12
M  V30 12 1 8 13
M  V30 13 1 14 13
M  V30 14 1 13 15
M  V30 15 1 14 16 CFG=1
M  V30 16 1 14 17
M  V30 17 1 15 18
M  V30 18 2 16 19
M  V30 19 1 16 20
M  V30 20 1 19 21
M  V30 21 1 20 22
M  V30 22 1 7 9
M  V30 23 1 17 18
M  V30 24 2 21 22
M  V30 END BOND
M  V30 BEGIN COLLECTION
M  V30 MDLV30/STEABS ATOMS=(1 14)
M  V30 END COLLECTION
M  V30 END CTAB
M  END
>  <smiles>
c1c(cc(c(c1S(=O)(=O)N2CCC[C@H]2c3[n-]nnn3)O)Cl)Cl

$$$$
Compound 45
Actelion Java MolfileCreator 2.0

  0  0  0  0  0  0              0 V3000
M  V30 BEGIN CTAB
M  V30 COUNTS 20 21 0 0 0
M  V30 BEGIN ATOM
M  V30 1 Cl 6.4952 0.0 0.0 0
M  V30 2 C 5.1961 -0.75 0.0 0
M  V30 3 C 3.8971 0.0 0.0 0
M  V30 4 C 5.1961 -2.25 0.0 0
M  V30 5 O 3.8971 1.5 0.0 0
M  V30 6 C 2.598 -0.75 0.0 0
M  V30 7 C 3.8971 -3.0 0.0 0
M  V30 8 S 1.299 0.0 0.0 0
M  V30 9 C 2.598 -2.25 0.0 0
M  V30 10 Cl 3.8971 -4.5 0.0 0
M  V30 11 O 2.049 1.299 0.0 0
M  V30 12 O 0.549 1.299 0.0 0
M  V30 13 N 0.0 -0.75 0.0 0
M  V30 14 C -1.3703 -0.1398 0.0 0 CFG=2
M  V30 15 C -0.1567 -2.2417 0.0 0
M  V30 16 C -1.6821 1.3273 0.0 0
M  V30 17 C -2.374 -1.2546 0.0 0
M  V30 18 C -1.624 -2.5536 0.0 0
M  V30 19 O -0.5674 2.331 0.0 0
M  V30 20 O -3.1087 1.7908 0.0 0 CHG=-1
M  V30 END ATOM
M  V30 BEGIN BOND
M  V30 1 1 1 2
M  V30 2 2 2 3
M  V30 3 1 2 4
M  V30 4 1 3 5
M  V30 5 1 3 6
M  V30 6 2 4 7
M  V30 7 1 6 8
M  V30 8 2 6 9
M  V30 9 1 7 10
M  V30 10 2 8 11
M  V30 11 2 8 12
M  V30 12 1 8 13
M  V30 13 1 14 13
M  V30 14 1 13 15
M  V30 15 1 14 16 CFG=1
M  V30 16 1 14 17
M  V30 17 1 15 18
M  V30 18 2 16 19
M  V30 19 1 16 20
M  V30 20 1 7 9
M  V30 21 1 17 18
M  V30 END BOND
M  V30 BEGIN COLLECTION
M  V30 MDLV30/STEABS ATOMS=(1 14)
M  V30 END COLLECTION
M  V30 END CTAB
M  END
>  <smiles>
c1c(cc(c(c1S(=O)(=O)N2CCC[C@H]2C(=O)[O-])O)Cl)Cl

$$$$
Compound 46
Actelion Java MolfileCreator 2.0

  0  0  0  0  0  0              0 V3000
M  V30 BEGIN CTAB
M  V30 COUNTS 20 21 0 0 0
M  V30 BEGIN ATOM
M  V30 1 Cl 6.4952 0.0 0.0 0
M  V30 2 C 5.1961 -0.75 0.0 0
M  V30 3 C 3.8971 0.0 0.0 0
M  V30 4 C 5.1961 -2.25 0.0 0
M  V30 5 O 3.8971 1.5 0.0 0 CHG=-1
M  V30 6 C 2.598 -0.75 0.0 0
M  V30 7 C 3.8971 -3.0 0.0 0
M  V30 8 S 1.299 0.0 0.0 0
M  V30 9 C 2.598 -2.25 0.0 0
M  V30 10 Cl 3.8971 -4.5 0.0 0
M  V30 11 O 2.049 1.299 0.0 0
M  V30 12 O 0.549 1.299 0.0 0
M  V30 13 N 0.0 -0.75 0.0 0
M  V30 14 C -1.3703 -0.1398 0.0 0 CFG=2
M  V30 15 C -0.1567 -2.2417 0.0 0
M  V30 16 C -1.6821 1.3273 0.0 0
M  V30 17 C -2.374 -1.2546 0.0 0
M  V30 18 C -1.624 -2.5536 0.0 0
M  V30 19 O -0.5674 2.331 0.0 0
M  V30 20 O -3.1087 1.7908 0.0 0 CHG=-1
M  V30 END ATOM
M  V30 BEGIN BOND
M  V30 1 1 1 2
M  V30 2 2 2 3
M  V30 3 1 2 4
M  V30 4 1 3 5
M  V30 5 1 3 6
M  V30 6 2 4 7
M  V30 7 1 6 8
M  V30 8 2 6 9
M  V30 9 1 7 10
M  V30 10 2 8 11
M  V30 11 2 8 12
M  V30 12 1 8 13
M  V30 13 1 14 13
M  V30 14 1 13 15
M  V30 15 1 14 16 CFG=1
M  V30 16 1 14 17
M  V30 17 1 15 18
M  V30 18 2 16 19
M  V30 19 1 16 20
M  V30 20 1 7 9
M  V30 21 1 17 18
M  V30 END BOND
M  V30 BEGIN COLLECTION
M  V30 MDLV30/STEABS ATOMS=(1 14)
M  V30 END COLLECTION
M  V30 END CTAB
M  END
>  <smiles>
c1c(cc(c(c1S(=O)(=O)N2CCC[C@H]2C(=O)[O-])[O-])Cl)Cl

$$$$
Compound 47
Actelion Java MolfileCreator 2.0

  0  0  0  0  0  0              0 V3000
M  V30 BEGIN CTAB
M  V30 COUNTS 20 21 0 0 0
M  V30 BEGIN ATOM
M  V30 1 Cl 6.4952 0.0 0.0 0
M  V30 2 C 5.1961 -0.75 0.0 0
M  V30 3 C 3.8971 0.0 0.0 0
M  V30 4 C 5.1961 -2.25 0.0 0
M  V30 5 O 3.8971 1.5 0.0 0 CHG=-1
M  V30 6 C 2.598 -0.75 0.0 0
M  V30 7 C 3.8971 -3.0 0.0 0
M  V30 8 S 1.299 0.0 0.0 0
M  V30 9 C 2.598 -2.25 0.0 0
M  V30 10 Cl 3.8971 -4.5 0.0 0
M  V30 11 O 2.049 1.299 0.0 0
M  V30 12 O 0.549 1.299 0.0 0
M  V30 13 N 0.0 -0.75 0.0 0
M  V30 14 C -1.3703 -0.1398 0.0 0 CFG=2
M  V30 15 C -0.1567 -2.2417 0.0 0
M  V30 16 C -1.6821 1.3273 0.0 0
M  V30 17 C -2.374 -1.2546 0.0 0
M  V30 18 S -1.624 -2.5536 0.0 0
M  V30 19 O -0.5674 2.331 0.0 0
M  V30 20 O -3.1087 1.7908 0.0 0 CHG=-1
M  V30 END ATOM
M  V30 BEGIN BOND
M  V30 1 1 1 2
M  V30 2 2 2 3
M  V30 3 1 2 4
M  V30 4 1 3 5
M  V30 5 1 3 6
M  V30 6 2 4 7
M  V30 7 1 6 8
M  V30 8 2 6 9
M  V30 9 1 7 10
M  V30 10 2 8 11
M  V30 11 2 8 12
M  V30 12 1 8 13
M  V30 13 1 14 13
M  V30 14 1 13 15
M  V30 15 1 14 16 CFG=1
M  V30 16 1 14 17
M  V30 17 1 15 18
M  V30 18 2 16 19
M  V30 19 1 16 20
M  V30 20 1 7 9
M  V30 21 1 17 18
M  V30 END BOND
M  V30 BEGIN COLLECTION
M  V30 MDLV30/STEABS ATOMS=(1 14)
M  V30 END COLLECTION
M  V30 END CTAB
M  END
>  <smiles>
c1c(cc(c(c1S(=O)(=O)N2CSC[C@H]2C(=O)[O-])[O-])Cl)Cl

$$$$
Compound 48
Actelion Java MolfileCreator 2.0

  0  0  0  0  0  0              0 V3000
M  V30 BEGIN CTAB
M  V30 COUNTS 20 21 0 0 0
M  V30 BEGIN ATOM
M  V30 1 Cl 6.4952 0.0 0.0 0
M  V30 2 C 5.1961 -0.75 0.0 0
M  V30 3 C 3.8971 0.0 0.0 0
M  V30 4 C 5.1961 -2.25 0.0 0
M  V30 5 O 3.8971 1.5 0.0 0
M  V30 6 C 2.598 -0.75 0.0 0
M  V30 7 C 3.8971 -3.0 0.0 0
M  V30 8 S 1.299 0.0 0.0 0
M  V30 9 C 2.598 -2.25 0.0 0
M  V30 10 Cl 3.8971 -4.5 0.0 0
M  V30 11 O 2.049 1.299 0.0 0
M  V30 12 O 0.549 1.299 0.0 0
M  V30 13 N 0.0 -0.75 0.0 0
M  V30 14 C -1.3703 -0.1398 0.0 0 CFG=2
M  V30 15 C -0.1567 -2.2417 0.0 0
M  V30 16 C -1.6821 1.3273 0.0 0
M  V30 17 C -2.374 -1.2546 0.0 0
M  V30 18 S -1.624 -2.5536 0.0 0
M  V30 19 O -0.5674 2.331 0.0 0
M  V30 20 O -3.1087 1.7908 0.0 0 CHG=-1
M  V30 END ATOM
M  V30 BEGIN BOND
M  V30 1 1 1 2
M  V30 2 2 2 3
M  V30 3 1 2 4
M  V30 4 1 3 5
M  V30 5 1 3 6
M  V30 6 2 4 7
M  V30 7 1 6 8
M  V30 8 2 6 9
M  V30 9 1 7 10
M  V30 10 2 8 11
M  V30 11 2 8 12
M  V30 12 1 8 13
M  V30 13 1 14 13
M  V30 14 1 13 15
M  V30 15 1 14 16 CFG=1
M  V30 16 1 14 17
M  V30 17 1 15 18
M  V30 18 2 16 19
M  V30 19 1 16 20
M  V30 20 1 7 9
M  V30 21 1 17 18
M  V30 END BOND
M  V30 BEGIN COLLECTION
M  V30 MDLV30/STEABS ATOMS=(1 14)
M  V30 END COLLECTION
M  V30 END CTAB
M  END
>  <smiles>
c1c(cc(c(c1S(=O)(=O)N2CSC[C@H]2C(=O)[O-])O)Cl)Cl

$$$$
