Compound 1
Actelion Java MolfileCreator 2.0

  0  0  0  0  0  0              0 V3000
M  V30 BEGIN CTAB
M  V30 COUNTS 29 31 0 0 0
M  V30 BEGIN ATOM
M  V30 1 F 9.1893 7.895 0.0 0
M  V30 2 C 10.5596 7.2849 0.0 0
M  V30 3 F 11.1697 8.6552 0.0 0
M  V30 4 F 11.9299 6.6748 0.0 0
M  V30 5 C 9.9495 5.9146 0.0 0
M  V30 6 C 8.4577 5.7578 0.0 0
M  V30 7 C 10.8311 4.701 0.0 0
M  V30 8 C 7.8476 4.3874 0.0 0
M  V30 9 C 10.221 3.3307 0.0 0
M  V30 10 C 8.7293 3.1739 0.0 0
M  V30 11 C 8.1192 1.8036 0.0 0
M  V30 12 O 6.6519 1.4917 0.0 0
M  V30 13 C 8.8692 0.5046 0.0 0
M  V30 14 C 6.4951 0.0 0.0 0
M  V30 15 C 7.8655 -0.6101 0.0 0
M  V30 16 C 5.1961 -0.75 0.0 0
M  V30 17 C 3.8971 0.0 0.0 0
M  V30 18 N 3.8971 1.5 0.0 0
M  V30 19 C 2.598 -0.75 0.0 0
M  V30 20 C 2.598 2.25 0.0 0
M  V30 21 O 2.598 -2.25 0.0 0
M  V30 22 O 1.299 0.0 0.0 0 CHG=-1
M  V30 23 O 1.299 1.4999 0.0 0
M  V30 24 C 2.598 3.75 0.0 0
M  V30 25 C 1.299 4.4999 0.0 0
M  V30 26 C 3.8971 4.5 0.0 0
M  V30 27 C 1.299 6.0 0.0 0
M  V30 28 C 3.8971 6.0 0.0 0
M  V30 29 C 2.598 6.7499 0.0 0
M  V30 END ATOM
M  V30 BEGIN BOND
M  V30 1 1 1 2
M  V30 2 1 2 3
M  V30 3 1 2 4
M  V30 4 1 2 5
M  V30 5 2 5 6
M  V30 6 1 5 7
M  V30 7 1 6 8
M  V30 8 2 7 9
M  V30 9 2 8 10
M  V30 10 1 10 11
M  V30 11 1 11 12
M  V30 12 2 11 13
M  V30 13 1 12 14
M  V30 14 1 13 15
M  V30 15 1 14 16
M  V30 16 2 16 17
M  V30 17 1 17 18
M  V30 18 1 17 19
M  V30 19 1 18 20
M  V30 20 2 19 21
M  V30 21 1 19 22
M  V30 22 2 20 23
M  V30 23 1 20 24
M  V30 24 2 24 25
M  V30 25 1 24 26
M  V30 26 1 25 27
M  V30 27 2 26 28
M  V30 28 2 27 29
M  V30 29 1 9 10
M  V30 30 2 14 15
M  V30 31 1 28 29
M  V30 END BOND
M  V30 END CTAB
M  END
>  <smiles>
c1ccc(cc1)C(=O)N/C(=C\c2ccc(o2)c3ccc(cc3)C(F)(F)F)/C(=O)[O-]

$$$$
Compound 2
Actelion Java MolfileCreator 2.0

  0  0  0  0  0  0              0 V3000
M  V30 BEGIN CTAB
M  V30 COUNTS 27 29 0 0 0
M  V30 BEGIN ATOM
M  V30 1 O 5.1961 -2.2499 0.0 0
M  V30 2 C 3.8971 -2.9999 0.0 0
M  V30 3 N 2.598 -2.2499 0.0 0
M  V30 4 C 3.8971 -4.5 0.0 0
M  V30 5 C 2.598 -0.75 0.0 0
M  V30 6 C 2.598 -5.2499 0.0 0
M  V30 7 C 5.1961 -5.25 0.0 0
M  V30 8 C 3.8971 0.0 0.0 0
M  V30 9 C 1.299 0.0 0.0 0
M  V30 10 C 2.598 -6.7499 0.0 0
M  V30 11 C 5.1961 -6.75 0.0 0
M  V30 12 O 3.8971 1.4999 0.0 0
M  V30 13 O 5.1961 -0.7499 0.0 0 CHG=-1
M  V30 14 C 0.0 -0.75 0.0 0
M  V30 15 C 3.8971 -7.4999 0.0 0
M  V30 16 O -1.3703 -0.1398 0.0 0
M  V30 17 C -0.1567 -2.2417 0.0 0
M  V30 18 C -2.374 -1.2546 0.0 0
M  V30 19 C -1.624 -2.5536 0.0 0
M  V30 20 C -3.8657 -1.0978 0.0 0
M  V30 21 C -4.4759 0.2724 0.0 0
M  V30 22 C -4.7474 -2.3113 0.0 0
M  V30 23 O -3.5942 1.486 0.0 0
M  V30 24 C -5.9676 0.4292 0.0 0
M  V30 25 C -6.2392 -2.1545 0.0 0
M  V30 26 C -4.2043 2.8563 0.0 0
M  V30 27 C -6.8493 -0.7842 0.0 0
M  V30 END ATOM
M  V30 BEGIN BOND
M  V30 1 2 1 2
M  V30 2 1 2 3
M  V30 3 1 2 4
M  V30 4 1 3 5
M  V30 5 2 4 6
M  V30 6 1 4 7
M  V30 7 1 5 8
M  V30 8 2 5 9
M  V30 9 1 6 10
M  V30 10 2 7 11
M  V30 11 2 8 12
M  V30 12 1 8 13
M  V30 13 1 9 14
M  V30 14 2 10 15
M  V30 15 1 14 16
M  V30 16 2 14 17
M  V30 17 1 16 18
M  V30 18 1 17 19
M  V30 19 1 18 20
M  V30 20 2 20 21
M  V30 21 1 20 22
M  V30 22 1 21 23
M  V30 23 1 21 24
M  V30 24 2 22 25
M  V30 25 1 23 26
M  V30 26 2 24 27
M  V30 27 1 11 15
M  V30 28 2 18 19
M  V30 29 1 25 27
M  V30 END BOND
M  V30 END CTAB
M  END
>  <smiles>
COc1ccccc1c2ccc(o2)/C=C(/C(=O)[O-])\NC(=O)c3ccccc3

$$$$
Compound 3
Actelion Java MolfileCreator 2.0

  0  0  0  0  0  0              0 V3000
M  V30 BEGIN CTAB
M  V30 COUNTS 30 32 0 0 0
M  V30 BEGIN ATOM
M  V30 1 F 6.8158 8.9517 0.0 0
M  V30 2 C 8.1861 8.3416 0.0 0
M  V30 3 F 8.7962 9.7119 0.0 0
M  V30 4 F 9.5564 7.7315 0.0 0
M  V30 5 O 7.576 6.9713 0.0 0
M  V30 6 C 8.4577 5.7578 0.0 0
M  V30 7 C 7.8476 4.3874 0.0 0
M  V30 8 C 9.9495 5.9146 0.0 0
M  V30 9 C 8.7293 3.1739 0.0 0
M  V30 10 C 10.8311 4.701 0.0 0
M  V30 11 C 8.1192 1.8036 0.0 0
M  V30 12 C 10.221 3.3307 0.0 0
M  V30 13 O 6.6519 1.4917 0.0 0
M  V30 14 C 8.8692 0.5046 0.0 0
M  V30 15 C 6.4951 0.0 0.0 0
M  V30 16 C 7.8655 -0.6101 0.0 0
M  V30 17 C 5.1961 -0.75 0.0 0
M  V30 18 C 3.8971 0.0 0.0 0
M  V30 19 N 3.8971 1.5 0.0 0
M  V30 20 C 2.598 -0.75 0.0 0
M  V30 21 C 2.598 2.25 0.0 0
M  V30 22 O 2.598 -2.25 0.0 0
M  V30 23 O 1.299 0.0 0.0 0 CHG=-1
M  V30 24 O 1.299 1.4999 0.0 0
M  V30 25 C 2.598 3.75 0.0 0
M  V30 26 C 1.299 4.4999 0.0 0
M  V30 27 C 3.8971 4.5 0.0 0
M  V30 28 C 1.299 6.0 0.0 0
M  V30 29 C 3.8971 6.0 0.0 0
M  V30 30 C 2.598 6.7499 0.0 0
M  V30 END ATOM
M  V30 BEGIN BOND
M  V30 1 1 1 2
M  V30 2 1 2 3
M  V30 3 1 2 4
M  V30 4 1 2 5
M  V30 5 1 5 6
M  V30 6 2 6 7
M  V30 7 1 6 8
M  V30 8 1 7 9
M  V30 9 2 8 10
M  V30 10 1 9 11
M  V30 11 2 9 12
M  V30 12 1 11 13
M  V30 13 2 11 14
M  V30 14 1 13 15
M  V30 15 1 14 16
M  V30 16 1 15 17
M  V30 17 2 17 18
M  V30 18 1 18 19
M  V30 19 1 18 20
M  V30 20 1 19 21
M  V30 21 2 20 22
M  V30 22 1 20 23
M  V30 23 2 21 24
M  V30 24 1 21 25
M  V30 25 2 25 26
M  V30 26 1 25 27
M  V30 27 1 26 28
M  V30 28 2 27 29
M  V30 29 2 28 30
M  V30 30 1 10 12
M  V30 31 2 15 16
M  V30 32 1 29 30
M  V30 END BOND
M  V30 END CTAB
M  END
>  <smiles>
c1ccc(cc1)C(=O)N/C(=C\c2ccc(o2)c3cccc(c3)OC(F)(F)F)/C(=O)[O-]

$$$$
Compound 4
Actelion Java MolfileCreator 2.0

  0  0  0  0  0  0              0 V3000
M  V30 BEGIN CTAB
M  V30 COUNTS 30 32 0 0 0
M  V30 BEGIN ATOM
M  V30 1 O 5.1961 -2.2499 0.0 0
M  V30 2 C 3.8971 -2.9999 0.0 0
M  V30 3 N 2.598 -2.2499 0.0 0
M  V30 4 C 3.8971 -4.5 0.0 0
M  V30 5 C 2.598 -0.75 0.0 0
M  V30 6 C 2.598 -5.2499 0.0 0
M  V30 7 C 5.1961 -5.25 0.0 0
M  V30 8 C 3.8971 0.0 0.0 0
M  V30 9 C 1.299 0.0 0.0 0
M  V30 10 C 2.598 -6.7499 0.0 0
M  V30 11 C 5.1961 -6.75 0.0 0
M  V30 12 O 3.8971 1.4999 0.0 0
M  V30 13 O 5.1961 -0.7499 0.0 0 CHG=-1
M  V30 14 C 0.0 -0.75 0.0 0
M  V30 15 C 3.8971 -7.4999 0.0 0
M  V30 16 C -1.299 0.0 0.0 0
M  V30 17 C 0.0 -2.2499 0.0 0
M  V30 18 C -2.598 -0.7499 0.0 0
M  V30 19 C -1.299 -2.9999 0.0 0
M  V30 20 C -2.598 -2.2499 0.0 0
M  V30 21 O -3.8971 -2.9999 0.0 0
M  V30 22 C -3.8971 -4.4999 0.0 0
M  V30 23 C -5.1961 -5.2499 0.0 0
M  V30 24 C -2.598 -5.2499 0.0 0
M  V30 25 C -5.1961 -6.7499 0.0 0
M  V30 26 C -6.4951 -4.4999 0.0 0
M  V30 27 C -2.598 -6.7499 0.0 0
M  V30 28 C -3.8971 -7.4999 0.0 0
M  V30 29 C -6.4951 -2.9999 0.0 0
M  V30 30 C -7.7942 -5.2499 0.0 0
M  V30 END ATOM
M  V30 BEGIN BOND
M  V30 1 2 1 2
M  V30 2 1 2 3
M  V30 3 1 2 4
M  V30 4 1 3 5
M  V30 5 2 4 6
M  V30 6 1 4 7
M  V30 7 1 5 8
M  V30 8 2 5 9
M  V30 9 1 6 10
M  V30 10 2 7 11
M  V30 11 2 8 12
M  V30 12 1 8 13
M  V30 13 1 9 14
M  V30 14 2 10 15
M  V30 15 2 14 16
M  V30 16 1 14 17
M  V30 17 1 16 18
M  V30 18 2 17 19
M  V30 19 2 18 20
M  V30 20 1 20 21
M  V30 21 1 21 22
M  V30 22 2 22 23
M  V30 23 1 22 24
M  V30 24 1 23 25
M  V30 25 1 23 26
M  V30 26 2 24 27
M  V30 27 2 25 28
M  V30 28 1 26 29
M  V30 29 1 26 30
M  V30 30 1 11 15
M  V30 31 1 19 20
M  V30 32 1 27 28
M  V30 END BOND
M  V30 END CTAB
M  END
>  <smiles>
CC(C)c1ccccc1Oc2ccc(cc2)/C=C(/C(=O)[O-])\NC(=O)c3ccccc3

$$$$
Compound 5
Actelion Java MolfileCreator 2.0

  0  0  0  0  0  0              0 V3000
M  V30 BEGIN CTAB
M  V30 COUNTS 26 28 0 0 0
M  V30 BEGIN ATOM
M  V30 1 F 0.6129 -6.2749 0.0 0
M  V30 2 C 1.2007 -5.4658 0.0 0
M  V30 3 C 0.794 -4.5523 0.0 0
M  V30 4 C 2.1952 -5.5704 0.0 0
M  V30 5 C 1.3817 -3.7433 0.0 0
M  V30 6 C 2.783 -4.7614 0.0 0
M  V30 7 C 2.3763 -3.8478 0.0 0
M  V30 8 C 2.9641 -3.0388 0.0 0
M  V30 9 O 2.655 -2.0877 0.0 0
M  V30 10 C 3.9641 -3.0388 0.0 0
M  V30 11 C 3.4641 -1.5 0.0 0
M  V30 12 C 4.2731 -2.0877 0.0 0
M  V30 13 C 3.4641 -0.5 0.0 0
M  V30 14 C 2.598 0.0 0.0 0
M  V30 15 N 1.732 -0.5 0.0 0
M  V30 16 C 2.598 1.0 0.0 0
M  V30 17 C 0.866 0.0 0.0 0
M  V30 18 O 3.4641 1.4999 0.0 0
M  V30 19 O 1.732 1.5 0.0 0 CHG=-1
M  V30 20 O 0.866 1.0 0.0 0
M  V30 21 C 0.0 -0.5 0.0 0
M  V30 22 C -0.866 0.0 0.0 0
M  V30 23 C 0.0 -1.4999 0.0 0
M  V30 24 C -1.732 -0.4999 0.0 0
M  V30 25 C -0.866 -1.9999 0.0 0
M  V30 26 C -1.732 -1.4999 0.0 0
M  V30 END ATOM
M  V30 BEGIN BOND
M  V30 1 1 1 2
M  V30 2 2 2 3
M  V30 3 1 2 4
M  V30 4 1 3 5
M  V30 5 2 4 6
M  V30 6 2 5 7
M  V30 7 1 7 8
M  V30 8 1 8 9
M  V30 9 2 8 10
M  V30 10 1 9 11
M  V30 11 1 10 12
M  V30 12 1 11 13
M  V30 13 2 13 14
M  V30 14 1 14 15
M  V30 15 1 14 16
M  V30 16 1 15 17
M  V30 17 2 16 18
M  V30 18 1 16 19
M  V30 19 2 17 20
M  V30 20 1 17 21
M  V30 21 2 21 22
M  V30 22 1 21 23
M  V30 23 1 22 24
M  V30 24 2 23 25
M  V30 25 2 24 26
M  V30 26 1 6 7
M  V30 27 2 11 12
M  V30 28 1 25 26
M  V30 END BOND
M  V30 END CTAB
M  END
>  <smiles>
c1ccc(cc1)C(=O)N/C(=C\c2ccc(o2)c3ccc(cc3)F)/C(=O)[O-]

$$$$
Compound 6
Actelion Java MolfileCreator 2.0

  0  0  0  0  0  0              0 V3000
M  V30 BEGIN CTAB
M  V30 COUNTS 27 29 0 0 0
M  V30 BEGIN ATOM
M  V30 1 O 5.1961 -2.25 0.0 0
M  V30 2 C 3.8971 -2.9999 0.0 0
M  V30 3 N 2.598 -2.25 0.0 0
M  V30 4 C 3.8971 -4.5 0.0 0
M  V30 5 C 2.598 -0.75 0.0 0
M  V30 6 C 2.598 -5.2499 0.0 0
M  V30 7 C 5.1961 -5.25 0.0 0
M  V30 8 C 3.8971 0.0 0.0 0
M  V30 9 C 1.299 0.0 0.0 0
M  V30 10 C 2.598 -6.7499 0.0 0
M  V30 11 C 5.1961 -6.75 0.0 0
M  V30 12 O 3.8971 1.5 0.0 0
M  V30 13 O 5.1961 -0.75 0.0 0 CHG=-1
M  V30 14 C 0.0 -0.75 0.0 0
M  V30 15 C 3.8971 -7.4999 0.0 0
M  V30 16 O -1.3703 -0.1398 0.0 0
M  V30 17 C -0.1567 -2.2417 0.0 0
M  V30 18 C -2.374 -1.2546 0.0 0
M  V30 19 C -1.624 -2.5536 0.0 0
M  V30 20 C -3.8657 -1.0978 0.0 0
M  V30 21 C -4.4759 0.2724 0.0 0
M  V30 22 C -4.7474 -2.3113 0.0 0
M  V30 23 C -5.9676 0.4292 0.0 0
M  V30 24 C -6.2392 -2.1545 0.0 0
M  V30 25 C -6.8493 -0.7842 0.0 0
M  V30 26 C -8.3411 -0.6274 0.0 0
M  V30 27 O -9.2228 -1.8409 0.0 0
M  V30 END ATOM
M  V30 BEGIN BOND
M  V30 1 2 1 2
M  V30 2 1 2 3
M  V30 3 1 2 4
M  V30 4 1 3 5
M  V30 5 2 4 6
M  V30 6 1 4 7
M  V30 7 1 5 8
M  V30 8 2 5 9
M  V30 9 1 6 10
M  V30 10 2 7 11
M  V30 11 2 8 12
M  V30 12 1 8 13
M  V30 13 1 9 14
M  V30 14 2 10 15
M  V30 15 1 14 16
M  V30 16 2 14 17
M  V30 17 1 16 18
M  V30 18 1 17 19
M  V30 19 1 18 20
M  V30 20 2 20 21
M  V30 21 1 20 22
M  V30 22 1 21 23
M  V30 23 2 22 24
M  V30 24 2 23 25
M  V30 25 1 25 26
M  V30 26 1 26 27
M  V30 27 1 11 15
M  V30 28 2 18 19
M  V30 29 1 24 25
M  V30 END BOND
M  V30 END CTAB
M  END
>  <smiles>
c1ccc(cc1)C(=O)N/C(=C\c2ccc(o2)c3ccc(cc3)CO)/C(=O)[O-]

$$$$
Compound 7
Actelion Java MolfileCreator 2.0

  0  0  0  0  0  0              0 V3000
M  V30 BEGIN CTAB
M  V30 COUNTS 29 31 0 0 0
M  V30 BEGIN ATOM
M  V30 1 O 5.1961 -2.2499 0.0 0
M  V30 2 C 3.8971 -2.9999 0.0 0
M  V30 3 N 2.598 -2.2499 0.0 0
M  V30 4 C 3.8971 -4.5 0.0 0
M  V30 5 C 2.598 -0.75 0.0 0
M  V30 6 C 2.598 -5.2499 0.0 0
M  V30 7 C 5.1961 -5.25 0.0 0
M  V30 8 C 3.8971 0.0 0.0 0
M  V30 9 C 1.299 0.0 0.0 0
M  V30 10 C 2.598 -6.7499 0.0 0
M  V30 11 C 5.1961 -6.75 0.0 0
M  V30 12 O 3.8971 1.4999 0.0 0
M  V30 13 O 5.1961 -0.7499 0.0 0 CHG=-1
M  V30 14 C 0.0 -0.75 0.0 0
M  V30 15 C 3.8971 -7.4999 0.0 0
M  V30 16 C -1.299 0.0 0.0 0
M  V30 17 C 0.0 -2.2499 0.0 0
M  V30 18 C -2.598 -0.7499 0.0 0
M  V30 19 C -1.299 -2.9999 0.0 0
M  V30 20 C -2.598 -2.2499 0.0 0
M  V30 21 O -3.8971 -2.9999 0.0 0
M  V30 22 C -3.8971 -4.4999 0.0 0
M  V30 23 C -5.1961 -5.2499 0.0 0
M  V30 24 C -2.598 -5.2499 0.0 0
M  V30 25 C -6.4951 -4.4999 0.0 0
M  V30 26 C -5.1961 -6.7499 0.0 0
M  V30 27 C -2.598 -6.7499 0.0 0
M  V30 28 N -7.7942 -3.7499 0.0 0
M  V30 29 C -3.8971 -7.4999 0.0 0
M  V30 END ATOM
M  V30 BEGIN BOND
M  V30 1 2 1 2
M  V30 2 1 2 3
M  V30 3 1 2 4
M  V30 4 1 3 5
M  V30 5 2 4 6
M  V30 6 1 4 7
M  V30 7 1 5 8
M  V30 8 2 5 9
M  V30 9 1 6 10
M  V30 10 2 7 11
M  V30 11 2 8 12
M  V30 12 1 8 13
M  V30 13 1 9 14
M  V30 14 2 10 15
M  V30 15 2 14 16
M  V30 16 1 14 17
M  V30 17 1 16 18
M  V30 18 2 17 19
M  V30 19 2 18 20
M  V30 20 1 20 21
M  V30 21 1 21 22
M  V30 22 2 22 23
M  V30 23 1 22 24
M  V30 24 1 23 25
M  V30 25 1 23 26
M  V30 26 2 24 27
M  V30 27 3 25 28
M  V30 28 2 26 29
M  V30 29 1 11 15
M  V30 30 1 19 20
M  V30 31 1 27 29
M  V30 END BOND
M  V30 END CTAB
M  END
>  <smiles>
c1ccc(cc1)C(=O)N/C(=C\c2ccc(cc2)Oc3ccccc3C#N)/C(=O)[O-]

$$$$
Compound 8
Actelion Java MolfileCreator 2.0

  0  0  0  0  0  0              0 V3000
M  V30 BEGIN CTAB
M  V30 COUNTS 30 32 0 0 0
M  V30 BEGIN ATOM
M  V30 1 O 9.5262 2.9999 0.0 0
M  V30 2 N 8.6602 2.5 0.0 0 CHG=1
M  V30 3 O 7.7942 2.9999 0.0 0 CHG=-1
M  V30 4 C 8.6602 1.4999 0.0 0
M  V30 5 C 7.7942 0.9999 0.0 0
M  V30 6 C 9.5262 0.9999 0.0 0
M  V30 7 O 6.9282 1.4999 0.0 0
M  V30 8 C 7.7942 0.0 0.0 0
M  V30 9 C 9.5262 0.0 0.0 0
M  V30 10 C 6.0621 0.9999 0.0 0
M  V30 11 C 8.6602 -0.5 0.0 0
M  V30 12 C 5.1961 1.4999 0.0 0
M  V30 13 C 6.0621 0.0 0.0 0
M  V30 14 C 4.3301 0.9999 0.0 0
M  V30 15 C 5.1961 -0.5 0.0 0
M  V30 16 C 4.3301 0.0 0.0 0
M  V30 17 C 3.4641 -0.5 0.0 0
M  V30 18 C 2.598 0.0 0.0 0
M  V30 19 N 2.598 0.9999 0.0 0
M  V30 20 C 1.732 -0.5 0.0 0
M  V30 21 C 1.732 1.4999 0.0 0
M  V30 22 O 1.732 -1.5 0.0 0
M  V30 23 O 0.866 0.0 0.0 0 CHG=-1
M  V30 24 O 0.866 0.9999 0.0 0
M  V30 25 C 1.732 2.4999 0.0 0
M  V30 26 C 0.866 2.9999 0.0 0
M  V30 27 C 2.598 3.0 0.0 0
M  V30 28 C 0.866 3.9999 0.0 0
M  V30 29 C 2.598 4.0 0.0 0
M  V30 30 C 1.732 4.4999 0.0 0
M  V30 END ATOM
M  V30 BEGIN BOND
M  V30 1 2 1 2
M  V30 2 1 2 3
M  V30 3 1 2 4
M  V30 4 2 4 5
M  V30 5 1 4 6
M  V30 6 1 5 7
M  V30 7 1 5 8
M  V30 8 2 6 9
M  V30 9 1 7 10
M  V30 10 2 8 11
M  V30 11 2 10 12
M  V30 12 1 10 13
M  V30 13 1 12 14
M  V30 14 2 13 15
M  V30 15 2 14 16
M  V30 16 1 16 17
M  V30 17 2 17 18
M  V30 18 1 18 19
M  V30 19 1 18 20
M  V30 20 1 19 21
M  V30 21 2 20 22
M  V30 22 1 20 23
M  V30 23 2 21 24
M  V30 24 1 21 25
M  V30 25 2 25 26
M  V30 26 1 25 27
M  V30 27 1 26 28
M  V30 28 2 27 29
M  V30 29 2 28 30
M  V30 30 1 9 11
M  V30 31 1 15 16
M  V30 32 1 29 30
M  V30 END BOND
M  V30 END CTAB
M  END
>  <smiles>
c1ccc(cc1)C(=O)N/C(=C\c2ccc(cc2)Oc3ccccc3[N+](=O)[O-])/C(=O)[O-]

$$$$
Compound 9
Actelion Java MolfileCreator 2.0

  0  0  0  0  0  0              0 V3000
M  V30 BEGIN CTAB
M  V30 COUNTS 27 29 0 0 0
M  V30 BEGIN ATOM
M  V30 1 S 10.5596 7.2849 0.0 0
M  V30 2 C 9.9495 5.9146 0.0 0
M  V30 3 C 9.6779 8.4984 0.0 0
M  V30 4 C 8.4577 5.7578 0.0 0
M  V30 5 C 10.8311 4.701 0.0 0
M  V30 6 C 7.8476 4.3874 0.0 0
M  V30 7 C 10.221 3.3307 0.0 0
M  V30 8 C 8.7293 3.1739 0.0 0
M  V30 9 C 8.1192 1.8036 0.0 0
M  V30 10 O 6.6519 1.4917 0.0 0
M  V30 11 C 8.8692 0.5046 0.0 0
M  V30 12 C 6.4951 0.0 0.0 0
M  V30 13 C 7.8655 -0.6101 0.0 0
M  V30 14 C 5.1961 -0.75 0.0 0
M  V30 15 C 3.8971 0.0 0.0 0
M  V30 16 N 3.8971 1.4999 0.0 0
M  V30 17 C 2.598 -0.75 0.0 0
M  V30 18 C 2.598 2.2499 0.0 0
M  V30 19 O 2.598 -2.25 0.0 0
M  V30 20 O 1.299 0.0 0.0 0 CHG=-1
M  V30 21 O 1.299 1.4999 0.0 0
M  V30 22 C 2.598 3.75 0.0 0
M  V30 23 C 1.299 4.4999 0.0 0
M  V30 24 C 3.8971 4.5 0.0 0
M  V30 25 C 1.299 5.9999 0.0 0
M  V30 26 C 3.8971 6.0 0.0 0
M  V30 27 C 2.598 6.7499 0.0 0
M  V30 END ATOM
M  V30 BEGIN BOND
M  V30 1 1 1 2
M  V30 2 1 1 3
M  V30 3 2 2 4
M  V30 4 1 2 5
M  V30 5 1 4 6
M  V30 6 2 5 7
M  V30 7 2 6 8
M  V30 8 1 8 9
M  V30 9 1 9 10
M  V30 10 2 9 11
M  V30 11 1 10 12
M  V30 12 1 11 13
M  V30 13 1 12 14
M  V30 14 2 14 15
M  V30 15 1 15 16
M  V30 16 1 15 17
M  V30 17 1 16 18
M  V30 18 2 17 19
M  V30 19 1 17 20
M  V30 20 2 18 21
M  V30 21 1 18 22
M  V30 22 2 22 23
M  V30 23 1 22 24
M  V30 24 1 23 25
M  V30 25 2 24 26
M  V30 26 2 25 27
M  V30 27 1 7 8
M  V30 28 2 12 13
M  V30 29 1 26 27
M  V30 END BOND
M  V30 END CTAB
M  END
>  <smiles>
CSc1ccc(cc1)c2ccc(o2)/C=C(/C(=O)[O-])\NC(=O)c3ccccc3

$$$$
Compound 10
Actelion Java MolfileCreator 2.0

  0  0  0  0  0  0              0 V3000
M  V30 BEGIN CTAB
M  V30 COUNTS 27 29 0 0 0
M  V30 BEGIN ATOM
M  V30 1 Cl 5.1961 3.7499 0.0 0
M  V30 2 C 6.4951 4.5 0.0 0
M  V30 3 C 7.7942 3.75 0.0 0
M  V30 4 C 6.4951 5.9999 0.0 0
M  V30 5 C 7.7942 2.25 0.0 0
M  V30 6 C 9.0932 4.5 0.0 0
M  V30 7 C 7.7942 6.75 0.0 0
M  V30 8 N 6.4951 1.5 0.0 0
M  V30 9 C 9.0932 1.4999 0.0 0
M  V30 10 C 9.0932 6.0 0.0 0
M  V30 11 C 6.4951 0.0 0.0 0
M  V30 12 C 9.0932 0.0 0.0 0
M  V30 13 C 7.7942 -0.75 0.0 0
M  V30 14 C 5.1961 -0.75 0.0 0
M  V30 15 C 3.8971 0.0 0.0 0
M  V30 16 N 3.8971 1.4999 0.0 0
M  V30 17 C 2.598 -0.75 0.0 0
M  V30 18 C 2.598 2.2499 0.0 0
M  V30 19 O 2.598 -2.25 0.0 0
M  V30 20 O 1.299 0.0 0.0 0 CHG=-1
M  V30 21 O 1.299 1.4999 0.0 0
M  V30 22 C 2.598 3.75 0.0 0
M  V30 23 C 1.299 4.4999 0.0 0
M  V30 24 C 3.8971 4.5 0.0 0
M  V30 25 C 1.299 5.9999 0.0 0
M  V30 26 C 3.8971 6.0 0.0 0
M  V30 27 C 2.598 6.7499 0.0 0
M  V30 END ATOM
M  V30 BEGIN BOND
M  V30 1 1 1 2
M  V30 2 2 2 3
M  V30 3 1 2 4
M  V30 4 1 3 5
M  V30 5 1 3 6
M  V30 6 2 4 7
M  V30 7 2 5 8
M  V30 8 1 5 9
M  V30 9 2 6 10
M  V30 10 1 8 11
M  V30 11 2 9 12
M  V30 12 2 11 13
M  V30 13 1 11 14
M  V30 14 2 14 15
M  V30 15 1 15 16
M  V30 16 1 15 17
M  V30 17 1 16 18
M  V30 18 2 17 19
M  V30 19 1 17 20
M  V30 20 2 18 21
M  V30 21 1 18 22
M  V30 22 2 22 23
M  V30 23 1 22 24
M  V30 24 1 23 25
M  V30 25 2 24 26
M  V30 26 2 25 27
M  V30 27 1 7 10
M  V30 28 1 12 13
M  V30 29 1 26 27
M  V30 END BOND
M  V30 END CTAB
M  END
>  <smiles>
c1ccc(cc1)C(=O)N/C(=C\c2cccc(n2)c3ccccc3Cl)/C(=O)[O-]

$$$$
Compound 11
Actelion Java MolfileCreator 2.0

  0  0  0  0  0  0              0 V3000
M  V30 BEGIN CTAB
M  V30 COUNTS 29 31 0 0 0
M  V30 BEGIN ATOM
M  V30 1 O 5.1961 -2.2499 0.0 0
M  V30 2 C 3.8971 -2.9999 0.0 0
M  V30 3 N 2.598 -2.2499 0.0 0
M  V30 4 C 3.8971 -4.5 0.0 0
M  V30 5 C 2.598 -0.75 0.0 0
M  V30 6 C 2.598 -5.2499 0.0 0
M  V30 7 C 5.1961 -5.25 0.0 0
M  V30 8 C 3.8971 0.0 0.0 0
M  V30 9 C 1.299 0.0 0.0 0
M  V30 10 C 2.598 -6.7499 0.0 0
M  V30 11 C 5.1961 -6.75 0.0 0
M  V30 12 O 3.8971 1.4999 0.0 0
M  V30 13 O 5.1961 -0.7499 0.0 0 CHG=-1
M  V30 14 C 0.0 -0.75 0.0 0
M  V30 15 C 3.8971 -7.4999 0.0 0
M  V30 16 C -1.299 0.0 0.0 0
M  V30 17 C 0.0 -2.2499 0.0 0
M  V30 18 C -2.598 -0.7499 0.0 0
M  V30 19 C -1.299 -2.9999 0.0 0
M  V30 20 C -2.598 -2.2499 0.0 0
M  V30 21 O -3.8971 -2.9999 0.0 0
M  V30 22 C -3.8971 -4.4999 0.0 0
M  V30 23 C -5.1961 -5.2499 0.0 0
M  V30 24 C -2.598 -5.2499 0.0 0
M  V30 25 O -6.4951 -4.4999 0.0 0
M  V30 26 C -5.1961 -6.7499 0.0 0
M  V30 27 C -2.598 -6.7499 0.0 0
M  V30 28 C -7.7942 -5.2499 0.0 0
M  V30 29 C -3.8971 -7.4999 0.0 0
M  V30 END ATOM
M  V30 BEGIN BOND
M  V30 1 2 1 2
M  V30 2 1 2 3
M  V30 3 1 2 4
M  V30 4 1 3 5
M  V30 5 2 4 6
M  V30 6 1 4 7
M  V30 7 1 5 8
M  V30 8 2 5 9
M  V30 9 1 6 10
M  V30 10 2 7 11
M  V30 11 2 8 12
M  V30 12 1 8 13
M  V30 13 1 9 14
M  V30 14 2 10 15
M  V30 15 2 14 16
M  V30 16 1 14 17
M  V30 17 1 16 18
M  V30 18 2 17 19
M  V30 19 2 18 20
M  V30 20 1 20 21
M  V30 21 1 21 22
M  V30 22 2 22 23
M  V30 23 1 22 24
M  V30 24 1 23 25
M  V30 25 1 23 26
M  V30 26 2 24 27
M  V30 27 1 25 28
M  V30 28 2 26 29
M  V30 29 1 11 15
M  V30 30 1 19 20
M  V30 31 1 27 29
M  V30 END BOND
M  V30 END CTAB
M  END
>  <smiles>
COc1ccccc1Oc2ccc(cc2)/C=C(/C(=O)[O-])\NC(=O)c3ccccc3

$$$$
Compound 12
Actelion Java MolfileCreator 2.0

  0  0  0  0  0  0              0 V3000
M  V30 BEGIN CTAB
M  V30 COUNTS 28 30 0 0 0
M  V30 BEGIN ATOM
M  V30 1 O 8.1861 8.3416 0.0 0
M  V30 2 N 7.576 6.9713 0.0 0 CHG=1
M  V30 3 O 6.0842 6.8145 0.0 0 CHG=-1
M  V30 4 C 8.4577 5.7578 0.0 0
M  V30 5 C 7.8476 4.3874 0.0 0
M  V30 6 C 9.9495 5.9146 0.0 0
M  V30 7 C 8.7293 3.1739 0.0 0
M  V30 8 C 10.8311 4.701 0.0 0
M  V30 9 C 8.1192 1.8036 0.0 0
M  V30 10 C 10.221 3.3307 0.0 0
M  V30 11 O 6.6519 1.4917 0.0 0
M  V30 12 C 8.8692 0.5046 0.0 0
M  V30 13 C 6.4951 0.0 0.0 0
M  V30 14 C 7.8655 -0.6101 0.0 0
M  V30 15 C 5.1961 -0.75 0.0 0
M  V30 16 C 3.8971 0.0 0.0 0
M  V30 17 N 3.8971 1.5 0.0 0
M  V30 18 C 2.598 -0.75 0.0 0
M  V30 19 C 2.598 2.25 0.0 0
M  V30 20 O 2.598 -2.25 0.0 0
M  V30 21 O 1.299 0.0 0.0 0 CHG=-1
M  V30 22 O 1.299 1.4999 0.0 0
M  V30 23 C 2.598 3.75 0.0 0
M  V30 24 C 1.299 4.4999 0.0 0
M  V30 25 C 3.8971 4.5 0.0 0
M  V30 26 C 1.299 6.0 0.0 0
M  V30 27 C 3.8971 6.0 0.0 0
M  V30 28 C 2.598 6.7499 0.0 0
M  V30 END ATOM
M  V30 BEGIN BOND
M  V30 1 2 1 2
M  V30 2 1 2 3
M  V30 3 1 2 4
M  V30 4 2 4 5
M  V30 5 1 4 6
M  V30 6 1 5 7
M  V30 7 2 6 8
M  V30 8 1 7 9
M  V30 9 2 7 10
M  V30 10 1 9 11
M  V30 11 2 9 12
M  V30 12 1 11 13
M  V30 13 1 12 14
M  V30 14 1 13 15
M  V30 15 2 15 16
M  V30 16 1 16 17
M  V30 17 1 16 18
M  V30 18 1 17 19
M  V30 19 2 18 20
M  V30 20 1 18 21
M  V30 21 2 19 22
M  V30 22 1 19 23
M  V30 23 2 23 24
M  V30 24 1 23 25
M  V30 25 1 24 26
M  V30 26 2 25 27
M  V30 27 2 26 28
M  V30 28 1 8 10
M  V30 29 2 13 14
M  V30 30 1 27 28
M  V30 END BOND
M  V30 END CTAB
M  END
>  <smiles>
c1ccc(cc1)C(=O)N/C(=C\c2ccc(o2)c3cccc(c3)[N+](=O)[O-])/C(=O)[O-]

$$$$
Compound 13
Actelion Java MolfileCreator 2.0

  0  0  0  0  0  0              0 V3000
M  V30 BEGIN CTAB
M  V30 COUNTS 28 30 0 0 0
M  V30 BEGIN ATOM
M  V30 1 O 12.0514 7.4417 0.0 0
M  V30 2 N 10.5596 7.2849 0.0 0 CHG=1
M  V30 3 O 9.6779 8.4984 0.0 0 CHG=-1
M  V30 4 C 9.9495 5.9146 0.0 0
M  V30 5 C 8.4577 5.7578 0.0 0
M  V30 6 C 10.8311 4.701 0.0 0
M  V30 7 C 7.8476 4.3874 0.0 0
M  V30 8 C 10.221 3.3307 0.0 0
M  V30 9 C 8.7293 3.1739 0.0 0
M  V30 10 C 8.1192 1.8036 0.0 0
M  V30 11 O 6.6519 1.4917 0.0 0
M  V30 12 C 8.8692 0.5046 0.0 0
M  V30 13 C 6.4951 0.0 0.0 0
M  V30 14 C 7.8655 -0.6101 0.0 0
M  V30 15 C 5.1961 -0.75 0.0 0
M  V30 16 C 3.8971 0.0 0.0 0
M  V30 17 N 3.8971 1.4999 0.0 0
M  V30 18 C 2.598 -0.75 0.0 0
M  V30 19 C 2.598 2.2499 0.0 0
M  V30 20 O 2.598 -2.25 0.0 0
M  V30 21 O 1.299 0.0 0.0 0 CHG=-1
M  V30 22 O 1.299 1.4999 0.0 0
M  V30 23 C 2.598 3.75 0.0 0
M  V30 24 C 1.299 4.4999 0.0 0
M  V30 25 C 3.8971 4.5 0.0 0
M  V30 26 C 1.299 5.9999 0.0 0
M  V30 27 C 3.8971 6.0 0.0 0
M  V30 28 C 2.598 6.7499 0.0 0
M  V30 END ATOM
M  V30 BEGIN BOND
M  V30 1 2 1 2
M  V30 2 1 2 3
M  V30 3 1 2 4
M  V30 4 2 4 5
M  V30 5 1 4 6
M  V30 6 1 5 7
M  V30 7 2 6 8
M  V30 8 2 7 9
M  V30 9 1 9 10
M  V30 10 1 10 11
M  V30 11 2 10 12
M  V30 12 1 11 13
M  V30 13 1 12 14
M  V30 14 1 13 15
M  V30 15 2 15 16
M  V30 16 1 16 17
M  V30 17 1 16 18
M  V30 18 1 17 19
M  V30 19 2 18 20
M  V30 20 1 18 21
M  V30 21 2 19 22
M  V30 22 1 19 23
M  V30 23 2 23 24
M  V30 24 1 23 25
M  V30 25 1 24 26
M  V30 26 2 25 27
M  V30 27 2 26 28
M  V30 28 1 8 9
M  V30 29 2 13 14
M  V30 30 1 27 28
M  V30 END BOND
M  V30 END CTAB
M  END
>  <smiles>
c1ccc(cc1)C(=O)N/C(=C\c2ccc(o2)c3ccc(cc3)[N+](=O)[O-])/C(=O)[O-]

$$$$
Compound 14
Actelion Java MolfileCreator 2.0

  0  0  0  0  0  0              0 V3000
M  V30 BEGIN CTAB
M  V30 COUNTS 33 36 0 0 0
M  V30 BEGIN ATOM
M  V30 1 O 3.4641 -1.4999 0.0 0
M  V30 2 C 2.598 -1.9999 0.0 0
M  V30 3 N 1.732 -1.4999 0.0 0
M  V30 4 C 2.598 -3.0 0.0 0
M  V30 5 C 1.732 -0.5 0.0 0
M  V30 6 C 1.732 -3.4999 0.0 0
M  V30 7 C 3.4641 -3.4999 0.0 0
M  V30 8 C 2.598 0.0 0.0 0
M  V30 9 C 0.866 0.0 0.0 0
M  V30 10 C 1.732 -4.4999 0.0 0
M  V30 11 C 3.4641 -4.5 0.0 0
M  V30 12 O 2.598 0.9999 0.0 0
M  V30 13 O 3.4641 -0.4999 0.0 0 CHG=-1
M  V30 14 C 0.0 -0.5 0.0 0
M  V30 15 C 2.598 -4.9999 0.0 0
M  V30 16 C -0.866 0.0 0.0 0
M  V30 17 C 0.0 -1.4999 0.0 0
M  V30 18 C -1.732 -0.4999 0.0 0
M  V30 19 C -0.866 -1.9999 0.0 0
M  V30 20 C -1.732 -1.4999 0.0 0
M  V30 21 O -2.598 -1.9999 0.0 0
M  V30 22 C -2.598 -2.9999 0.0 0
M  V30 23 C -3.4641 -3.4999 0.0 0
M  V30 24 C -1.732 -3.4999 0.0 0
M  V30 25 C -4.3301 -2.9999 0.0 0
M  V30 26 C -3.4641 -4.4999 0.0 0
M  V30 27 C -1.732 -4.4999 0.0 0
M  V30 28 C -4.3301 -1.9999 0.0 0
M  V30 29 C -5.1961 -3.4999 0.0 0
M  V30 30 C -2.598 -4.9999 0.0 0
M  V30 31 C -5.1961 -1.4999 0.0 0
M  V30 32 C -6.0621 -2.9999 0.0 0
M  V30 33 C -6.0621 -1.9999 0.0 0
M  V30 END ATOM
M  V30 BEGIN BOND
M  V30 1 2 1 2
M  V30 2 1 2 3
M  V30 3 1 2 4
M  V30 4 1 3 5
M  V30 5 2 4 6
M  V30 6 1 4 7
M  V30 7 1 5 8
M  V30 8 2 5 9
M  V30 9 1 6 10
M  V30 10 2 7 11
M  V30 11 2 8 12
M  V30 12 1 8 13
M  V30 13 1 9 14
M  V30 14 2 10 15
M  V30 15 2 14 16
M  V30 16 1 14 17
M  V30 17 1 16 18
M  V30 18 2 17 19
M  V30 19 2 18 20
M  V30 20 1 20 21
M  V30 21 1 21 22
M  V30 22 2 22 23
M  V30 23 1 22 24
M  V30 24 1 23 25
M  V30 25 1 23 26
M  V30 26 2 24 27
M  V30 27 2 25 28
M  V30 28 1 25 29
M  V30 29 2 26 30
M  V30 30 1 28 31
M  V30 31 2 29 32
M  V30 32 2 31 33
M  V30 33 1 11 15
M  V30 34 1 19 20
M  V30 35 1 27 30
M  V30 36 1 32 33
M  V30 END BOND
M  V30 END CTAB
M  END
>  <smiles>
c1ccc(cc1)c2ccccc2Oc3ccc(cc3)/C=C(/C(=O)[O-])\NC(=O)c4ccccc4

$$$$
Compound 15
Actelion Java MolfileCreator 2.0

  0  0  0  0  0  0              0 V3000
M  V30 BEGIN CTAB
M  V30 COUNTS 27 29 0 0 0
M  V30 BEGIN ATOM
M  V30 1 Cl 11.6913 1.4999 0.0 0
M  V30 2 C 11.6913 0.0 0.0 0
M  V30 3 C 10.3923 -0.75 0.0 0
M  V30 4 C 12.9903 -0.75 0.0 0
M  V30 5 C 9.0932 0.0 0.0 0
M  V30 6 C 10.3923 -2.25 0.0 0
M  V30 7 C 12.9903 -2.25 0.0 0
M  V30 8 C 9.0932 1.4999 0.0 0
M  V30 9 C 7.7942 -0.75 0.0 0
M  V30 10 C 11.6913 -3.0 0.0 0
M  V30 11 N 7.7942 2.25 0.0 0
M  V30 12 C 6.4951 0.0 0.0 0
M  V30 13 C 6.4951 1.5 0.0 0
M  V30 14 C 5.1961 -0.75 0.0 0
M  V30 15 C 3.8971 0.0 0.0 0
M  V30 16 N 3.8971 1.5 0.0 0
M  V30 17 C 2.598 -0.75 0.0 0
M  V30 18 C 2.598 2.25 0.0 0
M  V30 19 O 2.598 -2.25 0.0 0
M  V30 20 O 1.299 0.0 0.0 0 CHG=-1
M  V30 21 O 1.299 1.4999 0.0 0
M  V30 22 C 2.598 3.75 0.0 0
M  V30 23 C 1.299 4.4999 0.0 0
M  V30 24 C 3.8971 4.5 0.0 0
M  V30 25 C 1.299 6.0 0.0 0
M  V30 26 C 3.8971 6.0 0.0 0
M  V30 27 C 2.598 6.7499 0.0 0
M  V30 END ATOM
M  V30 BEGIN BOND
M  V30 1 1 1 2
M  V30 2 2 2 3
M  V30 3 1 2 4
M  V30 4 1 3 5
M  V30 5 1 3 6
M  V30 6 2 4 7
M  V30 7 2 5 8
M  V30 8 1 5 9
M  V30 9 2 6 10
M  V30 10 1 8 11
M  V30 11 2 9 12
M  V30 12 2 11 13
M  V30 13 1 12 14
M  V30 14 2 14 15
M  V30 15 1 15 16
M  V30 16 1 15 17
M  V30 17 1 16 18
M  V30 18 2 17 19
M  V30 19 1 17 20
M  V30 20 2 18 21
M  V30 21 1 18 22
M  V30 22 2 22 23
M  V30 23 1 22 24
M  V30 24 1 23 25
M  V30 25 2 24 26
M  V30 26 2 25 27
M  V30 27 1 7 10
M  V30 28 1 12 13
M  V30 29 1 26 27
M  V30 END BOND
M  V30 END CTAB
M  END
>  <smiles>
c1ccc(cc1)C(=O)N/C(=C\c2cc(cnc2)c3ccccc3Cl)/C(=O)[O-]

$$$$
Compound 16
Actelion Java MolfileCreator 2.0

  0  0  0  0  0  0              0 V3000
M  V30 BEGIN CTAB
M  V30 COUNTS 31 33 0 0 0
M  V30 BEGIN ATOM
M  V30 1 O 3.4641 -1.4999 0.0 0
M  V30 2 C 2.598 -1.9999 0.0 0
M  V30 3 N 1.732 -1.4999 0.0 0
M  V30 4 C 2.598 -3.0 0.0 0
M  V30 5 C 1.732 -0.5 0.0 0
M  V30 6 C 1.732 -3.4999 0.0 0
M  V30 7 C 3.4641 -3.4999 0.0 0
M  V30 8 C 2.598 0.0 0.0 0
M  V30 9 C 0.866 0.0 0.0 0
M  V30 10 C 1.732 -4.4999 0.0 0
M  V30 11 C 3.4641 -4.5 0.0 0
M  V30 12 O 2.598 0.9999 0.0 0
M  V30 13 O 3.4641 -0.4999 0.0 0 CHG=-1
M  V30 14 C 0.0 -0.5 0.0 0
M  V30 15 C 2.598 -4.9999 0.0 0
M  V30 16 C -0.866 0.0 0.0 0
M  V30 17 C 0.0 -1.4999 0.0 0
M  V30 18 C -1.732 -0.4999 0.0 0
M  V30 19 C -0.866 -1.9999 0.0 0
M  V30 20 C -1.732 -1.4999 0.0 0
M  V30 21 O -2.598 -1.9999 0.0 0
M  V30 22 C -2.598 -2.9999 0.0 0
M  V30 23 C -3.4641 -3.4999 0.0 0
M  V30 24 C -1.732 -3.4999 0.0 0
M  V30 25 C -3.4641 -4.4999 0.0 0
M  V30 26 C -4.3301 -2.9999 0.0 0
M  V30 27 C -1.732 -4.4999 0.0 0
M  V30 28 C -2.598 -4.9999 0.0 0
M  V30 29 C -4.8301 -3.866 0.0 0
M  V30 30 C -5.1961 -2.4999 0.0 0
M  V30 31 C -3.8301 -2.1339 0.0 0
M  V30 END ATOM
M  V30 BEGIN BOND
M  V30 1 2 1 2
M  V30 2 1 2 3
M  V30 3 1 2 4
M  V30 4 1 3 5
M  V30 5 2 4 6
M  V30 6 1 4 7
M  V30 7 1 5 8
M  V30 8 2 5 9
M  V30 9 1 6 10
M  V30 10 2 7 11
M  V30 11 2 8 12
M  V30 12 1 8 13
M  V30 13 1 9 14
M  V30 14 2 10 15
M  V30 15 2 14 16
M  V30 16 1 14 17
M  V30 17 1 16 18
M  V30 18 2 17 19
M  V30 19 2 18 20
M  V30 20 1 20 21
M  V30 21 1 21 22
M  V30 22 2 22 23
M  V30 23 1 22 24
M  V30 24 1 23 25
M  V30 25 1 23 26
M  V30 26 2 24 27
M  V30 27 2 25 28
M  V30 28 1 26 29
M  V30 29 1 26 30
M  V30 30 1 26 31
M  V30 31 1 11 15
M  V30 32 1 19 20
M  V30 33 1 27 28
M  V30 END BOND
M  V30 END CTAB
M  END
>  <smiles>
CC(C)(C)c1ccccc1Oc2ccc(cc2)/C=C(/C(=O)[O-])\NC(=O)c3ccccc3

$$$$
Compound 17
Actelion Java MolfileCreator 2.0

  0  0  0  0  0  0              0 V3000
M  V30 BEGIN CTAB
M  V30 COUNTS 27 29 0 0 0
M  V30 BEGIN ATOM
M  V30 1 O 5.1961 -2.2499 0.0 0
M  V30 2 C 3.8971 -2.9999 0.0 0
M  V30 3 N 2.598 -2.2499 0.0 0
M  V30 4 C 3.8971 -4.5 0.0 0
M  V30 5 C 2.598 -0.75 0.0 0
M  V30 6 C 2.598 -5.2499 0.0 0
M  V30 7 C 5.1961 -5.25 0.0 0
M  V30 8 C 3.8971 0.0 0.0 0
M  V30 9 C 1.299 0.0 0.0 0
M  V30 10 C 2.598 -6.7499 0.0 0
M  V30 11 C 5.1961 -6.75 0.0 0
M  V30 12 O 3.8971 1.4999 0.0 0
M  V30 13 O 5.1961 -0.7499 0.0 0 CHG=-1
M  V30 14 C 0.0 -0.75 0.0 0
M  V30 15 C 3.8971 -7.4999 0.0 0
M  V30 16 O -1.3703 -0.1398 0.0 0
M  V30 17 C -0.1567 -2.2417 0.0 0
M  V30 18 C -2.374 -1.2546 0.0 0
M  V30 19 C -1.624 -2.5536 0.0 0
M  V30 20 C -3.8657 -1.0978 0.0 0
M  V30 21 C -4.4759 0.2724 0.0 0
M  V30 22 C -4.7474 -2.3113 0.0 0
M  V30 23 C -5.9676 0.4292 0.0 0
M  V30 24 C -6.2392 -2.1545 0.0 0
M  V30 25 C -6.8493 -0.7842 0.0 0
M  V30 26 C -6.5777 1.7996 0.0 0
M  V30 27 O -8.0695 1.9564 0.0 0
M  V30 END ATOM
M  V30 BEGIN BOND
M  V30 1 2 1 2
M  V30 2 1 2 3
M  V30 3 1 2 4
M  V30 4 1 3 5
M  V30 5 2 4 6
M  V30 6 1 4 7
M  V30 7 1 5 8
M  V30 8 2 5 9
M  V30 9 1 6 10
M  V30 10 2 7 11
M  V30 11 2 8 12
M  V30 12 1 8 13
M  V30 13 1 9 14
M  V30 14 2 10 15
M  V30 15 1 14 16
M  V30 16 2 14 17
M  V30 17 1 16 18
M  V30 18 1 17 19
M  V30 19 1 18 20
M  V30 20 2 20 21
M  V30 21 1 20 22
M  V30 22 1 21 23
M  V30 23 2 22 24
M  V30 24 2 23 25
M  V30 25 1 23 26
M  V30 26 1 26 27
M  V30 27 1 11 15
M  V30 28 2 18 19
M  V30 29 1 24 25
M  V30 END BOND
M  V30 END CTAB
M  END
>  <smiles>
c1ccc(cc1)C(=O)N/C(=C\c2ccc(o2)c3cccc(c3)CO)/C(=O)[O-]

$$$$
Compound 18
Actelion Java MolfileCreator 2.0

  0  0  0  0  0  0              0 V3000
M  V30 BEGIN CTAB
M  V30 COUNTS 27 29 0 0 0
M  V30 BEGIN ATOM
M  V30 1 O 5.1961 -2.2499 0.0 0
M  V30 2 C 3.8971 -2.9999 0.0 0
M  V30 3 N 2.598 -2.2499 0.0 0
M  V30 4 C 3.8971 -4.5 0.0 0
M  V30 5 C 2.598 -0.75 0.0 0
M  V30 6 C 2.598 -5.2499 0.0 0
M  V30 7 C 5.1961 -5.25 0.0 0
M  V30 8 C 3.8971 0.0 0.0 0
M  V30 9 C 1.299 0.0 0.0 0
M  V30 10 C 2.598 -6.7499 0.0 0
M  V30 11 C 5.1961 -6.75 0.0 0
M  V30 12 O 3.8971 1.4999 0.0 0
M  V30 13 O 5.1961 -0.7499 0.0 0 CHG=-1
M  V30 14 C 0.0 -0.75 0.0 0
M  V30 15 C 3.8971 -7.4999 0.0 0
M  V30 16 C -1.299 0.0 0.0 0
M  V30 17 C 0.0 -2.2499 0.0 0
M  V30 18 C -2.598 -0.7499 0.0 0
M  V30 19 C -1.299 -2.9999 0.0 0
M  V30 20 C -2.598 -2.2499 0.0 0
M  V30 21 O -3.8971 -2.9999 0.0 0
M  V30 22 C -3.8971 -4.4999 0.0 0
M  V30 23 C -5.1961 -5.2499 0.0 0
M  V30 24 C -2.598 -5.2499 0.0 0
M  V30 25 C -5.1961 -6.7499 0.0 0
M  V30 26 C -2.598 -6.7499 0.0 0
M  V30 27 C -3.8971 -7.4999 0.0 0
M  V30 END ATOM
M  V30 BEGIN BOND
M  V30 1 2 1 2
M  V30 2 1 2 3
M  V30 3 1 2 4
M  V30 4 1 3 5
M  V30 5 2 4 6
M  V30 6 1 4 7
M  V30 7 1 5 8
M  V30 8 2 5 9
M  V30 9 1 6 10
M  V30 10 2 7 11
M  V30 11 2 8 12
M  V30 12 1 8 13
M  V30 13 1 9 14
M  V30 14 2 10 15
M  V30 15 2 14 16
M  V30 16 1 14 17
M  V30 17 1 16 18
M  V30 18 2 17 19
M  V30 19 2 18 20
M  V30 20 1 20 21
M  V30 21 1 21 22
M  V30 22 2 22 23
M  V30 23 1 22 24
M  V30 24 1 23 25
M  V30 25 2 24 26
M  V30 26 2 25 27
M  V30 27 1 11 15
M  V30 28 1 19 20
M  V30 29 1 26 27
M  V30 END BOND
M  V30 END CTAB
M  END
>  <smiles>
c1ccc(cc1)C(=O)N/C(=C\c2ccc(cc2)Oc3ccccc3)/C(=O)[O-]

$$$$
Compound 19
Actelion Java MolfileCreator 2.0

  0  0  0  0  0  0              0 V3000
M  V30 BEGIN CTAB
M  V30 COUNTS 27 29 0 0 0
M  V30 BEGIN ATOM
M  V30 1 S 7.8655 -0.6101 0.0 0
M  V30 2 C 8.8692 0.5046 0.0 0
M  V30 3 C 6.4951 0.0 0.0 0
M  V30 4 C 10.3609 0.3478 0.0 0
M  V30 5 C 8.1192 1.8036 0.0 0
M  V30 6 C 6.6519 1.4917 0.0 0
M  V30 7 C 5.1961 -0.75 0.0 0
M  V30 8 C 10.971 -1.0224 0.0 0
M  V30 9 C 11.2426 1.5613 0.0 0
M  V30 10 C 3.8971 0.0 0.0 0
M  V30 11 C 12.4628 -1.1792 0.0 0
M  V30 12 C 10.0894 -2.236 0.0 0
M  V30 13 C 12.7344 1.4045 0.0 0
M  V30 14 N 3.8971 1.4999 0.0 0
M  V30 15 C 2.598 -0.75 0.0 0
M  V30 16 C 13.3445 0.0342 0.0 0
M  V30 17 O 10.6995 -3.6063 0.0 0
M  V30 18 C 2.598 2.2499 0.0 0
M  V30 19 O 2.598 -2.25 0.0 0
M  V30 20 O 1.299 0.0 0.0 0 CHG=-1
M  V30 21 O 1.299 1.4999 0.0 0
M  V30 22 C 2.598 3.75 0.0 0
M  V30 23 C 1.299 4.4999 0.0 0
M  V30 24 C 3.8971 4.5 0.0 0
M  V30 25 C 1.299 5.9999 0.0 0
M  V30 26 C 3.8971 6.0 0.0 0
M  V30 27 C 2.598 6.7499 0.0 0
M  V30 END ATOM
M  V30 BEGIN BOND
M  V30 1 1 1 2
M  V30 2 1 1 3
M  V30 3 1 2 4
M  V30 4 2 2 5
M  V30 5 2 3 6
M  V30 6 1 3 7
M  V30 7 2 4 8
M  V30 8 1 4 9
M  V30 9 2 7 10
M  V30 10 1 8 11
M  V30 11 1 8 12
M  V30 12 2 9 13
M  V30 13 1 10 14
M  V30 14 1 10 15
M  V30 15 2 11 16
M  V30 16 1 12 17
M  V30 17 1 14 18
M  V30 18 2 15 19
M  V30 19 1 15 20
M  V30 20 2 18 21
M  V30 21 1 18 22
M  V30 22 2 22 23
M  V30 23 1 22 24
M  V30 24 1 23 25
M  V30 25 2 24 26
M  V30 26 2 25 27
M  V30 27 1 5 6
M  V30 28 1 13 16
M  V30 29 1 26 27
M  V30 END BOND
M  V30 END CTAB
M  END
>  <smiles>
c1ccc(cc1)C(=O)N/C(=C\c2ccc(s2)c3ccccc3CO)/C(=O)[O-]

$$$$
Compound 20
Actelion Java MolfileCreator 2.0

  0  0  0  0  0  0              0 V3000
M  V30 BEGIN CTAB
M  V30 COUNTS 30 32 0 0 0
M  V30 BEGIN ATOM
M  V30 1 F 7.9297 5.9556 0.0 0
M  V30 2 C 8.0342 4.9611 0.0 0
M  V30 3 F 9.0287 5.0656 0.0 0
M  V30 4 F 8.1388 3.9666 0.0 0
M  V30 5 O 7.0397 4.8566 0.0 0
M  V30 6 C 6.633 3.943 0.0 0
M  V30 7 C 5.6384 3.8385 0.0 0
M  V30 8 C 7.2207 3.134 0.0 0
M  V30 9 C 5.2317 2.9249 0.0 0
M  V30 10 C 6.814 2.2205 0.0 0
M  V30 11 C 5.8195 2.1159 0.0 0
M  V30 12 C 5.4128 1.2024 0.0 0
M  V30 13 O 4.4346 0.9945 0.0 0
M  V30 14 C 5.9128 0.3364 0.0 0
M  V30 15 C 4.3301 0.0 0.0 0
M  V30 16 C 5.2436 -0.4067 0.0 0
M  V30 17 C 3.4641 -0.5 0.0 0
M  V30 18 C 2.598 0.0 0.0 0
M  V30 19 N 2.598 0.9999 0.0 0
M  V30 20 C 1.732 -0.5 0.0 0
M  V30 21 C 1.732 1.4999 0.0 0
M  V30 22 O 1.732 -1.5 0.0 0
M  V30 23 O 0.866 0.0 0.0 0 CHG=-1
M  V30 24 O 0.866 0.9999 0.0 0
M  V30 25 C 1.732 2.4999 0.0 0
M  V30 26 C 0.866 2.9999 0.0 0
M  V30 27 C 2.598 3.0 0.0 0
M  V30 28 C 0.866 3.9999 0.0 0
M  V30 29 C 2.598 4.0 0.0 0
M  V30 30 C 1.732 4.4999 0.0 0
M  V30 END ATOM
M  V30 BEGIN BOND
M  V30 1 1 1 2
M  V30 2 1 2 3
M  V30 3 1 2 4
M  V30 4 1 2 5
M  V30 5 1 5 6
M  V30 6 2 6 7
M  V30 7 1 6 8
M  V30 8 1 7 9
M  V30 9 2 8 10
M  V30 10 2 9 11
M  V30 11 1 11 12
M  V30 12 1 12 13
M  V30 13 2 12 14
M  V30 14 1 13 15
M  V30 15 1 14 16
M  V30 16 1 15 17
M  V30 17 2 17 18
M  V30 18 1 18 19
M  V30 19 1 18 20
M  V30 20 1 19 21
M  V30 21 2 20 22
M  V30 22 1 20 23
M  V30 23 2 21 24
M  V30 24 1 21 25
M  V30 25 2 25 26
M  V30 26 1 25 27
M  V30 27 1 26 28
M  V30 28 2 27 29
M  V30 29 2 28 30
M  V30 30 1 10 11
M  V30 31 2 15 16
M  V30 32 1 29 30
M  V30 END BOND
M  V30 END CTAB
M  END
>  <smiles>
c1ccc(cc1)C(=O)N/C(=C\c2ccc(o2)c3ccc(cc3)OC(F)(F)F)/C(=O)[O-]

$$$$
Compound 21
Actelion Java MolfileCreator 2.0

  0  0  0  0  0  0              0 V3000
M  V30 BEGIN CTAB
M  V30 COUNTS 29 31 0 0 0
M  V30 BEGIN ATOM
M  V30 1 S 7.576 6.9713 0.0 0
M  V30 2 O 8.7895 7.853 0.0 0
M  V30 3 O 6.3625 6.0896 0.0 0
M  V30 4 N 6.6943 8.1848 0.0 0
M  V30 5 C 8.4577 5.7578 0.0 0
M  V30 6 C 7.8476 4.3874 0.0 0
M  V30 7 C 9.9495 5.9146 0.0 0
M  V30 8 C 8.7293 3.1739 0.0 0
M  V30 9 C 10.8311 4.701 0.0 0
M  V30 10 C 8.1192 1.8036 0.0 0
M  V30 11 C 10.221 3.3307 0.0 0
M  V30 12 O 6.6519 1.4917 0.0 0
M  V30 13 C 8.8692 0.5046 0.0 0
M  V30 14 C 6.4951 0.0 0.0 0
M  V30 15 C 7.8655 -0.6101 0.0 0
M  V30 16 C 5.1961 -0.75 0.0 0
M  V30 17 C 3.8971 0.0 0.0 0
M  V30 18 N 3.8971 1.5 0.0 0
M  V30 19 C 2.598 -0.75 0.0 0
M  V30 20 C 2.598 2.25 0.0 0
M  V30 21 O 2.598 -2.25 0.0 0
M  V30 22 O 1.299 0.0 0.0 0 CHG=-1
M  V30 23 O 1.299 1.4999 0.0 0
M  V30 24 C 2.598 3.75 0.0 0
M  V30 25 C 1.299 4.4999 0.0 0
M  V30 26 C 3.8971 4.5 0.0 0
M  V30 27 C 1.299 6.0 0.0 0
M  V30 28 C 3.8971 6.0 0.0 0
M  V30 29 C 2.598 6.7499 0.0 0
M  V30 END ATOM
M  V30 BEGIN BOND
M  V30 1 2 1 2
M  V30 2 2 1 3
M  V30 3 1 1 4
M  V30 4 1 1 5
M  V30 5 2 5 6
M  V30 6 1 5 7
M  V30 7 1 6 8
M  V30 8 2 7 9
M  V30 9 1 8 10
M  V30 10 2 8 11
M  V30 11 1 10 12
M  V30 12 2 10 13
M  V30 13 1 12 14
M  V30 14 1 13 15
M  V30 15 1 14 16
M  V30 16 2 16 17
M  V30 17 1 17 18
M  V30 18 1 17 19
M  V30 19 1 18 20
M  V30 20 2 19 21
M  V30 21 1 19 22
M  V30 22 2 20 23
M  V30 23 1 20 24
M  V30 24 2 24 25
M  V30 25 1 24 26
M  V30 26 1 25 27
M  V30 27 2 26 28
M  V30 28 2 27 29
M  V30 29 1 9 11
M  V30 30 2 14 15
M  V30 31 1 28 29
M  V30 END BOND
M  V30 END CTAB
M  END
>  <smiles>
c1ccc(cc1)C(=O)N/C(=C\c2ccc(o2)c3cccc(c3)S(=O)(=O)N)/C(=O)[O-]

$$$$
Compound 22
Actelion Java MolfileCreator 2.0

  0  0  0  0  0  0              0 V3000
M  V30 BEGIN CTAB
M  V30 COUNTS 29 31 0 0 0
M  V30 BEGIN ATOM
M  V30 1 S 10.5596 7.2849 0.0 0
M  V30 2 O 11.9299 6.6748 0.0 0
M  V30 3 O 9.1893 7.895 0.0 0
M  V30 4 N 11.1697 8.6552 0.0 0
M  V30 5 C 9.9495 5.9146 0.0 0
M  V30 6 C 8.4577 5.7578 0.0 0
M  V30 7 C 10.8311 4.701 0.0 0
M  V30 8 C 7.8476 4.3874 0.0 0
M  V30 9 C 10.221 3.3307 0.0 0
M  V30 10 C 8.7293 3.1739 0.0 0
M  V30 11 C 8.1192 1.8036 0.0 0
M  V30 12 O 6.6519 1.4917 0.0 0
M  V30 13 C 8.8692 0.5046 0.0 0
M  V30 14 C 6.4951 0.0 0.0 0
M  V30 15 C 7.8655 -0.6101 0.0 0
M  V30 16 C 5.1961 -0.75 0.0 0
M  V30 17 C 3.8971 0.0 0.0 0
M  V30 18 N 3.8971 1.5 0.0 0
M  V30 19 C 2.598 -0.75 0.0 0
M  V30 20 C 2.598 2.25 0.0 0
M  V30 21 O 2.598 -2.25 0.0 0
M  V30 22 O 1.299 0.0 0.0 0 CHG=-1
M  V30 23 O 1.299 1.4999 0.0 0
M  V30 24 C 2.598 3.75 0.0 0
M  V30 25 C 1.299 4.4999 0.0 0
M  V30 26 C 3.8971 4.5 0.0 0
M  V30 27 C 1.299 6.0 0.0 0
M  V30 28 C 3.8971 6.0 0.0 0
M  V30 29 C 2.598 6.7499 0.0 0
M  V30 END ATOM
M  V30 BEGIN BOND
M  V30 1 2 1 2
M  V30 2 2 1 3
M  V30 3 1 1 4
M  V30 4 1 1 5
M  V30 5 2 5 6
M  V30 6 1 5 7
M  V30 7 1 6 8
M  V30 8 2 7 9
M  V30 9 2 8 10
M  V30 10 1 10 11
M  V30 11 1 11 12
M  V30 12 2 11 13
M  V30 13 1 12 14
M  V30 14 1 13 15
M  V30 15 1 14 16
M  V30 16 2 16 17
M  V30 17 1 17 18
M  V30 18 1 17 19
M  V30 19 1 18 20
M  V30 20 2 19 21
M  V30 21 1 19 22
M  V30 22 2 20 23
M  V30 23 1 20 24
M  V30 24 2 24 25
M  V30 25 1 24 26
M  V30 26 1 25 27
M  V30 27 2 26 28
M  V30 28 2 27 29
M  V30 29 1 9 10
M  V30 30 2 14 15
M  V30 31 1 28 29
M  V30 END BOND
M  V30 END CTAB
M  END
>  <smiles>
c1ccc(cc1)C(=O)N/C(=C\c2ccc(o2)c3ccc(cc3)S(=O)(=O)N)/C(=O)[O-]

$$$$
Compound 23
Actelion Java MolfileCreator 2.0

  0  0  0  0  0  0              0 V3000
M  V30 BEGIN CTAB
M  V30 COUNTS 31 33 0 0 0
M  V30 BEGIN ATOM
M  V30 1 O 3.4641 -1.4999 0.0 0
M  V30 2 C 2.598 -1.9999 0.0 0
M  V30 3 N 1.732 -1.4999 0.0 0
M  V30 4 C 2.598 -3.0 0.0 0
M  V30 5 C 1.732 -0.5 0.0 0
M  V30 6 C 1.732 -3.4999 0.0 0
M  V30 7 C 3.4641 -3.4999 0.0 0
M  V30 8 C 2.598 0.0 0.0 0
M  V30 9 C 0.866 0.0 0.0 0
M  V30 10 C 1.732 -4.4999 0.0 0
M  V30 11 C 3.4641 -4.5 0.0 0
M  V30 12 O 2.598 0.9999 0.0 0
M  V30 13 O 3.4641 -0.4999 0.0 0 CHG=-1
M  V30 14 C 0.0 -0.5 0.0 0
M  V30 15 C 2.598 -4.9999 0.0 0
M  V30 16 C -0.866 0.0 0.0 0
M  V30 17 C 0.0 -1.4999 0.0 0
M  V30 18 C -1.732 -0.4999 0.0 0
M  V30 19 C -0.866 -1.9999 0.0 0
M  V30 20 C -1.732 -1.4999 0.0 0
M  V30 21 O -2.598 -1.9999 0.0 0
M  V30 22 C -2.598 -2.9999 0.0 0
M  V30 23 C -3.4641 -3.4999 0.0 0
M  V30 24 C -1.732 -3.4999 0.0 0
M  V30 25 O -4.3301 -2.9999 0.0 0
M  V30 26 C -3.4641 -4.4999 0.0 0
M  V30 27 C -1.732 -4.4999 0.0 0
M  V30 28 C -4.3301 -1.9999 0.0 0
M  V30 29 C -2.598 -4.9999 0.0 0
M  V30 30 C -3.4641 -1.4999 0.0 0
M  V30 31 C -5.1961 -1.4999 0.0 0
M  V30 END ATOM
M  V30 BEGIN BOND
M  V30 1 2 1 2
M  V30 2 1 2 3
M  V30 3 1 2 4
M  V30 4 1 3 5
M  V30 5 2 4 6
M  V30 6 1 4 7
M  V30 7 1 5 8
M  V30 8 2 5 9
M  V30 9 1 6 10
M  V30 10 2 7 11
M  V30 11 2 8 12
M  V30 12 1 8 13
M  V30 13 1 9 14
M  V30 14 2 10 15
M  V30 15 2 14 16
M  V30 16 1 14 17
M  V30 17 1 16 18
M  V30 18 2 17 19
M  V30 19 2 18 20
M  V30 20 1 20 21
M  V30 21 1 21 22
M  V30 22 2 22 23
M  V30 23 1 22 24
M  V30 24 1 23 25
M  V30 25 1 23 26
M  V30 26 2 24 27
M  V30 27 1 25 28
M  V30 28 2 26 29
M  V30 29 1 28 30
M  V30 30 1 28 31
M  V30 31 1 11 15
M  V30 32 1 19 20
M  V30 33 1 27 29
M  V30 END BOND
M  V30 END CTAB
M  END
>  <smiles>
CC(C)Oc1ccccc1Oc2ccc(cc2)/C=C(/C(=O)[O-])\NC(=O)c3ccccc3

$$$$
Compound 24
Actelion Java MolfileCreator 2.0

  0  0  0  0  0  0              0 V3000
M  V30 BEGIN CTAB
M  V30 COUNTS 30 32 0 0 0
M  V30 BEGIN ATOM
M  V30 1 Br 10.3923 2.4999 0.0 0
M  V30 2 C 10.3923 1.4999 0.0 0
M  V30 3 C 9.5262 0.9999 0.0 0
M  V30 4 C 11.2583 0.9999 0.0 0
M  V30 5 O 8.6602 1.4999 0.0 0
M  V30 6 C 9.5262 0.0 0.0 0
M  V30 7 C 11.2583 0.0 0.0 0
M  V30 8 C 7.7942 0.9999 0.0 0
M  V30 9 C 10.3923 -0.5 0.0 0
M  V30 10 F 12.1243 -0.5 0.0 0
M  V30 11 C 6.9282 1.4999 0.0 0
M  V30 12 C 7.7942 0.0 0.0 0
M  V30 13 C 6.0621 0.9999 0.0 0
M  V30 14 C 6.9282 -0.5 0.0 0
M  V30 15 C 6.0621 0.0 0.0 0
M  V30 16 C 5.1961 -0.5 0.0 0
M  V30 17 C 4.3301 0.0 0.0 0
M  V30 18 N 4.3301 1.0 0.0 0
M  V30 19 C 3.4641 -0.5 0.0 0
M  V30 20 C 3.4641 1.5 0.0 0
M  V30 21 O 3.4641 -1.5 0.0 0
M  V30 22 O 2.598 0.0 0.0 0 CHG=-1
M  V30 23 O 2.598 1.0 0.0 0
M  V30 24 C 3.4641 2.5 0.0 0
M  V30 25 C 2.598 3.0 0.0 0
M  V30 26 C 2.598 4.0 0.0 0
M  V30 27 C 1.789 4.5877 0.0 0
M  V30 28 C 3.407 4.5877 0.0 0
M  V30 29 C 2.098 5.5388 0.0 0
M  V30 30 C 3.098 5.5388 0.0 0
M  V30 END ATOM
M  V30 BEGIN BOND
M  V30 1 1 1 2
M  V30 2 2 2 3
M  V30 3 1 2 4
M  V30 4 1 3 5
M  V30 5 1 3 6
M  V30 6 2 4 7
M  V30 7 1 5 8
M  V30 8 2 6 9
M  V30 9 1 7 10
M  V30 10 2 8 11
M  V30 11 1 8 12
M  V30 12 1 11 13
M  V30 13 2 12 14
M  V30 14 2 13 15
M  V30 15 1 15 16
M  V30 16 2 16 17
M  V30 17 1 17 18
M  V30 18 1 17 19
M  V30 19 1 18 20
M  V30 20 2 19 21
M  V30 21 1 19 22
M  V30 22 2 20 23
M  V30 23 1 20 24
M  V30 24 1 24 25
M  V30 25 1 25 26
M  V30 26 1 26 27
M  V30 27 1 26 28
M  V30 28 1 27 29
M  V30 29 1 28 30
M  V30 30 1 7 9
M  V30 31 1 14 15
M  V30 32 1 29 30
M  V30 END BOND
M  V30 END CTAB
M  END
>  <smiles>
c1cc(ccc1/C=C(/C(=O)[O-])\NC(=O)CCC2CCCC2)Oc3ccc(cc3Br)F

$$$$
Compound 25
Actelion Java MolfileCreator 2.0

  0  0  0  0  0  0              0 V3000
M  V30 BEGIN CTAB
M  V30 COUNTS 35 38 0 0 0
M  V30 BEGIN ATOM
M  V30 1 Br 7.7942 4.0 0.0 0
M  V30 2 C 7.7942 3.0 0.0 0
M  V30 3 C 6.9282 2.5 0.0 0
M  V30 4 C 8.6602 2.5 0.0 0
M  V30 5 O 6.0621 3.0 0.0 0
M  V30 6 C 6.9282 1.5 0.0 0
M  V30 7 C 8.6602 1.5 0.0 0
M  V30 8 C 5.1961 2.5 0.0 0
M  V30 9 C 7.7942 1.0 0.0 0
M  V30 10 C 4.3301 3.0 0.0 0
M  V30 11 C 5.1961 1.5 0.0 0
M  V30 12 C 3.4641 2.5 0.0 0
M  V30 13 C 4.3301 1.0 0.0 0
M  V30 14 C 3.4641 1.5 0.0 0
M  V30 15 C 2.598 1.0 0.0 0
M  V30 16 C 2.598 0.0 0.0 0
M  V30 17 N 3.4641 -0.5 0.0 0
M  V30 18 C 1.732 -0.5 0.0 0
M  V30 19 C 3.4641 -1.5 0.0 0
M  V30 20 O 1.732 -1.5 0.0 0
M  V30 21 N 0.866 0.0 0.0 0
M  V30 22 O 2.598 -2.0 0.0 0
M  V30 23 C 4.3301 -2.0 0.0 0
M  V30 24 C 0.0 -0.5 0.0 0
M  V30 25 C 4.3301 -3.0 0.0 0
M  V30 26 C 5.1961 -1.5 0.0 0
M  V30 27 C -0.866 0.0 0.0 0
M  V30 28 C 0.0 -1.4999 0.0 0
M  V30 29 C 5.1961 -3.5 0.0 0
M  V30 30 C 6.0621 -2.0 0.0 0
M  V30 31 C -1.732 -0.4999 0.0 0
M  V30 32 C -0.866 -1.9999 0.0 0
M  V30 33 C 6.0621 -3.0 0.0 0
M  V30 34 C -1.732 -1.4999 0.0 0
M  V30 35 O -2.598 -1.9999 0.0 0
M  V30 END ATOM
M  V30 BEGIN BOND
M  V30 1 1 1 2
M  V30 2 2 2 3
M  V30 3 1 2 4
M  V30 4 1 3 5
M  V30 5 1 3 6
M  V30 6 2 4 7
M  V30 7 1 5 8
M  V30 8 2 6 9
M  V30 9 2 8 10
M  V30 10 1 8 11
M  V30 11 1 10 12
M  V30 12 2 11 13
M  V30 13 2 12 14
M  V30 14 1 14 15
M  V30 15 2 15 16
M  V30 16 1 16 17
M  V30 17 1 16 18
M  V30 18 1 17 19
M  V30 19 2 18 20
M  V30 20 1 18 21
M  V30 21 2 19 22
M  V30 22 1 19 23
M  V30 23 1 21 24
M  V30 24 2 23 25
M  V30 25 1 23 26
M  V30 26 2 24 27
M  V30 27 1 24 28
M  V30 28 1 25 29
M  V30 29 2 26 30
M  V30 30 1 27 31
M  V30 31 2 28 32
M  V30 32 2 29 33
M  V30 33 2 31 34
M  V30 34 1 34 35
M  V30 35 1 7 9
M  V30 36 1 13 14
M  V30 37 1 30 33
M  V30 38 1 32 34
M  V30 END BOND
M  V30 END CTAB
M  END
>  <smiles>
c1ccc(cc1)C(=O)N/C(=C\c2ccc(cc2)Oc3ccccc3Br)/C(=O)Nc4ccc(cc4)O

$$$$
Compound 26
Actelion Java MolfileCreator 2.0

  0  0  0  0  0  0              0 V3000
M  V30 BEGIN CTAB
M  V30 COUNTS 35 38 0 0 0
M  V30 BEGIN ATOM
M  V30 1 Br 8.6602 -4.4999 0.0 0
M  V30 2 C 8.6602 -3.4999 0.0 0
M  V30 3 C 7.7942 -2.9999 0.0 0
M  V30 4 C 9.5262 -2.9999 0.0 0
M  V30 5 O 6.9282 -3.4999 0.0 0
M  V30 6 C 7.7942 -1.9999 0.0 0
M  V30 7 C 9.5262 -1.9999 0.0 0
M  V30 8 C 6.0621 -2.9999 0.0 0
M  V30 9 C 8.6602 -1.4999 0.0 0
M  V30 10 C 5.1961 -3.4999 0.0 0
M  V30 11 C 6.0621 -1.9999 0.0 0
M  V30 12 C 4.3301 -2.9999 0.0 0
M  V30 13 C 5.1961 -1.4999 0.0 0
M  V30 14 C 4.3301 -1.9999 0.0 0
M  V30 15 C 3.4641 -1.5 0.0 0
M  V30 16 C 3.4641 -0.5 0.0 0
M  V30 17 N 4.3301 0.0 0.0 0
M  V30 18 C 2.598 0.0 0.0 0
M  V30 19 C 4.3301 0.9999 0.0 0
M  V30 20 O 2.598 1.0 0.0 0
M  V30 21 N 1.732 -0.5 0.0 0
M  V30 22 O 3.4641 1.5 0.0 0
M  V30 23 C 5.1961 1.4999 0.0 0
M  V30 24 C 0.866 0.0 0.0 0
M  V30 25 C 6.0621 0.9999 0.0 0
M  V30 26 C 5.1961 2.4999 0.0 0
M  V30 27 C 0.0 -0.5 0.0 0
M  V30 28 C 6.9282 1.4999 0.0 0
M  V30 29 C 6.0621 2.9999 0.0 0
M  V30 30 C -0.866 0.0 0.0 0
M  V30 31 C 0.0 -1.4999 0.0 0
M  V30 32 C 6.9282 2.4999 0.0 0
M  V30 33 C -1.732 -0.4999 0.0 0
M  V30 34 C -0.866 -1.9999 0.0 0
M  V30 35 C -1.732 -1.4999 0.0 0
M  V30 END ATOM
M  V30 BEGIN BOND
M  V30 1 1 1 2
M  V30 2 2 2 3
M  V30 3 1 2 4
M  V30 4 1 3 5
M  V30 5 1 3 6
M  V30 6 2 4 7
M  V30 7 1 5 8
M  V30 8 2 6 9
M  V30 9 2 8 10
M  V30 10 1 8 11
M  V30 11 1 10 12
M  V30 12 2 11 13
M  V30 13 2 12 14
M  V30 14 1 14 15
M  V30 15 2 15 16
M  V30 16 1 16 17
M  V30 17 1 16 18
M  V30 18 1 17 19
M  V30 19 2 18 20
M  V30 20 1 18 21
M  V30 21 2 19 22
M  V30 22 1 19 23
M  V30 23 1 21 24
M  V30 24 2 23 25
M  V30 25 1 23 26
M  V30 26 1 24 27
M  V30 27 1 25 28
M  V30 28 2 26 29
M  V30 29 2 27 30
M  V30 30 1 27 31
M  V30 31 2 28 32
M  V30 32 1 30 33
M  V30 33 2 31 34
M  V30 34 2 33 35
M  V30 35 1 7 9
M  V30 36 1 13 14
M  V30 37 1 29 32
M  V30 38 1 34 35
M  V30 END BOND
M  V30 END CTAB
M  END
>  <smiles>
c1ccc(cc1)CNC(=O)/C(=C/c2ccc(cc2)Oc3ccccc3Br)/NC(=O)c4ccccc4

$$$$
Compound 27
Actelion Java MolfileCreator 2.0

  0  0  0  0  0  0              0 V3000
M  V30 BEGIN CTAB
M  V30 COUNTS 35 38 0 0 0
M  V30 BEGIN ATOM
M  V30 1 Br 7.7942 4.0 0.0 0
M  V30 2 C 7.7942 3.0 0.0 0
M  V30 3 C 6.9282 2.5 0.0 0
M  V30 4 C 8.6602 2.5 0.0 0
M  V30 5 O 6.0621 3.0 0.0 0
M  V30 6 C 6.9282 1.5 0.0 0
M  V30 7 C 8.6602 1.5 0.0 0
M  V30 8 C 5.1961 2.5 0.0 0
M  V30 9 C 7.7942 1.0 0.0 0
M  V30 10 C 4.3301 3.0 0.0 0
M  V30 11 C 5.1961 1.5 0.0 0
M  V30 12 C 3.4641 2.5 0.0 0
M  V30 13 C 4.3301 1.0 0.0 0
M  V30 14 C 3.4641 1.5 0.0 0
M  V30 15 C 2.598 1.0 0.0 0
M  V30 16 C 2.598 0.0 0.0 0
M  V30 17 N 3.4641 -0.5 0.0 0
M  V30 18 C 1.732 -0.5 0.0 0
M  V30 19 C 3.4641 -1.5 0.0 0
M  V30 20 O 1.732 -1.5 0.0 0
M  V30 21 N 0.866 0.0 0.0 0
M  V30 22 O 2.598 -2.0 0.0 0
M  V30 23 C 4.3301 -2.0 0.0 0
M  V30 24 C 0.0 -0.5 0.0 0
M  V30 25 C 4.3301 -3.0 0.0 0
M  V30 26 C 5.1961 -1.5 0.0 0
M  V30 27 C -0.866 0.0 0.0 0
M  V30 28 C 0.0 -1.4999 0.0 0
M  V30 29 C 5.1961 -3.5 0.0 0
M  V30 30 C 6.0621 -2.0 0.0 0
M  V30 31 O -0.866 1.0 0.0 0
M  V30 32 C -1.732 -0.4999 0.0 0
M  V30 33 C -0.866 -1.9999 0.0 0
M  V30 34 C 6.0621 -3.0 0.0 0
M  V30 35 C -1.732 -1.4999 0.0 0
M  V30 END ATOM
M  V30 BEGIN BOND
M  V30 1 1 1 2
M  V30 2 2 2 3
M  V30 3 1 2 4
M  V30 4 1 3 5
M  V30 5 1 3 6
M  V30 6 2 4 7
M  V30 7 1 5 8
M  V30 8 2 6 9
M  V30 9 2 8 10
M  V30 10 1 8 11
M  V30 11 1 10 12
M  V30 12 2 11 13
M  V30 13 2 12 14
M  V30 14 1 14 15
M  V30 15 2 15 16
M  V30 16 1 16 17
M  V30 17 1 16 18
M  V30 18 1 17 19
M  V30 19 2 18 20
M  V30 20 1 18 21
M  V30 21 2 19 22
M  V30 22 1 19 23
M  V30 23 1 21 24
M  V30 24 2 23 25
M  V30 25 1 23 26
M  V30 26 2 24 27
M  V30 27 1 24 28
M  V30 28 1 25 29
M  V30 29 2 26 30
M  V30 30 1 27 31
M  V30 31 1 27 32
M  V30 32 2 28 33
M  V30 33 2 29 34
M  V30 34 2 32 35
M  V30 35 1 7 9
M  V30 36 1 13 14
M  V30 37 1 30 34
M  V30 38 1 33 35
M  V30 END BOND
M  V30 END CTAB
M  END
>  <smiles>
c1ccc(cc1)C(=O)N/C(=C\c2ccc(cc2)Oc3ccccc3Br)/C(=O)Nc4ccccc4O

$$$$
Compound 28
Actelion Java MolfileCreator 2.0

  0  0  0  0  0  0              0 V3000
M  V30 BEGIN CTAB
M  V30 COUNTS 30 32 0 0 0
M  V30 BEGIN ATOM
M  V30 1 Br 5.1961 -6.4999 0.0 0
M  V30 2 C 6.0621 -6.0 0.0 0
M  V30 3 C 6.0621 -4.9999 0.0 0
M  V30 4 C 6.9282 -6.5 0.0 0
M  V30 5 O 5.1961 -4.5 0.0 0
M  V30 6 C 6.9282 -4.4999 0.0 0
M  V30 7 C 7.7942 -6.0 0.0 0
M  V30 8 C 5.1961 -3.4999 0.0 0
M  V30 9 C 7.7942 -5.0 0.0 0
M  V30 10 C 4.3301 -3.0 0.0 0
M  V30 11 C 6.0621 -2.9999 0.0 0
M  V30 12 C 4.3301 -2.0 0.0 0
M  V30 13 C 6.0621 -1.9999 0.0 0
M  V30 14 C 5.1961 -1.5 0.0 0
M  V30 15 C 5.1961 -0.5 0.0 0
M  V30 16 C 4.3301 0.0 0.0 0
M  V30 17 N 3.4641 -0.5 0.0 0
M  V30 18 C 4.3301 1.0 0.0 0
M  V30 19 C 2.598 0.0 0.0 0
M  V30 20 O 5.1961 1.4999 0.0 0
M  V30 21 O 3.4641 1.5 0.0 0 CHG=-1
M  V30 22 O 2.598 1.0 0.0 0
M  V30 23 C 1.732 -0.5 0.0 0
M  V30 24 C 0.866 0.0 0.0 0
M  V30 25 C 0.0 -0.5 0.0 0
M  V30 26 C -0.866 0.0 0.0 0
M  V30 27 C 0.0 -1.4999 0.0 0
M  V30 28 C -1.732 -0.4999 0.0 0
M  V30 29 C -0.866 -1.9999 0.0 0
M  V30 30 C -1.732 -1.4999 0.0 0
M  V30 END ATOM
M  V30 BEGIN BOND
M  V30 1 1 1 2
M  V30 2 2 2 3
M  V30 3 1 2 4
M  V30 4 1 3 5
M  V30 5 1 3 6
M  V30 6 2 4 7
M  V30 7 1 5 8
M  V30 8 2 6 9
M  V30 9 2 8 10
M  V30 10 1 8 11
M  V30 11 1 10 12
M  V30 12 2 11 13
M  V30 13 2 12 14
M  V30 14 1 14 15
M  V30 15 2 15 16
M  V30 16 1 16 17
M  V30 17 1 16 18
M  V30 18 1 17 19
M  V30 19 2 18 20
M  V30 20 1 18 21
M  V30 21 2 19 22
M  V30 22 1 19 23
M  V30 23 1 23 24
M  V30 24 1 24 25
M  V30 25 1 25 26
M  V30 26 1 25 27
M  V30 27 1 26 28
M  V30 28 1 27 29
M  V30 29 1 28 30
M  V30 30 1 7 9
M  V30 31 1 13 14
M  V30 32 1 29 30
M  V30 END BOND
M  V30 END CTAB
M  END
>  <smiles>
c1ccc(c(c1)Oc2ccc(cc2)/C=C(/C(=O)[O-])\NC(=O)CCC3CCCCC3)Br

$$$$
Compound 29
Actelion Java MolfileCreator 2.0

  0  0  0  0  0  0              0 V3000
M  V30 BEGIN CTAB
M  V30 COUNTS 33 35 0 0 0
M  V30 BEGIN ATOM
M  V30 1 F 9.3923 2.4999 0.0 0
M  V30 2 C 10.3923 2.4999 0.0 0
M  V30 3 F 10.3923 3.4999 0.0 0
M  V30 4 F 11.3923 2.4999 0.0 0
M  V30 5 C 10.3923 1.4999 0.0 0
M  V30 6 C 9.5262 0.9999 0.0 0
M  V30 7 C 11.2583 0.9999 0.0 0
M  V30 8 O 8.6602 1.4999 0.0 0
M  V30 9 C 9.5262 0.0 0.0 0
M  V30 10 C 11.2583 0.0 0.0 0
M  V30 11 C 7.7942 0.9999 0.0 0
M  V30 12 C 10.3923 -0.5 0.0 0
M  V30 13 N 12.1243 -0.5 0.0 0
M  V30 14 C 6.9282 1.4999 0.0 0
M  V30 15 C 7.7942 0.0 0.0 0
M  V30 16 C 6.0621 0.9999 0.0 0
M  V30 17 C 6.9282 -0.5 0.0 0
M  V30 18 C 6.0621 0.0 0.0 0
M  V30 19 C 5.1961 -0.5 0.0 0
M  V30 20 C 4.3301 0.0 0.0 0
M  V30 21 N 4.3301 1.0 0.0 0
M  V30 22 C 3.4641 -0.5 0.0 0
M  V30 23 C 3.4641 1.5 0.0 0
M  V30 24 O 3.4641 -1.5 0.0 0
M  V30 25 O 2.598 0.0 0.0 0 CHG=-1
M  V30 26 O 2.598 1.0 0.0 0
M  V30 27 C 3.4641 2.5 0.0 0
M  V30 28 C 2.598 3.0 0.0 0
M  V30 29 C 2.598 4.0 0.0 0
M  V30 30 C 1.789 4.5877 0.0 0
M  V30 31 C 3.407 4.5877 0.0 0
M  V30 32 C 2.098 5.5388 0.0 0
M  V30 33 C 3.098 5.5388 0.0 0
M  V30 END ATOM
M  V30 BEGIN BOND
M  V30 1 1 1 2
M  V30 2 1 2 3
M  V30 3 1 2 4
M  V30 4 1 2 5
M  V30 5 2 5 6
M  V30 6 1 5 7
M  V30 7 1 6 8
M  V30 8 1 6 9
M  V30 9 2 7 10
M  V30 10 1 8 11
M  V30 11 2 9 12
M  V30 12 1 10 13
M  V30 13 2 11 14
M  V30 14 1 11 15
M  V30 15 1 14 16
M  V30 16 2 15 17
M  V30 17 2 16 18
M  V30 18 1 18 19
M  V30 19 2 19 20
M  V30 20 1 20 21
M  V30 21 1 20 22
M  V30 22 1 21 23
M  V30 23 2 22 24
M  V30 24 1 22 25
M  V30 25 2 23 26
M  V30 26 1 23 27
M  V30 27 1 27 28
M  V30 28 1 28 29
M  V30 29 1 29 30
M  V30 30 1 29 31
M  V30 31 1 30 32
M  V30 32 1 31 33
M  V30 33 1 10 12
M  V30 34 1 17 18
M  V30 35 1 32 33
M  V30 END BOND
M  V30 END CTAB
M  END
>  <smiles>
c1cc(ccc1/C=C(/C(=O)[O-])\NC(=O)CCC2CCCC2)Oc3ccc(cc3C(F)(F)F)N

$$$$
Compound 30
Actelion Java MolfileCreator 2.0

  0  0  0  0  0  0              0 V3000
M  V30 BEGIN CTAB
M  V30 COUNTS 34 37 0 0 0
M  V30 BEGIN ATOM
M  V30 1 Br 7.7942 4.0 0.0 0
M  V30 2 C 7.7942 3.0 0.0 0
M  V30 3 C 6.9282 2.5 0.0 0
M  V30 4 C 8.6602 2.5 0.0 0
M  V30 5 O 6.0621 3.0 0.0 0
M  V30 6 C 6.9282 1.5 0.0 0
M  V30 7 C 8.6602 1.5 0.0 0
M  V30 8 C 5.1961 2.5 0.0 0
M  V30 9 C 7.7942 1.0 0.0 0
M  V30 10 C 4.3301 3.0 0.0 0
M  V30 11 C 5.1961 1.5 0.0 0
M  V30 12 C 3.4641 2.5 0.0 0
M  V30 13 C 4.3301 1.0 0.0 0
M  V30 14 C 3.4641 1.5 0.0 0
M  V30 15 C 2.598 1.0 0.0 0
M  V30 16 C 2.598 0.0 0.0 0
M  V30 17 N 3.4641 -0.5 0.0 0
M  V30 18 C 1.732 -0.5 0.0 0
M  V30 19 C 3.4641 -1.5 0.0 0
M  V30 20 O 1.732 -1.5 0.0 0
M  V30 21 N 0.866 0.0 0.0 0
M  V30 22 O 2.598 -2.0 0.0 0
M  V30 23 C 4.3301 -2.0 0.0 0
M  V30 24 C 0.0 -0.5 0.0 0
M  V30 25 C 4.3301 -3.0 0.0 0
M  V30 26 C 5.1961 -1.5 0.0 0
M  V30 27 C -0.866 0.0 0.0 0
M  V30 28 C 0.0 -1.4999 0.0 0
M  V30 29 C 5.1961 -3.5 0.0 0
M  V30 30 C 6.0621 -2.0 0.0 0
M  V30 31 C -1.732 -0.4999 0.0 0
M  V30 32 C -0.866 -1.9999 0.0 0
M  V30 33 C 6.0621 -3.0 0.0 0
M  V30 34 C -1.732 -1.4999 0.0 0
M  V30 END ATOM
M  V30 BEGIN BOND
M  V30 1 1 1 2
M  V30 2 2 2 3
M  V30 3 1 2 4
M  V30 4 1 3 5
M  V30 5 1 3 6
M  V30 6 2 4 7
M  V30 7 1 5 8
M  V30 8 2 6 9
M  V30 9 2 8 10
M  V30 10 1 8 11
M  V30 11 1 10 12
M  V30 12 2 11 13
M  V30 13 2 12 14
M  V30 14 1 14 15
M  V30 15 2 15 16
M  V30 16 1 16 17
M  V30 17 1 16 18
M  V30 18 1 17 19
M  V30 19 2 18 20
M  V30 20 1 18 21
M  V30 21 2 19 22
M  V30 22 1 19 23
M  V30 23 1 21 24
M  V30 24 2 23 25
M  V30 25 1 23 26
M  V30 26 2 24 27
M  V30 27 1 24 28
M  V30 28 1 25 29
M  V30 29 2 26 30
M  V30 30 1 27 31
M  V30 31 2 28 32
M  V30 32 2 29 33
M  V30 33 2 31 34
M  V30 34 1 7 9
M  V30 35 1 13 14
M  V30 36 1 30 33
M  V30 37 1 32 34
M  V30 END BOND
M  V30 END CTAB
M  END
>  <smiles>
c1ccc(cc1)C(=O)N/C(=C\c2ccc(cc2)Oc3ccccc3Br)/C(=O)Nc4ccccc4

$$$$
Compound 31
Actelion Java MolfileCreator 2.0

  0  0  0  0  0  0              0 V3000
M  V30 BEGIN CTAB
M  V30 COUNTS 23 24 0 0 0
M  V30 BEGIN ATOM
M  V30 1 Cl 7.7942 2.25 0.0 0
M  V30 2 C 6.4952 1.5 0.0 0
M  V30 3 C 5.1961 2.25 0.0 0
M  V30 4 C 6.4952 0.0 0.0 0
M  V30 5 C 3.8971 1.5 0.0 0
M  V30 6 C 5.1961 3.75 0.0 0
M  V30 7 C 5.1961 -0.75 0.0 0
M  V30 8 C 3.8971 0.0 0.0 0
M  V30 9 S 5.1961 -2.25 0.0 0
M  V30 10 N 2.598 -0.75 0.0 0
M  V30 11 O 3.6961 -2.2499 0.0 0
M  V30 12 O 4.4461 -3.549 0.0 0
M  V30 13 N 6.4952 -3.0 0.0 0
M  V30 14 C 1.299 0.0 0.0 0
M  V30 15 C 6.6519 -4.4917 0.0 0 CFG=2
M  V30 16 C 7.8655 -2.3898 0.0 0
M  V30 17 O 1.299 1.5 0.0 0
M  V30 18 C 0.0 -0.75 0.0 0
M  V30 19 C 5.5372 -5.4954 0.0 0
M  V30 20 C 8.1192 -4.8036 0.0 0
M  V30 21 C 8.8692 -3.5046 0.0 0
M  V30 22 O 4.1106 -5.0319 0.0 0
M  V30 23 O 5.8491 -6.9627 0.0 0 CHG=-1
M  V30 END ATOM
M  V30 BEGIN BOND
M  V30 1 1 1 2
M  V30 2 2 2 3
M  V30 3 1 2 4
M  V30 4 1 3 5
M  V30 5 1 3 6
M  V30 6 2 4 7
M  V30 7 2 5 8
M  V30 8 1 7 9
M  V30 9 1 8 10
M  V30 10 2 9 11
M  V30 11 2 9 12
M  V30 12 1 9 13
M  V30 13 1 10 14
M  V30 14 1 15 13
M  V30 15 1 13 16
M  V30 16 2 14 17
M  V30 17 1 14 18
M  V30 18 1 15 19 CFG=1
M  V30 19 1 15 20
M  V30 20 1 16 21
M  V30 21 2 19 22
M  V30 22 1 19 23
M  V30 23 1 7 8
M  V30 24 1 20 21
M  V30 END BOND
M  V30 BEGIN COLLECTION
M  V30 MDLV30/STEABS ATOMS=(1 15)
M  V30 END COLLECTION
M  V30 END CTAB
M  END
>  <smiles>
Cc1cc(c(cc1Cl)S(=O)(=O)N2CCC[C@H]2C(=O)[O-])NC(=O)C

$$$$
Compound 32
Actelion Java MolfileCreator 2.0

  0  0  0  0  0  0              0 V3000
M  V30 BEGIN CTAB
M  V30 COUNTS 21 22 0 0 0
M  V30 BEGIN ATOM
M  V30 1 Cl 1.3334 7.4373 0.0 0
M  V30 2 C 2.4482 6.4336 0.0 0
M  V30 3 C 2.1363 4.9664 0.0 0
M  V30 4 C 3.8748 6.8971 0.0 0
M  V30 5 O 0.7097 4.5028 0.0 0 CHG=-1
M  V30 6 C 3.251 3.9627 0.0 0
M  V30 7 C 4.9895 5.8934 0.0 0
M  V30 8 S 2.9391 2.4954 0.0 0
M  V30 9 C 4.6776 4.4262 0.0 0
M  V30 10 Cl 6.4161 6.3569 0.0 0
M  V30 11 O 1.472 2.8073 0.0 0
M  V30 12 O 1.9355 1.3807 0.0 0
M  V30 13 N 4.0539 1.4917 0.0 0
M  V30 14 C 3.8971 0.0 0.0 0 CFG=2
M  V30 15 C 5.5211 1.8036 0.0 0
M  V30 16 C 2.598 -0.75 0.0 0
M  V30 17 C 5.2674 -0.6101 0.0 0
M  V30 18 C 6.2711 0.5046 0.0 0
M  V30 19 O 2.598 -2.25 0.0 0
M  V30 20 O 1.299 0.0 0.0 0
M  V30 21 C 0.0 -0.75 0.0 0
M  V30 END ATOM
M  V30 BEGIN BOND
M  V30 1 1 1 2
M  V30 2 2 2 3
M  V30 3 1 2 4
M  V30 4 1 3 5
M  V30 5 1 3 6
M  V30 6 2 4 7
M  V30 7 1 6 8
M  V30 8 2 6 9
M  V30 9 1 7 10
M  V30 10 2 8 11
M  V30 11 2 8 12
M  V30 12 1 8 13
M  V30 13 1 14 13
M  V30 14 1 13 15
M  V30 15 1 14 16 CFG=1
M  V30 16 1 14 17
M  V30 17 1 15 18
M  V30 18 2 16 19
M  V30 19 1 16 20
M  V30 20 1 20 21
M  V30 21 1 7 9
M  V30 22 1 17 18
M  V30 END BOND
M  V30 BEGIN COLLECTION
M  V30 MDLV30/STEABS ATOMS=(1 14)
M  V30 END COLLECTION
M  V30 END CTAB
M  END
>  <smiles>
COC(=O)[C@@H]1CCCN1S(=O)(=O)c2cc(cc(c2[O-])Cl)Cl

$$$$
Compound 33
Actelion Java MolfileCreator 2.0

  0  0  0  0  0  0              0 V3000
M  V30 BEGIN CTAB
M  V30 COUNTS 21 22 0 0 0
M  V30 BEGIN ATOM
M  V30 1 Cl 1.3334 7.4373 0.0 0
M  V30 2 C 2.4482 6.4336 0.0 0
M  V30 3 C 2.1363 4.9664 0.0 0
M  V30 4 C 3.8748 6.8971 0.0 0
M  V30 5 O 0.7097 4.5028 0.0 0
M  V30 6 C 3.251 3.9627 0.0 0
M  V30 7 C 4.9895 5.8934 0.0 0
M  V30 8 S 2.9391 2.4954 0.0 0
M  V30 9 C 4.6776 4.4262 0.0 0
M  V30 10 Cl 6.4161 6.3569 0.0 0
M  V30 11 O 1.472 2.8073 0.0 0
M  V30 12 O 1.9355 1.3807 0.0 0
M  V30 13 N 4.0539 1.4917 0.0 0
M  V30 14 C 3.8971 0.0 0.0 0 CFG=2
M  V30 15 C 5.5211 1.8036 0.0 0
M  V30 16 C 2.598 -0.75 0.0 0
M  V30 17 C 5.2674 -0.6101 0.0 0
M  V30 18 C 6.2711 0.5046 0.0 0
M  V30 19 O 2.598 -2.25 0.0 0
M  V30 20 O 1.299 0.0 0.0 0
M  V30 21 C 0.0 -0.75 0.0 0
M  V30 END ATOM
M  V30 BEGIN BOND
M  V30 1 1 1 2
M  V30 2 2 2 3
M  V30 3 1 2 4
M  V30 4 1 3 5
M  V30 5 1 3 6
M  V30 6 2 4 7
M  V30 7 1 6 8
M  V30 8 2 6 9
M  V30 9 1 7 10
M  V30 10 2 8 11
M  V30 11 2 8 12
M  V30 12 1 8 13
M  V30 13 1 14 13
M  V30 14 1 13 15
M  V30 15 1 14 16 CFG=1
M  V30 16 1 14 17
M  V30 17 1 15 18
M  V30 18 2 16 19
M  V30 19 1 16 20
M  V30 20 1 20 21
M  V30 21 1 7 9
M  V30 22 1 17 18
M  V30 END BOND
M  V30 BEGIN COLLECTION
M  V30 MDLV30/STEABS ATOMS=(1 14)
M  V30 END COLLECTION
M  V30 END CTAB
M  END
>  <smiles>
COC(=O)[C@@H]1CCCN1S(=O)(=O)c2cc(cc(c2O)Cl)Cl

$$$$
Compound 34
Actelion Java MolfileCreator 2.0

  0  0  0  0  0  0              0 V3000
M  V30 BEGIN CTAB
M  V30 COUNTS 28 30 0 0 0
M  V30 BEGIN ATOM
M  V30 1 Cl 7.7942 2.25 0.0 0
M  V30 2 C 6.4952 1.5 0.0 0
M  V30 3 C 5.1961 2.25 0.0 0
M  V30 4 C 6.4952 0.0 0.0 0
M  V30 5 C 3.8971 1.5 0.0 0
M  V30 6 C 5.1961 3.75 0.0 0
M  V30 7 C 5.1961 -0.75 0.0 0
M  V30 8 C 3.8971 0.0 0.0 0
M  V30 9 S 5.1961 -2.25 0.0 0
M  V30 10 N 2.598 -0.75 0.0 0
M  V30 11 O 3.6961 -2.2499 0.0 0
M  V30 12 O 4.4461 -3.549 0.0 0
M  V30 13 N 6.4952 -3.0 0.0 0
M  V30 14 C 1.299 0.0 0.0 0
M  V30 15 C 6.6519 -4.4917 0.0 0 CFG=2
M  V30 16 C 7.8655 -2.3898 0.0 0
M  V30 17 O 1.299 1.5 0.0 0
M  V30 18 C 0.0 -0.75 0.0 0
M  V30 19 C 5.5372 -5.4954 0.0 0
M  V30 20 C 8.1192 -4.8036 0.0 0
M  V30 21 C 8.8692 -3.5046 0.0 0
M  V30 22 C -1.299 0.0 0.0 0
M  V30 23 C 0.0 -2.25 0.0 0
M  V30 24 O 4.1106 -5.0319 0.0 0
M  V30 25 O 5.8491 -6.9627 0.0 0 CHG=-1
M  V30 26 C -2.598 -0.75 0.0 0
M  V30 27 C -1.299 -3.0 0.0 0
M  V30 28 C -2.598 -2.25 0.0 0
M  V30 END ATOM
M  V30 BEGIN BOND
M  V30 1 1 1 2
M  V30 2 2 2 3
M  V30 3 1 2 4
M  V30 4 1 3 5
M  V30 5 1 3 6
M  V30 6 2 4 7
M  V30 7 2 5 8
M  V30 8 1 7 9
M  V30 9 1 8 10
M  V30 10 2 9 11
M  V30 11 2 9 12
M  V30 12 1 9 13
M  V30 13 1 10 14
M  V30 14 1 15 13
M  V30 15 1 13 16
M  V30 16 2 14 17
M  V30 17 1 14 18
M  V30 18 1 15 19 CFG=1
M  V30 19 1 15 20
M  V30 20 1 16 21
M  V30 21 2 18 22
M  V30 22 1 18 23
M  V30 23 2 19 24
M  V30 24 1 19 25
M  V30 25 1 22 26
M  V30 26 2 23 27
M  V30 27 2 26 28
M  V30 28 1 7 8
M  V30 29 1 20 21
M  V30 30 1 27 28
M  V30 END BOND
M  V30 BEGIN COLLECTION
M  V30 MDLV30/STEABS ATOMS=(1 15)
M  V30 END COLLECTION
M  V30 END CTAB
M  END
>  <smiles>
Cc1cc(c(cc1Cl)S(=O)(=O)N2CCC[C@H]2C(=O)[O-])NC(=O)c3ccccc3

$$$$
Compound 35
Actelion Java MolfileCreator 2.0

  0  0  0  0  0  0              0 V3000
M  V30 BEGIN CTAB
M  V30 COUNTS 19 20 0 0 0
M  V30 BEGIN ATOM
M  V30 1 Cl 3.8971 -4.5 0.0 0
M  V30 2 C 3.8971 -3.0 0.0 0
M  V30 3 C 5.1961 -2.25 0.0 0
M  V30 4 C 2.598 -2.25 0.0 0
M  V30 5 C 5.1961 -0.75 0.0 0
M  V30 6 C 2.598 -0.75 0.0 0
M  V30 7 Cl 6.4952 0.0 0.0 0
M  V30 8 C 3.8971 0.0 0.0 0
M  V30 9 S 1.299 0.0 0.0 0
M  V30 10 O 2.049 1.299 0.0 0
M  V30 11 O 0.549 1.299 0.0 0
M  V30 12 N 0.0 -0.75 0.0 0
M  V30 13 C -1.3703 -0.1398 0.0 0 CFG=2
M  V30 14 C -0.1567 -2.2417 0.0 0
M  V30 15 C -1.6821 1.3273 0.0 0
M  V30 16 C -2.374 -1.2546 0.0 0
M  V30 17 C -1.624 -2.5536 0.0 0
M  V30 18 O -0.5674 2.331 0.0 0
M  V30 19 O -3.1087 1.7908 0.0 0 CHG=-1
M  V30 END ATOM
M  V30 BEGIN BOND
M  V30 1 1 1 2
M  V30 2 2 2 3
M  V30 3 1 2 4
M  V30 4 1 3 5
M  V30 5 2 4 6
M  V30 6 1 5 7
M  V30 7 2 5 8
M  V30 8 1 6 9
M  V30 9 2 9 10
M  V30 10 2 9 11
M  V30 11 1 9 12
M  V30 12 1 13 12
M  V30 13 1 12 14
M  V30 14 1 13 15 CFG=1
M  V30 15 1 13 16
M  V30 16 1 14 17
M  V30 17 2 15 18
M  V30 18 1 15 19
M  V30 19 1 6 8
M  V30 20 1 16 17
M  V30 END BOND
M  V30 BEGIN COLLECTION
M  V30 MDLV30/STEABS ATOMS=(1 13)
M  V30 END COLLECTION
M  V30 END CTAB
M  END
>  <smiles>
c1c(cc(cc1Cl)Cl)S(=O)(=O)N2CCC[C@H]2C(=O)[O-]

$$$$
Compound 36
Actelion Java MolfileCreator 2.0

  0  0  0  0  0  0              0 V3000
M  V30 BEGIN CTAB
M  V30 COUNTS 18 19 0 0 0
M  V30 BEGIN ATOM
M  V30 1 S 1.299 0.0 0.0 0
M  V30 2 O 2.049 1.299 0.0 0
M  V30 3 O 0.549 1.299 0.0 0
M  V30 4 N 2.598 -0.75 0.0 0
M  V30 5 C 0.0 -0.75 0.0 0
M  V30 6 C 3.9684 -0.1398 0.0 0 CFG=2
M  V30 7 C 2.7548 -2.2417 0.0 0
M  V30 8 C -1.299 0.0 0.0 0
M  V30 9 C 0.0 -2.25 0.0 0
M  V30 10 C 4.2802 1.3273 0.0 0
M  V30 11 C 4.9721 -1.2546 0.0 0
M  V30 12 C 4.2221 -2.5536 0.0 0
M  V30 13 N -1.299 1.5 0.0 0
M  V30 14 C -2.598 -0.75 0.0 0
M  V30 15 C -1.299 -3.0 0.0 0
M  V30 16 O 3.1655 2.331 0.0 0
M  V30 17 O 5.7068 1.7908 0.0 0 CHG=-1
M  V30 18 C -2.598 -2.25 0.0 0
M  V30 END ATOM
M  V30 BEGIN BOND
M  V30 1 2 1 2
M  V30 2 2 1 3
M  V30 3 1 1 4
M  V30 4 1 1 5
M  V30 5 1 6 4
M  V30 6 1 4 7
M  V30 7 2 5 8
M  V30 8 1 5 9
M  V30 9 1 6 10 CFG=3
M  V30 10 1 6 11
M  V30 11 1 7 12
M  V30 12 1 8 13
M  V30 13 1 8 14
M  V30 14 2 9 15
M  V30 15 2 10 16
M  V30 16 1 10 17
M  V30 17 2 14 18
M  V30 18 1 11 12
M  V30 19 1 15 18
M  V30 END BOND
M  V30 BEGIN COLLECTION
M  V30 MDLV30/STEABS ATOMS=(1 6)
M  V30 END COLLECTION
M  V30 END CTAB
M  END
>  <smiles>
c1ccc(c(c1)N)S(=O)(=O)N2CCC[C@H]2C(=O)[O-]

$$$$
