REMARK  Name = 
REMARK  7 active torsions:
REMARK  status: ('A' for Active; 'I' for Inactive)
REMARK    1  A    between atoms: C_2  and  C_4
REMARK    2  A    between atoms: C_11  and  C_12
REMARK    3  A    between atoms: C_15  and  O_16
REMARK    4  A    between atoms: O_16  and  C_17
REMARK    5  A    between atoms: C_17  and  C_18
REMARK    6  A    between atoms: C_24  and  C_25
REMARK    7  A    between atoms: N_33  and  C_34
REMARK                            x       y       z     vdW  Elec       q    Type
REMARK                         _______ _______ _______ _____ _____    ______ ____
ROOT
ATOM      1  C   UNL     1       7.049  -1.451   5.118  0.00  0.00    +0.018 A 
ATOM      2  C   UNL     1       8.029  -2.439   4.985  0.00  0.00    +0.015 A 
ATOM      3  C   UNL     1       9.135  -2.448   5.836  0.00  0.00    +0.046 A 
ATOM      4  C   UNL     1       9.294  -1.462   6.814  0.00  0.00    +0.121 A 
ATOM      5  C   UNL     1       8.321  -0.474   6.950  0.00  0.00    +0.046 A 
ATOM      6  C   UNL     1       7.209  -0.465   6.099  0.00  0.00    +0.015 A 
ENDROOT
BRANCH   1  14
ATOM      7  C   UNL     1       2.763  -0.510   1.046  0.00  0.00    -0.001 A 
ATOM      8  C   UNL     1       2.337  -1.798   1.409  0.00  0.00    +0.012 A 
ATOM      9  C   UNL     1       2.982  -2.546   2.403  0.00  0.00    +0.028 A 
ATOM     10  C   UNL     1       4.088  -1.964   3.036  0.00  0.00    +0.069 A 
ATOM     11  C   UNL     1       4.541  -0.691   2.699  0.00  0.00    +0.090 A 
ATOM     12  C   UNL     1       3.878   0.045   1.704  0.00  0.00    +0.039 A 
ATOM     13  N   UNL     1       5.639  -0.349   3.446  0.00  0.00    -0.228 NA
ATOM     14  C   UNL     1       5.904  -1.390   4.211  0.00  0.00    +0.142 A 
ATOM     15  N   UNL     1       4.943  -2.376   4.040  0.00  0.00    -0.320 N 
BRANCH  15  16
ATOM     16  C   UNL     1       4.834  -3.605   4.822  0.00  0.00    +0.089 C 
ATOM     17  C   UNL     1       3.516  -3.704   5.610  0.00  0.00    +0.025 C 
ATOM     18  C   UNL     1       3.469  -4.977   6.454  0.00  0.00    +0.002 C 
ATOM     19  C   UNL     1       3.722  -6.223   5.610  0.00  0.00    +0.000 C 
ATOM     20  C   UNL     1       5.038  -6.127   4.843  0.00  0.00    +0.002 C 
ATOM     21  C   UNL     1       5.101  -4.865   3.985  0.00  0.00    +0.025 C 
ENDBRANCH  15  16
BRANCH   7  23
ATOM     22  O   UNL     1       1.041  -0.303  -0.584  0.00  0.00    -0.545 OA
ATOM     23  C   UNL     1       2.037   0.267  -0.034  0.00  0.00    +0.072 C 
ATOM     24  O   UNL     1       2.474   1.427  -0.313  0.00  0.00    -0.545 OA
ENDBRANCH   7  23
ENDBRANCH   1  14
BRANCH   4  25
ATOM     25  O   UNL     1      10.450  -1.569   7.532  0.00  0.00    -0.487 OA
BRANCH  25  26
ATOM     26  C   UNL     1      10.798  -0.542   8.458  0.00  0.00    +0.265 C 
BRANCH  26  27
ATOM     27  C   UNL     1      11.246   0.781   7.854  0.00  0.00    -0.001 A 
ATOM     28  C   UNL     1      10.855   1.958   8.530  0.00  0.00    +0.027 A 
ATOM     29  C   UNL     1      11.222   3.215   8.055  0.00  0.00    +0.041 A 
ATOM     30 CL   UNL     1      10.727   4.627   8.903  0.00  0.00    -0.084 Cl
ATOM     31  C   UNL     1      11.990   3.331   6.906  0.00  0.00    +0.020 A 
ATOM     32  C   UNL     1      12.402   2.178   6.237  0.00  0.00    +0.010 A 
ATOM     33  C   UNL     1      12.053   0.890   6.697  0.00  0.00    -0.010 A 
BRANCH  33  34
ATOM     34  C   UNL     1      12.550  -0.266   5.940  0.00  0.00    +0.001 A 
ATOM     35  C   UNL     1      12.054  -0.569   4.666  0.00  0.00    +0.011 A 
ATOM     36  C   UNL     1      12.553  -1.663   3.963  0.00  0.00    +0.020 A 
ATOM     37  C   UNL     1      13.548  -2.423   4.553  0.00  0.00    +0.111 A 
ATOM     38  N   UNL     1      14.069  -2.165   5.772  0.00  0.00    -0.263 NA
ATOM     39  C   UNL     1      13.555  -1.098   6.432  0.00  0.00    +0.119 A 
ENDBRANCH  33  34
ENDBRANCH  26  27
ENDBRANCH  25  26
ENDBRANCH   4  25
TORSDOF 7
