
 OpenBabel09122222393D

 39 44  0  0  0  0  0  0  0  0999 V2000
    3.4950   -3.4370    6.1430 C   0  0  0  0  0  0  0  0  0  0  0  0
    3.8190   -3.8140    7.4490 C   0  0  0  0  0  3  0  0  0  0  0  0
    3.6480   -2.9140    8.5010 C   0  0  0  0  0  3  0  0  0  0  0  0
    3.1760   -1.6190    8.2660 C   0  0  0  0  0  0  0  0  0  0  0  0
    2.8530   -1.2370    6.9650 C   0  0  0  0  0  3  0  0  0  0  0  0
    3.0210   -2.1410    5.9090 C   0  0  0  0  0  3  0  0  0  0  0  0
    4.9180   -6.5400    1.2250 C   0  0  0  0  0  0  0  0  0  0  0  0
    4.3160   -7.6130    1.9030 C   0  0  0  0  0  3  0  0  0  0  0  0
    3.7380   -7.4650    3.1710 C   0  0  0  0  0  3  0  0  0  0  0  0
    3.7790   -6.1930    3.7570 C   0  0  0  0  0  0  0  0  0  0  0  0
    4.3710   -5.1080    3.1160 C   0  0  0  0  0  0  0  0  0  0  0  0
    4.9400   -5.2750    1.8430 C   0  0  0  0  0  3  0  0  0  0  0  0
    4.2960   -3.9800    3.8930 N   0  0  0  0  0  0  0  0  0  0  0  0
    3.7080   -4.3440    5.0160 C   0  0  0  0  0  0  0  0  0  0  0  0
    3.3170   -5.6740    4.9510 N   0  0  0  0  0  0  0  0  0  0  0  0
    2.5160   -6.3760    5.9500 C   0  0  0  0  0  3  0  0  0  0  0  0
    1.1310   -6.7960    5.4280 C   0  0  0  0  0  2  0  0  0  0  0  0
    0.3100   -7.4780    6.5210 C   0  0  0  0  0  2  0  0  0  0  0  0
    1.0620   -8.6510    7.1430 C   0  0  0  0  0  2  0  0  0  0  0  0
    2.4280   -8.2260    7.6740 C   0  0  0  0  0  2  0  0  0  0  0  0
    3.2690   -7.5510    6.5940 C   0  0  0  0  0  2  0  0  0  0  0  0
    6.4250   -5.9100   -0.5060 O   0  0  0  0  0  1  0  0  0  0  0  0
    5.5310   -6.7410   -0.1470 C   0  0  0  0  0  0  0  0  0  0  0  0
    5.1090   -7.7210   -0.8370 O   0  0  0  0  0  0  0  0  0  0  0  0
    3.1130   -0.8360    9.3820 O   0  0  0  0  0  0  0  0  0  0  0  0
    4.0560   -1.0360   10.4330 C   0  0  0  0  0  2  0  0  0  0  0  0
    5.1720   -0.0060   10.5360 C   0  0  0  0  0  0  0  0  0  0  0  0
    4.9650    1.0760   11.4200 C   0  0  0  0  0  3  0  0  0  0  0  0
    5.9320    2.0640   11.5850 C   0  0  0  0  0  0  0  0  0  0  0  0
    5.6450    3.3680   12.6690 Cl  0  0  0  0  0  0  0  0  0  0  0  0
    7.1260    1.9980   10.8830 C   0  0  0  0  0  3  0  0  0  0  0  0
    7.3560    0.9250   10.0200 C   0  0  0  0  0  3  0  0  0  0  0  0
    6.3990   -0.0960    9.8380 C   0  0  0  0  0  0  0  0  0  0  0  0
    6.7370   -1.1970    8.9260 C   0  0  0  0  0  0  0  0  0  0  0  0
    6.6570   -1.0410    7.5360 C   0  0  0  0  0  3  0  0  0  0  0  0
    6.9970   -2.0960    6.6930 C   0  0  0  0  0  3  0  0  0  0  0  0
    7.4210   -3.2820    7.2660 C   0  0  0  0  0  3  0  0  0  0  0  0
    7.5290   -3.4780    8.5980 N   0  0  0  0  0  0  0  0  0  0  0  0
    7.1820   -2.4340    9.3890 C   0  0  0  0  0  3  0  0  0  0  0  0
  1  2  1  0  0  0  0
  2  3  2  0  0  0  0
  4  3  1  0  0  0  0
  4 25  1  0  0  0  0
  5  4  2  0  0  0  0
  6  1  2  0  0  0  0
  6  5  1  0  0  0  0
  7 12  2  0  0  0  0
  7  8  1  0  0  0  0
  8  9  2  0  0  0  0
  9 10  1  0  0  0  0
 10 15  1  0  0  0  0
 11 10  2  0  0  0  0
 11 13  1  0  0  0  0
 12 11  1  0  0  0  0
 13 14  2  0  0  0  0
 14  1  1  0  0  0  0
 15 14  1  0  0  0  0
 15 16  1  0  0  0  0
 16 21  1  0  0  0  0
 17 16  1  0  0  0  0
 17 18  1  0  0  0  0
 18 19  1  0  0  0  0
 19 20  1  0  0  0  0
 21 20  1  0  0  0  0
 22 23  1  0  0  0  0
 23  7  1  0  0  0  0
 24 23  2  0  0  0  0
 25 26  1  0  0  0  0
 26 27  1  0  0  0  0
 27 28  1  0  0  0  0
 28 29  2  0  0  0  0
 29 30  1  0  0  0  0
 31 29  1  0  0  0  0
 32 31  2  0  0  0  0
 33 32  1  0  0  0  0
 33 27  2  0  0  0  0
 34 39  1  0  0  0  0
 34 33  1  0  0  0  0
 35 34  2  0  0  0  0
 36 37  2  0  0  0  0
 36 35  1  0  0  0  0
 37 38  1  0  0  0  0
 38 39  2  0  0  0  0
M  END
>  <minimizedAffinity>
-7.62462139

$$$$
