
 OpenBabel09122222393D

 39 44  0  0  0  0  0  0  0  0999 V2000
    4.7250   -2.1290    6.8360 C   0  0  0  0  0  0  0  0  0  0  0  0
    5.5030   -3.1200    6.2300 C   0  0  0  0  0  3  0  0  0  0  0  0
    5.0150   -3.8140    5.1220 C   0  0  0  0  0  3  0  0  0  0  0  0
    3.7390   -3.5490    4.6160 C   0  0  0  0  0  0  0  0  0  0  0  0
    2.9590   -2.5640    5.2180 C   0  0  0  0  0  3  0  0  0  0  0  0
    3.4480   -1.8640    6.3280 C   0  0  0  0  0  3  0  0  0  0  0  0
    6.9750    1.3610   11.1480 C   0  0  0  0  0  0  0  0  0  0  0  0
    6.1350    0.6150   11.9900 C   0  0  0  0  0  3  0  0  0  0  0  0
    5.3360   -0.4320   11.5110 C   0  0  0  0  0  3  0  0  0  0  0  0
    5.3970   -0.7190   10.1410 C   0  0  0  0  0  0  0  0  0  0  0  0
    6.2160    0.0030    9.2760 C   0  0  0  0  0  0  0  0  0  0  0  0
    7.0130    1.0450    9.7760 C   0  0  0  0  0  3  0  0  0  0  0  0
    6.0930   -0.4570    7.9900 N   0  0  0  0  0  0  0  0  0  0  0  0
    5.1910   -1.4190    8.0260 C   0  0  0  0  0  0  0  0  0  0  0  0
    4.7860   -1.6570    9.3310 N   0  0  0  0  0  0  0  0  0  0  0  0
    3.9090   -2.7400    9.7680 C   0  0  0  0  0  3  0  0  0  0  0  0
    4.5280   -3.6080   10.8780 C   0  0  0  0  0  2  0  0  0  0  0  0
    3.5990   -4.7580   11.2640 C   0  0  0  0  0  2  0  0  0  0  0  0
    2.2080   -4.2580   11.6430 C   0  0  0  0  0  2  0  0  0  0  0  0
    1.5920   -3.4110   10.5330 C   0  0  0  0  0  2  0  0  0  0  0  0
    2.5010   -2.2490   10.1380 C   0  0  0  0  0  2  0  0  0  0  0  0
    7.3600    3.6660   11.5990 O   0  0  0  0  0  0  0  0  0  0  0  0
    7.8240    2.4860   11.7050 C   0  0  0  0  0  0  0  0  0  0  0  0
    8.9360    2.1720   12.2350 O   0  0  0  0  0  1  0  0  0  0  0  0
    3.3790   -4.3440    3.5670 O   0  0  0  0  0  0  0  0  0  0  0  0
    4.3740   -4.7800    2.6430 C   0  0  0  0  0  2  0  0  0  0  0  0
    4.7440   -6.2550    2.7030 C   0  0  0  0  0  0  0  0  0  0  0  0
    4.0030   -7.0650    3.5920 C   0  0  0  0  0  3  0  0  0  0  0  0
    4.2660   -8.4270    3.7120 C   0  0  0  0  0  0  0  0  0  0  0  0
    3.3450   -9.3830    4.8060 Cl  0  0  0  0  0  0  0  0  0  0  0  0
    5.2640   -9.0160    2.9490 C   0  0  0  0  0  3  0  0  0  0  0  0
    5.9920   -8.2340    2.0520 C   0  0  0  0  0  3  0  0  0  0  0  0
    5.7440   -6.8530    1.9010 C   0  0  0  0  0  0  0  0  0  0  0  0
    6.5460   -6.1160    0.9160 C   0  0  0  0  0  0  0  0  0  0  0  0
    7.7270   -5.4600    1.2850 C   0  0  0  0  0  3  0  0  0  0  0  0
    8.4770   -4.7800    0.3280 C   0  0  0  0  0  3  0  0  0  0  0  0
    8.0280   -4.7830   -0.9810 C   0  0  0  0  0  3  0  0  0  0  0  0
    6.9040   -5.4110   -1.3890 N   0  0  0  0  0  0  0  0  0  0  0  0
    6.1940   -6.0560   -0.4310 C   0  0  0  0  0  3  0  0  0  0  0  0
  1 14  1  0  0  0  0
  2  1  2  0  0  0  0
  3  2  1  0  0  0  0
  4  3  2  0  0  0  0
  4  5  1  0  0  0  0
  5  6  2  0  0  0  0
  6  1  1  0  0  0  0
  7 23  1  0  0  0  0
  7  8  1  0  0  0  0
  9  8  2  0  0  0  0
 10  9  1  0  0  0  0
 11 12  1  0  0  0  0
 11 10  2  0  0  0  0
 12  7  2  0  0  0  0
 13 14  2  0  0  0  0
 13 11  1  0  0  0  0
 14 15  1  0  0  0  0
 15 16  1  0  0  0  0
 15 10  1  0  0  0  0
 16 21  1  0  0  0  0
 16 17  1  0  0  0  0
 17 18  1  0  0  0  0
 18 19  1  0  0  0  0
 20 19  1  0  0  0  0
 21 20  1  0  0  0  0
 22 23  2  0  0  0  0
 23 24  1  0  0  0  0
 25  4  1  0  0  0  0
 26 27  1  0  0  0  0
 26 25  1  0  0  0  0
 27 28  1  0  0  0  0
 28 29  2  0  0  0  0
 29 30  1  0  0  0  0
 31 29  1  0  0  0  0
 32 31  2  0  0  0  0
 33 32  1  0  0  0  0
 33 27  2  0  0  0  0
 34 35  1  0  0  0  0
 34 33  1  0  0  0  0
 36 35  2  0  0  0  0
 37 36  1  0  0  0  0
 38 37  2  0  0  0  0
 38 39  1  0  0  0  0
 39 34  2  0  0  0  0
M  END
>  <minimizedAffinity>
-7.55498648

$$$$
