
 OpenBabel09122222393D

 39 44  0  0  0  0  0  0  0  0999 V2000
    4.9520   -4.2670    4.2400 C   0  0  0  0  0  0  0  0  0  0  0  0
    5.2100   -4.7270    5.5340 C   0  0  0  0  0  3  0  0  0  0  0  0
    4.1990   -4.7160    6.4960 C   0  0  0  0  0  3  0  0  0  0  0  0
    2.9260   -4.2250    6.1920 C   0  0  0  0  0  0  0  0  0  0  0  0
    2.6640   -3.7640    4.9030 C   0  0  0  0  0  3  0  0  0  0  0  0
    3.6770   -3.7770    3.9360 C   0  0  0  0  0  3  0  0  0  0  0  0
    9.6790   -3.5540    0.6370 C   0  0  0  0  0  0  0  0  0  0  0  0
    9.1490   -4.6650   -0.0390 C   0  0  0  0  0  3  0  0  0  0  0  0
    7.9560   -5.2820    0.3590 C   0  0  0  0  0  3  0  0  0  0  0  0
    7.2940   -4.7520    1.4740 C   0  0  0  0  0  0  0  0  0  0  0  0
    7.7920   -3.6540    2.1710 C   0  0  0  0  0  0  0  0  0  0  0  0
    8.9870   -3.0460    1.7530 C   0  0  0  0  0  3  0  0  0  0  0  0
    6.9760   -3.3330    3.2250 N   0  0  0  0  0  0  0  0  0  0  0  0
    6.0040   -4.2240    3.2250 C   0  0  0  0  0  0  0  0  0  0  0  0
    6.1230   -5.0730    2.1340 N   0  0  0  0  0  0  0  0  0  0  0  0
    5.1520   -6.0890    1.7350 C   0  0  0  0  0  3  0  0  0  0  0  0
    5.0560   -6.2650    0.2090 C   0  0  0  0  0  2  0  0  0  0  0  0
    3.9920   -7.2960   -0.1650 C   0  0  0  0  0  2  0  0  0  0  0  0
    4.2210   -8.6260    0.5480 C   0  0  0  0  0  2  0  0  0  0  0  0
    4.2990   -8.4480    2.0620 C   0  0  0  0  0  2  0  0  0  0  0  0
    5.3650   -7.4280    2.4570 C   0  0  0  0  0  2  0  0  0  0  0  0
   10.8750   -1.9190   -0.6130 O   0  0  0  0  0  0  0  0  0  0  0  0
   10.9730   -2.9140    0.1730 C   0  0  0  0  0  0  0  0  0  0  0  0
   12.0590   -3.4170    0.6010 O   0  0  0  0  0  1  0  0  0  0  0  0
    2.0600   -4.2260    7.2470 O   0  0  0  0  0  0  0  0  0  0  0  0
    2.4050   -4.9320    8.4360 C   0  0  0  0  0  2  0  0  0  0  0  0
    2.1600   -4.1980    9.7460 C   0  0  0  0  0  0  0  0  0  0  0  0
    1.2110   -4.7620   10.6280 C   0  0  0  0  0  3  0  0  0  0  0  0
    0.9240   -4.1630   11.8530 C   0  0  0  0  0  0  0  0  0  0  0  0
   -0.2380   -4.8760   12.9010 Cl  0  0  0  0  0  0  0  0  0  0  0  0
    1.5750   -2.9990   12.2310 C   0  0  0  0  0  3  0  0  0  0  0  0
    2.5300   -2.4390   11.3810 C   0  0  0  0  0  3  0  0  0  0  0  0
    2.8490   -3.0260   10.1380 C   0  0  0  0  0  0  0  0  0  0  0  0
    3.8820   -2.3780    9.3200 C   0  0  0  0  0  0  0  0  0  0  0  0
    3.5630   -1.3460    8.4290 C   0  0  0  0  0  3  0  0  0  0  0  0
    4.5650   -0.7380    7.6750 C   0  0  0  0  0  3  0  0  0  0  0  0
    5.8670   -1.1760    7.8410 C   0  0  0  0  0  3  0  0  0  0  0  0
    6.2280   -2.1570    8.6950 N   0  0  0  0  0  0  0  0  0  0  0  0
    5.2280   -2.7330    9.4070 C   0  0  0  0  0  3  0  0  0  0  0  0
  1  2  1  0  0  0  0
  2  3  2  0  0  0  0
  4  3  1  0  0  0  0
  4 25  1  0  0  0  0
  5  4  2  0  0  0  0
  6  1  2  0  0  0  0
  6  5  1  0  0  0  0
  7 12  1  0  0  0  0
  8  9  1  0  0  0  0
  8  7  2  0  0  0  0
  9 10  2  0  0  0  0
 10 15  1  0  0  0  0
 10 11  1  0  0  0  0
 11 13  1  0  0  0  0
 12 11  2  0  0  0  0
 13 14  2  0  0  0  0
 14  1  1  0  0  0  0
 15 14  1  0  0  0  0
 16 15  1  0  0  0  0
 16 21  1  0  0  0  0
 17 16  1  0  0  0  0
 18 17  1  0  0  0  0
 18 19  1  0  0  0  0
 19 20  1  0  0  0  0
 20 21  1  0  0  0  0
 22 23  2  0  0  0  0
 23 24  1  0  0  0  0
 23  7  1  0  0  0  0
 25 26  1  0  0  0  0
 26 27  1  0  0  0  0
 27 33  2  0  0  0  0
 27 28  1  0  0  0  0
 28 29  2  0  0  0  0
 29 31  1  0  0  0  0
 29 30  1  0  0  0  0
 32 31  2  0  0  0  0
 33 32  1  0  0  0  0
 34 39  1  0  0  0  0
 34 33  1  0  0  0  0
 35 34  2  0  0  0  0
 36 37  2  0  0  0  0
 36 35  1  0  0  0  0
 37 38  1  0  0  0  0
 38 39  2  0  0  0  0
M  END
>  <minimizedAffinity>
-7.53787613

$$$$
