
 OpenBabel09122222393D

 39 44  0  0  0  0  0  0  0  0999 V2000
    3.6650   -3.2580    5.5050 C   0  0  0  0  0  0  0  0  0  0  0  0
    4.6380   -2.9790    6.4700 C   0  0  0  0  0  3  0  0  0  0  0  0
    4.3920   -2.0250    7.4580 C   0  0  0  0  0  3  0  0  0  0  0  0
    3.1870   -1.3180    7.4860 C   0  0  0  0  0  0  0  0  0  0  0  0
    2.2140   -1.5900    6.5260 C   0  0  0  0  0  3  0  0  0  0  0  0
    2.4580   -2.5500    5.5360 C   0  0  0  0  0  3  0  0  0  0  0  0
    5.1500   -6.5530    0.7330 C   0  0  0  0  0  0  0  0  0  0  0  0
    4.6980   -7.6280    1.5160 C   0  0  0  0  0  3  0  0  0  0  0  0
    4.1730   -7.4470    2.8020 C   0  0  0  0  0  3  0  0  0  0  0  0
    4.1120   -6.1380    3.2980 C   0  0  0  0  0  0  0  0  0  0  0  0
    4.5550   -5.0490    2.5520 C   0  0  0  0  0  0  0  0  0  0  0  0
    5.0730   -5.2500    1.2630 C   0  0  0  0  0  3  0  0  0  0  0  0
    4.4030   -3.8810    3.2540 N   0  0  0  0  0  0  0  0  0  0  0  0
    3.9130   -4.2190    4.4310 C   0  0  0  0  0  0  0  0  0  0  0  0
    3.6600   -5.5820    4.4790 N   0  0  0  0  0  0  0  0  0  0  0  0
    2.9880   -6.2860    5.5690 C   0  0  0  0  0  3  0  0  0  0  0  0
    3.6230   -6.0170    6.9440 C   0  0  0  0  0  2  0  0  0  0  0  0
    2.9240   -6.8150    8.0440 C   0  0  0  0  0  2  0  0  0  0  0  0
    1.4190   -6.5620    8.0530 C   0  0  0  0  0  2  0  0  0  0  0  0
    0.7910   -6.8460    6.6910 C   0  0  0  0  0  2  0  0  0  0  0  0
    1.4700   -6.0500    5.5790 C   0  0  0  0  0  2  0  0  0  0  0  0
    5.4020   -7.8890   -1.2210 O   0  0  0  0  0  0  0  0  0  0  0  0
    5.7110   -6.7920   -0.6550 C   0  0  0  0  0  0  0  0  0  0  0  0
    6.4470   -5.8830   -1.1510 O   0  0  0  0  0  1  0  0  0  0  0  0
    3.1120   -0.3800    8.4750 O   0  0  0  0  0  0  0  0  0  0  0  0
    2.7710   -0.7840    9.8000 C   0  0  0  0  0  2  0  0  0  0  0  0
    3.8130   -0.5060   10.8740 C   0  0  0  0  0  0  0  0  0  0  0  0
    4.1850    0.8420   11.0710 C   0  0  0  0  0  3  0  0  0  0  0  0
    5.1280    1.1940   12.0350 C   0  0  0  0  0  0  0  0  0  0  0  0
    5.5580    2.8450   12.2470 Cl  0  0  0  0  0  0  0  0  0  0  0  0
    5.7140    0.2180   12.8270 C   0  0  0  0  0  3  0  0  0  0  0  0
    5.3430   -1.1160   12.6600 C   0  0  0  0  0  3  0  0  0  0  0  0
    4.3860   -1.5040   11.6980 C   0  0  0  0  0  0  0  0  0  0  0  0
    4.0430   -2.9290   11.6080 C   0  0  0  0  0  0  0  0  0  0  0  0
    4.8110   -3.8150   10.8430 C   0  0  0  0  0  3  0  0  0  0  0  0
    4.4730   -5.1650   10.7860 C   0  0  0  0  0  3  0  0  0  0  0  0
    3.3730   -5.5960   11.5080 C   0  0  0  0  0  3  0  0  0  0  0  0
    2.6080   -4.7850   12.2700 N   0  0  0  0  0  0  0  0  0  0  0  0
    2.9610   -3.4760   12.2970 C   0  0  0  0  0  3  0  0  0  0  0  0
  1  6  2  0  0  0  0
  1  2  1  0  0  0  0
  2  3  2  0  0  0  0
  3  4  1  0  0  0  0
  4 25  1  0  0  0  0
  5  4  2  0  0  0  0
  6  5  1  0  0  0  0
  7 12  2  0  0  0  0
  7  8  1  0  0  0  0
  8  9  2  0  0  0  0
  9 10  1  0  0  0  0
 10 15  1  0  0  0  0
 11 13  1  0  0  0  0
 11 10  2  0  0  0  0
 12 11  1  0  0  0  0
 13 14  2  0  0  0  0
 14 15  1  0  0  0  0
 14  1  1  0  0  0  0
 15 16  1  0  0  0  0
 16 21  1  0  0  0  0
 16 17  1  0  0  0  0
 17 18  1  0  0  0  0
 18 19  1  0  0  0  0
 20 19  1  0  0  0  0
 21 20  1  0  0  0  0
 22 23  2  0  0  0  0
 23  7  1  0  0  0  0
 24 23  1  0  0  0  0
 25 26  1  0  0  0  0
 26 27  1  0  0  0  0
 27 28  2  0  0  0  0
 27 33  1  0  0  0  0
 28 29  1  0  0  0  0
 29 30  1  0  0  0  0
 29 31  2  0  0  0  0
 32 31  1  0  0  0  0
 33 32  2  0  0  0  0
 34 33  1  0  0  0  0
 34 39  1  0  0  0  0
 35 34  2  0  0  0  0
 36 35  1  0  0  0  0
 36 37  2  0  0  0  0
 37 38  1  0  0  0  0
 38 39  2  0  0  0  0
M  END
>  <minimizedAffinity>
-8.23244762

$$$$
