
 OpenBabel09122222393D

 39 44  0  0  0  0  0  0  0  0999 V2000
    7.2320   -4.5530   11.4450 C   0  0  0  0  0  0  0  0  0  0  0  0
    6.1920   -5.1850   10.7580 C   0  0  0  0  0  3  0  0  0  0  0  0
    4.8820   -4.7210   10.8880 C   0  0  0  0  0  3  0  0  0  0  0  0
    4.5850   -3.6390   11.7220 C   0  0  0  0  0  0  0  0  0  0  0  0
    5.6180   -3.0060   12.4110 C   0  0  0  0  0  3  0  0  0  0  0  0
    6.9340   -3.4680   12.2790 C   0  0  0  0  0  3  0  0  0  0  0  0
   12.5760   -7.2470   11.5940 C   0  0  0  0  0  0  0  0  0  0  0  0
   12.8920   -6.3560   10.5550 C   0  0  0  0  0  3  0  0  0  0  0  0
   11.9790   -5.4030   10.0850 C   0  0  0  0  0  3  0  0  0  0  0  0
   10.7160   -5.3630   10.6880 C   0  0  0  0  0  0  0  0  0  0  0  0
   10.3660   -6.2330   11.7170 C   0  0  0  0  0  0  0  0  0  0  0  0
   11.2960   -7.1780   12.1790 C   0  0  0  0  0  3  0  0  0  0  0  0
    9.0790   -6.0070   12.1330 N   0  0  0  0  0  0  0  0  0  0  0  0
    8.6060   -5.0460   11.3640 C   0  0  0  0  0  0  0  0  0  0  0  0
    9.5930   -4.5780   10.5090 N   0  0  0  0  0  0  0  0  0  0  0  0
    9.4730   -3.4270    9.6170 C   0  0  0  0  0  3  0  0  0  0  0  0
    8.2370   -3.4970    8.7040 C   0  0  0  0  0  2  0  0  0  0  0  0
    8.1820   -2.3020    7.7530 C   0  0  0  0  0  2  0  0  0  0  0  0
    8.2570   -0.9770    8.5070 C   0  0  0  0  0  2  0  0  0  0  0  0
    9.4930   -0.9060    9.3990 C   0  0  0  0  0  2  0  0  0  0  0  0
    9.5620   -2.0880   10.3650 C   0  0  0  0  0  2  0  0  0  0  0  0
   14.8000   -8.0870   11.7130 O   0  0  0  0  0  0  0  0  0  0  0  0
   13.5920   -8.2630   12.0750 C   0  0  0  0  0  0  0  0  0  0  0  0
   13.1680   -9.2150   12.8020 O   0  0  0  0  0  1  0  0  0  0  0  0
    3.2560   -3.3350   11.7910 O   0  0  0  0  0  0  0  0  0  0  0  0
    2.7680   -2.1700   11.1290 C   0  0  0  0  0  2  0  0  0  0  0  0
    3.2960   -1.9270    9.7230 C   0  0  0  0  0  0  0  0  0  0  0  0
    2.8080   -2.7720    8.7010 C   0  0  0  0  0  3  0  0  0  0  0  0
    3.2310   -2.6230    7.3820 C   0  0  0  0  0  0  0  0  0  0  0  0
    2.6160   -3.6700    6.1650 Cl  0  0  0  0  0  0  0  0  0  0  0  0
    4.1380   -1.6290    7.0480 C   0  0  0  0  0  3  0  0  0  0  0  0
    4.6150   -0.7730    8.0400 C   0  0  0  0  0  3  0  0  0  0  0  0
    4.2010   -0.8940    9.3840 C   0  0  0  0  0  0  0  0  0  0  0  0
    4.7400    0.0660   10.3560 C   0  0  0  0  0  0  0  0  0  0  0  0
    6.0090   -0.1080   10.9240 C   0  0  0  0  0  3  0  0  0  0  0  0
    6.5030    0.8250   11.8320 C   0  0  0  0  0  3  0  0  0  0  0  0
    5.7130    1.9190   12.1430 C   0  0  0  0  0  3  0  0  0  0  0  0
    4.4900    2.1390   11.6140 N   0  0  0  0  0  0  0  0  0  0  0  0
    4.0370    1.2070   10.7400 C   0  0  0  0  0  3  0  0  0  0  0  0
  1  6  1  0  0  0  0
  2  3  1  0  0  0  0
  2  1  2  0  0  0  0
  3  4  2  0  0  0  0
  4 25  1  0  0  0  0
  4  5  1  0  0  0  0
  6  5  2  0  0  0  0
  7 23  1  0  0  0  0
  7 12  1  0  0  0  0
  8  7  2  0  0  0  0
  9  8  1  0  0  0  0
  9 10  2  0  0  0  0
 10 11  1  0  0  0  0
 11 13  1  0  0  0  0
 11 12  2  0  0  0  0
 14  1  1  0  0  0  0
 14 13  2  0  0  0  0
 15 10  1  0  0  0  0
 15 14  1  0  0  0  0
 16 21  1  0  0  0  0
 16 15  1  0  0  0  0
 17 16  1  0  0  0  0
 18 19  1  0  0  0  0
 18 17  1  0  0  0  0
 19 20  1  0  0  0  0
 20 21  1  0  0  0  0
 22 23  2  0  0  0  0
 23 24  1  0  0  0  0
 26 25  1  0  0  0  0
 27 26  1  0  0  0  0
 28 27  2  0  0  0  0
 29 28  1  0  0  0  0
 30 29  1  0  0  0  0
 31 29  2  0  0  0  0
 31 32  1  0  0  0  0
 32 33  2  0  0  0  0
 33 27  1  0  0  0  0
 33 34  1  0  0  0  0
 34 39  2  0  0  0  0
 34 35  1  0  0  0  0
 35 36  2  0  0  0  0
 36 37  1  0  0  0  0
 38 37  2  0  0  0  0
 39 38  1  0  0  0  0
M  END
>  <minimizedAffinity>
-7.67130518

$$$$
