
 OpenBabel09122222393D

 39 44  0  0  0  0  0  0  0  0999 V2000
    9.4520   -2.4310    3.4680 C   0  0  0  0  0  0  0  0  0  0  0  0
    9.4230   -1.0380    3.3580 C   0  0  0  0  0  3  0  0  0  0  0  0
    9.9790   -0.2440    4.3610 C   0  0  0  0  0  3  0  0  0  0  0  0
   10.5500   -0.8220    5.4990 C   0  0  0  0  0  0  0  0  0  0  0  0
   10.5800   -2.2100    5.6150 C   0  0  0  0  0  3  0  0  0  0  0  0
   10.0250   -3.0090    4.6070 C   0  0  0  0  0  3  0  0  0  0  0  0
    6.2700   -6.0210   -0.1120 C   0  0  0  0  0  0  0  0  0  0  0  0
    7.1590   -5.5790   -1.1050 C   0  0  0  0  0  3  0  0  0  0  0  0
    8.2080   -4.6920   -0.8270 C   0  0  0  0  0  3  0  0  0  0  0  0
    8.3460   -4.2460    0.4930 C   0  0  0  0  0  0  0  0  0  0  0  0
    7.4800   -4.6600    1.5030 C   0  0  0  0  0  0  0  0  0  0  0  0
    6.4390   -5.5530    1.2060 C   0  0  0  0  0  3  0  0  0  0  0  0
    7.8110   -4.0790    2.7000 N   0  0  0  0  0  0  0  0  0  0  0  0
    8.8360   -3.2860    2.4550 C   0  0  0  0  0  0  0  0  0  0  0  0
    9.2370   -3.4050    1.1320 N   0  0  0  0  0  0  0  0  0  0  0  0
   10.4220   -2.7870    0.5410 C   0  0  0  0  0  3  0  0  0  0  0  0
   11.4510   -3.8140    0.0390 C   0  0  0  0  0  2  0  0  0  0  0  0
   12.6950   -3.1250   -0.5200 C   0  0  0  0  0  2  0  0  0  0  0  0
   12.3380   -2.1040   -1.5970 C   0  0  0  0  0  2  0  0  0  0  0  0
   11.3290   -1.0780   -1.0890 C   0  0  0  0  0  2  0  0  0  0  0  0
   10.0730   -1.7480   -0.5340 C   0  0  0  0  0  2  0  0  0  0  0  0
    5.4580   -8.0100   -1.1380 O   0  0  0  0  0  0  0  0  0  0  0  0
    5.1490   -6.9830   -0.4530 C   0  0  0  0  0  0  0  0  0  0  0  0
    3.9840   -6.6950   -0.0340 O   0  0  0  0  0  1  0  0  0  0  0  0
   11.0020    0.0800    6.4170 O   0  0  0  0  0  0  0  0  0  0  0  0
   10.9510   -0.2450    7.8050 C   0  0  0  0  0  2  0  0  0  0  0  0
    9.9080    0.4960    8.6290 C   0  0  0  0  0  0  0  0  0  0  0  0
   10.2980    1.7310    9.1920 C   0  0  0  0  0  3  0  0  0  0  0  0
    9.4110    2.4840    9.9580 C   0  0  0  0  0  0  0  0  0  0  0  0
    9.9200    3.9830   10.6300 Cl  0  0  0  0  0  0  0  0  0  0  0  0
    8.1170    2.0320   10.1740 C   0  0  0  0  0  3  0  0  0  0  0  0
    7.7090    0.8230    9.6080 C   0  0  0  0  0  3  0  0  0  0  0  0
    8.5820    0.0420    8.8220 C   0  0  0  0  0  0  0  0  0  0  0  0
    8.0580   -1.2050    8.2490 C   0  0  0  0  0  0  0  0  0  0  0  0
    7.2690   -1.1990    7.0930 C   0  0  0  0  0  3  0  0  0  0  0  0
    6.7960   -2.3970    6.5620 C   0  0  0  0  0  3  0  0  0  0  0  0
    7.1370   -3.5760    7.2010 C   0  0  0  0  0  3  0  0  0  0  0  0
    7.9060   -3.6370    8.3100 N   0  0  0  0  0  0  0  0  0  0  0  0
    8.3420   -2.4520    8.8040 C   0  0  0  0  0  3  0  0  0  0  0  0
  1  6  1  0  0  0  0
  2  1  2  0  0  0  0
  2  3  1  0  0  0  0
  3  4  2  0  0  0  0
  4  5  1  0  0  0  0
  4 25  1  0  0  0  0
  6  5  2  0  0  0  0
  7 12  1  0  0  0  0
  8  9  1  0  0  0  0
  8  7  2  0  0  0  0
  9 10  2  0  0  0  0
 10 15  1  0  0  0  0
 10 11  1  0  0  0  0
 11 13  1  0  0  0  0
 12 11  2  0  0  0  0
 14 13  2  0  0  0  0
 14  1  1  0  0  0  0
 15 14  1  0  0  0  0
 16 15  1  0  0  0  0
 17 16  1  0  0  0  0
 18 17  1  0  0  0  0
 19 20  1  0  0  0  0
 19 18  1  0  0  0  0
 20 21  1  0  0  0  0
 21 16  1  0  0  0  0
 22 23  2  0  0  0  0
 23  7  1  0  0  0  0
 23 24  1  0  0  0  0
 25 26  1  0  0  0  0
 26 27  1  0  0  0  0
 27 33  2  0  0  0  0
 27 28  1  0  0  0  0
 28 29  2  0  0  0  0
 29 31  1  0  0  0  0
 29 30  1  0  0  0  0
 32 31  2  0  0  0  0
 33 32  1  0  0  0  0
 34 39  1  0  0  0  0
 34 33  1  0  0  0  0
 35 34  2  0  0  0  0
 36 35  1  0  0  0  0
 36 37  2  0  0  0  0
 37 38  1  0  0  0  0
 38 39  2  0  0  0  0
M  END
>  <minimizedAffinity>
-8.39890289

$$$$
