REMARK  Name = 
REMARK  11 active torsions:
REMARK  status: ('A' for Active; 'I' for Inactive)
REMARK    1  A    between atoms: C_1  and  C_2
REMARK    2  A    between atoms: C_2  and  C_3
REMARK    3  A    between atoms: C_2  and  C_4
REMARK    4  A    between atoms: C_4  and  C_5
REMARK    5  A    between atoms: C_5  and  N_6
REMARK    6  A    between atoms: C_9  and  C_10
REMARK    7  A    between atoms: C_17  and  N_18
REMARK    8  A    between atoms: N_18  and  S_19
REMARK    9  A    between atoms: S_19  and  N_22
REMARK   10  A    between atoms: N_22  and  C_23
REMARK   11  A    between atoms: C_32  and  O_33
REMARK                            x       y       z     vdW  Elec       q    Type
REMARK                         _______ _______ _______ _____ _____    ______ ____
ROOT
ATOM      1  C   UNL     1      -1.688  -4.012  -1.563  0.00  0.00    +0.308 C 
ATOM      2  N   UNL     1      -2.116  -4.054  -0.322  0.00  0.00    -0.131 N 
ATOM      3  S   UNL     1      -3.663  -4.178   0.089  0.00  0.00    +0.141 S 
ATOM      4  O   UNL     1      -4.113  -5.553   0.027  0.00  0.00    -0.129 OA
ATOM      5  O   UNL     1      -3.887  -3.398   1.291  0.00  0.00    -0.129 OA
ATOM      6  C   UNL     1      -4.483  -3.325  -1.219  0.00  0.00    +0.176 A 
ATOM      7  C   UNL     1      -5.558  -2.473  -0.964  0.00  0.00    +0.059 A 
ATOM      8  C   UNL     1      -6.062  -1.693  -2.002  0.00  0.00    +0.051 A 
ATOM      9  C   UNL     1      -5.581  -1.890  -3.300  0.00  0.00    +0.028 A 
ATOM     10  C   UNL     1      -4.503  -2.753  -3.540  0.00  0.00    +0.053 A 
ATOM     11  C   UNL     1      -3.904  -3.430  -2.481  0.00  0.00    +0.148 A 
ATOM     12  N   UNL     1      -2.638  -4.009  -2.621  0.00  0.00    -0.200 N 
ATOM     13  H   UNL     1      -1.440  -3.964   0.430  0.00  0.00    +0.339 HD
ATOM     14  H   UNL     1      -2.239  -4.061  -3.560  0.00  0.00    +0.298 HD
ENDROOT
BRANCH   1  18
ATOM     15  N   UNL     1       1.710  -2.506  -1.023  0.00  0.00    -0.292 N 
ATOM     16  C   UNL     1       0.587  -3.246  -0.728  0.00  0.00    +0.271 A 
ATOM     17  O   UNL     1       0.160  -3.419   0.418  0.00  0.00    -0.267 OA
ATOM     18  C   UNL     1      -0.235  -3.756  -1.866  0.00  0.00    +0.170 A 
ATOM     19  C   UNL     1       0.293  -3.754  -3.102  0.00  0.00    +0.148 A 
ATOM     20  C   UNL     1       1.620  -3.165  -3.359  0.00  0.00    +0.060 A 
ATOM     21  C   UNL     1       2.219  -3.127  -4.627  0.00  0.00    +0.016 A 
ATOM     22  C   UNL     1       3.417  -2.443  -4.815  0.00  0.00    +0.021 A 
ATOM     23  C   UNL     1       3.974  -1.795  -3.733  0.00  0.00    +0.113 A 
ATOM     24  N   UNL     1       3.423  -1.800  -2.503  0.00  0.00    -0.237 NA
ATOM     25  C   UNL     1       2.273  -2.486  -2.320  0.00  0.00    +0.147 A 
BRANCH  19  26
ATOM     26  O   UNL     1      -0.442  -4.218  -4.182  0.00  0.00    -0.505 OA
ATOM     27  H   UNL     1       0.166  -4.614  -4.835  0.00  0.00    +0.292 HD
ENDBRANCH  19  26
BRANCH  15  28
ATOM     28  C   UNL     1       2.292  -1.667   0.025  0.00  0.00    +0.127 C 
BRANCH  28  29
ATOM     29  C   UNL     1       3.330  -2.368   0.907  0.00  0.00    +0.025 C 
BRANCH  29  31
ATOM     30  C   UNL     1       5.256  -0.779   0.366  0.00  0.00    +0.007 C 
ATOM     31  C   UNL     1       4.793  -2.238   0.445  0.00  0.00    -0.016 C 
ATOM     32  C   UNL     1       5.703  -3.002   1.412  0.00  0.00    +0.007 C 
ENDBRANCH  29  31
ENDBRANCH  28  29
ENDBRANCH  15  28
ENDBRANCH   1  18
BRANCH   8  33
ATOM     33  N   UNL     1      -7.055  -0.732  -1.640  0.00  0.00    -0.207 N 
ATOM     34  H   UNL     1      -7.917  -1.139  -1.275  0.00  0.00    +0.175 HD
BRANCH  33  35
ATOM     35  S   UNL     1      -7.410   0.603  -2.582  0.00  0.00    +0.109 S 
ATOM     36  O   UNL     1      -7.885   0.149  -3.864  0.00  0.00    -0.138 OA
ATOM     37  O   UNL     1      -8.175   1.506  -1.761  0.00  0.00    -0.138 OA
BRANCH  35  38
ATOM     38  N   UNL     1      -5.870   1.266  -2.739  0.00  0.00    -0.174 NA
ATOM     39  H   UNL     1      -5.588   1.551  -1.799  0.00  0.00    +0.150 HD
BRANCH  38  40
ATOM     40  C   UNL     1      -5.745   2.404  -3.677  0.00  0.00    +0.078 C 
ATOM     41  C   UNL     1      -4.328   2.973  -3.601  0.00  0.00    +0.020 C 
ATOM     42  C   UNL     1      -4.157   3.743  -4.904  0.00  0.00    +0.002 C 
ATOM     43  C   UNL     1      -5.116   3.095  -5.901  0.00  0.00    +0.002 C 
ATOM     44  C   UNL     1      -5.837   1.987  -5.139  0.00  0.00    +0.020 C 
ENDBRANCH  38  40
ENDBRANCH  35  38
ENDBRANCH  33  35
ENDBRANCH   8  33
TORSDOF 9
