REMARK  Name = 
REMARK  3 active torsions:
REMARK  status: ('A' for Active; 'I' for Inactive)
REMARK    1  A    between atoms: C_2  and  C_4
REMARK    2  A    between atoms: C_8  and  C_9
REMARK    3  A    between atoms: N_15  and  C_16
REMARK                            x       y       z     vdW  Elec       q    Type
REMARK                         _______ _______ _______ _____ _____    ______ ____
ROOT
ATOM      1  C   UNL     1       3.228  -0.997  -0.820  0.00  0.00    +0.039 A 
ATOM      2  C   UNL     1       4.210  -1.989  -0.855  0.00  0.00    +0.047 A 
ATOM      3  C   UNL     1       4.313  -2.507  -2.150  0.00  0.00    +0.098 A 
ATOM      4  N   UNL     1       5.078  -3.457  -2.731  0.00  0.00    -0.227 NA
ATOM      5  C   UNL     1       4.690  -3.466  -4.006  0.00  0.00    +0.142 A 
ATOM      6  N   UNL     1       3.668  -2.538  -4.223  0.00  0.00    -0.315 N 
ATOM      7  C   UNL     1       3.466  -1.941  -3.018  0.00  0.00    +0.108 A 
ATOM      8  S   UNL     1       2.490  -0.758  -2.377  0.00  0.00    -0.068 S 
ENDROOT
BRANCH   5   9
ATOM      9  C   UNL     1       5.269  -4.357  -5.005  0.00  0.00    +0.017 A 
ATOM     10  C   UNL     1       4.852  -5.692  -5.076  0.00  0.00    +0.011 A 
ATOM     11  C   UNL     1       5.411  -6.558  -6.018  0.00  0.00    +0.001 A 
ATOM     12  C   UNL     1       6.404  -6.098  -6.883  0.00  0.00    +0.000 A 
ATOM     13  C   UNL     1       6.848  -4.779  -6.797  0.00  0.00    +0.001 A 
ATOM     14  C   UNL     1       6.289  -3.914  -5.854  0.00  0.00    +0.011 A 
ENDBRANCH   5   9
BRANCH   6  15
ATOM     15  C   UNL     1       2.926  -2.222  -5.436  0.00  0.00    +0.090 C 
ATOM     16  C   UNL     1       3.744  -1.406  -6.446  0.00  0.00    +0.025 C 
ATOM     17  C   UNL     1       2.887  -0.982  -7.639  0.00  0.00    +0.002 C 
ATOM     18  C   UNL     1       2.198  -2.177  -8.294  0.00  0.00    +0.000 C 
ATOM     19  C   UNL     1       1.386  -2.987  -7.286  0.00  0.00    +0.002 C 
ATOM     20  C   UNL     1       2.246  -3.428  -6.101  0.00  0.00    +0.025 C 
ENDBRANCH   6  15
BRANCH   1  22
ATOM     21  O   UNL     1       1.945   0.638   0.295  0.00  0.00    -0.544 OA
ATOM     22  C   UNL     1       2.858  -0.238   0.405  0.00  0.00    +0.078 C 
ATOM     23  O   UNL     1       3.490  -0.531   1.467  0.00  0.00    -0.544 OA
ENDBRANCH   1  22
TORSDOF 3
