
 OpenBabel09122222233D

 23 26  0  0  0  0  0  0  0  0999 V2000
    8.7590   -4.1670    0.5770 C   0  0  0  0  0  0  0  0  0  0  0  0
    8.3250   -5.3930    0.0700 C   0  0  0  0  0  3  0  0  0  0  0  0
    7.2090   -5.8340    0.7890 C   0  0  0  0  0  0  0  0  0  0  0  0
    6.4120   -6.9230    0.7250 N   0  0  0  0  0  0  0  0  0  0  0  0
    5.5140   -6.7380    1.6930 C   0  0  0  0  0  0  0  0  0  0  0  0
    5.7580   -5.5440    2.3780 N   0  0  0  0  0  0  0  0  0  0  0  0
    6.8390   -4.9940    1.7630 C   0  0  0  0  0  0  0  0  0  0  0  0
    7.7720   -3.6260    1.9040 S   0  0  0  0  0  0  0  0  0  0  0  0
    4.4470   -7.6900    1.9770 C   0  0  0  0  0  0  0  0  0  0  0  0
    4.1820   -8.0690    3.2990 C   0  0  0  0  0  3  0  0  0  0  0  0
    3.1730   -8.9920    3.5810 C   0  0  0  0  0  3  0  0  0  0  0  0
    2.4340   -9.5550    2.5400 C   0  0  0  0  0  3  0  0  0  0  0  0
    2.7130   -9.2080    1.2190 C   0  0  0  0  0  3  0  0  0  0  0  0
    3.7230   -8.2860    0.9380 C   0  0  0  0  0  3  0  0  0  0  0  0
    5.0610   -4.9510    3.5120 C   0  0  0  0  0  3  0  0  0  0  0  0
    5.9470   -4.0050    4.3330 C   0  0  0  0  0  2  0  0  0  0  0  0
    5.2200   -3.5140    5.5850 C   0  0  0  0  0  2  0  0  0  0  0  0
    3.8720   -2.8840    5.2460 C   0  0  0  0  0  2  0  0  0  0  0  0
    2.9930   -3.8280    4.4280 C   0  0  0  0  0  2  0  0  0  0  0  0
    3.7120   -4.3050    3.1650 C   0  0  0  0  0  2  0  0  0  0  0  0
   10.3630   -2.4460    0.7390 O   0  0  0  0  0  1  0  0  0  0  0  0
    9.9270   -3.4150    0.0440 C   0  0  0  0  0  0  0  0  0  0  0  0
   10.3950   -3.8070   -1.0700 O   0  0  0  0  0  0  0  0  0  0  0  0
  1  8  1  0  0  0  0
  2  1  2  0  0  0  0
  2  3  1  0  0  0  0
  3  7  2  0  0  0  0
  4  3  1  0  0  0  0
  4  5  2  0  0  0  0
  5  9  1  0  0  0  0
  5  6  1  0  0  0  0
  6 15  1  0  0  0  0
  7  8  1  0  0  0  0
  7  6  1  0  0  0  0
  9 10  1  0  0  0  0
 10 11  2  0  0  0  0
 12 11  1  0  0  0  0
 13 12  2  0  0  0  0
 14 13  1  0  0  0  0
 14  9  2  0  0  0  0
 15 16  1  0  0  0  0
 16 17  1  0  0  0  0
 18 17  1  0  0  0  0
 19 18  1  0  0  0  0
 20 15  1  0  0  0  0
 20 19  1  0  0  0  0
 22  1  1  0  0  0  0
 22 21  1  0  0  0  0
 23 22  2  0  0  0  0
M  END
>  <minimizedAffinity>
-6.66139889

$$$$

 OpenBabel09122222233D

 23 26  0  0  0  0  0  0  0  0999 V2000
    8.6730   -4.0630    0.8070 C   0  0  0  0  0  0  0  0  0  0  0  0
    8.4190   -5.2870    0.1840 C   0  0  0  0  0  3  0  0  0  0  0  0
    7.3100   -5.8980    0.7760 C   0  0  0  0  0  0  0  0  0  0  0  0
    6.6470   -7.0580    0.5730 N   0  0  0  0  0  0  0  0  0  0  0  0
    5.6650   -7.0450    1.4730 C   0  0  0  0  0  0  0  0  0  0  0  0
    5.7210   -5.8890    2.2560 N   0  0  0  0  0  0  0  0  0  0  0  0
    6.7760   -5.1800    1.7720 C   0  0  0  0  0  0  0  0  0  0  0  0
    7.5360   -3.7350    2.0820 S   0  0  0  0  0  0  0  0  0  0  0  0
    4.6930   -8.1250    1.6020 C   0  0  0  0  0  0  0  0  0  0  0  0
    4.9460   -9.1910    2.4730 C   0  0  0  0  0  3  0  0  0  0  0  0
    4.0300  -10.2390    2.5930 C   0  0  0  0  0  3  0  0  0  0  0  0
    2.8640  -10.2340    1.8280 C   0  0  0  0  0  3  0  0  0  0  0  0
    2.6200   -9.1920    0.9340 C   0  0  0  0  0  3  0  0  0  0  0  0
    3.5370   -8.1460    0.8140 C   0  0  0  0  0  3  0  0  0  0  0  0
    4.8790   -5.4630    3.3660 C   0  0  0  0  0  3  0  0  0  0  0  0
    3.9410   -4.3050    3.0000 C   0  0  0  0  0  2  0  0  0  0  0  0
    3.1780   -3.8020    4.2260 C   0  0  0  0  0  2  0  0  0  0  0  0
    2.4390   -4.9340    4.9360 C   0  0  0  0  0  2  0  0  0  0  0  0
    3.3760   -6.0840    5.2980 C   0  0  0  0  0  2  0  0  0  0  0  0
    4.1260   -6.6010    4.0700 C   0  0  0  0  0  2  0  0  0  0  0  0
   10.4450   -2.6110    1.3670 O   0  0  0  0  0  1  0  0  0  0  0  0
    9.7860   -3.1520    0.4260 C   0  0  0  0  0  0  0  0  0  0  0  0
    9.9860   -2.9900   -0.8180 O   0  0  0  0  0  0  0  0  0  0  0  0
  1  8  1  0  0  0  0
  2  3  1  0  0  0  0
  2  1  2  0  0  0  0
  3  7  2  0  0  0  0
  4  3  1  0  0  0  0
  4  5  2  0  0  0  0
  5  9  1  0  0  0  0
  5  6  1  0  0  0  0
  6 15  1  0  0  0  0
  7  8  1  0  0  0  0
  7  6  1  0  0  0  0
  9 10  1  0  0  0  0
 10 11  2  0  0  0  0
 12 11  1  0  0  0  0
 13 12  2  0  0  0  0
 14 13  1  0  0  0  0
 14  9  2  0  0  0  0
 15 20  1  0  0  0  0
 16 15  1  0  0  0  0
 16 17  1  0  0  0  0
 17 18  1  0  0  0  0
 18 19  1  0  0  0  0
 20 19  1  0  0  0  0
 22  1  1  0  0  0  0
 22 21  1  0  0  0  0
 23 22  2  0  0  0  0
M  END
>  <minimizedAffinity>
-6.59459066

$$$$

 OpenBabel09122222233D

 23 26  0  0  0  0  0  0  0  0999 V2000
    3.4190   -8.9720    2.7690 C   0  0  0  0  0  0  0  0  0  0  0  0
    4.5020   -8.9660    1.8880 C   0  0  0  0  0  3  0  0  0  0  0  0
    5.1350   -7.7190    1.9250 C   0  0  0  0  0  0  0  0  0  0  0  0
    6.2010   -7.1800    1.2940 N   0  0  0  0  0  0  0  0  0  0  0  0
    6.2900   -5.9440    1.7820 C   0  0  0  0  0  0  0  0  0  0  0  0
    5.2690   -5.6970    2.7040 N   0  0  0  0  0  0  0  0  0  0  0  0
    4.5630   -6.8570    2.7740 C   0  0  0  0  0  0  0  0  0  0  0  0
    3.2430   -7.4490    3.5920 S   0  0  0  0  0  0  0  0  0  0  0  0
    7.3210   -4.9990    1.3680 C   0  0  0  0  0  0  0  0  0  0  0  0
    7.9440   -5.1470    0.1220 C   0  0  0  0  0  3  0  0  0  0  0  0
    8.9430   -4.2570   -0.2780 C   0  0  0  0  0  3  0  0  0  0  0  0
    9.3380   -3.2250    0.5730 C   0  0  0  0  0  3  0  0  0  0  0  0
    8.7450   -3.0900    1.8280 C   0  0  0  0  0  3  0  0  0  0  0  0
    7.7460   -3.9810    2.2280 C   0  0  0  0  0  3  0  0  0  0  0  0
    4.9550   -4.4930    3.4610 C   0  0  0  0  0  3  0  0  0  0  0  0
    3.4720   -4.1060    3.3890 C   0  0  0  0  0  2  0  0  0  0  0  0
    3.2150   -2.7670    4.0810 C   0  0  0  0  0  2  0  0  0  0  0  0
    3.7370   -2.7630    5.5160 C   0  0  0  0  0  2  0  0  0  0  0  0
    5.2120   -3.1500    5.5850 C   0  0  0  0  0  2  0  0  0  0  0  0
    5.4690   -4.4970    4.9090 C   0  0  0  0  0  2  0  0  0  0  0  0
    1.9740  -10.6450    1.9490 O   0  0  0  0  0  0  0  0  0  0  0  0
    2.5250  -10.1420    2.9770 C   0  0  0  0  0  0  0  0  0  0  0  0
    2.3840  -10.5440    4.1730 O   0  0  0  0  0  1  0  0  0  0  0  0
  1 22  1  0  0  0  0
  1  8  1  0  0  0  0
  2  3  1  0  0  0  0
  2  1  2  0  0  0  0
  3  7  2  0  0  0  0
  4  5  2  0  0  0  0
  4  3  1  0  0  0  0
  5  6  1  0  0  0  0
  6  7  1  0  0  0  0
  6 15  1  0  0  0  0
  7  8  1  0  0  0  0
  9  5  1  0  0  0  0
  9 14  1  0  0  0  0
 10  9  2  0  0  0  0
 11 10  1  0  0  0  0
 11 12  2  0  0  0  0
 12 13  1  0  0  0  0
 13 14  2  0  0  0  0
 15 20  1  0  0  0  0
 16 15  1  0  0  0  0
 16 17  1  0  0  0  0
 17 18  1  0  0  0  0
 18 19  1  0  0  0  0
 20 19  1  0  0  0  0
 21 22  2  0  0  0  0
 22 23  1  0  0  0  0
M  END
>  <minimizedAffinity>
-6.43635321

$$$$

 OpenBabel09122222233D

 23 26  0  0  0  0  0  0  0  0999 V2000
    9.1460   -3.9110    0.6930 C   0  0  0  0  0  0  0  0  0  0  0  0
    8.5060   -3.1920    1.7050 C   0  0  0  0  0  3  0  0  0  0  0  0
    7.3750   -3.8910    2.1380 C   0  0  0  0  0  0  0  0  0  0  0  0
    6.4200   -3.6630    3.0670 N   0  0  0  0  0  0  0  0  0  0  0  0
    5.6200   -4.7260    2.9930 C   0  0  0  0  0  0  0  0  0  0  0  0
    6.0580   -5.6120    2.0050 N   0  0  0  0  0  0  0  0  0  0  0  0
    7.1840   -5.0480    1.4930 C   0  0  0  0  0  0  0  0  0  0  0  0
    8.3210   -5.4000    0.3330 S   0  0  0  0  0  0  0  0  0  0  0  0
    4.4430   -4.8930    3.8370 C   0  0  0  0  0  0  0  0  0  0  0  0
    3.3950   -3.9660    3.7660 C   0  0  0  0  0  3  0  0  0  0  0  0
    2.2700   -4.1070    4.5810 C   0  0  0  0  0  3  0  0  0  0  0  0
    2.1950   -5.1660    5.4860 C   0  0  0  0  0  3  0  0  0  0  0  0
    3.2480   -6.0740    5.5860 C   0  0  0  0  0  3  0  0  0  0  0  0
    4.3730   -5.9320    4.7720 C   0  0  0  0  0  3  0  0  0  0  0  0
    5.4900   -6.8760    1.5560 C   0  0  0  0  0  3  0  0  0  0  0  0
    5.4590   -7.9460    2.6560 C   0  0  0  0  0  2  0  0  0  0  0  0
    4.9840   -9.2910    2.1070 C   0  0  0  0  0  2  0  0  0  0  0  0
    3.6400   -9.1680    1.3920 C   0  0  0  0  0  2  0  0  0  0  0  0
    3.6750   -8.1020    0.2990 C   0  0  0  0  0  2  0  0  0  0  0  0
    4.1320   -6.7510    0.8500 C   0  0  0  0  0  2  0  0  0  0  0  0
   10.8640   -4.2110   -0.8940 O   0  0  0  0  0  0  0  0  0  0  0  0
   10.3830   -3.4540    0.0040 C   0  0  0  0  0  0  0  0  0  0  0  0
   10.8590   -2.3370    0.3750 O   0  0  0  0  0  1  0  0  0  0  0  0
  1  2  2  0  0  0  0
  2  3  1  0  0  0  0
  3  4  1  0  0  0  0
  5  4  2  0  0  0  0
  5  9  1  0  0  0  0
  6  5  1  0  0  0  0
  7  6  1  0  0  0  0
  7  3  2  0  0  0  0
  8  1  1  0  0  0  0
  8  7  1  0  0  0  0
  9 14  1  0  0  0  0
 10  9  2  0  0  0  0
 10 11  1  0  0  0  0
 11 12  2  0  0  0  0
 12 13  1  0  0  0  0
 14 13  2  0  0  0  0
 15  6  1  0  0  0  0
 15 16  1  0  0  0  0
 17 16  1  0  0  0  0
 18 17  1  0  0  0  0
 19 20  1  0  0  0  0
 19 18  1  0  0  0  0
 20 15  1  0  0  0  0
 21 22  2  0  0  0  0
 22 23  1  0  0  0  0
 22  1  1  0  0  0  0
M  END
>  <minimizedAffinity>
-6.23652267

$$$$

 OpenBabel09122222233D

 23 26  0  0  0  0  0  0  0  0999 V2000
    1.9540   -9.3020    3.7790 C   0  0  0  0  0  0  0  0  0  0  0  0
    2.7070   -9.5660    2.6340 C   0  0  0  0  0  3  0  0  0  0  0  0
    3.5410   -8.4790    2.3540 C   0  0  0  0  0  0  0  0  0  0  0  0
    4.4510   -8.2070    1.3940 N   0  0  0  0  0  0  0  0  0  0  0  0
    4.9080   -6.9920    1.7000 C   0  0  0  0  0  0  0  0  0  0  0  0
    4.2710   -6.4920    2.8380 N   0  0  0  0  0  0  0  0  0  0  0  0
    3.4160   -7.4750    3.2300 C   0  0  0  0  0  0  0  0  0  0  0  0
    2.3130   -7.7360    4.4460 S   0  0  0  0  0  0  0  0  0  0  0  0
    5.9240   -6.3050    0.9110 C   0  0  0  0  0  0  0  0  0  0  0  0
    6.9460   -5.5950    1.5540 C   0  0  0  0  0  3  0  0  0  0  0  0
    7.9150   -4.9200    0.8090 C   0  0  0  0  0  3  0  0  0  0  0  0
    7.8570   -4.9370   -0.5850 C   0  0  0  0  0  3  0  0  0  0  0  0
    6.8250   -5.6140   -1.2330 C   0  0  0  0  0  3  0  0  0  0  0  0
    5.8550   -6.2880   -0.4860 C   0  0  0  0  0  3  0  0  0  0  0  0
    4.4240   -5.2120    3.5160 C   0  0  0  0  0  3  0  0  0  0  0  0
    3.2100   -4.2890    3.3420 C   0  0  0  0  0  2  0  0  0  0  0  0
    3.4690   -2.9120    3.9520 C   0  0  0  0  0  2  0  0  0  0  0  0
    3.9050   -3.0120    5.4120 C   0  0  0  0  0  2  0  0  0  0  0  0
    5.1130   -3.9320    5.5820 C   0  0  0  0  0  2  0  0  0  0  0  0
    4.8490   -5.3160    4.9890 C   0  0  0  0  0  2  0  0  0  0  0  0
    1.1150  -10.5840    5.5720 O   0  0  0  0  0  1  0  0  0  0  0  0
    0.9620  -10.2480    4.3570 C   0  0  0  0  0  0  0  0  0  0  0  0
    0.0370  -10.6440    3.5820 O   0  0  0  0  0  0  0  0  0  0  0  0
  1 22  1  0  0  0  0
  1  8  1  0  0  0  0
  2  1  2  0  0  0  0
  3  2  1  0  0  0  0
  3  7  2  0  0  0  0
  4  5  2  0  0  0  0
  4  3  1  0  0  0  0
  5  6  1  0  0  0  0
  6  7  1  0  0  0  0
  6 15  1  0  0  0  0
  7  8  1  0  0  0  0
  9 10  1  0  0  0  0
  9  5  1  0  0  0  0
 11 10  2  0  0  0  0
 12 11  1  0  0  0  0
 13 12  2  0  0  0  0
 13 14  1  0  0  0  0
 14  9  2  0  0  0  0
 15 20  1  0  0  0  0
 16 15  1  0  0  0  0
 16 17  1  0  0  0  0
 17 18  1  0  0  0  0
 18 19  1  0  0  0  0
 20 19  1  0  0  0  0
 22 21  1  0  0  0  0
 23 22  2  0  0  0  0
M  END
>  <minimizedAffinity>
-5.95565462

$$$$

 OpenBabel09122222233D

 23 26  0  0  0  0  0  0  0  0999 V2000
    7.9000   -4.9750    0.7640 C   0  0  0  0  0  0  0  0  0  0  0  0
    7.4790   -6.2950    0.5930 C   0  0  0  0  0  3  0  0  0  0  0  0
    6.4270   -6.5740    1.4720 C   0  0  0  0  0  0  0  0  0  0  0  0
    5.6670   -7.6620    1.7230 N   0  0  0  0  0  0  0  0  0  0  0  0
    4.8250   -7.2700    2.6790 C   0  0  0  0  0  0  0  0  0  0  0  0
    5.0690   -5.9430    3.0440 N   0  0  0  0  0  0  0  0  0  0  0  0
    6.0890   -5.5340    2.2430 C   0  0  0  0  0  0  0  0  0  0  0  0
    6.9800   -4.1530    1.9900 S   0  0  0  0  0  0  0  0  0  0  0  0
    3.8130   -8.1480    3.2540 C   0  0  0  0  0  0  0  0  0  0  0  0
    3.7330   -8.3070    4.6430 C   0  0  0  0  0  3  0  0  0  0  0  0
    2.7780   -9.1580    5.2030 C   0  0  0  0  0  3  0  0  0  0  0  0
    1.9080   -9.8680    4.3760 C   0  0  0  0  0  3  0  0  0  0  0  0
    2.0020   -9.7390    2.9910 C   0  0  0  0  0  3  0  0  0  0  0  0
    2.9580   -8.8890    2.4310 C   0  0  0  0  0  3  0  0  0  0  0  0
    4.4250   -5.1100    4.0510 C   0  0  0  0  0  3  0  0  0  0  0  0
    5.2550   -3.8780    4.4340 C   0  0  0  0  0  2  0  0  0  0  0  0
    4.6080   -3.1100    5.5860 C   0  0  0  0  0  2  0  0  0  0  0  0
    3.1560   -2.7480    5.2800 C   0  0  0  0  0  2  0  0  0  0  0  0
    2.3330   -3.9770    4.8990 C   0  0  0  0  0  2  0  0  0  0  0  0
    2.9690   -4.7360    3.7340 C   0  0  0  0  0  2  0  0  0  0  0  0
    9.1050   -4.6600   -1.2390 O   0  0  0  0  0  0  0  0  0  0  0  0
    9.0040   -4.3490   -0.0120 C   0  0  0  0  0  0  0  0  0  0  0  0
    9.7610   -3.5490    0.6220 O   0  0  0  0  0  1  0  0  0  0  0  0
  1  8  1  0  0  0  0
  2  1  2  0  0  0  0
  2  3  1  0  0  0  0
  3  4  1  0  0  0  0
  3  7  2  0  0  0  0
  4  5  2  0  0  0  0
  5  6  1  0  0  0  0
  5  9  1  0  0  0  0
  6 15  1  0  0  0  0
  7  6  1  0  0  0  0
  8  7  1  0  0  0  0
  9 10  1  0  0  0  0
 10 11  2  0  0  0  0
 12 11  1  0  0  0  0
 13 12  2  0  0  0  0
 14 13  1  0  0  0  0
 14  9  2  0  0  0  0
 15 16  1  0  0  0  0
 16 17  1  0  0  0  0
 18 17  1  0  0  0  0
 19 18  1  0  0  0  0
 20 15  1  0  0  0  0
 20 19  1  0  0  0  0
 21 22  2  0  0  0  0
 22 23  1  0  0  0  0
 22  1  1  0  0  0  0
M  END
>  <minimizedAffinity>
-5.77441645

$$$$

 OpenBabel09122222233D

 23 26  0  0  0  0  0  0  0  0999 V2000
    7.8450   -4.9150    0.6960 C   0  0  0  0  0  0  0  0  0  0  0  0
    7.1090   -4.1380    1.5920 C   0  0  0  0  0  3  0  0  0  0  0  0
    6.0500   -4.8900    2.1120 C   0  0  0  0  0  0  0  0  0  0  0  0
    5.0570   -4.6420    2.9930 N   0  0  0  0  0  0  0  0  0  0  0  0
    4.3790   -5.7880    3.0640 C   0  0  0  0  0  0  0  0  0  0  0  0
    4.9320   -6.7480    2.2140 N   0  0  0  0  0  0  0  0  0  0  0  0
    6.0010   -6.1390    1.6350 C   0  0  0  0  0  0  0  0  0  0  0  0
    7.1960   -6.5220    0.5440 S   0  0  0  0  0  0  0  0  0  0  0  0
    3.2080   -5.9650    3.9150 C   0  0  0  0  0  0  0  0  0  0  0  0
    2.8840   -7.2380    4.4010 C   0  0  0  0  0  3  0  0  0  0  0  0
    1.7560   -7.4220    5.2040 C   0  0  0  0  0  3  0  0  0  0  0  0
    0.9360   -6.3360    5.5110 C   0  0  0  0  0  3  0  0  0  0  0  0
    1.2330   -5.0720    5.0040 C   0  0  0  0  0  3  0  0  0  0  0  0
    2.3610   -4.8890    4.2010 C   0  0  0  0  0  3  0  0  0  0  0  0
    4.5150   -8.1180    1.9430 C   0  0  0  0  0  3  0  0  0  0  0  0
    4.7520   -9.0630    3.1280 C   0  0  0  0  0  2  0  0  0  0  0  0
    4.4280  -10.5100    2.7550 C   0  0  0  0  0  2  0  0  0  0  0  0
    3.0170  -10.6470    2.1880 C   0  0  0  0  0  2  0  0  0  0  0  0
    2.7860   -9.7040    1.0090 C   0  0  0  0  0  2  0  0  0  0  0  0
    3.0910   -8.2530    1.3860 C   0  0  0  0  0  2  0  0  0  0  0  0
    9.0070   -4.4800   -1.3100 O   0  0  0  0  0  0  0  0  0  0  0  0
    9.0400   -4.4230   -0.0420 C   0  0  0  0  0  0  0  0  0  0  0  0
   10.0010   -3.9850    0.6630 O   0  0  0  0  0  1  0  0  0  0  0  0
  1  2  2  0  0  0  0
  2  3  1  0  0  0  0
  3  4  1  0  0  0  0
  4  5  2  0  0  0  0
  5  9  1  0  0  0  0
  6  5  1  0  0  0  0
  7  3  2  0  0  0  0
  7  6  1  0  0  0  0
  8  1  1  0  0  0  0
  8  7  1  0  0  0  0
  9 14  2  0  0  0  0
  9 10  1  0  0  0  0
 10 11  2  0  0  0  0
 11 12  1  0  0  0  0
 13 12  2  0  0  0  0
 14 13  1  0  0  0  0
 15  6  1  0  0  0  0
 15 16  1  0  0  0  0
 17 16  1  0  0  0  0
 18 17  1  0  0  0  0
 19 20  1  0  0  0  0
 19 18  1  0  0  0  0
 20 15  1  0  0  0  0
 21 22  2  0  0  0  0
 22 23  1  0  0  0  0
 22  1  1  0  0  0  0
M  END
>  <minimizedAffinity>
-4.18508244

$$$$

 OpenBabel09122222233D

 23 26  0  0  0  0  0  0  0  0999 V2000
    5.0770   -8.0260    0.9070 C   0  0  0  0  0  0  0  0  0  0  0  0
    6.3610   -7.5150    0.7090 C   0  0  0  0  0  3  0  0  0  0  0  0
    6.5270   -6.3470    1.4610 C   0  0  0  0  0  0  0  0  0  0  0  0
    7.5400   -5.4710    1.6370 N   0  0  0  0  0  0  0  0  0  0  0  0
    7.0590   -4.5700    2.4930 C   0  0  0  0  0  0  0  0  0  0  0  0
    5.7380   -4.8660    2.8380 N   0  0  0  0  0  0  0  0  0  0  0  0
    5.4410   -6.0110    2.1680 C   0  0  0  0  0  0  0  0  0  0  0  0
    4.1490   -7.0440    2.0040 S   0  0  0  0  0  0  0  0  0  0  0  0
    7.8370   -3.4300    2.9650 C   0  0  0  0  0  0  0  0  0  0  0  0
    8.3420   -2.5010    2.0480 C   0  0  0  0  0  3  0  0  0  0  0  0
    9.1020   -1.4150    2.4870 C   0  0  0  0  0  3  0  0  0  0  0  0
    9.3750   -1.2620    3.8470 C   0  0  0  0  0  3  0  0  0  0  0  0
    8.9030   -2.2000    4.7630 C   0  0  0  0  0  3  0  0  0  0  0  0
    8.1450   -3.2870    4.3230 C   0  0  0  0  0  3  0  0  0  0  0  0
    4.8110   -4.1560    3.7100 C   0  0  0  0  0  3  0  0  0  0  0  0
    3.9720   -3.1070    2.9680 C   0  0  0  0  0  2  0  0  0  0  0  0
    3.1160   -2.2950    3.9390 C   0  0  0  0  0  2  0  0  0  0  0  0
    2.2550   -3.1940    4.8230 C   0  0  0  0  0  2  0  0  0  0  0  0
    3.0930   -4.2380    5.5590 C   0  0  0  0  0  2  0  0  0  0  0  0
    3.9360   -5.0630    4.5870 C   0  0  0  0  0  2  0  0  0  0  0  0
    5.0060   -9.5350   -0.9040 O   0  0  0  0  0  0  0  0  0  0  0  0
    4.5650   -9.2610    0.2560 C   0  0  0  0  0  0  0  0  0  0  0  0
    3.7240   -9.9450    0.9170 O   0  0  0  0  0  1  0  0  0  0  0  0
  1  8  1  0  0  0  0
  2  1  2  0  0  0  0
  2  3  1  0  0  0  0
  3  4  1  0  0  0  0
  3  7  2  0  0  0  0
  4  5  2  0  0  0  0
  5  6  1  0  0  0  0
  5  9  1  0  0  0  0
  6 15  1  0  0  0  0
  7  6  1  0  0  0  0
  8  7  1  0  0  0  0
  9 14  1  0  0  0  0
 10 11  1  0  0  0  0
 10  9  2  0  0  0  0
 11 12  2  0  0  0  0
 12 13  1  0  0  0  0
 14 13  2  0  0  0  0
 15 20  1  0  0  0  0
 16 15  1  0  0  0  0
 16 17  1  0  0  0  0
 17 18  1  0  0  0  0
 18 19  1  0  0  0  0
 20 19  1  0  0  0  0
 21 22  2  0  0  0  0
 22  1  1  0  0  0  0
 22 23  1  0  0  0  0
M  END
>  <minimizedAffinity>
-3.97280908

$$$$

 OpenBabel09122222233D

 23 26  0  0  0  0  0  0  0  0999 V2000
    4.2110   -8.5180    0.8850 C   0  0  0  0  0  0  0  0  0  0  0  0
    5.3670   -8.1950    0.1720 C   0  0  0  0  0  3  0  0  0  0  0  0
    5.9240   -7.0180    0.6830 C   0  0  0  0  0  0  0  0  0  0  0  0
    7.0120   -6.2770    0.3790 N   0  0  0  0  0  0  0  0  0  0  0  0
    6.9880   -5.2720    1.2550 C   0  0  0  0  0  0  0  0  0  0  0  0
    5.8750   -5.3690    2.0950 N   0  0  0  0  0  0  0  0  0  0  0  0
    5.2310   -6.5020    1.7050 C   0  0  0  0  0  0  0  0  0  0  0  0
    3.8760   -7.3610    2.1400 S   0  0  0  0  0  0  0  0  0  0  0  0
    7.9980   -4.2210    1.2840 C   0  0  0  0  0  0  0  0  0  0  0  0
    8.8780   -4.0670    0.2050 C   0  0  0  0  0  3  0  0  0  0  0  0
    9.8590   -3.0740    0.2290 C   0  0  0  0  0  3  0  0  0  0  0  0
    9.9780   -2.2400    1.3410 C   0  0  0  0  0  3  0  0  0  0  0  0
    9.1270   -2.4080    2.4330 C   0  0  0  0  0  3  0  0  0  0  0  0
    8.1460   -3.4010    2.4080 C   0  0  0  0  0  3  0  0  0  0  0  0
    5.4290   -4.4940    3.1700 C   0  0  0  0  0  3  0  0  0  0  0  0
    4.3300   -3.5160    2.7310 C   0  0  0  0  0  2  0  0  0  0  0  0
    3.9890   -2.5290    3.8480 C   0  0  0  0  0  2  0  0  0  0  0  0
    3.6300   -3.2470    5.1480 C   0  0  0  0  0  2  0  0  0  0  0  0
    4.7250   -4.2200    5.5800 C   0  0  0  0  0  2  0  0  0  0  0  0
    5.0540   -5.2190    4.4710 C   0  0  0  0  0  2  0  0  0  0  0  0
    3.3680  -10.6440    1.4620 O   0  0  0  0  0  1  0  0  0  0  0  0
    3.3670   -9.7100    0.6010 C   0  0  0  0  0  0  0  0  0  0  0  0
    2.7090   -9.6950   -0.4850 O   0  0  0  0  0  0  0  0  0  0  0  0
  1  8  1  0  0  0  0
  2  3  1  0  0  0  0
  2  1  2  0  0  0  0
  3  7  2  0  0  0  0
  4  3  1  0  0  0  0
  4  5  2  0  0  0  0
  5  9  1  0  0  0  0
  5  6  1  0  0  0  0
  6 15  1  0  0  0  0
  7  6  1  0  0  0  0
  7  8  1  0  0  0  0
  9 14  1  0  0  0  0
 10 11  1  0  0  0  0
 10  9  2  0  0  0  0
 11 12  2  0  0  0  0
 12 13  1  0  0  0  0
 14 13  2  0  0  0  0
 15 20  1  0  0  0  0
 16 15  1  0  0  0  0
 16 17  1  0  0  0  0
 17 18  1  0  0  0  0
 18 19  1  0  0  0  0
 20 19  1  0  0  0  0
 22  1  1  0  0  0  0
 22 21  1  0  0  0  0
 23 22  2  0  0  0  0
M  END
>  <minimizedAffinity>
-3.84014511

$$$$
