
 OpenBabel09122222393D

 23 26  0  0  0  0  0  0  0  0999 V2000
    7.8450   -4.9150    0.6960 C   0  0  0  0  0  0  0  0  0  0  0  0
    7.1090   -4.1380    1.5920 C   0  0  0  0  0  3  0  0  0  0  0  0
    6.0500   -4.8900    2.1120 C   0  0  0  0  0  0  0  0  0  0  0  0
    5.0570   -4.6420    2.9930 N   0  0  0  0  0  0  0  0  0  0  0  0
    4.3790   -5.7880    3.0640 C   0  0  0  0  0  0  0  0  0  0  0  0
    4.9320   -6.7480    2.2140 N   0  0  0  0  0  0  0  0  0  0  0  0
    6.0010   -6.1390    1.6350 C   0  0  0  0  0  0  0  0  0  0  0  0
    7.1960   -6.5220    0.5440 S   0  0  0  0  0  0  0  0  0  0  0  0
    3.2080   -5.9650    3.9150 C   0  0  0  0  0  0  0  0  0  0  0  0
    2.8840   -7.2380    4.4010 C   0  0  0  0  0  3  0  0  0  0  0  0
    1.7560   -7.4220    5.2040 C   0  0  0  0  0  3  0  0  0  0  0  0
    0.9360   -6.3360    5.5110 C   0  0  0  0  0  3  0  0  0  0  0  0
    1.2330   -5.0720    5.0040 C   0  0  0  0  0  3  0  0  0  0  0  0
    2.3610   -4.8890    4.2010 C   0  0  0  0  0  3  0  0  0  0  0  0
    4.5150   -8.1180    1.9430 C   0  0  0  0  0  3  0  0  0  0  0  0
    4.7520   -9.0630    3.1280 C   0  0  0  0  0  2  0  0  0  0  0  0
    4.4280  -10.5100    2.7550 C   0  0  0  0  0  2  0  0  0  0  0  0
    3.0170  -10.6470    2.1880 C   0  0  0  0  0  2  0  0  0  0  0  0
    2.7860   -9.7040    1.0090 C   0  0  0  0  0  2  0  0  0  0  0  0
    3.0910   -8.2530    1.3860 C   0  0  0  0  0  2  0  0  0  0  0  0
    9.0070   -4.4800   -1.3100 O   0  0  0  0  0  0  0  0  0  0  0  0
    9.0400   -4.4230   -0.0420 C   0  0  0  0  0  0  0  0  0  0  0  0
   10.0010   -3.9850    0.6630 O   0  0  0  0  0  1  0  0  0  0  0  0
  1  2  2  0  0  0  0
  2  3  1  0  0  0  0
  3  4  1  0  0  0  0
  4  5  2  0  0  0  0
  5  9  1  0  0  0  0
  6  5  1  0  0  0  0
  7  3  2  0  0  0  0
  7  6  1  0  0  0  0
  8  1  1  0  0  0  0
  8  7  1  0  0  0  0
  9 14  2  0  0  0  0
  9 10  1  0  0  0  0
 10 11  2  0  0  0  0
 11 12  1  0  0  0  0
 13 12  2  0  0  0  0
 14 13  1  0  0  0  0
 15  6  1  0  0  0  0
 15 16  1  0  0  0  0
 17 16  1  0  0  0  0
 18 17  1  0  0  0  0
 19 20  1  0  0  0  0
 19 18  1  0  0  0  0
 20 15  1  0  0  0  0
 21 22  2  0  0  0  0
 22 23  1  0  0  0  0
 22  1  1  0  0  0  0
M  END
>  <minimizedAffinity>
-4.18508244

$$$$
