
 OpenBabel09122222393D

 23 26  0  0  0  0  0  0  0  0999 V2000
    7.9000   -4.9750    0.7640 C   0  0  0  0  0  0  0  0  0  0  0  0
    7.4790   -6.2950    0.5930 C   0  0  0  0  0  3  0  0  0  0  0  0
    6.4270   -6.5740    1.4720 C   0  0  0  0  0  0  0  0  0  0  0  0
    5.6670   -7.6620    1.7230 N   0  0  0  0  0  0  0  0  0  0  0  0
    4.8250   -7.2700    2.6790 C   0  0  0  0  0  0  0  0  0  0  0  0
    5.0690   -5.9430    3.0440 N   0  0  0  0  0  0  0  0  0  0  0  0
    6.0890   -5.5340    2.2430 C   0  0  0  0  0  0  0  0  0  0  0  0
    6.9800   -4.1530    1.9900 S   0  0  0  0  0  0  0  0  0  0  0  0
    3.8130   -8.1480    3.2540 C   0  0  0  0  0  0  0  0  0  0  0  0
    3.7330   -8.3070    4.6430 C   0  0  0  0  0  3  0  0  0  0  0  0
    2.7780   -9.1580    5.2030 C   0  0  0  0  0  3  0  0  0  0  0  0
    1.9080   -9.8680    4.3760 C   0  0  0  0  0  3  0  0  0  0  0  0
    2.0020   -9.7390    2.9910 C   0  0  0  0  0  3  0  0  0  0  0  0
    2.9580   -8.8890    2.4310 C   0  0  0  0  0  3  0  0  0  0  0  0
    4.4250   -5.1100    4.0510 C   0  0  0  0  0  3  0  0  0  0  0  0
    5.2550   -3.8780    4.4340 C   0  0  0  0  0  2  0  0  0  0  0  0
    4.6080   -3.1100    5.5860 C   0  0  0  0  0  2  0  0  0  0  0  0
    3.1560   -2.7480    5.2800 C   0  0  0  0  0  2  0  0  0  0  0  0
    2.3330   -3.9770    4.8990 C   0  0  0  0  0  2  0  0  0  0  0  0
    2.9690   -4.7360    3.7340 C   0  0  0  0  0  2  0  0  0  0  0  0
    9.1050   -4.6600   -1.2390 O   0  0  0  0  0  0  0  0  0  0  0  0
    9.0040   -4.3490   -0.0120 C   0  0  0  0  0  0  0  0  0  0  0  0
    9.7610   -3.5490    0.6220 O   0  0  0  0  0  1  0  0  0  0  0  0
  1  8  1  0  0  0  0
  2  1  2  0  0  0  0
  2  3  1  0  0  0  0
  3  4  1  0  0  0  0
  3  7  2  0  0  0  0
  4  5  2  0  0  0  0
  5  6  1  0  0  0  0
  5  9  1  0  0  0  0
  6 15  1  0  0  0  0
  7  6  1  0  0  0  0
  8  7  1  0  0  0  0
  9 10  1  0  0  0  0
 10 11  2  0  0  0  0
 12 11  1  0  0  0  0
 13 12  2  0  0  0  0
 14 13  1  0  0  0  0
 14  9  2  0  0  0  0
 15 16  1  0  0  0  0
 16 17  1  0  0  0  0
 18 17  1  0  0  0  0
 19 18  1  0  0  0  0
 20 15  1  0  0  0  0
 20 19  1  0  0  0  0
 21 22  2  0  0  0  0
 22 23  1  0  0  0  0
 22  1  1  0  0  0  0
M  END
>  <minimizedAffinity>
-5.77441645

$$$$
