
 OpenBabel09122222393D

 23 26  0  0  0  0  0  0  0  0999 V2000
    3.4190   -8.9720    2.7690 C   0  0  0  0  0  0  0  0  0  0  0  0
    4.5020   -8.9660    1.8880 C   0  0  0  0  0  3  0  0  0  0  0  0
    5.1350   -7.7190    1.9250 C   0  0  0  0  0  0  0  0  0  0  0  0
    6.2010   -7.1800    1.2940 N   0  0  0  0  0  0  0  0  0  0  0  0
    6.2900   -5.9440    1.7820 C   0  0  0  0  0  0  0  0  0  0  0  0
    5.2690   -5.6970    2.7040 N   0  0  0  0  0  0  0  0  0  0  0  0
    4.5630   -6.8570    2.7740 C   0  0  0  0  0  0  0  0  0  0  0  0
    3.2430   -7.4490    3.5920 S   0  0  0  0  0  0  0  0  0  0  0  0
    7.3210   -4.9990    1.3680 C   0  0  0  0  0  0  0  0  0  0  0  0
    7.9440   -5.1470    0.1220 C   0  0  0  0  0  3  0  0  0  0  0  0
    8.9430   -4.2570   -0.2780 C   0  0  0  0  0  3  0  0  0  0  0  0
    9.3380   -3.2250    0.5730 C   0  0  0  0  0  3  0  0  0  0  0  0
    8.7450   -3.0900    1.8280 C   0  0  0  0  0  3  0  0  0  0  0  0
    7.7460   -3.9810    2.2280 C   0  0  0  0  0  3  0  0  0  0  0  0
    4.9550   -4.4930    3.4610 C   0  0  0  0  0  3  0  0  0  0  0  0
    3.4720   -4.1060    3.3890 C   0  0  0  0  0  2  0  0  0  0  0  0
    3.2150   -2.7670    4.0810 C   0  0  0  0  0  2  0  0  0  0  0  0
    3.7370   -2.7630    5.5160 C   0  0  0  0  0  2  0  0  0  0  0  0
    5.2120   -3.1500    5.5850 C   0  0  0  0  0  2  0  0  0  0  0  0
    5.4690   -4.4970    4.9090 C   0  0  0  0  0  2  0  0  0  0  0  0
    1.9740  -10.6450    1.9490 O   0  0  0  0  0  0  0  0  0  0  0  0
    2.5250  -10.1420    2.9770 C   0  0  0  0  0  0  0  0  0  0  0  0
    2.3840  -10.5440    4.1730 O   0  0  0  0  0  1  0  0  0  0  0  0
  1 22  1  0  0  0  0
  1  8  1  0  0  0  0
  2  3  1  0  0  0  0
  2  1  2  0  0  0  0
  3  7  2  0  0  0  0
  4  5  2  0  0  0  0
  4  3  1  0  0  0  0
  5  6  1  0  0  0  0
  6  7  1  0  0  0  0
  6 15  1  0  0  0  0
  7  8  1  0  0  0  0
  9  5  1  0  0  0  0
  9 14  1  0  0  0  0
 10  9  2  0  0  0  0
 11 10  1  0  0  0  0
 11 12  2  0  0  0  0
 12 13  1  0  0  0  0
 13 14  2  0  0  0  0
 15 20  1  0  0  0  0
 16 15  1  0  0  0  0
 16 17  1  0  0  0  0
 17 18  1  0  0  0  0
 18 19  1  0  0  0  0
 20 19  1  0  0  0  0
 21 22  2  0  0  0  0
 22 23  1  0  0  0  0
M  END
>  <minimizedAffinity>
-6.43635321

$$$$
