11844937
  -OEChem-09172222013D

 73 78  0     0  0  0  0  0  0999 V2000
    2.7767    5.5381    0.4459 Cl  0  0  0  0  0  0  0  0  0  0  0  0
    2.6408   -1.0050   -0.5412 O   0  0  0  0  0  0  0  0  0  0  0  0
   -8.4999   -3.5481    0.4698 O   0  0  0  0  0  0  0  0  0  0  0  0
   -9.7629   -1.6584    0.4503 O   0  0  0  0  0  0  0  0  0  0  0  0
    8.7932   -3.5057   -0.3632 O   0  0  0  0  0  0  0  0  0  0  0  0
   -3.6770    0.1875   -0.1402 N   0  0  0  0  0  0  0  0  0  0  0  0
   -3.6919   -2.0280    0.0028 N   0  0  0  0  0  0  0  0  0  0  0  0
   -3.1620    1.5576   -0.2617 C   0  0  0  0  0  0  0  0  0  0  0  0
   -3.6513    2.2529   -1.5431 C   0  0  0  0  0  0  0  0  0  0  0  0
   -3.4558    2.4037    0.9884 C   0  0  0  0  0  0  0  0  0  0  0  0
   -3.0782    3.6637   -1.6630 C   0  0  0  0  0  0  0  0  0  0  0  0
   -2.8841    3.8136    0.8518 C   0  0  0  0  0  0  0  0  0  0  0  0
   -3.3738    4.4997   -0.4206 C   0  0  0  0  0  0  0  0  0  0  0  0
   -4.9963   -0.1594   -0.0177 C   0  0  0  0  0  0  0  0  0  0  0  0
   -2.9366   -0.9599   -0.1229 C   0  0  0  0  0  0  0  0  0  0  0  0
   -4.9799   -1.5487    0.0702 C   0  0  0  0  0  0  0  0  0  0  0  0
   -1.4948   -0.9713   -0.2312 C   0  0  0  0  0  0  0  0  0  0  0  0
   -6.1678    0.5975    0.0227 C   0  0  0  0  0  0  0  0  0  0  0  0
   -6.1951   -2.2407    0.2074 C   0  0  0  0  0  0  0  0  0  0  0  0
   -7.3683   -0.1076    0.1594 C   0  0  0  0  0  0  0  0  0  0  0  0
   -7.3840   -1.5015    0.2504 C   0  0  0  0  0  0  0  0  0  0  0  0
   -0.7120   -0.8999    0.9191 C   0  0  0  0  0  0  0  0  0  0  0  0
   -0.8936   -1.0541   -1.4851 C   0  0  0  0  0  0  0  0  0  0  0  0
    0.6789   -0.9112    0.8148 C   0  0  0  0  0  0  0  0  0  0  0  0
    0.4973   -1.0654   -1.5893 C   0  0  0  0  0  0  0  0  0  0  0  0
    1.2836   -0.9940   -0.4394 C   0  0  0  0  0  0  0  0  0  0  0  0
   -8.6531   -2.1977    0.3965 C   0  0  0  0  0  0  0  0  0  0  0  0
    3.3838   -0.9292    0.6745 C   0  0  0  0  0  0  0  0  0  0  0  0
    4.8494   -0.9227    0.3531 C   0  0  0  0  0  0  0  0  0  0  0  0
    5.5375    0.2680    0.1370 C   0  0  0  0  0  0  0  0  0  0  0  0
    5.5138   -2.1438    0.2761 C   0  0  0  0  0  0  0  0  0  0  0  0
    4.8651    1.5494    0.2124 C   0  0  0  0  0  0  0  0  0  0  0  0
    6.8768   -2.1742   -0.0191 C   0  0  0  0  0  0  0  0  0  0  0  0
    6.9005    0.2377   -0.1584 C   0  0  0  0  0  0  0  0  0  0  0  0
    7.5700   -0.9834   -0.2365 C   0  0  0  0  0  0  0  0  0  0  0  0
    4.2856    2.0985   -0.9300 C   0  0  0  0  0  0  0  0  0  0  0  0
    4.8001    2.2302    1.4269 C   0  0  0  0  0  0  0  0  0  0  0  0
    7.5754   -3.4472   -0.1006 C   0  0  0  0  0  0  0  0  0  0  0  0
    3.6392    3.3325   -0.8577 C   0  0  0  0  0  0  0  0  0  0  0  0
    4.1536    3.4641    1.4991 C   0  0  0  0  0  0  0  0  0  0  0  0
    3.5731    4.0152    0.3568 C   0  0  0  0  0  0  0  0  0  0  0  0
    6.8239   -4.7529    0.1358 C   0  0  0  0  0  0  0  0  0  0  0  0
   -2.0715    1.4832   -0.3417 H   0  0  0  0  0  0  0  0  0  0  0  0
   -4.7424    2.3205   -1.5781 H   0  0  0  0  0  0  0  0  0  0  0  0
   -3.3527    1.6656   -2.4205 H   0  0  0  0  0  0  0  0  0  0  0  0
   -3.0212    1.9215    1.8730 H   0  0  0  0  0  0  0  0  0  0  0  0
   -4.5295    2.4843    1.1810 H   0  0  0  0  0  0  0  0  0  0  0  0
   -1.9931    3.6047   -1.8132 H   0  0  0  0  0  0  0  0  0  0  0  0
   -3.4958    4.1571   -2.5479 H   0  0  0  0  0  0  0  0  0  0  0  0
   -3.1659    4.4117    1.7256 H   0  0  0  0  0  0  0  0  0  0  0  0
   -1.7882    3.7630    0.8402 H   0  0  0  0  0  0  0  0  0  0  0  0
   -4.4543    4.6745   -0.3476 H   0  0  0  0  0  0  0  0  0  0  0  0
   -2.8968    5.4817   -0.5160 H   0  0  0  0  0  0  0  0  0  0  0  0
   -6.1812    1.6776   -0.0444 H   0  0  0  0  0  0  0  0  0  0  0  0
   -6.1692   -3.3229    0.2758 H   0  0  0  0  0  0  0  0  0  0  0  0
   -8.2956    0.4606    0.1944 H   0  0  0  0  0  0  0  0  0  0  0  0
   -1.1704   -0.8355    1.9031 H   0  0  0  0  0  0  0  0  0  0  0  0
   -1.4934   -1.1093   -2.3904 H   0  0  0  0  0  0  0  0  0  0  0  0
    1.2229   -0.8585    1.7512 H   0  0  0  0  0  0  0  0  0  0  0  0
    0.9629   -1.1293   -2.5691 H   0  0  0  0  0  0  0  0  0  0  0  0
    3.1194   -0.0373    1.2531 H   0  0  0  0  0  0  0  0  0  0  0  0
    3.1711   -1.8076    1.2998 H   0  0  0  0  0  0  0  0  0  0  0  0
   -9.3607   -4.0083    0.5675 H   0  0  0  0  0  0  0  0  0  0  0  0
    4.9490   -3.0556    0.4460 H   0  0  0  0  0  0  0  0  0  0  0  0
    7.4571    1.1560   -0.3308 H   0  0  0  0  0  0  0  0  0  0  0  0
    8.6318   -0.9813   -0.4680 H   0  0  0  0  0  0  0  0  0  0  0  0
    4.3272    1.5786   -1.8842 H   0  0  0  0  0  0  0  0  0  0  0  0
    5.2472    1.8141    2.3266 H   0  0  0  0  0  0  0  0  0  0  0  0
    3.1908    3.7495   -1.7558 H   0  0  0  0  0  0  0  0  0  0  0  0
    4.1098    3.9847    2.4523 H   0  0  0  0  0  0  0  0  0  0  0  0
    6.0354   -4.8761   -0.6111 H   0  0  0  0  0  0  0  0  0  0  0  0
    6.4169   -4.7770    1.1500 H   0  0  0  0  0  0  0  0  0  0  0  0
    7.5211   -5.5905    0.0320 H   0  0  0  0  0  0  0  0  0  0  0  0
  1 41  1  0  0  0  0
  2 26  1  0  0  0  0
  2 28  1  0  0  0  0
  3 27  1  0  0  0  0
  3 63  1  0  0  0  0
  4 27  2  0  0  0  0
  5 38  2  0  0  0  0
  6  8  1  0  0  0  0
  6 14  1  0  0  0  0
  6 15  1  0  0  0  0
  7 15  2  0  0  0  0
  7 16  1  0  0  0  0
  8  9  1  0  0  0  0
  8 10  1  0  0  0  0
  8 43  1  0  0  0  0
  9 11  1  0  0  0  0
  9 44  1  0  0  0  0
  9 45  1  0  0  0  0
 10 12  1  0  0  0  0
 10 46  1  0  0  0  0
 10 47  1  0  0  0  0
 11 13  1  0  0  0  0
 11 48  1  0  0  0  0
 11 49  1  0  0  0  0
 12 13  1  0  0  0  0
 12 50  1  0  0  0  0
 12 51  1  0  0  0  0
 13 52  1  0  0  0  0
 13 53  1  0  0  0  0
 14 16  2  0  0  0  0
 14 18  1  0  0  0  0
 15 17  1  0  0  0  0
 16 19  1  0  0  0  0
 17 22  2  0  0  0  0
 17 23  1  0  0  0  0
 18 20  2  0  0  0  0
 18 54  1  0  0  0  0
 19 21  2  0  0  0  0
 19 55  1  0  0  0  0
 20 21  1  0  0  0  0
 20 56  1  0  0  0  0
 21 27  1  0  0  0  0
 22 24  1  0  0  0  0
 22 57  1  0  0  0  0
 23 25  2  0  0  0  0
 23 58  1  0  0  0  0
 24 26  2  0  0  0  0
 24 59  1  0  0  0  0
 25 26  1  0  0  0  0
 25 60  1  0  0  0  0
 28 29  1  0  0  0  0
 28 61  1  0  0  0  0
 28 62  1  0  0  0  0
 29 30  2  0  0  0  0
 29 31  1  0  0  0  0
 30 32  1  0  0  0  0
 30 34  1  0  0  0  0
 31 33  2  0  0  0  0
 31 64  1  0  0  0  0
 32 36  2  0  0  0  0
 32 37  1  0  0  0  0
 33 35  1  0  0  0  0
 33 38  1  0  0  0  0
 34 35  2  0  0  0  0
 34 65  1  0  0  0  0
 35 66  1  0  0  0  0
 36 39  1  0  0  0  0
 36 67  1  0  0  0  0
 37 40  2  0  0  0  0
 37 68  1  0  0  0  0
 38 42  1  0  0  0  0
 39 41  2  0  0  0  0
 39 69  1  0  0  0  0
 40 41  1  0  0  0  0
 40 70  1  0  0  0  0
 42 71  1  0  0  0  0
 42 72  1  0  0  0  0
 42 73  1  0  0  0  0
M  END
> <PUBCHEM_COMPOUND_CID>
11844937

> <PUBCHEM_CONFORMER_RMSD>
1.2

> <PUBCHEM_CONFORMER_DIVERSEORDER>
1
8
33
36
35
17
28
21
38
19
6
30
24
34
29
5
32
37
26
9
7
39
31
14
25
22
27
20
18
12
4
10
16
13
23
11
3
15
2

> <PUBCHEM_MMFF94_PARTIAL_CHARGES>
50
1 -0.18
14 -0.15
15 0.13
16 0.23
17 0.05
18 -0.15
19 -0.15
2 -0.36
20 -0.15
21 0.09
22 -0.15
23 -0.15
24 -0.15
25 -0.15
26 0.08
27 0.63
28 0.42
29 -0.14
3 -0.65
31 -0.15
33 0.09
34 -0.15
35 -0.15
36 -0.15
37 -0.15
38 0.42
39 -0.15
4 -0.57
40 -0.15
41 0.18
42 0.06
5 -0.57
54 0.15
55 0.15
56 0.15
57 0.15
58 0.15
59 0.15
6 0.05
60 0.15
63 0.5
64 0.15
65 0.15
66 0.15
67 0.15
68 0.15
69 0.15
7 -0.57
70 0.15
8 0.26

> <PUBCHEM_EFFECTIVE_ROTOR_COUNT>
9.2

> <PUBCHEM_PHARMACOPHORE_FEATURES>
12
1 2 acceptor
1 3 acceptor
1 4 acceptor
1 5 acceptor
3 3 4 27 anion
3 6 7 15 cation
5 6 7 14 15 16 rings
6 14 16 18 19 20 21 rings
6 17 22 23 24 25 26 rings
6 29 30 31 33 34 35 rings
6 32 36 37 39 40 41 rings
6 8 9 10 11 12 13 rings

> <PUBCHEM_HEAVY_ATOM_COUNT>
42

> <PUBCHEM_ATOM_DEF_STEREO_COUNT>
0

> <PUBCHEM_ATOM_UDEF_STEREO_COUNT>
0

> <PUBCHEM_BOND_DEF_STEREO_COUNT>
0

> <PUBCHEM_BOND_UDEF_STEREO_COUNT>
0

> <PUBCHEM_ISOTOPIC_ATOM_COUNT>
0

> <PUBCHEM_COMPONENT_COUNT>
1

> <PUBCHEM_CACTVS_TAUTO_COUNT>
2

> <PUBCHEM_CONFORMER_ID>
00B4BD4900000001

> <PUBCHEM_MMFF94_ENERGY>
123.5913

> <PUBCHEM_FEATURE_SELFOVERLAP>
61.065

> <PUBCHEM_SHAPE_FINGERPRINT>
10580692 12 18409449177000310158
117089 54 18408888421500825024
12107698 1 18410855460265493832
12166972 35 18344146990877068736
12664476 115 18334571373895976244
12677640 9 18269275673522901089
12925494 130 18339632327151050173
13560911 43 18409161121775156064
13811026 1 18409160039717352645
14092694 8 17561079232853305221
15131766 46 17698997714971063400
15264996 151 18411698790475591528
15840311 113 18335420227011152775
19301679 30 18125157135973544814
20721686 56 18335422421939998625
21133410 90 17203032007775480072
21315764 268 18410570699607484652
21927370 108 18187661193609217241
3044373 193 18341618165292917982
3552219 110 18202013157541257625
4112364 45 17560793390696622576
4144715 1 18336270063779620482
4197921 191 18334583460102895556
4625314 4 18410855478226448567
6086070 43 18262790758109229026
68570916 9 18128815425152938815

> <PUBCHEM_SHAPE_MULTIPOLES>
832.77
26.75
6.47
1.14
13.8
5.94
0.19
-27.72
-2.88
-6.07
-0.41
0
0.72
2.19

> <PUBCHEM_SHAPE_SELFOVERLAP>
1834.873

> <PUBCHEM_SHAPE_VOLUME>
449.6

> <PUBCHEM_COORDINATE_TYPE>
2
5
10

$$$$
