REMARK  Name = 
REMARK  9 active torsions:
REMARK  status: ('A' for Active; 'I' for Inactive)
REMARK    1  A    between atoms: C_1  and  C_2
REMARK    2  A    between atoms: C_2  and  C_4
REMARK    3  A    between atoms: C_7  and  C_8
REMARK    4  A    between atoms: C_15  and  C_16
REMARK    5  A    between atoms: C_16  and  O_17
REMARK    6  A    between atoms: O_17  and  C_18
REMARK    7  A    between atoms: C_21  and  C_22
REMARK    8  A    between atoms: C_26  and  C_27
REMARK    9  A    between atoms: N_33  and  C_34
REMARK                            x       y       z     vdW  Elec       q    Type
REMARK                         _______ _______ _______ _____ _____    ______ ____
ROOT
ATOM      1  C   UNL     1       3.932  -3.750  -3.640  0.00  0.00    +0.121 A 
ATOM      2  C   UNL     1       4.137  -5.038  -4.142  0.00  0.00    +0.046 A 
ATOM      3  C   UNL     1       4.152  -6.145  -3.289  0.00  0.00    +0.015 A 
ATOM      4  C   UNL     1       3.983  -5.972  -1.912  0.00  0.00    +0.018 A 
ATOM      5  C   UNL     1       3.764  -4.683  -1.414  0.00  0.00    +0.015 A 
ATOM      6  C   UNL     1       3.748  -3.576  -2.270  0.00  0.00    +0.046 A 
ENDROOT
BRANCH   4   7
ATOM      7  C   UNL     1       3.993  -7.109  -0.992  0.00  0.00    +0.142 A 
ATOM      8  N   UNL     1       2.980  -7.419  -0.207  0.00  0.00    -0.228 NA
ATOM      9  C   UNL     1       3.355  -8.550   0.474  0.00  0.00    +0.090 A 
ATOM     10  C   UNL     1       2.632  -9.305   1.412  0.00  0.00    +0.039 A 
ATOM     11  C   UNL     1       3.217 -10.447   1.994  0.00  0.00    -0.001 A 
ATOM     12  C   UNL     1       4.520 -10.805   1.615  0.00  0.00    +0.012 A 
ATOM     13  C   UNL     1       5.258 -10.064   0.683  0.00  0.00    +0.028 A 
ATOM     14  C   UNL     1       4.648  -8.932   0.127  0.00  0.00    +0.069 A 
ATOM     15  N   UNL     1       5.057  -7.973  -0.778  0.00  0.00    -0.320 N 
BRANCH  15  16
ATOM     16  C   UNL     1       6.391  -7.843  -1.360  0.00  0.00    +0.089 C 
ATOM     17  C   UNL     1       7.490  -7.626  -0.305  0.00  0.00    +0.025 C 
ATOM     18  C   UNL     1       8.858  -7.439  -0.961  0.00  0.00    +0.002 C 
ATOM     19  C   UNL     1       9.193  -8.591  -1.904  0.00  0.00    +0.000 C 
ATOM     20  C   UNL     1       8.107  -8.792  -2.958  0.00  0.00    +0.002 C 
ATOM     21  C   UNL     1       6.732  -8.990  -2.323  0.00  0.00    +0.025 C 
ENDBRANCH  15  16
BRANCH  11  22
ATOM     22  C   UNL     1       2.456 -11.273   3.012  0.00  0.00    +0.072 C 
ATOM     23  O   UNL     1       1.284 -10.888   3.317  0.00  0.00    -0.545 OA
ATOM     24  O   UNL     1       3.050 -12.293   3.487  0.00  0.00    -0.545 OA
ENDBRANCH  11  22
ENDBRANCH   4   7
BRANCH   1  25
ATOM     25  O   UNL     1       3.945  -2.769  -4.589  0.00  0.00    -0.487 OA
BRANCH  25  26
ATOM     26  C   UNL     1       3.508  -1.455  -4.248  0.00  0.00    +0.265 C 
BRANCH  26  31
ATOM     27  C   UNL     1      -0.011  -0.727  -2.951  0.00  0.00    +0.018 A 
ATOM     28  C   UNL     1      -0.794  -0.973  -4.080  0.00  0.00    +0.012 A 
ATOM     29  C   UNL     1      -0.195  -1.393  -5.268  0.00  0.00    +0.009 A 
ATOM     30  C   UNL     1       1.198  -1.569  -5.361  0.00  0.00    -0.011 A 
ATOM     31  C   UNL     1       1.997  -1.312  -4.222  0.00  0.00    -0.002 A 
ATOM     32  C   UNL     1       1.377  -0.887  -3.027  0.00  0.00    +0.019 A 
BRANCH  30  33
ATOM     33  C   UNL     1       1.762  -2.007  -6.645  0.00  0.00    -0.017 A 
ATOM     34  C   UNL     1       2.249  -1.073  -7.573  0.00  0.00    +0.010 A 
ATOM     35  C   UNL     1       2.779  -1.494  -8.796  0.00  0.00    +0.020 A 
ATOM     36  C   UNL     1       2.822  -2.853  -9.101  0.00  0.00    +0.041 A 
ATOM     37 CL   UNL     1       3.476  -3.369 -10.607  0.00  0.00    -0.084 Cl
ATOM     38  C   UNL     1       2.338  -3.794  -8.196  0.00  0.00    +0.020 A 
ATOM     39  C   UNL     1       1.808  -3.371  -6.975  0.00  0.00    +0.010 A 
ENDBRANCH  30  33
BRANCH  27  41
ATOM     40  C   UNL     1       0.033  -0.437  -0.388  0.00  0.00    +0.091 C 
ATOM     41  C   UNL     1      -0.688  -0.278  -1.701  0.00  0.00    +0.160 C 
ATOM     42  O   UNL     1      -1.806   0.228  -1.762  0.00  0.00    -0.292 OA
ENDBRANCH  27  41
ENDBRANCH  26  31
ENDBRANCH  25  26
ENDBRANCH   1  25
TORSDOF 8
