
 OpenBabel09182209113D

 42 47  0  0  0  0  0  0  0  0999 V2000
    4.5510   -4.3000    3.6230 C   0  0  0  0  0  0  0  0  0  0  0  0
    4.6790   -5.6820    3.7790 C   0  0  0  0  0  3  0  0  0  0  0  0
    3.6260   -6.4450    4.2910 C   0  0  0  0  0  3  0  0  0  0  0  0
    2.4330   -5.8260    4.6760 C   0  0  0  0  0  0  0  0  0  0  0  0
    2.3030   -4.4430    4.5040 C   0  0  0  0  0  3  0  0  0  0  0  0
    3.3580   -3.6810    3.9900 C   0  0  0  0  0  3  0  0  0  0  0  0
    1.3110   -6.5950    5.2140 C   0  0  0  0  0  0  0  0  0  0  0  0
    0.1060   -6.0930    5.3990 N   0  0  0  0  0  0  0  0  0  0  0  0
   -0.6660   -7.1180    5.8850 C   0  0  0  0  0  0  0  0  0  0  0  0
   -2.0300   -7.1240    6.2200 C   0  0  0  0  0  3  0  0  0  0  0  0
   -2.6280   -8.3030    6.7050 C   0  0  0  0  0  0  0  0  0  0  0  0
   -1.8370   -9.4550    6.8400 C   0  0  0  0  0  3  0  0  0  0  0  0
   -0.4750   -9.4690    6.5130 C   0  0  0  0  0  3  0  0  0  0  0  0
    0.0890   -8.2780    6.0370 C   0  0  0  0  0  0  0  0  0  0  0  0
    1.3610   -7.9120    5.6460 N   0  0  0  0  0  0  0  0  0  0  0  0
    2.5650   -8.7360    5.7320 C   0  0  0  0  0  3  0  0  0  0  0  0
    2.8730   -9.2050    7.1650 C   0  0  0  0  0  2  0  0  0  0  0  0
    4.1690  -10.0140    7.2160 C   0  0  0  0  0  2  0  0  0  0  0  0
    4.1460  -11.1780    6.2290 C   0  0  0  0  0  2  0  0  0  0  0  0
    3.8550  -10.7050    4.8060 C   0  0  0  0  0  2  0  0  0  0  0  0
    2.5590   -9.9010    4.7310 C   0  0  0  0  0  2  0  0  0  0  0  0
   -4.0970   -8.3290    7.0780 C   0  0  0  0  0  0  0  0  0  0  0  0
   -4.7150   -9.4310    6.9400 O   0  0  0  0  0  0  0  0  0  0  0  0
   -4.6040   -7.2420    7.5020 O   0  0  0  0  0  1  0  0  0  0  0  0
    5.6600   -3.6870    3.1140 O   0  0  0  0  0  0  0  0  0  0  0  0
    6.9080   -4.3780    3.1160 C   0  0  0  0  0  2  0  0  0  0  0  0
    9.3170   -3.2410    0.3780 C   0  0  0  0  0  0  0  0  0  0  0  0
    9.0530   -4.1580   -0.6410 C   0  0  0  0  0  3  0  0  0  0  0  0
    8.0820   -5.1430   -0.4610 C   0  0  0  0  0  3  0  0  0  0  0  0
    7.3580   -5.2430    0.7420 C   0  0  0  0  0  0  0  0  0  0  0  0
    7.6280   -4.3220    1.7810 C   0  0  0  0  0  0  0  0  0  0  0  0
    8.6140   -3.3310    1.5840 C   0  0  0  0  0  3  0  0  0  0  0  0
    6.3540   -6.3090    0.8660 C   0  0  0  0  0  0  0  0  0  0  0  0
    6.6290   -7.4740    1.6000 C   0  0  0  0  0  3  0  0  0  0  0  0
    5.6730   -8.4880    1.7100 C   0  0  0  0  0  3  0  0  0  0  0  0
    4.4370   -8.3460    1.0820 C   0  0  0  0  0  0  0  0  0  0  0  0
    3.2620   -9.5960    1.2200 Cl  0  0  0  0  0  0  0  0  0  0  0  0
    4.1490   -7.2010    0.3450 C   0  0  0  0  0  3  0  0  0  0  0  0
    5.1050   -6.1890    0.2350 C   0  0  0  0  0  3  0  0  0  0  0  0
    9.9780   -0.7510    0.2430 C   0  0  0  0  0  1  0  0  0  0  0  0
   10.3630   -2.2040    0.1470 C   0  0  0  0  0  0  0  0  0  0  0  0
   11.5180   -2.5480   -0.0960 O   0  0  0  0  0  0  0  0  0  0  0  0
  1  2  2  0  0  0  0
  1  6  1  0  0  0  0
  2  3  1  0  0  0  0
  3  4  2  0  0  0  0
  4  7  1  0  0  0  0
  5  4  1  0  0  0  0
  6  5  2  0  0  0  0
  7  8  2  0  0  0  0
  7 15  1  0  0  0  0
  8  9  1  0  0  0  0
  9 14  2  0  0  0  0
  9 10  1  0  0  0  0
 10 11  2  0  0  0  0
 11 12  1  0  0  0  0
 11 22  1  0  0  0  0
 13 12  2  0  0  0  0
 14 13  1  0  0  0  0
 15 16  1  0  0  0  0
 15 14  1  0  0  0  0
 16 17  1  0  0  0  0
 17 18  1  0  0  0  0
 19 18  1  0  0  0  0
 20 19  1  0  0  0  0
 21 20  1  0  0  0  0
 21 16  1  0  0  0  0
 22 24  1  0  0  0  0
 23 22  2  0  0  0  0
 25 26  1  0  0  0  0
 25  1  1  0  0  0  0
 27 32  1  0  0  0  0
 28 29  1  0  0  0  0
 28 27  2  0  0  0  0
 29 30  2  0  0  0  0
 30 33  1  0  0  0  0
 30 31  1  0  0  0  0
 31 26  1  0  0  0  0
 32 31  2  0  0  0  0
 33 34  1  0  0  0  0
 34 35  2  0  0  0  0
 36 37  1  0  0  0  0
 36 35  1  0  0  0  0
 38 36  2  0  0  0  0
 39 38  1  0  0  0  0
 39 33  2  0  0  0  0
 41 40  1  0  0  0  0
 41 27  1  0  0  0  0
 42 41  2  0  0  0  0
M  END
>  <minimizedAffinity>
-8.48383617

$$$$
