
 OpenBabel09182209113D

 42 47  0  0  0  0  0  0  0  0999 V2000
    5.1000  -11.5040    3.6270 C   0  0  0  0  0  0  0  0  0  0  0  0
    5.0940  -10.7080    2.4790 C   0  0  0  0  0  3  0  0  0  0  0  0
    4.7750   -9.3490    2.5510 C   0  0  0  0  0  3  0  0  0  0  0  0
    4.4340   -8.7730    3.7790 C   0  0  0  0  0  0  0  0  0  0  0  0
    4.4540   -9.5700    4.9290 C   0  0  0  0  0  3  0  0  0  0  0  0
    4.7750  -10.9300    4.8540 C   0  0  0  0  0  3  0  0  0  0  0  0
    4.0960   -7.3550    3.8890 C   0  0  0  0  0  0  0  0  0  0  0  0
    3.2840   -6.8690    4.8090 N   0  0  0  0  0  0  0  0  0  0  0  0
    3.2430   -5.5130    4.6060 C   0  0  0  0  0  0  0  0  0  0  0  0
    2.5520   -4.5260    5.3280 C   0  0  0  0  0  3  0  0  0  0  0  0
    2.6530   -3.1740    4.9420 C   0  0  0  0  0  0  0  0  0  0  0  0
    3.4530   -2.8470    3.8360 C   0  0  0  0  0  3  0  0  0  0  0  0
    4.1490   -3.8170    3.1030 C   0  0  0  0  0  3  0  0  0  0  0  0
    4.0220   -5.1510    3.5110 C   0  0  0  0  0  0  0  0  0  0  0  0
    4.5240   -6.3470    3.0380 N   0  0  0  0  0  0  0  0  0  0  0  0
    5.3090   -6.5370    1.8200 C   0  0  0  0  0  3  0  0  0  0  0  0
    4.4600   -6.4710    0.5390 C   0  0  0  0  0  2  0  0  0  0  0  0
    5.3120   -6.7310   -0.7040 C   0  0  0  0  0  2  0  0  0  0  0  0
    6.5140   -5.7930   -0.7690 C   0  0  0  0  0  2  0  0  0  0  0  0
    7.3620   -5.8740    0.4980 C   0  0  0  0  0  2  0  0  0  0  0  0
    6.5310   -5.6080    1.7520 C   0  0  0  0  0  2  0  0  0  0  0  0
    1.9110   -2.0940    5.7030 C   0  0  0  0  0  0  0  0  0  0  0  0
    2.0650   -2.0590    6.9640 O   0  0  0  0  0  1  0  0  0  0  0  0
    1.1870   -1.3010    5.0210 O   0  0  0  0  0  0  0  0  0  0  0  0
    5.4280  -12.8100    3.4030 O   0  0  0  0  0  0  0  0  0  0  0  0
    4.4120  -13.8100    3.4560 C   0  0  0  0  0  2  0  0  0  0  0  0
    3.4350  -14.9770   -0.0480 C   0  0  0  0  0  0  0  0  0  0  0  0
    2.2360  -14.2930   -0.2590 C   0  0  0  0  0  3  0  0  0  0  0  0
    1.7400  -13.4340    0.7220 C   0  0  0  0  0  3  0  0  0  0  0  0
    2.4210  -13.2440    1.9390 C   0  0  0  0  0  0  0  0  0  0  0  0
    3.6310  -13.9420    2.1610 C   0  0  0  0  0  0  0  0  0  0  0  0
    4.1210  -14.8080    1.1600 C   0  0  0  0  0  3  0  0  0  0  0  0
    1.8370  -12.3300    2.9300 C   0  0  0  0  0  0  0  0  0  0  0  0
    1.4910  -11.0150    2.5810 C   0  0  0  0  0  3  0  0  0  0  0  0
    0.9420  -10.1470    3.5290 C   0  0  0  0  0  3  0  0  0  0  0  0
    0.7370  -10.5880    4.8350 C   0  0  0  0  0  0  0  0  0  0  0  0
    0.0590   -9.5180    6.0000 Cl  0  0  0  0  0  0  0  0  0  0  0  0
    1.0790  -11.8870    5.2020 C   0  0  0  0  0  3  0  0  0  0  0  0
    1.6290  -12.7520    4.2530 C   0  0  0  0  0  3  0  0  0  0  0  0
    5.3660  -16.3450   -1.0750 C   0  0  0  0  0  1  0  0  0  0  0  0
    3.9320  -15.8860   -1.1200 C   0  0  0  0  0  0  0  0  0  0  0  0
    3.1660  -16.2600   -2.0050 O   0  0  0  0  0  0  0  0  0  0  0  0
  1  6  1  0  0  0  0
  2  3  1  0  0  0  0
  2  1  2  0  0  0  0
  3  4  2  0  0  0  0
  4  7  1  0  0  0  0
  4  5  1  0  0  0  0
  6  5  2  0  0  0  0
  7  8  2  0  0  0  0
  9  8  1  0  0  0  0
  9 10  1  0  0  0  0
 11 10  2  0  0  0  0
 11 22  1  0  0  0  0
 12 11  1  0  0  0  0
 13 14  1  0  0  0  0
 13 12  2  0  0  0  0
 14  9  2  0  0  0  0
 15 14  1  0  0  0  0
 15  7  1  0  0  0  0
 16 15  1  0  0  0  0
 17 16  1  0  0  0  0
 18 17  1  0  0  0  0
 19 18  1  0  0  0  0
 19 20  1  0  0  0  0
 20 21  1  0  0  0  0
 21 16  1  0  0  0  0
 22 23  1  0  0  0  0
 24 22  2  0  0  0  0
 25 26  1  0  0  0  0
 25  1  1  0  0  0  0
 27 32  1  0  0  0  0
 28 27  2  0  0  0  0
 28 29  1  0  0  0  0
 29 30  2  0  0  0  0
 30 31  1  0  0  0  0
 30 33  1  0  0  0  0
 31 26  1  0  0  0  0
 32 31  2  0  0  0  0
 33 39  1  0  0  0  0
 34 33  2  0  0  0  0
 34 35  1  0  0  0  0
 35 36  2  0  0  0  0
 36 38  1  0  0  0  0
 36 37  1  0  0  0  0
 39 38  2  0  0  0  0
 41 40  1  0  0  0  0
 41 27  1  0  0  0  0
 42 41  2  0  0  0  0
M  END
>  <minimizedAffinity>
-9.04539967

$$$$
