
 OpenBabel09132209403D

 42 47  0  0  0  0  0  0  0  0999 V2000
    8.1820   -5.1190   -0.4120 C   0  0  0  0  0  0  0  0  0  0  0  0
    8.3930   -5.8360    0.7680 C   0  0  0  0  0  3  0  0  0  0  0  0
    7.3870   -6.6450    1.3050 C   0  0  0  0  0  3  0  0  0  0  0  0
    6.1420   -6.7270    0.6730 C   0  0  0  0  0  0  0  0  0  0  0  0
    5.9390   -6.0190   -0.5160 C   0  0  0  0  0  3  0  0  0  0  0  0
    6.9480   -5.2110   -1.0520 C   0  0  0  0  0  3  0  0  0  0  0  0
    5.0680   -7.5640    1.2080 C   0  0  0  0  0  0  0  0  0  0  0  0
    4.6010   -8.6310    0.5910 N   0  0  0  0  0  0  0  0  0  0  0  0
    3.6350   -9.1560    1.4110 C   0  0  0  0  0  0  0  0  0  0  0  0
    2.8490  -10.3070    1.2380 C   0  0  0  0  0  3  0  0  0  0  0  0
    1.9050  -10.6670    2.2200 C   0  0  0  0  0  0  0  0  0  0  0  0
    1.7760   -9.8590    3.3600 C   0  0  0  0  0  3  0  0  0  0  0  0
    2.5490   -8.7060    3.5510 C   0  0  0  0  0  3  0  0  0  0  0  0
    3.4740   -8.3750    2.5520 C   0  0  0  0  0  0  0  0  0  0  0  0
    4.3680   -7.3360    2.3830 N   0  0  0  0  0  0  0  0  0  0  0  0
    4.5100   -6.1660    3.2470 C   0  0  0  0  0  3  0  0  0  0  0  0
    4.0460   -4.8610    2.5760 C   0  0  0  0  0  2  0  0  0  0  0  0
    4.2660   -3.6580    3.4930 C   0  0  0  0  0  2  0  0  0  0  0  0
    3.6110   -3.8620    4.8560 C   0  0  0  0  0  2  0  0  0  0  0  0
    4.0870   -5.1500    5.5250 C   0  0  0  0  0  2  0  0  0  0  0  0
    3.8680   -6.3660    4.6280 C   0  0  0  0  0  2  0  0  0  0  0  0
    1.0440  -11.9030    2.0500 C   0  0  0  0  0  0  0  0  0  0  0  0
    0.1400  -12.1080    2.9200 O   0  0  0  0  0  1  0  0  0  0  0  0
    1.2910  -12.6450    1.0470 O   0  0  0  0  0  0  0  0  0  0  0  0
    9.2520   -4.3730   -0.8140 O   0  0  0  0  0  0  0  0  0  0  0  0
   10.0790   -3.7460    0.1640 C   0  0  0  0  0  2  0  0  0  0  0  0
   10.7120   -0.3080   -1.3780 C   0  0  0  0  0  0  0  0  0  0  0  0
   10.2640    0.5490   -0.3720 C   0  0  0  0  0  3  0  0  0  0  0  0
    9.7680    0.0260    0.8230 C   0  0  0  0  0  3  0  0  0  0  0  0
    9.6990   -1.3630    1.0380 C   0  0  0  0  0  0  0  0  0  0  0  0
   10.1430   -2.2360    0.0180 C   0  0  0  0  0  0  0  0  0  0  0  0
   10.6420   -1.6920   -1.1860 C   0  0  0  0  0  3  0  0  0  0  0  0
    9.1590   -1.8440    2.3170 C   0  0  0  0  0  0  0  0  0  0  0  0
    8.1610   -2.8310    2.3510 C   0  0  0  0  0  3  0  0  0  0  0  0
    7.6470   -3.2820    3.5700 C   0  0  0  0  0  3  0  0  0  0  0  0
    8.1240   -2.7450    4.7640 C   0  0  0  0  0  0  0  0  0  0  0  0
    7.4900   -3.3020    6.2640 Cl  0  0  0  0  0  0  0  0  0  0  0  0
    9.1090   -1.7610    4.7510 C   0  0  0  0  0  3  0  0  0  0  0  0
    9.6220   -1.3120    3.5310 C   0  0  0  0  0  3  0  0  0  0  0  0
   12.1290    1.4980   -2.5560 C   0  0  0  0  0  1  0  0  0  0  0  0
   11.2340    0.2900   -2.6410 C   0  0  0  0  0  0  0  0  0  0  0  0
   10.9430   -0.2190   -3.7210 O   0  0  0  0  0  0  0  0  0  0  0  0
  1  2  1  0  0  0  0
  2  3  2  0  0  0  0
  4  7  1  0  0  0  0
  4  3  1  0  0  0  0
  5  4  2  0  0  0  0
  6  5  1  0  0  0  0
  6  1  2  0  0  0  0
  7 15  1  0  0  0  0
  8  7  2  0  0  0  0
  8  9  1  0  0  0  0
  9 14  1  0  0  0  0
 10  9  2  0  0  0  0
 10 11  1  0  0  0  0
 11 12  2  0  0  0  0
 12 13  1  0  0  0  0
 14 13  2  0  0  0  0
 15 14  1  0  0  0  0
 15 16  1  0  0  0  0
 16 21  1  0  0  0  0
 17 16  1  0  0  0  0
 17 18  1  0  0  0  0
 18 19  1  0  0  0  0
 19 20  1  0  0  0  0
 21 20  1  0  0  0  0
 22 11  1  0  0  0  0
 22 23  1  0  0  0  0
 24 22  2  0  0  0  0
 25  1  1  0  0  0  0
 25 26  1  0  0  0  0
 27 32  2  0  0  0  0
 27 28  1  0  0  0  0
 28 29  2  0  0  0  0
 29 30  1  0  0  0  0
 30 33  1  0  0  0  0
 31 26  1  0  0  0  0
 31 30  2  0  0  0  0
 32 31  1  0  0  0  0
 33 34  2  0  0  0  0
 33 39  1  0  0  0  0
 34 35  1  0  0  0  0
 35 36  2  0  0  0  0
 36 37  1  0  0  0  0
 38 36  1  0  0  0  0
 39 38  2  0  0  0  0
 41 40  1  0  0  0  0
 41 27  1  0  0  0  0
 42 41  2  0  0  0  0
M  END
>  <minimizedAffinity>
-10.3468771

$$$$

 OpenBabel09132209403D

 42 47  0  0  0  0  0  0  0  0999 V2000
    2.5850   -9.2400    2.7200 C   0  0  0  0  0  0  0  0  0  0  0  0
    3.1440   -8.5060    3.7700 C   0  0  0  0  0  3  0  0  0  0  0  0
    4.1520   -7.5680    3.5310 C   0  0  0  0  0  3  0  0  0  0  0  0
    4.6320   -7.3690    2.2330 C   0  0  0  0  0  0  0  0  0  0  0  0
    4.0610   -8.0950    1.1820 C   0  0  0  0  0  3  0  0  0  0  0  0
    3.0500   -9.0320    1.4230 C   0  0  0  0  0  3  0  0  0  0  0  0
    5.6860   -6.3950    1.9490 C   0  0  0  0  0  0  0  0  0  0  0  0
    6.6480   -6.6000    1.0710 N   0  0  0  0  0  0  0  0  0  0  0  0
    7.4120   -5.4600    1.0680 C   0  0  0  0  0  0  0  0  0  0  0  0
    8.5410   -5.1470    0.2940 C   0  0  0  0  0  3  0  0  0  0  0  0
    9.1790   -3.9010    0.4540 C   0  0  0  0  0  0  0  0  0  0  0  0
    8.6610   -2.9940    1.3910 C   0  0  0  0  0  3  0  0  0  0  0  0
    7.5380   -3.2880    2.1740 C   0  0  0  0  0  3  0  0  0  0  0  0
    6.9310   -4.5370    1.9930 C   0  0  0  0  0  0  0  0  0  0  0  0
    5.8530   -5.1710    2.5790 N   0  0  0  0  0  0  0  0  0  0  0  0
    5.0660   -4.6780    3.7070 C   0  0  0  0  0  3  0  0  0  0  0  0
    5.9130   -3.9310    4.7520 C   0  0  0  0  0  2  0  0  0  0  0  0
    5.0600   -3.4840    5.9390 C   0  0  0  0  0  2  0  0  0  0  0  0
    3.8560   -2.6610    5.4890 C   0  0  0  0  0  2  0  0  0  0  0  0
    3.0100   -3.4120    4.4640 C   0  0  0  0  0  2  0  0  0  0  0  0
    3.8430   -3.8610    3.2640 C   0  0  0  0  0  2  0  0  0  0  0  0
   10.4020   -3.5460   -0.3690 C   0  0  0  0  0  0  0  0  0  0  0  0
   11.4200   -4.2970   -0.2540 O   0  0  0  0  0  1  0  0  0  0  0  0
   10.3170   -2.5180   -1.1140 O   0  0  0  0  0  0  0  0  0  0  0  0
    1.6140  -10.1190    3.1040 O   0  0  0  0  0  0  0  0  0  0  0  0
    1.7340  -11.4960    2.7550 C   0  0  0  0  0  2  0  0  0  0  0  0
    4.7210  -12.4050    4.9580 C   0  0  0  0  0  0  0  0  0  0  0  0
    5.4550  -13.2450    4.1200 C   0  0  0  0  0  3  0  0  0  0  0  0
    5.0020  -13.5140    2.8290 C   0  0  0  0  0  3  0  0  0  0  0  0
    3.8030  -12.9600    2.3450 C   0  0  0  0  0  0  0  0  0  0  0  0
    3.0500  -12.1140    3.1940 C   0  0  0  0  0  0  0  0  0  0  0  0
    3.5200  -11.8510    4.4980 C   0  0  0  0  0  3  0  0  0  0  0  0
    3.3820  -13.2910    0.9770 C   0  0  0  0  0  0  0  0  0  0  0  0
    3.7700  -12.4900   -0.1090 C   0  0  0  0  0  3  0  0  0  0  0  0
    3.3630  -12.8060   -1.4080 C   0  0  0  0  0  3  0  0  0  0  0  0
    2.5600  -13.9230   -1.6300 C   0  0  0  0  0  0  0  0  0  0  0  0
    2.0600  -14.3100   -3.2310 Cl  0  0  0  0  0  0  0  0  0  0  0  0
    2.1600  -14.7260   -0.5650 C   0  0  0  0  0  3  0  0  0  0  0  0
    2.5670  -14.4080    0.7320 C   0  0  0  0  0  3  0  0  0  0  0  0
    6.3870  -12.9700    6.8440 C   0  0  0  0  0  1  0  0  0  0  0  0
    5.2370  -12.1430    6.3320 C   0  0  0  0  0  0  0  0  0  0  0  0
    4.7340  -11.2520    7.0120 O   0  0  0  0  0  0  0  0  0  0  0  0
  1 25  1  0  0  0  0
  1  2  1  0  0  0  0
  3  2  2  0  0  0  0
  4  3  1  0  0  0  0
  5  6  1  0  0  0  0
  5  4  2  0  0  0  0
  6  1  2  0  0  0  0
  7  4  1  0  0  0  0
  7 15  1  0  0  0  0
  8  7  2  0  0  0  0
  9  8  1  0  0  0  0
  9 14  1  0  0  0  0
 10 11  1  0  0  0  0
 10  9  2  0  0  0  0
 11 12  2  0  0  0  0
 12 13  1  0  0  0  0
 14 13  2  0  0  0  0
 14 15  1  0  0  0  0
 15 16  1  0  0  0  0
 16 17  1  0  0  0  0
 17 18  1  0  0  0  0
 19 18  1  0  0  0  0
 20 19  1  0  0  0  0
 21 16  1  0  0  0  0
 21 20  1  0  0  0  0
 22 23  1  0  0  0  0
 22 11  1  0  0  0  0
 24 22  2  0  0  0  0
 26 25  1  0  0  0  0
 26 31  1  0  0  0  0
 27 41  1  0  0  0  0
 28 27  2  0  0  0  0
 29 28  1  0  0  0  0
 30 29  2  0  0  0  0
 30 31  1  0  0  0  0
 31 32  2  0  0  0  0
 32 27  1  0  0  0  0
 33 30  1  0  0  0  0
 34 33  2  0  0  0  0
 35 34  1  0  0  0  0
 36 35  2  0  0  0  0
 36 38  1  0  0  0  0
 37 36  1  0  0  0  0
 38 39  2  0  0  0  0
 39 33  1  0  0  0  0
 41 40  1  0  0  0  0
 41 42  2  0  0  0  0
M  END
>  <minimizedAffinity>
-9.31458855

$$$$

 OpenBabel09132209403D

 42 47  0  0  0  0  0  0  0  0999 V2000
    2.7640   -9.4260    2.1140 C   0  0  0  0  0  0  0  0  0  0  0  0
    3.0990   -8.9850    0.8310 C   0  0  0  0  0  3  0  0  0  0  0  0
    4.0980   -8.0260    0.6410 C   0  0  0  0  0  3  0  0  0  0  0  0
    4.7620   -7.4770    1.7430 C   0  0  0  0  0  0  0  0  0  0  0  0
    4.4340   -7.9310    3.0250 C   0  0  0  0  0  3  0  0  0  0  0  0
    3.4340   -8.8920    3.2120 C   0  0  0  0  0  3  0  0  0  0  0  0
    5.8120   -6.4720    1.5790 C   0  0  0  0  0  0  0  0  0  0  0  0
    6.8100   -6.5950    0.7270 N   0  0  0  0  0  0  0  0  0  0  0  0
    7.5580   -5.4500    0.8460 C   0  0  0  0  0  0  0  0  0  0  0  0
    8.7120   -5.0650    0.1440 C   0  0  0  0  0  3  0  0  0  0  0  0
    9.3250   -3.8280    0.4280 C   0  0  0  0  0  0  0  0  0  0  0  0
    8.7580   -3.0050    1.4130 C   0  0  0  0  0  3  0  0  0  0  0  0
    7.6090   -3.3730    2.1250 C   0  0  0  0  0  3  0  0  0  0  0  0
    7.0280   -4.6100    1.8210 C   0  0  0  0  0  0  0  0  0  0  0  0
    5.9370   -5.3000    2.3110 N   0  0  0  0  0  0  0  0  0  0  0  0
    5.1000   -4.9080    3.4420 C   0  0  0  0  0  3  0  0  0  0  0  0
    5.8920   -4.2230    4.5690 C   0  0  0  0  0  2  0  0  0  0  0  0
    4.9880   -3.8810    5.7530 C   0  0  0  0  0  2  0  0  0  0  0  0
    3.7810   -3.0530    5.3210 C   0  0  0  0  0  2  0  0  0  0  0  0
    2.9900   -3.7450    4.2130 C   0  0  0  0  0  2  0  0  0  0  0  0
    3.8740   -4.0870    3.0150 C   0  0  0  0  0  2  0  0  0  0  0  0
   10.5740   -3.3950   -0.3140 C   0  0  0  0  0  0  0  0  0  0  0  0
   11.6050   -4.1280   -0.1980 O   0  0  0  0  0  1  0  0  0  0  0  0
   10.4960   -2.3250   -0.9980 O   0  0  0  0  0  0  0  0  0  0  0  0
    1.7700  -10.3610    2.1440 O   0  0  0  0  0  0  0  0  0  0  0  0
    2.0310  -11.6460    2.7040 C   0  0  0  0  0  2  0  0  0  0  0  0
    2.9300  -13.6380   -0.4300 C   0  0  0  0  0  0  0  0  0  0  0  0
    4.1420  -14.2250   -0.0640 C   0  0  0  0  0  3  0  0  0  0  0  0
    4.6740  -13.9970    1.2060 C   0  0  0  0  0  3  0  0  0  0  0  0
    4.0150  -13.1720    2.1360 C   0  0  0  0  0  0  0  0  0  0  0  0
    2.7910  -12.5680    1.7670 C   0  0  0  0  0  0  0  0  0  0  0  0
    2.2650  -12.8070    0.4790 C   0  0  0  0  0  3  0  0  0  0  0  0
    4.6360  -12.9710    3.4530 C   0  0  0  0  0  0  0  0  0  0  0  0
    5.1360  -11.7140    3.8280 C   0  0  0  0  0  3  0  0  0  0  0  0
    5.7310  -11.5280    5.0790 C   0  0  0  0  0  3  0  0  0  0  0  0
    5.8350  -12.6010    5.9620 C   0  0  0  0  0  0  0  0  0  0  0  0
    6.5670  -12.3700    7.5020 Cl  0  0  0  0  0  0  0  0  0  0  0  0
    5.3510  -13.8570    5.6060 C   0  0  0  0  0  3  0  0  0  0  0  0
    4.7570  -14.0400    4.3550 C   0  0  0  0  0  3  0  0  0  0  0  0
    2.3160  -15.3290   -2.2790 C   0  0  0  0  0  1  0  0  0  0  0  0
    2.3950  -13.9040   -1.7950 C   0  0  0  0  0  0  0  0  0  0  0  0
    2.0120  -12.9680   -2.4930 O   0  0  0  0  0  0  0  0  0  0  0  0
  1 25  1  0  0  0  0
  1  6  1  0  0  0  0
  2  1  2  0  0  0  0
  3  2  1  0  0  0  0
  3  4  2  0  0  0  0
  4  5  1  0  0  0  0
  5  6  2  0  0  0  0
  7  4  1  0  0  0  0
  7 15  1  0  0  0  0
  8  9  1  0  0  0  0
  8  7  2  0  0  0  0
  9 14  1  0  0  0  0
 10 11  1  0  0  0  0
 10  9  2  0  0  0  0
 11 12  2  0  0  0  0
 12 13  1  0  0  0  0
 14 13  2  0  0  0  0
 14 15  1  0  0  0  0
 15 16  1  0  0  0  0
 16 17  1  0  0  0  0
 17 18  1  0  0  0  0
 19 18  1  0  0  0  0
 20 19  1  0  0  0  0
 21 16  1  0  0  0  0
 21 20  1  0  0  0  0
 22 23  1  0  0  0  0
 22 11  1  0  0  0  0
 24 22  2  0  0  0  0
 25 26  1  0  0  0  0
 27 28  2  0  0  0  0
 27 32  1  0  0  0  0
 28 29  1  0  0  0  0
 29 30  2  0  0  0  0
 30 33  1  0  0  0  0
 31 30  1  0  0  0  0
 31 26  1  0  0  0  0
 32 31  2  0  0  0  0
 33 34  2  0  0  0  0
 33 39  1  0  0  0  0
 34 35  1  0  0  0  0
 35 36  2  0  0  0  0
 36 37  1  0  0  0  0
 38 36  1  0  0  0  0
 39 38  2  0  0  0  0
 40 41  1  0  0  0  0
 41 27  1  0  0  0  0
 42 41  2  0  0  0  0
M  END
>  <minimizedAffinity>
-9.14965916

$$$$

 OpenBabel09132209403D

 42 47  0  0  0  0  0  0  0  0999 V2000
    5.1000  -11.5040    3.6270 C   0  0  0  0  0  0  0  0  0  0  0  0
    5.0940  -10.7080    2.4790 C   0  0  0  0  0  3  0  0  0  0  0  0
    4.7750   -9.3490    2.5510 C   0  0  0  0  0  3  0  0  0  0  0  0
    4.4340   -8.7730    3.7790 C   0  0  0  0  0  0  0  0  0  0  0  0
    4.4540   -9.5700    4.9290 C   0  0  0  0  0  3  0  0  0  0  0  0
    4.7750  -10.9300    4.8540 C   0  0  0  0  0  3  0  0  0  0  0  0
    4.0960   -7.3550    3.8890 C   0  0  0  0  0  0  0  0  0  0  0  0
    3.2840   -6.8690    4.8090 N   0  0  0  0  0  0  0  0  0  0  0  0
    3.2430   -5.5130    4.6060 C   0  0  0  0  0  0  0  0  0  0  0  0
    2.5520   -4.5260    5.3280 C   0  0  0  0  0  3  0  0  0  0  0  0
    2.6530   -3.1740    4.9420 C   0  0  0  0  0  0  0  0  0  0  0  0
    3.4530   -2.8470    3.8360 C   0  0  0  0  0  3  0  0  0  0  0  0
    4.1490   -3.8170    3.1030 C   0  0  0  0  0  3  0  0  0  0  0  0
    4.0220   -5.1510    3.5110 C   0  0  0  0  0  0  0  0  0  0  0  0
    4.5240   -6.3470    3.0380 N   0  0  0  0  0  0  0  0  0  0  0  0
    5.3090   -6.5370    1.8200 C   0  0  0  0  0  3  0  0  0  0  0  0
    4.4600   -6.4710    0.5390 C   0  0  0  0  0  2  0  0  0  0  0  0
    5.3120   -6.7310   -0.7040 C   0  0  0  0  0  2  0  0  0  0  0  0
    6.5140   -5.7930   -0.7690 C   0  0  0  0  0  2  0  0  0  0  0  0
    7.3620   -5.8740    0.4980 C   0  0  0  0  0  2  0  0  0  0  0  0
    6.5310   -5.6080    1.7520 C   0  0  0  0  0  2  0  0  0  0  0  0
    1.9110   -2.0940    5.7030 C   0  0  0  0  0  0  0  0  0  0  0  0
    2.0650   -2.0590    6.9640 O   0  0  0  0  0  1  0  0  0  0  0  0
    1.1870   -1.3010    5.0210 O   0  0  0  0  0  0  0  0  0  0  0  0
    5.4280  -12.8100    3.4030 O   0  0  0  0  0  0  0  0  0  0  0  0
    4.4120  -13.8100    3.4560 C   0  0  0  0  0  2  0  0  0  0  0  0
    3.4350  -14.9770   -0.0480 C   0  0  0  0  0  0  0  0  0  0  0  0
    2.2360  -14.2930   -0.2590 C   0  0  0  0  0  3  0  0  0  0  0  0
    1.7400  -13.4340    0.7220 C   0  0  0  0  0  3  0  0  0  0  0  0
    2.4210  -13.2440    1.9390 C   0  0  0  0  0  0  0  0  0  0  0  0
    3.6310  -13.9420    2.1610 C   0  0  0  0  0  0  0  0  0  0  0  0
    4.1210  -14.8080    1.1600 C   0  0  0  0  0  3  0  0  0  0  0  0
    1.8370  -12.3300    2.9300 C   0  0  0  0  0  0  0  0  0  0  0  0
    1.4910  -11.0150    2.5810 C   0  0  0  0  0  3  0  0  0  0  0  0
    0.9420  -10.1470    3.5290 C   0  0  0  0  0  3  0  0  0  0  0  0
    0.7370  -10.5880    4.8350 C   0  0  0  0  0  0  0  0  0  0  0  0
    0.0590   -9.5180    6.0000 Cl  0  0  0  0  0  0  0  0  0  0  0  0
    1.0790  -11.8870    5.2020 C   0  0  0  0  0  3  0  0  0  0  0  0
    1.6290  -12.7520    4.2530 C   0  0  0  0  0  3  0  0  0  0  0  0
    5.3660  -16.3450   -1.0750 C   0  0  0  0  0  1  0  0  0  0  0  0
    3.9320  -15.8860   -1.1200 C   0  0  0  0  0  0  0  0  0  0  0  0
    3.1660  -16.2600   -2.0050 O   0  0  0  0  0  0  0  0  0  0  0  0
  1  6  1  0  0  0  0
  2  3  1  0  0  0  0
  2  1  2  0  0  0  0
  3  4  2  0  0  0  0
  4  7  1  0  0  0  0
  4  5  1  0  0  0  0
  6  5  2  0  0  0  0
  7  8  2  0  0  0  0
  9  8  1  0  0  0  0
  9 10  1  0  0  0  0
 11 10  2  0  0  0  0
 11 22  1  0  0  0  0
 12 11  1  0  0  0  0
 13 14  1  0  0  0  0
 13 12  2  0  0  0  0
 14  9  2  0  0  0  0
 15 14  1  0  0  0  0
 15  7  1  0  0  0  0
 16 15  1  0  0  0  0
 17 16  1  0  0  0  0
 18 17  1  0  0  0  0
 19 18  1  0  0  0  0
 19 20  1  0  0  0  0
 20 21  1  0  0  0  0
 21 16  1  0  0  0  0
 22 23  1  0  0  0  0
 24 22  2  0  0  0  0
 25 26  1  0  0  0  0
 25  1  1  0  0  0  0
 27 32  1  0  0  0  0
 28 27  2  0  0  0  0
 28 29  1  0  0  0  0
 29 30  2  0  0  0  0
 30 31  1  0  0  0  0
 30 33  1  0  0  0  0
 31 26  1  0  0  0  0
 32 31  2  0  0  0  0
 33 39  1  0  0  0  0
 34 33  2  0  0  0  0
 34 35  1  0  0  0  0
 35 36  2  0  0  0  0
 36 38  1  0  0  0  0
 36 37  1  0  0  0  0
 39 38  2  0  0  0  0
 41 40  1  0  0  0  0
 41 27  1  0  0  0  0
 42 41  2  0  0  0  0
M  END
>  <minimizedAffinity>
-9.04539967

$$$$

 OpenBabel09132209403D

 42 47  0  0  0  0  0  0  0  0999 V2000
    7.2120   -6.7490    1.1450 C   0  0  0  0  0  0  0  0  0  0  0  0
    5.9600   -6.1840    0.8870 C   0  0  0  0  0  3  0  0  0  0  0  0
    4.8000   -6.7290    1.4430 C   0  0  0  0  0  3  0  0  0  0  0  0
    4.8770   -7.8670    2.2520 C   0  0  0  0  0  0  0  0  0  0  0  0
    6.1330   -8.4220    2.5200 C   0  0  0  0  0  3  0  0  0  0  0  0
    7.2940   -7.8730    1.9630 C   0  0  0  0  0  3  0  0  0  0  0  0
    3.6830   -8.4620    2.8500 C   0  0  0  0  0  0  0  0  0  0  0  0
    2.9530   -7.8620    3.7700 N   0  0  0  0  0  0  0  0  0  0  0  0
    1.9160   -8.7150    4.0530 C   0  0  0  0  0  0  0  0  0  0  0  0
    0.8400   -8.5450    4.9400 C   0  0  0  0  0  3  0  0  0  0  0  0
   -0.1250   -9.5620    5.0760 C   0  0  0  0  0  0  0  0  0  0  0  0
    0.0140  -10.7300    4.3100 C   0  0  0  0  0  3  0  0  0  0  0  0
    1.0810  -10.9200    3.4220 C   0  0  0  0  0  3  0  0  0  0  0  0
    2.0250   -9.8900    3.3150 C   0  0  0  0  0  0  0  0  0  0  0  0
    3.1850   -9.7290    2.5850 N   0  0  0  0  0  0  0  0  0  0  0  0
    3.8200  -10.7340    1.7340 C   0  0  0  0  0  3  0  0  0  0  0  0
    4.1720  -12.0270    2.4890 C   0  0  0  0  0  2  0  0  0  0  0  0
    4.8850  -13.0250    1.5760 C   0  0  0  0  0  2  0  0  0  0  0  0
    4.0790  -13.3050    0.3100 C   0  0  0  0  0  2  0  0  0  0  0  0
    3.7460  -12.0200   -0.4430 C   0  0  0  0  0  2  0  0  0  0  0  0
    3.0250  -11.0120    0.4500 C   0  0  0  0  0  2  0  0  0  0  0  0
   -1.2910   -9.4010    6.0310 C   0  0  0  0  0  0  0  0  0  0  0  0
   -2.2810  -10.1830    5.8800 O   0  0  0  0  0  0  0  0  0  0  0  0
   -1.1900   -8.4920    6.9150 O   0  0  0  0  0  1  0  0  0  0  0  0
    8.2520   -6.1120    0.5330 O   0  0  0  0  0  0  0  0  0  0  0  0
    8.1610   -4.7140    0.2660 C   0  0  0  0  0  2  0  0  0  0  0  0
    8.0490   -3.1580    3.7530 C   0  0  0  0  0  0  0  0  0  0  0  0
    9.1650   -2.3190    3.7330 C   0  0  0  0  0  3  0  0  0  0  0  0
    9.9560   -2.2340    2.5870 C   0  0  0  0  0  3  0  0  0  0  0  0
    9.6590   -2.9900    1.4380 C   0  0  0  0  0  0  0  0  0  0  0  0
    8.5350   -3.8480    1.4560 C   0  0  0  0  0  0  0  0  0  0  0  0
    7.7440   -3.9240    2.6230 C   0  0  0  0  0  3  0  0  0  0  0  0
   10.5380   -2.8570    0.2680 C   0  0  0  0  0  0  0  0  0  0  0  0
   11.6020   -3.7490    0.0630 C   0  0  0  0  0  3  0  0  0  0  0  0
   12.4400   -3.6150   -1.0480 C   0  0  0  0  0  3  0  0  0  0  0  0
   12.2220   -2.5830   -1.9590 C   0  0  0  0  0  0  0  0  0  0  0  0
   13.2550   -2.4210   -3.3260 Cl  0  0  0  0  0  0  0  0  0  0  0  0
   11.1760   -1.6840   -1.7690 C   0  0  0  0  0  3  0  0  0  0  0  0
   10.3400   -1.8200   -0.6580 C   0  0  0  0  0  3  0  0  0  0  0  0
    7.7630   -2.5780    6.2500 C   0  0  0  0  0  1  0  0  0  0  0  0
    7.2310   -3.2220    4.9970 C   0  0  0  0  0  0  0  0  0  0  0  0
    6.1350   -3.7770    4.9770 O   0  0  0  0  0  0  0  0  0  0  0  0
  1  6  1  0  0  0  0
  2  1  2  0  0  0  0
  2  3  1  0  0  0  0
  3  4  2  0  0  0  0
  4  5  1  0  0  0  0
  4  7  1  0  0  0  0
  6  5  2  0  0  0  0
  7  8  2  0  0  0  0
  8  9  1  0  0  0  0
  9 10  1  0  0  0  0
 10 11  2  0  0  0  0
 11 22  1  0  0  0  0
 12 11  1  0  0  0  0
 13 12  2  0  0  0  0
 14 13  1  0  0  0  0
 14  9  2  0  0  0  0
 15  7  1  0  0  0  0
 15 14  1  0  0  0  0
 16 17  1  0  0  0  0
 16 15  1  0  0  0  0
 18 17  1  0  0  0  0
 19 18  1  0  0  0  0
 20 19  1  0  0  0  0
 20 21  1  0  0  0  0
 21 16  1  0  0  0  0
 22 24  1  0  0  0  0
 23 22  2  0  0  0  0
 25  1  1  0  0  0  0
 26 25  1  0  0  0  0
 26 31  1  0  0  0  0
 27 41  1  0  0  0  0
 28 27  1  0  0  0  0
 29 28  2  0  0  0  0
 30 31  2  0  0  0  0
 30 29  1  0  0  0  0
 31 32  1  0  0  0  0
 32 27  2  0  0  0  0
 33 30  1  0  0  0  0
 34 33  1  0  0  0  0
 35 34  2  0  0  0  0
 36 38  2  0  0  0  0
 36 35  1  0  0  0  0
 37 36  1  0  0  0  0
 38 39  1  0  0  0  0
 39 33  2  0  0  0  0
 41 40  1  0  0  0  0
 42 41  2  0  0  0  0
M  END
>  <minimizedAffinity>
-8.59974861

$$$$

 OpenBabel09132209403D

 42 47  0  0  0  0  0  0  0  0999 V2000
    4.5510   -4.3000    3.6230 C   0  0  0  0  0  0  0  0  0  0  0  0
    4.6790   -5.6820    3.7790 C   0  0  0  0  0  3  0  0  0  0  0  0
    3.6260   -6.4450    4.2910 C   0  0  0  0  0  3  0  0  0  0  0  0
    2.4330   -5.8260    4.6760 C   0  0  0  0  0  0  0  0  0  0  0  0
    2.3030   -4.4430    4.5040 C   0  0  0  0  0  3  0  0  0  0  0  0
    3.3580   -3.6810    3.9900 C   0  0  0  0  0  3  0  0  0  0  0  0
    1.3110   -6.5950    5.2140 C   0  0  0  0  0  0  0  0  0  0  0  0
    0.1060   -6.0930    5.3990 N   0  0  0  0  0  0  0  0  0  0  0  0
   -0.6660   -7.1180    5.8850 C   0  0  0  0  0  0  0  0  0  0  0  0
   -2.0300   -7.1240    6.2200 C   0  0  0  0  0  3  0  0  0  0  0  0
   -2.6280   -8.3030    6.7050 C   0  0  0  0  0  0  0  0  0  0  0  0
   -1.8370   -9.4550    6.8400 C   0  0  0  0  0  3  0  0  0  0  0  0
   -0.4750   -9.4690    6.5130 C   0  0  0  0  0  3  0  0  0  0  0  0
    0.0890   -8.2780    6.0370 C   0  0  0  0  0  0  0  0  0  0  0  0
    1.3610   -7.9120    5.6460 N   0  0  0  0  0  0  0  0  0  0  0  0
    2.5650   -8.7360    5.7320 C   0  0  0  0  0  3  0  0  0  0  0  0
    2.8730   -9.2050    7.1650 C   0  0  0  0  0  2  0  0  0  0  0  0
    4.1690  -10.0140    7.2160 C   0  0  0  0  0  2  0  0  0  0  0  0
    4.1460  -11.1780    6.2290 C   0  0  0  0  0  2  0  0  0  0  0  0
    3.8550  -10.7050    4.8060 C   0  0  0  0  0  2  0  0  0  0  0  0
    2.5590   -9.9010    4.7310 C   0  0  0  0  0  2  0  0  0  0  0  0
   -4.0970   -8.3290    7.0780 C   0  0  0  0  0  0  0  0  0  0  0  0
   -4.7150   -9.4310    6.9400 O   0  0  0  0  0  0  0  0  0  0  0  0
   -4.6040   -7.2420    7.5020 O   0  0  0  0  0  1  0  0  0  0  0  0
    5.6600   -3.6870    3.1140 O   0  0  0  0  0  0  0  0  0  0  0  0
    6.9080   -4.3780    3.1160 C   0  0  0  0  0  2  0  0  0  0  0  0
    9.3170   -3.2410    0.3780 C   0  0  0  0  0  0  0  0  0  0  0  0
    9.0530   -4.1580   -0.6410 C   0  0  0  0  0  3  0  0  0  0  0  0
    8.0820   -5.1430   -0.4610 C   0  0  0  0  0  3  0  0  0  0  0  0
    7.3580   -5.2430    0.7420 C   0  0  0  0  0  0  0  0  0  0  0  0
    7.6280   -4.3220    1.7810 C   0  0  0  0  0  0  0  0  0  0  0  0
    8.6140   -3.3310    1.5840 C   0  0  0  0  0  3  0  0  0  0  0  0
    6.3540   -6.3090    0.8660 C   0  0  0  0  0  0  0  0  0  0  0  0
    6.6290   -7.4740    1.6000 C   0  0  0  0  0  3  0  0  0  0  0  0
    5.6730   -8.4880    1.7100 C   0  0  0  0  0  3  0  0  0  0  0  0
    4.4370   -8.3460    1.0820 C   0  0  0  0  0  0  0  0  0  0  0  0
    3.2620   -9.5960    1.2200 Cl  0  0  0  0  0  0  0  0  0  0  0  0
    4.1490   -7.2010    0.3450 C   0  0  0  0  0  3  0  0  0  0  0  0
    5.1050   -6.1890    0.2350 C   0  0  0  0  0  3  0  0  0  0  0  0
    9.9780   -0.7510    0.2430 C   0  0  0  0  0  1  0  0  0  0  0  0
   10.3630   -2.2040    0.1470 C   0  0  0  0  0  0  0  0  0  0  0  0
   11.5180   -2.5480   -0.0960 O   0  0  0  0  0  0  0  0  0  0  0  0
  1  2  2  0  0  0  0
  1  6  1  0  0  0  0
  2  3  1  0  0  0  0
  3  4  2  0  0  0  0
  4  7  1  0  0  0  0
  5  4  1  0  0  0  0
  6  5  2  0  0  0  0
  7  8  2  0  0  0  0
  7 15  1  0  0  0  0
  8  9  1  0  0  0  0
  9 14  2  0  0  0  0
  9 10  1  0  0  0  0
 10 11  2  0  0  0  0
 11 12  1  0  0  0  0
 11 22  1  0  0  0  0
 13 12  2  0  0  0  0
 14 13  1  0  0  0  0
 15 16  1  0  0  0  0
 15 14  1  0  0  0  0
 16 17  1  0  0  0  0
 17 18  1  0  0  0  0
 19 18  1  0  0  0  0
 20 19  1  0  0  0  0
 21 20  1  0  0  0  0
 21 16  1  0  0  0  0
 22 24  1  0  0  0  0
 23 22  2  0  0  0  0
 25 26  1  0  0  0  0
 25  1  1  0  0  0  0
 27 32  1  0  0  0  0
 28 29  1  0  0  0  0
 28 27  2  0  0  0  0
 29 30  2  0  0  0  0
 30 33  1  0  0  0  0
 30 31  1  0  0  0  0
 31 26  1  0  0  0  0
 32 31  2  0  0  0  0
 33 34  1  0  0  0  0
 34 35  2  0  0  0  0
 36 37  1  0  0  0  0
 36 35  1  0  0  0  0
 38 36  2  0  0  0  0
 39 38  1  0  0  0  0
 39 33  2  0  0  0  0
 41 40  1  0  0  0  0
 41 27  1  0  0  0  0
 42 41  2  0  0  0  0
M  END
>  <minimizedAffinity>
-8.48383617

$$$$

 OpenBabel09132209403D

 42 47  0  0  0  0  0  0  0  0999 V2000
    3.0770   -9.1940    1.8130 C   0  0  0  0  0  0  0  0  0  0  0  0
    3.0730   -8.3120    0.7290 C   0  0  0  0  0  3  0  0  0  0  0  0
    4.0670   -7.3400    0.5930 C   0  0  0  0  0  3  0  0  0  0  0  0
    5.0720   -7.2240    1.5580 C   0  0  0  0  0  0  0  0  0  0  0  0
    5.0820   -8.1180    2.6350 C   0  0  0  0  0  3  0  0  0  0  0  0
    4.0860   -9.0920    2.7680 C   0  0  0  0  0  3  0  0  0  0  0  0
    6.1280   -6.2180    1.4460 C   0  0  0  0  0  0  0  0  0  0  0  0
    7.1370   -6.3130    0.6020 N   0  0  0  0  0  0  0  0  0  0  0  0
    7.8870   -5.1770    0.7720 C   0  0  0  0  0  0  0  0  0  0  0  0
    9.0510   -4.7700    0.1000 C   0  0  0  0  0  3  0  0  0  0  0  0
    9.6650   -3.5470    0.4370 C   0  0  0  0  0  0  0  0  0  0  0  0
    9.0890   -2.7590    1.4460 C   0  0  0  0  0  3  0  0  0  0  0  0
    7.9300   -3.1480    2.1290 C   0  0  0  0  0  3  0  0  0  0  0  0
    7.3480   -4.3710    1.7710 C   0  0  0  0  0  0  0  0  0  0  0  0
    6.2490   -5.0750    2.2220 N   0  0  0  0  0  0  0  0  0  0  0  0
    5.3990   -4.7220    3.3570 C   0  0  0  0  0  3  0  0  0  0  0  0
    6.1290   -3.8780    4.4170 C   0  0  0  0  0  2  0  0  0  0  0  0
    5.2200   -3.5810    5.6090 C   0  0  0  0  0  2  0  0  0  0  0  0
    3.9090   -2.9340    5.1710 C   0  0  0  0  0  2  0  0  0  0  0  0
    3.1810   -3.7820    4.1310 C   0  0  0  0  0  2  0  0  0  0  0  0
    4.0690   -4.0840    2.9260 C   0  0  0  0  0  2  0  0  0  0  0  0
   10.9250   -3.0920   -0.2720 C   0  0  0  0  0  0  0  0  0  0  0  0
   12.0360   -3.3470    0.2900 O   0  0  0  0  0  1  0  0  0  0  0  0
   10.7750   -2.4860   -1.3810 O   0  0  0  0  0  0  0  0  0  0  0  0
    2.0440  -10.0860    1.8150 O   0  0  0  0  0  0  0  0  0  0  0  0
    1.8610  -10.9470    2.9370 C   0  0  0  0  0  2  0  0  0  0  0  0
   -0.6950   -8.9150    4.9200 C   0  0  0  0  0  0  0  0  0  0  0  0
   -0.1970   -9.0110    6.2200 C   0  0  0  0  0  3  0  0  0  0  0  0
    0.9790   -9.7190    6.4680 C   0  0  0  0  0  3  0  0  0  0  0  0
    1.6810  -10.3550    5.4280 C   0  0  0  0  0  0  0  0  0  0  0  0
    1.1760  -10.2690    4.1090 C   0  0  0  0  0  0  0  0  0  0  0  0
   -0.0160   -9.5490    3.8740 C   0  0  0  0  0  3  0  0  0  0  0  0
    2.9090  -11.0890    5.7620 C   0  0  0  0  0  0  0  0  0  0  0  0
    2.8860  -12.4790    5.9590 C   0  0  0  0  0  3  0  0  0  0  0  0
    4.0550  -13.1720    6.2830 C   0  0  0  0  0  3  0  0  0  0  0  0
    5.2570  -12.4790    6.4160 C   0  0  0  0  0  0  0  0  0  0  0  0
    6.6960  -13.3350    6.8130 Cl  0  0  0  0  0  0  0  0  0  0  0  0
    5.2990  -11.1000    6.2300 C   0  0  0  0  0  3  0  0  0  0  0  0
    4.1290  -10.4090    5.9070 C   0  0  0  0  0  3  0  0  0  0  0  0
   -2.2500   -6.9630    5.5750 C   0  0  0  0  0  1  0  0  0  0  0  0
   -1.9550   -8.1510    4.6960 C   0  0  0  0  0  0  0  0  0  0  0  0
   -2.7190   -8.4870    3.7940 O   0  0  0  0  0  0  0  0  0  0  0  0
  1 25  1  0  0  0  0
  1  6  1  0  0  0  0
  2  1  2  0  0  0  0
  3  2  1  0  0  0  0
  3  4  2  0  0  0  0
  4  5  1  0  0  0  0
  5  6  2  0  0  0  0
  7  4  1  0  0  0  0
  7 15  1  0  0  0  0
  8  9  1  0  0  0  0
  8  7  2  0  0  0  0
  9 14  1  0  0  0  0
 10 11  1  0  0  0  0
 10  9  2  0  0  0  0
 11 12  2  0  0  0  0
 12 13  1  0  0  0  0
 14 13  2  0  0  0  0
 14 15  1  0  0  0  0
 15 16  1  0  0  0  0
 16 17  1  0  0  0  0
 17 18  1  0  0  0  0
 19 18  1  0  0  0  0
 20 19  1  0  0  0  0
 21 16  1  0  0  0  0
 21 20  1  0  0  0  0
 22 23  1  0  0  0  0
 22 11  1  0  0  0  0
 24 22  2  0  0  0  0
 25 26  1  0  0  0  0
 26 31  1  0  0  0  0
 27 28  1  0  0  0  0
 28 29  2  0  0  0  0
 30 33  1  0  0  0  0
 30 29  1  0  0  0  0
 31 30  2  0  0  0  0
 32 31  1  0  0  0  0
 32 27  2  0  0  0  0
 33 39  2  0  0  0  0
 33 34  1  0  0  0  0
 34 35  2  0  0  0  0
 35 36  1  0  0  0  0
 36 37  1  0  0  0  0
 38 36  2  0  0  0  0
 39 38  1  0  0  0  0
 41 27  1  0  0  0  0
 41 40  1  0  0  0  0
 42 41  2  0  0  0  0
M  END
>  <minimizedAffinity>
-8.46971989

$$$$

 OpenBabel09132209403D

 42 47  0  0  0  0  0  0  0  0999 V2000
    6.9460   -6.3970    1.0570 C   0  0  0  0  0  0  0  0  0  0  0  0
    7.1600   -7.4920    1.9000 C   0  0  0  0  0  3  0  0  0  0  0  0
    6.0990   -8.0750    2.5990 C   0  0  0  0  0  3  0  0  0  0  0  0
    4.8080   -7.5520    2.4790 C   0  0  0  0  0  0  0  0  0  0  0  0
    4.5950   -6.4650    1.6240 C   0  0  0  0  0  3  0  0  0  0  0  0
    5.6580   -5.8830    0.9240 C   0  0  0  0  0  3  0  0  0  0  0  0
    3.6760   -8.1380    3.1960 C   0  0  0  0  0  0  0  0  0  0  0  0
    3.0560   -9.2340    2.8050 N   0  0  0  0  0  0  0  0  0  0  0  0
    2.0830   -9.4780    3.7410 C   0  0  0  0  0  0  0  0  0  0  0  0
    1.1610  -10.5360    3.8120 C   0  0  0  0  0  3  0  0  0  0  0  0
    0.2390  -10.5920    4.8760 C   0  0  0  0  0  0  0  0  0  0  0  0
    0.2670   -9.5800    5.8480 C   0  0  0  0  0  3  0  0  0  0  0  0
    1.1770   -8.5160    5.7940 C   0  0  0  0  0  3  0  0  0  0  0  0
    2.0770   -8.4890    4.7210 C   0  0  0  0  0  0  0  0  0  0  0  0
    3.0730   -7.6160    4.3310 N   0  0  0  0  0  0  0  0  0  0  0  0
    3.3970   -6.3350    4.9560 C   0  0  0  0  0  3  0  0  0  0  0  0
    2.4990   -5.1840    4.4700 C   0  0  0  0  0  2  0  0  0  0  0  0
    2.9100   -3.8560    5.1060 C   0  0  0  0  0  2  0  0  0  0  0  0
    2.9460   -3.9470    6.6290 C   0  0  0  0  0  2  0  0  0  0  0  0
    3.8510   -5.0810    7.1050 C   0  0  0  0  0  2  0  0  0  0  0  0
    3.4520   -6.4200    6.4880 C   0  0  0  0  0  2  0  0  0  0  0  0
   -0.7670  -11.7220    4.9690 C   0  0  0  0  0  0  0  0  0  0  0  0
   -0.3150  -12.9090    4.9400 O   0  0  0  0  0  0  0  0  0  0  0  0
   -1.9930  -11.3960    5.0680 O   0  0  0  0  0  1  0  0  0  0  0  0
    8.0740   -5.9330    0.4430 O   0  0  0  0  0  0  0  0  0  0  0  0
    8.2020   -4.5400    0.1690 C   0  0  0  0  0  2  0  0  0  0  0  0
    8.1730   -3.1080    3.7100 C   0  0  0  0  0  0  0  0  0  0  0  0
    9.3010   -2.2840    3.7000 C   0  0  0  0  0  3  0  0  0  0  0  0
   10.0720   -2.1700    2.5440 C   0  0  0  0  0  3  0  0  0  0  0  0
    9.7440   -2.8800    1.3740 C   0  0  0  0  0  0  0  0  0  0  0  0
    8.6080   -3.7230    1.3820 C   0  0  0  0  0  0  0  0  0  0  0  0
    7.8370   -3.8290    2.5590 C   0  0  0  0  0  3  0  0  0  0  0  0
   10.6050   -2.7170    0.1940 C   0  0  0  0  0  0  0  0  0  0  0  0
   10.4340   -1.6290   -0.6770 C   0  0  0  0  0  3  0  0  0  0  0  0
   11.2520   -1.4820   -1.8010 C   0  0  0  0  0  3  0  0  0  0  0  0
   12.2440   -2.4250   -2.0640 C   0  0  0  0  0  0  0  0  0  0  0  0
   13.2500   -2.2410   -3.4480 Cl  0  0  0  0  0  0  0  0  0  0  0  0
   12.4240   -3.5130   -1.2150 C   0  0  0  0  0  3  0  0  0  0  0  0
   11.6060   -3.6590   -0.0930 C   0  0  0  0  0  3  0  0  0  0  0  0
    7.8580   -2.4730    6.1910 C   0  0  0  0  0  1  0  0  0  0  0  0
    7.3760   -3.2050    4.9660 C   0  0  0  0  0  0  0  0  0  0  0  0
    6.3350   -3.8590    4.9770 O   0  0  0  0  0  0  0  0  0  0  0  0
  1  2  1  0  0  0  0
  2  3  2  0  0  0  0
  4  3  1  0  0  0  0
  4  7  1  0  0  0  0
  5  4  2  0  0  0  0
  6  1  2  0  0  0  0
  6  5  1  0  0  0  0
  7 15  1  0  0  0  0
  8  7  2  0  0  0  0
  8  9  1  0  0  0  0
  9 10  2  0  0  0  0
  9 14  1  0  0  0  0
 10 11  1  0  0  0  0
 11 22  1  0  0  0  0
 11 12  2  0  0  0  0
 13 12  1  0  0  0  0
 14 13  2  0  0  0  0
 15 14  1  0  0  0  0
 15 16  1  0  0  0  0
 16 21  1  0  0  0  0
 17 16  1  0  0  0  0
 17 18  1  0  0  0  0
 18 19  1  0  0  0  0
 19 20  1  0  0  0  0
 21 20  1  0  0  0  0
 22 24  1  0  0  0  0
 23 22  2  0  0  0  0
 25  1  1  0  0  0  0
 26 25  1  0  0  0  0
 26 31  1  0  0  0  0
 27 41  1  0  0  0  0
 28 27  1  0  0  0  0
 29 28  2  0  0  0  0
 30 31  2  0  0  0  0
 30 29  1  0  0  0  0
 31 32  1  0  0  0  0
 32 27  2  0  0  0  0
 33 30  1  0  0  0  0
 34 33  2  0  0  0  0
 35 34  1  0  0  0  0
 36 35  2  0  0  0  0
 36 38  1  0  0  0  0
 37 36  1  0  0  0  0
 38 39  2  0  0  0  0
 39 33  1  0  0  0  0
 41 42  2  0  0  0  0
 41 40  1  0  0  0  0
M  END
>  <minimizedAffinity>
-8.34347725

$$$$

 OpenBabel09132209403D

 42 47  0  0  0  0  0  0  0  0999 V2000
    1.0940  -13.1910    3.1820 C   0  0  0  0  0  0  0  0  0  0  0  0
    1.5620  -12.9470    4.4750 C   0  0  0  0  0  3  0  0  0  0  0  0
    1.8600  -11.6480    4.8970 C   0  0  0  0  0  3  0  0  0  0  0  0
    1.7120  -10.5730    4.0140 C   0  0  0  0  0  0  0  0  0  0  0  0
    1.2290  -10.8190    2.7240 C   0  0  0  0  0  3  0  0  0  0  0  0
    0.9310  -12.1200    2.3050 C   0  0  0  0  0  3  0  0  0  0  0  0
    2.0140   -9.2020    4.4230 C   0  0  0  0  0  0  0  0  0  0  0  0
    3.2050   -8.6510    4.2980 N   0  0  0  0  0  0  0  0  0  0  0  0
    3.0820   -7.3640    4.7590 C   0  0  0  0  0  0  0  0  0  0  0  0
    4.0460   -6.3440    4.8180 C   0  0  0  0  0  3  0  0  0  0  0  0
    3.6980   -5.0790    5.3330 C   0  0  0  0  0  0  0  0  0  0  0  0
    2.3830   -4.8700    5.7760 C   0  0  0  0  0  3  0  0  0  0  0  0
    1.4090   -5.8750    5.7270 C   0  0  0  0  0  3  0  0  0  0  0  0
    1.7890   -7.1210    5.2130 C   0  0  0  0  0  0  0  0  0  0  0  0
    1.1320   -8.3220    5.0330 N   0  0  0  0  0  0  0  0  0  0  0  0
   -0.2270   -8.6400    5.4640 C   0  0  0  0  0  3  0  0  0  0  0  0
   -0.5220   -8.1910    6.9070 C   0  0  0  0  0  2  0  0  0  0  0  0
   -1.9330   -8.5930    7.3340 C   0  0  0  0  0  2  0  0  0  0  0  0
   -2.9860   -8.0850    6.3540 C   0  0  0  0  0  2  0  0  0  0  0  0
   -2.6980   -8.5460    4.9270 C   0  0  0  0  0  2  0  0  0  0  0  0
   -1.2940   -8.1460    4.4760 C   0  0  0  0  0  2  0  0  0  0  0  0
    4.7250   -3.9660    5.4110 C   0  0  0  0  0  0  0  0  0  0  0  0
    5.9490   -4.3040    5.4630 O   0  0  0  0  0  1  0  0  0  0  0  0
    4.2820   -2.7740    5.4180 O   0  0  0  0  0  0  0  0  0  0  0  0
    0.8480  -14.5060    2.9120 O   0  0  0  0  0  0  0  0  0  0  0  0
    1.9260  -15.3600    2.5340 C   0  0  0  0  0  2  0  0  0  0  0  0
    2.6980  -14.7550   -1.1580 C   0  0  0  0  0  0  0  0  0  0  0  0
    3.8940  -14.0390   -1.0920 C   0  0  0  0  0  3  0  0  0  0  0  0
    4.4730  -13.7580    0.1460 C   0  0  0  0  0  3  0  0  0  0  0  0
    3.8700  -14.1770    1.3470 C   0  0  0  0  0  0  0  0  0  0  0  0
    2.6520  -14.8950    1.2850 C   0  0  0  0  0  0  0  0  0  0  0  0
    2.0780  -15.1710    0.0250 C   0  0  0  0  0  3  0  0  0  0  0  0
    4.5310  -13.8410    2.6150 C   0  0  0  0  0  0  0  0  0  0  0  0
    4.9040  -14.8470    3.5200 C   0  0  0  0  0  3  0  0  0  0  0  0
    5.5280  -14.5230    4.7280 C   0  0  0  0  0  3  0  0  0  0  0  0
    5.7790  -13.1890    5.0410 C   0  0  0  0  0  0  0  0  0  0  0  0
    6.5480  -12.7920    6.5290 Cl  0  0  0  0  0  0  0  0  0  0  0  0
    5.4110  -12.1760    4.1590 C   0  0  0  0  0  3  0  0  0  0  0  0
    4.7870  -12.5030    2.9530 C   0  0  0  0  0  3  0  0  0  0  0  0
    1.3670  -16.3260   -2.7120 C   0  0  0  0  0  1  0  0  0  0  0  0
    2.1100  -15.0330   -2.4990 C   0  0  0  0  0  0  0  0  0  0  0  0
    2.2230  -14.2020   -3.3980 O   0  0  0  0  0  0  0  0  0  0  0  0
  1  2  1  0  0  0  0
  2  3  2  0  0  0  0
  4  7  1  0  0  0  0
  4  3  1  0  0  0  0
  5  4  2  0  0  0  0
  6  5  1  0  0  0  0
  6  1  2  0  0  0  0
  7 15  1  0  0  0  0
  8  7  2  0  0  0  0
  8  9  1  0  0  0  0
  9 10  2  0  0  0  0
  9 14  1  0  0  0  0
 10 11  1  0  0  0  0
 11 22  1  0  0  0  0
 11 12  2  0  0  0  0
 13 12  1  0  0  0  0
 14 13  2  0  0  0  0
 15 14  1  0  0  0  0
 15 16  1  0  0  0  0
 16 17  1  0  0  0  0
 17 18  1  0  0  0  0
 19 18  1  0  0  0  0
 20 19  1  0  0  0  0
 21 20  1  0  0  0  0
 21 16  1  0  0  0  0
 22 24  2  0  0  0  0
 22 23  1  0  0  0  0
 25  1  1  0  0  0  0
 26 25  1  0  0  0  0
 27 28  2  0  0  0  0
 27 32  1  0  0  0  0
 28 29  1  0  0  0  0
 29 30  2  0  0  0  0
 30 33  1  0  0  0  0
 31 30  1  0  0  0  0
 31 26  1  0  0  0  0
 32 31  2  0  0  0  0
 33 39  2  0  0  0  0
 33 34  1  0  0  0  0
 34 35  2  0  0  0  0
 35 36  1  0  0  0  0
 36 37  1  0  0  0  0
 38 36  2  0  0  0  0
 39 38  1  0  0  0  0
 40 41  1  0  0  0  0
 41 27  1  0  0  0  0
 42 41  2  0  0  0  0
M  END
>  <minimizedAffinity>
-8.26622677

$$$$

 OpenBabel09132209403D

 42 47  0  0  0  0  0  0  0  0999 V2000
    6.5420   -6.6230    1.0100 C   0  0  0  0  0  0  0  0  0  0  0  0
    5.2430   -6.3840    0.5550 C   0  0  0  0  0  3  0  0  0  0  0  0
    4.1550   -7.0690    1.1020 C   0  0  0  0  0  3  0  0  0  0  0  0
    4.3590   -8.0250    2.1020 C   0  0  0  0  0  0  0  0  0  0  0  0
    5.6600   -8.2520    2.5650 C   0  0  0  0  0  3  0  0  0  0  0  0
    6.7470   -7.5630    2.0170 C   0  0  0  0  0  3  0  0  0  0  0  0
    3.2430   -8.7600    2.6960 C   0  0  0  0  0  0  0  0  0  0  0  0
    2.4580   -8.2600    3.6310 N   0  0  0  0  0  0  0  0  0  0  0  0
    1.5240   -9.2280    3.9050 C   0  0  0  0  0  0  0  0  0  0  0  0
    0.4440   -9.1950    4.8010 C   0  0  0  0  0  3  0  0  0  0  0  0
   -0.4010  -10.3150    4.9230 C   0  0  0  0  0  0  0  0  0  0  0  0
   -0.1390  -11.4470    4.1360 C   0  0  0  0  0  3  0  0  0  0  0  0
    0.9340  -11.5010    3.2380 C   0  0  0  0  0  3  0  0  0  0  0  0
    1.7570  -10.3710    3.1440 C   0  0  0  0  0  0  0  0  0  0  0  0
    2.8870  -10.0700    2.4100 N   0  0  0  0  0  0  0  0  0  0  0  0
    3.6230  -10.9820    1.5380 C   0  0  0  0  0  3  0  0  0  0  0  0
    4.0400  -12.2850    2.2430 C   0  0  0  0  0  2  0  0  0  0  0  0
    4.8550  -13.1820    1.3110 C   0  0  0  0  0  2  0  0  0  0  0  0
    4.1180  -13.4530    0.0030 C   0  0  0  0  0  2  0  0  0  0  0  0
    3.7200  -12.1570   -0.7000 C   0  0  0  0  0  2  0  0  0  0  0  0
    2.8970  -11.2490    0.2110 C   0  0  0  0  0  2  0  0  0  0  0  0
   -1.5700  -10.3020    5.8880 C   0  0  0  0  0  0  0  0  0  0  0  0
   -2.3650  -11.2930    5.8560 O   0  0  0  0  0  0  0  0  0  0  0  0
   -1.6690   -9.2950    6.6600 O   0  0  0  0  0  1  0  0  0  0  0  0
    7.5020   -5.8820    0.3820 O   0  0  0  0  0  0  0  0  0  0  0  0
    8.6640   -5.4800    1.1040 C   0  0  0  0  0  2  0  0  0  0  0  0
   10.2080   -2.3930   -0.5330 C   0  0  0  0  0  0  0  0  0  0  0  0
    9.7770   -1.3690    0.3120 C   0  0  0  0  0  3  0  0  0  0  0  0
    8.9970   -1.6670    1.4290 C   0  0  0  0  0  3  0  0  0  0  0  0
    8.6210   -2.9900    1.7260 C   0  0  0  0  0  0  0  0  0  0  0  0
    9.0470   -4.0310    0.8670 C   0  0  0  0  0  0  0  0  0  0  0  0
    9.8360   -3.7140   -0.2600 C   0  0  0  0  0  3  0  0  0  0  0  0
    7.7920   -3.2310    2.9150 C   0  0  0  0  0  0  0  0  0  0  0  0
    8.2820   -2.9530    4.2010 C   0  0  0  0  0  3  0  0  0  0  0  0
    7.4920   -3.1900    5.3300 C   0  0  0  0  0  3  0  0  0  0  0  0
    6.2080   -3.7090    5.1810 C   0  0  0  0  0  0  0  0  0  0  0  0
    5.2370   -3.9980    6.5720 Cl  0  0  0  0  0  0  0  0  0  0  0  0
    5.7070   -3.9970    3.9140 C   0  0  0  0  0  3  0  0  0  0  0  0
    6.4980   -3.7610    2.7870 C   0  0  0  0  0  3  0  0  0  0  0  0
   12.3300   -2.7750   -1.9500 C   0  0  0  0  0  1  0  0  0  0  0  0
   11.0390   -2.0340   -1.7170 C   0  0  0  0  0  0  0  0  0  0  0  0
   10.6530   -1.1600   -2.4900 O   0  0  0  0  0  0  0  0  0  0  0  0
  1  6  1  0  0  0  0
  2  1  2  0  0  0  0
  2  3  1  0  0  0  0
  3  4  2  0  0  0  0
  4  5  1  0  0  0  0
  4  7  1  0  0  0  0
  6  5  2  0  0  0  0
  7  8  2  0  0  0  0
  8  9  1  0  0  0  0
  9 10  1  0  0  0  0
 10 11  2  0  0  0  0
 11 22  1  0  0  0  0
 12 11  1  0  0  0  0
 13 12  2  0  0  0  0
 14 13  1  0  0  0  0
 14  9  2  0  0  0  0
 15  7  1  0  0  0  0
 15 14  1  0  0  0  0
 16 17  1  0  0  0  0
 16 15  1  0  0  0  0
 18 17  1  0  0  0  0
 19 18  1  0  0  0  0
 20 19  1  0  0  0  0
 20 21  1  0  0  0  0
 21 16  1  0  0  0  0
 22 24  1  0  0  0  0
 23 22  2  0  0  0  0
 25  1  1  0  0  0  0
 25 26  1  0  0  0  0
 27 32  2  0  0  0  0
 27 28  1  0  0  0  0
 28 29  2  0  0  0  0
 29 30  1  0  0  0  0
 30 33  1  0  0  0  0
 31 26  1  0  0  0  0
 31 30  2  0  0  0  0
 32 31  1  0  0  0  0
 33 34  1  0  0  0  0
 34 35  2  0  0  0  0
 36 35  1  0  0  0  0
 36 37  1  0  0  0  0
 38 36  2  0  0  0  0
 39 33  2  0  0  0  0
 39 38  1  0  0  0  0
 40 41  1  0  0  0  0
 41 27  1  0  0  0  0
 42 41  2  0  0  0  0
M  END
>  <minimizedAffinity>
-8.15280151

$$$$
