
 OpenBabel09052209333D

 47 52  0  0  1  0  0  0  0  0999 V2000
   34.7370    1.4580   40.9880 C   0  0  0  0  0  3  0  0  0  0  0  0
   33.8780    2.5240   41.0850 C   0  0  0  0  0  3  0  0  0  0  0  0
   34.4110    3.8030   41.1740 C   0  0  0  0  0  3  0  0  0  0  0  0
   35.7990    4.0060   41.1930 C   0  0  0  0  0  0  0  0  0  0  0  0
   36.6600    2.9060   41.1100 C   0  0  0  0  0  0  0  0  0  0  0  0
   36.1150    1.6400   40.9960 C   0  0  0  0  0  0  0  0  0  0  0  0
   36.3330    5.3180   41.3180 N   0  0  0  0  0  0  0  0  0  0  0  0
   37.2210    5.5730   42.4720 C   0  0  2  0  0  3  0  0  0  0  0  0
   38.6200    5.1370   42.1210 C   0  0  0  0  0  0  0  0  0  0  0  0
   38.9570    3.9780   41.5060 C   0  0  0  0  0  0  0  0  0  0  0  0
   38.0610    3.0000   41.0930 N   0  0  0  0  0  0  0  0  0  0  0  0
   38.5160    2.1790   40.6940 H   0  0  0  0  0  0  0  0  0  0  0  0
   39.7920    6.2940   42.5830 S   0  0  0  0  0  0  0  0  0  0  0  0
   41.4170    5.6410   42.1520 C   0  0  0  0  0  2  0  0  0  0  0  0
   41.4810    4.1180   42.2220 C   0  0  0  0  0  0  0  0  0  0  0  0
   40.4070    3.6100   41.2300 C   0  0  0  0  0  2  0  0  0  0  0  0
   39.6480    6.5290   44.0170 O   0  0  0  0  0  0  0  0  0  0  0  0
   39.5840    7.5540   41.9090 O   0  0  0  0  0  0  0  0  0  0  0  0
   42.8830    3.6610   41.7470 C   0  0  0  0  0  1  0  0  0  0  0  0
   41.2080    3.5900   43.6570 C   0  0  0  0  0  1  0  0  0  0  0  0
   36.5620    4.8980   43.6990 C   0  0  0  0  0  0  0  0  0  0  0  0
   37.1400    3.8030   44.3390 C   0  0  0  0  0  3  0  0  0  0  0  0
   36.5230    3.2250   45.4420 C   0  0  0  0  0  3  0  0  0  0  0  0
   35.3170    3.7440   45.9340 C   0  0  0  0  0  0  0  0  0  0  0  0
   34.7410    4.8440   45.2970 C   0  0  0  0  0  3  0  0  0  0  0  0
   35.3660    5.4100   44.1840 C   0  0  0  0  0  0  0  0  0  0  0  0
   34.8350    6.4660   43.5730 F   0  0  0  0  0  0  0  0  0  0  0  0
   34.6680    3.1970   47.0110 O   0  0  0  0  0  0  0  0  0  0  0  0
   34.9780    1.8870   47.5340 C   0  0  0  0  0  2  0  0  0  0  0  0
   35.8370    2.0060   48.7850 C   0  0  0  0  0  0  0  0  0  0  0  0
   35.5890    3.0180   49.7170 C   0  0  0  0  0  3  0  0  0  0  0  0
   36.3940    3.1300   50.8430 C   0  0  0  0  0  3  0  0  0  0  0  0
   37.4630    2.2410   51.0390 C   0  0  0  0  0  3  0  0  0  0  0  0
   37.7070    1.2460   50.1030 C   0  0  0  0  0  3  0  0  0  0  0  0
   36.8880    1.1300   48.9850 C   0  0  0  0  0  3  0  0  0  0  0  0
   36.0720    6.3600   40.4120 C   0  0  0  0  0  0  0  0  0  0  0  0
   34.9410    6.7840   40.2330 O   0  0  0  0  0  0  0  0  0  0  0  0
   37.1680    6.9770   39.6220 C   0  0  2  0  0  3  0  0  0  0  0  0
   37.4430    8.3300   39.8240 N   0  0  0  0  0  0  0  0  0  0  0  0
   38.4350    8.9740   39.1110 C   0  0  0  0  0  0  0  0  0  0  0  0
   36.9010    8.8540   40.5110 H   0  0  0  0  0  0  0  0  0  0  0  0
   38.7090   10.4300   39.3770 C   0  0  0  0  0  1  0  0  0  0  0  0
   39.1680    8.2370   38.1950 C   0  0  0  0  0  3  0  0  0  0  0  0
   38.8950    6.8740   37.9790 C   0  0  0  0  0  3  0  0  0  0  0  0
   37.8770    6.2410   38.6870 C   0  0  0  0  0  3  0  0  0  0  0  0
   36.9100    0.5350   40.9090 O   0  0  0  0  0  0  0  0  0  0  0  0
   37.8510    0.6600   40.9140 H   0  0  0  0  0  0  0  0  0  0  0  0
  1  6  2  0  0  0  0
  1  2  1  0  0  0  0
  2  3  2  0  0  0  0
  3  4  1  0  0  0  0
  4  7  1  0  0  0  0
  5  4  2  0  0  0  0
  6  5  1  0  0  0  0
  7  8  1  0  0  0  0
  8 21  1  1  0  0  0
  9  8  1  0  0  0  0
  9 13  1  0  0  0  0
 10  9  2  0  0  0  0
 11  5  1  0  0  0  0
 11 10  1  0  0  0  0
 12 11  1  0  0  0  0
 13 17  2  0  0  0  0
 14 15  1  0  0  0  0
 14 13  1  0  0  0  0
 15 20  1  0  0  0  0
 16 10  1  0  0  0  0
 16 15  1  0  0  0  0
 18 13  2  0  0  0  0
 19 15  1  0  0  0  0
 21 26  2  0  0  0  0
 21 22  1  0  0  0  0
 22 23  2  0  0  0  0
 23 24  1  0  0  0  0
 24 28  1  0  0  0  0
 25 24  2  0  0  0  0
 26 25  1  0  0  0  0
 27 26  1  0  0  0  0
 28 29  1  0  0  0  0
 29 30  1  0  0  0  0
 30 35  2  0  0  0  0
 30 31  1  0  0  0  0
 31 32  2  0  0  0  0
 32 33  1  0  0  0  0
 34 33  2  0  0  0  0
 35 34  1  0  0  0  0
 36  7  1  0  0  0  0
 37 36  2  0  0  0  0
 38 39  1  0  0  0  0
 38 36  1  6  0  0  0
 39 41  1  0  0  0  0
 40 42  1  0  0  0  0
 40 39  1  0  0  0  0
 43 40  2  0  0  0  0
 44 43  1  0  0  0  0
 44 45  2  0  0  0  0
 45 38  1  0  0  0  0
 46 47  1  0  0  0  0
 46  6  1  0  0  0  0
M  END
>  <minimizedAffinity>
-10.3672085

$$$$

 OpenBabel09052209333D

 47 52  0  0  1  0  0  0  0  0999 V2000
   36.7450   -0.9220   41.1340 C   0  0  0  0  0  3  0  0  0  0  0  0
   35.6790   -0.0600   41.0650 C   0  0  0  0  0  3  0  0  0  0  0  0
   35.9240    1.2830   40.8140 C   0  0  0  0  0  3  0  0  0  0  0  0
   37.2340    1.7610   40.6610 C   0  0  0  0  0  0  0  0  0  0  0  0
   38.3100    0.8700   40.7510 C   0  0  0  0  0  0  0  0  0  0  0  0
   38.0490   -0.4700   40.9760 C   0  0  0  0  0  0  0  0  0  0  0  0
   37.4750    3.1440   40.4370 N   0  0  0  0  0  0  0  0  0  0  0  0
   38.3320    3.8430   41.4190 C   0  0  2  0  0  3  0  0  0  0  0  0
   39.7760    3.6270   41.0500 C   0  0  0  0  0  0  0  0  0  0  0  0
   40.3320    2.4470   40.6850 C   0  0  0  0  0  0  0  0  0  0  0  0
   39.6550    1.2380   40.5870 N   0  0  0  0  0  0  0  0  0  0  0  0
   40.2610    0.4550   40.3440 H   0  0  0  0  0  0  0  0  0  0  0  0
   40.6860    5.0730   41.1300 S   0  0  0  0  0  0  0  0  0  0  0  0
   42.3960    4.6770   40.7130 C   0  0  0  0  0  2  0  0  0  0  0  0
   42.7920    3.2620   41.1190 C   0  0  0  0  0  0  0  0  0  0  0  0
   41.8160    2.3240   40.3690 C   0  0  0  0  0  2  0  0  0  0  0  0
   40.5520    5.6120   42.4820 O   0  0  0  0  0  0  0  0  0  0  0  0
   40.1820    6.0660   40.2110 O   0  0  0  0  0  0  0  0  0  0  0  0
   44.2390    2.9970   40.6350 C   0  0  0  0  0  1  0  0  0  0  0  0
   42.6990    3.0500   42.6550 C   0  0  0  0  0  1  0  0  0  0  0  0
   37.8850    3.3640   42.8210 C   0  0  0  0  0  0  0  0  0  0  0  0
   38.6080    2.4140   43.5410 C   0  0  0  0  0  3  0  0  0  0  0  0
   38.1790    2.0100   44.8010 C   0  0  0  0  0  3  0  0  0  0  0  0
   37.0240    2.5630   45.3690 C   0  0  0  0  0  0  0  0  0  0  0  0
   36.3030    3.5180   44.6500 C   0  0  0  0  0  3  0  0  0  0  0  0
   36.7380    3.9080   43.3820 C   0  0  0  0  0  0  0  0  0  0  0  0
   36.0680    4.8260   42.6900 F   0  0  0  0  0  0  0  0  0  0  0  0
   36.5590    2.1850   46.6030 O   0  0  0  0  0  0  0  0  0  0  0  0
   37.1790    1.1450   47.3920 C   0  0  0  0  0  2  0  0  0  0  0  0
   37.3990    1.6250   48.8200 C   0  0  0  0  0  0  0  0  0  0  0  0
   37.3710    0.7170   49.8810 C   0  0  0  0  0  3  0  0  0  0  0  0
   37.5510    1.1700   51.1820 C   0  0  0  0  0  3  0  0  0  0  0  0
   37.7470    2.5370   51.4320 C   0  0  0  0  0  3  0  0  0  0  0  0
   37.7640    3.4330   50.3720 C   0  0  0  0  0  3  0  0  0  0  0  0
   37.5970    2.9710   49.0720 C   0  0  0  0  0  3  0  0  0  0  0  0
   36.9560    3.8630   39.3470 C   0  0  0  0  0  0  0  0  0  0  0  0
   37.0310    3.4380   38.2050 O   0  0  0  0  0  0  0  0  0  0  0  0
   36.3070    5.1840   39.5440 C   0  0  2  0  0  3  0  0  0  0  0  0
   37.1030    6.3270   39.4690 N   0  0  0  0  0  0  0  0  0  0  0  0
   36.5710    7.5860   39.6610 C   0  0  0  0  0  0  0  0  0  0  0  0
   38.0990    6.2310   39.2680 H   0  0  0  0  0  0  0  0  0  0  0  0
   37.4660    8.7910   39.5500 C   0  0  0  0  0  1  0  0  0  0  0  0
   35.2130    7.6930   39.9170 C   0  0  0  0  0  3  0  0  0  0  0  0
   34.4020    6.5470   40.0010 C   0  0  0  0  0  3  0  0  0  0  0  0
   34.9540    5.2810   39.8280 C   0  0  0  0  0  3  0  0  0  0  0  0
   39.0620   -1.3790   41.0690 O   0  0  0  0  0  0  0  0  0  0  0  0
   39.9530   -1.0690   40.9610 H   0  0  0  0  0  0  0  0  0  0  0  0
  2  1  1  0  0  0  0
  3  2  2  0  0  0  0
  4  5  2  0  0  0  0
  4  3  1  0  0  0  0
  5  6  1  0  0  0  0
  6 46  1  0  0  0  0
  6  1  2  0  0  0  0
  7  4  1  0  0  0  0
  7  8  1  0  0  0  0
  8 21  1  1  0  0  0
  9 13  1  0  0  0  0
  9  8  1  0  0  0  0
 10  9  2  0  0  0  0
 11 10  1  0  0  0  0
 11  5  1  0  0  0  0
 12 11  1  0  0  0  0
 13 17  2  0  0  0  0
 14 15  1  0  0  0  0
 14 13  1  0  0  0  0
 15 20  1  0  0  0  0
 16 10  1  0  0  0  0
 16 15  1  0  0  0  0
 18 13  2  0  0  0  0
 19 15  1  0  0  0  0
 21 26  2  0  0  0  0
 21 22  1  0  0  0  0
 22 23  2  0  0  0  0
 23 24  1  0  0  0  0
 24 28  1  0  0  0  0
 25 24  2  0  0  0  0
 26 25  1  0  0  0  0
 27 26  1  0  0  0  0
 28 29  1  0  0  0  0
 29 30  1  0  0  0  0
 30 35  2  0  0  0  0
 30 31  1  0  0  0  0
 31 32  2  0  0  0  0
 32 33  1  0  0  0  0
 34 33  2  0  0  0  0
 35 34  1  0  0  0  0
 36  7  1  0  0  0  0
 37 36  2  0  0  0  0
 38 36  1  1  0  0  0
 38 45  1  0  0  0  0
 39 38  1  0  0  0  0
 39 40  1  0  0  0  0
 40 43  2  0  0  0  0
 41 39  1  0  0  0  0
 42 40  1  0  0  0  0
 43 44  1  0  0  0  0
 45 44  2  0  0  0  0
 47 46  1  0  0  0  0
M  END
>  <minimizedAffinity>
-10.2051573

$$$$

 OpenBabel09052209333D

 47 52  0  0  1  0  0  0  0  0999 V2000
   43.1280    3.8230   42.9290 C   0  0  0  0  0  3  0  0  0  0  0  0
   42.5480    2.6030   43.1730 C   0  0  0  0  0  3  0  0  0  0  0  0
   41.4020    2.2580   42.4710 C   0  0  0  0  0  3  0  0  0  0  0  0
   40.8260    3.1450   41.5490 C   0  0  0  0  0  0  0  0  0  0  0  0
   41.4220    4.3920   41.3250 C   0  0  0  0  0  0  0  0  0  0  0  0
   42.5790    4.7120   42.0130 C   0  0  0  0  0  0  0  0  0  0  0  0
   39.6330    2.7950   40.8600 N   0  0  0  0  0  0  0  0  0  0  0  0
   38.4710    3.6930   41.0330 C   0  0  2  0  0  3  0  0  0  0  0  0
   38.5860    4.8370   40.0590 C   0  0  0  0  0  0  0  0  0  0  0  0
   39.7090    5.5520   39.8080 C   0  0  0  0  0  0  0  0  0  0  0  0
   40.9450    5.3410   40.4070 N   0  0  0  0  0  0  0  0  0  0  0  0
   41.6530    6.0160   40.1190 H   0  0  0  0  0  0  0  0  0  0  0  0
   37.1080    5.1580   39.2620 S   0  0  0  0  0  0  0  0  0  0  0  0
   37.3630    6.5670   38.1640 C   0  0  0  0  0  2  0  0  0  0  0  0
   38.4110    7.5440   38.6890 C   0  0  0  0  0  0  0  0  0  0  0  0
   39.7130    6.7190   38.8320 C   0  0  0  0  0  2  0  0  0  0  0  0
   36.0970    5.4220   40.2820 O   0  0  0  0  0  0  0  0  0  0  0  0
   36.6650    4.0200   38.4910 O   0  0  0  0  0  0  0  0  0  0  0  0
   38.6180    8.6590   37.6340 C   0  0  0  0  0  1  0  0  0  0  0  0
   37.9950    8.1690   40.0480 C   0  0  0  0  0  1  0  0  0  0  0  0
   38.4050    4.0530   42.5360 C   0  0  0  0  0  0  0  0  0  0  0  0
   38.7160    5.3290   43.0040 C   0  0  0  0  0  3  0  0  0  0  0  0
   38.6420    5.6180   44.3620 C   0  0  0  0  0  3  0  0  0  0  0  0
   38.2390    4.6360   45.2770 C   0  0  0  0  0  0  0  0  0  0  0  0
   37.9230    3.3600   44.8070 C   0  0  0  0  0  3  0  0  0  0  0  0
   38.0110    3.0780   43.4430 C   0  0  0  0  0  0  0  0  0  0  0  0
   37.7010    1.8700   42.9790 F   0  0  0  0  0  0  0  0  0  0  0  0
   38.1640    4.8740   46.6250 O   0  0  0  0  0  0  0  0  0  0  0  0
   36.9590    4.6650   47.3940 C   0  0  0  0  0  2  0  0  0  0  0  0
   37.1170    3.4560   48.3060 C   0  0  0  0  0  0  0  0  0  0  0  0
   36.8620    2.1700   47.8220 C   0  0  0  0  0  3  0  0  0  0  0  0
   36.9880    1.0770   48.6690 C   0  0  0  0  0  3  0  0  0  0  0  0
   37.3560    1.2630   50.0120 C   0  0  0  0  0  3  0  0  0  0  0  0
   37.5970    2.5440   50.4850 C   0  0  0  0  0  3  0  0  0  0  0  0
   37.4830    3.6330   49.6280 C   0  0  0  0  0  3  0  0  0  0  0  0
   39.5090    1.6660   40.0330 C   0  0  0  0  0  0  0  0  0  0  0  0
   40.1790    1.5360   39.0210 O   0  0  0  0  0  0  0  0  0  0  0  0
   38.5390    0.5880   40.3550 C   0  0  2  0  0  3  0  0  0  0  0  0
   37.1830    0.8360   40.1380 N   0  0  0  0  0  0  0  0  0  0  0  0
   36.2240   -0.1120   40.4320 C   0  0  0  0  0  0  0  0  0  0  0  0
   36.8950    1.7360   39.7540 H   0  0  0  0  0  0  0  0  0  0  0  0
   34.7760    0.1930   40.1620 C   0  0  0  0  0  1  0  0  0  0  0  0
   36.6420   -1.3330   40.9380 C   0  0  0  0  0  3  0  0  0  0  0  0
   38.0060   -1.5920   41.1670 C   0  0  0  0  0  3  0  0  0  0  0  0
   38.9620   -0.6190   40.8880 C   0  0  0  0  0  3  0  0  0  0  0  0
   43.2000    5.9120   41.8290 O   0  0  0  0  0  0  0  0  0  0  0  0
   42.8240    6.5190   41.2030 H   0  0  0  0  0  0  0  0  0  0  0  0
  1  2  1  0  0  0  0
  3  2  2  0  0  0  0
  4  3  1  0  0  0  0
  5  4  2  0  0  0  0
  5  6  1  0  0  0  0
  6  1  2  0  0  0  0
  7  8  1  0  0  0  0
  7  4  1  0  0  0  0
  8 21  1  1  0  0  0
  9  8  1  0  0  0  0
 10  9  2  0  0  0  0
 10 11  1  0  0  0  0
 11  5  1  0  0  0  0
 12 11  1  0  0  0  0
 13  9  1  0  0  0  0
 13 17  2  0  0  0  0
 14 15  1  0  0  0  0
 14 13  1  0  0  0  0
 15 16  1  0  0  0  0
 15 20  1  0  0  0  0
 16 10  1  0  0  0  0
 18 13  2  0  0  0  0
 19 15  1  0  0  0  0
 21 22  2  0  0  0  0
 21 26  1  0  0  0  0
 22 23  1  0  0  0  0
 23 24  2  0  0  0  0
 24 28  1  0  0  0  0
 25 24  1  0  0  0  0
 26 25  2  0  0  0  0
 27 26  1  0  0  0  0
 28 29  1  0  0  0  0
 29 30  1  0  0  0  0
 30 35  1  0  0  0  0
 31 30  2  0  0  0  0
 31 32  1  0  0  0  0
 32 33  2  0  0  0  0
 33 34  1  0  0  0  0
 35 34  2  0  0  0  0
 36  7  1  0  0  0  0
 37 36  2  0  0  0  0
 38 36  1  1  0  0  0
 38 45  1  0  0  0  0
 39 38  1  0  0  0  0
 39 40  1  0  0  0  0
 40 43  2  0  0  0  0
 41 39  1  0  0  0  0
 42 40  1  0  0  0  0
 43 44  1  0  0  0  0
 45 44  2  0  0  0  0
 46  6  1  0  0  0  0
 47 46  1  0  0  0  0
M  END
>  <minimizedAffinity>
-10.1681967

$$$$

 OpenBabel09052209333D

 47 52  0  0  1  0  0  0  0  0999 V2000
   22.0900   -6.8110   51.3460 C   0  0  0  0  0  3  0  0  0  0  0  0
   23.4220   -6.6720   51.6460 C   0  0  0  0  0  3  0  0  0  0  0  0
   24.1400   -5.6520   51.0360 C   0  0  0  0  0  3  0  0  0  0  0  0
   23.5290   -4.7950   50.1100 C   0  0  0  0  0  0  0  0  0  0  0  0
   22.1730   -4.9610   49.8030 C   0  0  0  0  0  0  0  0  0  0  0  0
   21.4640   -5.9650   50.4370 C   0  0  0  0  0  0  0  0  0  0  0  0
   24.2820   -3.7750   49.4660 N   0  0  0  0  0  0  0  0  0  0  0  0
   24.3330   -3.8110   47.9890 C   0  0  2  0  0  3  0  0  0  0  0  0
   23.1100   -3.1250   47.4380 C   0  0  0  0  0  0  0  0  0  0  0  0
   21.8400   -3.3010   47.8760 C   0  0  0  0  0  0  0  0  0  0  0  0
   21.4590   -4.1420   48.9130 N   0  0  0  0  0  0  0  0  0  0  0  0
   20.4500   -4.1720   49.0580 H   0  0  0  0  0  0  0  0  0  0  0  0
   23.4900   -2.0530   46.1610 S   0  0  0  0  0  0  0  0  0  0  0  0
   21.9480   -1.3340   45.5620 C   0  0  0  0  0  2  0  0  0  0  0  0
   20.7580   -2.2760   45.7120 C   0  0  0  0  0  0  0  0  0  0  0  0
   20.6630   -2.5890   47.2250 C   0  0  0  0  0  2  0  0  0  0  0  0
   24.1880   -2.8160   45.1280 O   0  0  0  0  0  0  0  0  0  0  0  0
   24.3750   -1.0010   46.6000 O   0  0  0  0  0  0  0  0  0  0  0  0
   19.4780   -1.5300   45.2570 C   0  0  0  0  0  1  0  0  0  0  0  0
   20.9370   -3.5770   44.8840 C   0  0  0  0  0  1  0  0  0  0  0  0
   24.5520   -5.2880   47.5860 C   0  0  0  0  0  0  0  0  0  0  0  0
   23.5800   -6.0200   46.9070 C   0  0  0  0  0  3  0  0  0  0  0  0
   23.8120   -7.3450   46.5560 C   0  0  0  0  0  3  0  0  0  0  0  0
   25.0330   -7.9590   46.8680 C   0  0  0  0  0  0  0  0  0  0  0  0
   26.0090   -7.2250   47.5440 C   0  0  0  0  0  3  0  0  0  0  0  0
   25.7600   -5.8980   47.8990 C   0  0  0  0  0  0  0  0  0  0  0  0
   26.6860   -5.1810   48.5330 F   0  0  0  0  0  0  0  0  0  0  0  0
   25.2990   -9.2670   46.5530 O   0  0  0  0  0  0  0  0  0  0  0  0
   26.6240   -9.7430   46.2290 C   0  0  0  0  0  2  0  0  0  0  0  0
   27.2530  -10.4220   47.4380 C   0  0  0  0  0  0  0  0  0  0  0  0
   26.5880  -11.4670   48.0850 C   0  0  0  0  0  3  0  0  0  0  0  0
   27.1610  -12.0630   49.2010 C   0  0  0  0  0  3  0  0  0  0  0  0
   28.3970  -11.6090   49.6870 C   0  0  0  0  0  3  0  0  0  0  0  0
   29.0450  -10.5640   49.0440 C   0  0  0  0  0  3  0  0  0  0  0  0
   28.4720   -9.9810   47.9190 C   0  0  0  0  0  3  0  0  0  0  0  0
   24.9580   -2.7510   50.1500 C   0  0  0  0  0  0  0  0  0  0  0  0
   26.1410   -2.8440   50.4380 O   0  0  0  0  0  0  0  0  0  0  0  0
   24.2480   -1.5140   50.5660 C   0  0  2  0  0  3  0  0  0  0  0  0
   24.1570   -0.4670   49.6480 N   0  0  0  0  0  0  0  0  0  0  0  0
   23.5290    0.7190   49.9720 C   0  0  0  0  0  0  0  0  0  0  0  0
   24.5630   -0.5800   48.7190 H   0  0  0  0  0  0  0  0  0  0  0  0
   23.4380    1.8120   48.9420 C   0  0  0  0  0  1  0  0  0  0  0  0
   22.9710    0.8420   51.2350 C   0  0  0  0  0  3  0  0  0  0  0  0
   23.0620   -0.2040   52.1700 C   0  0  0  0  0  3  0  0  0  0  0  0
   23.7190   -1.3870   51.8400 C   0  0  0  0  0  3  0  0  0  0  0  0
   20.1410   -6.1670   50.1770 O   0  0  0  0  0  0  0  0  0  0  0  0
   19.7140   -5.5890   49.5570 H   0  0  0  0  0  0  0  0  0  0  0  0
  1  2  1  0  0  0  0
  3  2  2  0  0  0  0
  4  3  1  0  0  0  0
  5  4  2  0  0  0  0
  5  6  1  0  0  0  0
  6  1  2  0  0  0  0
  7  4  1  0  0  0  0
  7 36  1  0  0  0  0
  8 21  1  1  0  0  0
  8  7  1  0  0  0  0
  9 10  2  0  0  0  0
  9  8  1  0  0  0  0
 10 11  1  0  0  0  0
 11 12  1  0  0  0  0
 11  5  1  0  0  0  0
 13 18  2  0  0  0  0
 13  9  1  0  0  0  0
 14 15  1  0  0  0  0
 14 13  1  0  0  0  0
 15 16  1  0  0  0  0
 16 10  1  0  0  0  0
 17 13  2  0  0  0  0
 19 15  1  0  0  0  0
 20 15  1  0  0  0  0
 21 26  1  0  0  0  0
 22 21  2  0  0  0  0
 23 24  2  0  0  0  0
 23 22  1  0  0  0  0
 24 25  1  0  0  0  0
 25 26  2  0  0  0  0
 26 27  1  0  0  0  0
 28 24  1  0  0  0  0
 29 28  1  0  0  0  0
 29 30  1  0  0  0  0
 30 35  2  0  0  0  0
 30 31  1  0  0  0  0
 31 32  2  0  0  0  0
 32 33  1  0  0  0  0
 34 33  2  0  0  0  0
 35 34  1  0  0  0  0
 36 37  2  0  0  0  0
 38 36  1  1  0  0  0
 38 45  1  0  0  0  0
 39 40  1  0  0  0  0
 39 38  1  0  0  0  0
 40 43  2  0  0  0  0
 41 39  1  0  0  0  0
 42 40  1  0  0  0  0
 43 44  1  0  0  0  0
 45 44  2  0  0  0  0
 46  6  1  0  0  0  0
 47 46  1  0  0  0  0
M  END
>  <minimizedAffinity>
-10.0658436

$$$$

 OpenBabel09052209333D

 47 52  0  0  1  0  0  0  0  0999 V2000
   35.0720    8.1620   39.7160 C   0  0  0  0  0  3  0  0  0  0  0  0
   33.9700    7.5440   40.2520 C   0  0  0  0  0  3  0  0  0  0  0  0
   34.1530    6.4040   41.0230 C   0  0  0  0  0  3  0  0  0  0  0  0
   35.4360    5.8730   41.2300 C   0  0  0  0  0  0  0  0  0  0  0  0
   36.5470    6.5070   40.6620 C   0  0  0  0  0  0  0  0  0  0  0  0
   36.3510    7.6570   39.9180 C   0  0  0  0  0  0  0  0  0  0  0  0
   35.6090    4.6860   41.9930 N   0  0  0  0  0  0  0  0  0  0  0  0
   36.2640    3.5460   41.3190 C   0  0  2  0  0  3  0  0  0  0  0  0
   37.7580    3.7130   41.4130 C   0  0  0  0  0  0  0  0  0  0  0  0
   38.4420    4.8600   41.1850 C   0  0  0  0  0  0  0  0  0  0  0  0
   37.8730    6.0750   40.8300 N   0  0  0  0  0  0  0  0  0  0  0  0
   38.5610    6.8080   40.6550 H   0  0  0  0  0  0  0  0  0  0  0  0
   38.5440    2.2610   41.8610 S   0  0  0  0  0  0  0  0  0  0  0  0
   40.3190    2.5780   41.8960 C   0  0  0  0  0  2  0  0  0  0  0  0
   40.7510    3.6400   40.8900 C   0  0  0  0  0  0  0  0  0  0  0  0
   39.9610    4.9160   41.2670 C   0  0  0  0  0  2  0  0  0  0  0  0
   38.1800    1.2350   40.8870 O   0  0  0  0  0  0  0  0  0  0  0  0
   38.1090    1.8050   43.1600 O   0  0  0  0  0  0  0  0  0  0  0  0
   42.2680    3.9000   41.0670 C   0  0  0  0  0  1  0  0  0  0  0  0
   40.4530    3.2120   39.4280 C   0  0  0  0  0  1  0  0  0  0  0  0
   35.6550    3.4570   39.8990 C   0  0  0  0  0  0  0  0  0  0  0  0
   36.3940    3.7640   38.7580 C   0  0  0  0  0  3  0  0  0  0  0  0
   35.8160    3.6690   37.4970 C   0  0  0  0  0  3  0  0  0  0  0  0
   34.4860    3.2490   37.3560 C   0  0  0  0  0  0  0  0  0  0  0  0
   33.7480    2.9360   38.4980 C   0  0  0  0  0  3  0  0  0  0  0  0
   34.3370    3.0450   39.7590 C   0  0  0  0  0  0  0  0  0  0  0  0
   33.6490    2.7380   40.8570 F   0  0  0  0  0  0  0  0  0  0  0  0
   33.8730    3.1530   36.1330 O   0  0  0  0  0  0  0  0  0  0  0  0
   33.6430    1.8920   35.4650 C   0  0  0  0  0  2  0  0  0  0  0  0
   34.9440    1.3590   34.8800 C   0  0  0  0  0  0  0  0  0  0  0  0
   35.3130    0.0270   35.0810 C   0  0  0  0  0  3  0  0  0  0  0  0
   36.5130   -0.4430   34.5610 C   0  0  0  0  0  3  0  0  0  0  0  0
   37.3590    0.4220   33.8480 C   0  0  0  0  0  3  0  0  0  0  0  0
   36.9880    1.7460   33.6630 C   0  0  0  0  0  3  0  0  0  0  0  0
   35.7790    2.2050   34.1730 C   0  0  0  0  0  3  0  0  0  0  0  0
   35.2040    4.5500   43.3320 C   0  0  0  0  0  0  0  0  0  0  0  0
   34.0780    4.1800   43.6260 O   0  0  0  0  0  0  0  0  0  0  0  0
   36.1330    4.8670   44.4460 C   0  0  2  0  0  3  0  0  0  0  0  0
   36.9250    3.8380   44.9570 N   0  0  0  0  0  0  0  0  0  0  0  0
   37.7970    4.0560   46.0040 C   0  0  0  0  0  0  0  0  0  0  0  0
   36.8580    2.9060   44.5480 H   0  0  0  0  0  0  0  0  0  0  0  0
   38.6450    2.9200   46.5090 C   0  0  0  0  0  1  0  0  0  0  0  0
   37.8820    5.3350   46.5320 C   0  0  0  0  0  3  0  0  0  0  0  0
   37.0850    6.3790   46.0280 C   0  0  0  0  0  3  0  0  0  0  0  0
   36.1910    6.1410   44.9870 C   0  0  0  0  0  3  0  0  0  0  0  0
   37.4000    8.3140   39.3470 O   0  0  0  0  0  0  0  0  0  0  0  0
   38.2740    7.9690   39.4850 H   0  0  0  0  0  0  0  0  0  0  0  0
  1  6  2  0  0  0  0
  1  2  1  0  0  0  0
  2  3  2  0  0  0  0
  3  4  1  0  0  0  0
  4  7  1  0  0  0  0
  5 11  1  0  0  0  0
  5  4  2  0  0  0  0
  6  5  1  0  0  0  0
  7 36  1  0  0  0  0
  8 21  1  6  0  0  0
  8  9  1  0  0  0  0
  8  7  1  0  0  0  0
  9 13  1  0  0  0  0
 10 16  1  0  0  0  0
 10  9  2  0  0  0  0
 11 10  1  0  0  0  0
 12 11  1  0  0  0  0
 13 14  1  0  0  0  0
 13 18  2  0  0  0  0
 15 19  1  0  0  0  0
 15 16  1  0  0  0  0
 15 14  1  0  0  0  0
 17 13  2  0  0  0  0
 20 15  1  0  0  0  0
 22 21  2  0  0  0  0
 23 22  1  0  0  0  0
 24 23  2  0  0  0  0
 24 25  1  0  0  0  0
 25 26  2  0  0  0  0
 26 21  1  0  0  0  0
 26 27  1  0  0  0  0
 28 24  1  0  0  0  0
 29 28  1  0  0  0  0
 30 31  1  0  0  0  0
 30 29  1  0  0  0  0
 32 31  2  0  0  0  0
 33 32  1  0  0  0  0
 34 33  2  0  0  0  0
 34 35  1  0  0  0  0
 35 30  2  0  0  0  0
 36 37  2  0  0  0  0
 38 36  1  1  0  0  0
 38 39  1  0  0  0  0
 38 45  1  0  0  0  0
 39 40  1  0  0  0  0
 40 42  1  0  0  0  0
 40 43  2  0  0  0  0
 41 39  1  0  0  0  0
 44 43  1  0  0  0  0
 45 44  2  0  0  0  0
 46 47  1  0  0  0  0
 46  6  1  0  0  0  0
M  END
>  <minimizedAffinity>
-9.92847729

$$$$

 OpenBabel09052209333D

 47 52  0  0  1  0  0  0  0  0999 V2000
   35.5010    7.1100   39.8910 C   0  0  0  0  0  3  0  0  0  0  0  0
   34.3910    6.4470   40.3520 C   0  0  0  0  0  3  0  0  0  0  0  0
   34.5510    5.4910   41.3460 C   0  0  0  0  0  3  0  0  0  0  0  0
   35.8220    5.1860   41.8550 C   0  0  0  0  0  0  0  0  0  0  0  0
   36.9450    5.8610   41.3620 C   0  0  0  0  0  0  0  0  0  0  0  0
   36.7680    6.8280   40.3890 C   0  0  0  0  0  0  0  0  0  0  0  0
   35.9780    4.1820   42.8500 N   0  0  0  0  0  0  0  0  0  0  0  0
   36.8630    3.0450   42.5220 C   0  0  2  0  0  3  0  0  0  0  0  0
   38.2890    3.4310   42.8220 C   0  0  0  0  0  0  0  0  0  0  0  0
   38.8770    4.6050   42.4900 C   0  0  0  0  0  0  0  0  0  0  0  0
   38.2560    5.6520   41.8210 N   0  0  0  0  0  0  0  0  0  0  0  0
   38.8820    6.4320   41.6210 H   0  0  0  0  0  0  0  0  0  0  0  0
   39.1280    2.2000   43.6610 S   0  0  0  0  0  0  0  0  0  0  0  0
   40.8230    2.7610   43.9190 C   0  0  0  0  0  2  0  0  0  0  0  0
   41.3170    3.6850   42.8100 C   0  0  0  0  0  0  0  0  0  0  0  0
   40.3390    4.8850   42.8030 C   0  0  0  0  0  2  0  0  0  0  0  0
   39.0600    0.9820   42.8560 O   0  0  0  0  0  0  0  0  0  0  0  0
   38.5140    1.9170   44.9360 O   0  0  0  0  0  0  0  0  0  0  0  0
   42.7390    4.1780   43.1750 C   0  0  0  0  0  1  0  0  0  0  0  0
   41.3390    2.9760   41.4290 C   0  0  0  0  0  1  0  0  0  0  0  0
   36.5380    2.6320   41.0670 C   0  0  0  0  0  0  0  0  0  0  0  0
   37.5010    2.6550   40.0600 C   0  0  0  0  0  3  0  0  0  0  0  0
   37.1740    2.2730   38.7640 C   0  0  0  0  0  3  0  0  0  0  0  0
   35.8760    1.8440   38.4560 C   0  0  0  0  0  0  0  0  0  0  0  0
   34.9120    1.8150   39.4650 C   0  0  0  0  0  3  0  0  0  0  0  0
   35.2500    2.2110   40.7610 C   0  0  0  0  0  0  0  0  0  0  0  0
   34.3460    2.1780   41.7370 F   0  0  0  0  0  0  0  0  0  0  0  0
   35.5070    1.4700   37.1890 O   0  0  0  0  0  0  0  0  0  0  0  0
   34.9300    2.3880   36.2340 C   0  0  0  0  0  2  0  0  0  0  0  0
   35.8360    3.5980   36.0500 C   0  0  0  0  0  0  0  0  0  0  0  0
   36.9510    3.5220   35.2120 C   0  0  0  0  0  3  0  0  0  0  0  0
   37.7830    4.6250   35.0690 C   0  0  0  0  0  3  0  0  0  0  0  0
   37.5130    5.8090   35.7750 C   0  0  0  0  0  3  0  0  0  0  0  0
   36.4090    5.8700   36.6130 C   0  0  0  0  0  3  0  0  0  0  0  0
   35.5730    4.7670   36.7400 C   0  0  0  0  0  3  0  0  0  0  0  0
   35.3510    4.2220   44.1070 C   0  0  0  0  0  0  0  0  0  0  0  0
   34.1370    4.1710   44.2190 O   0  0  0  0  0  0  0  0  0  0  0  0
   36.1490    4.3450   45.3540 C   0  0  2  0  0  3  0  0  0  0  0  0
   36.0380    3.3340   46.3090 N   0  0  0  0  0  0  0  0  0  0  0  0
   36.7350    3.3910   47.4990 C   0  0  0  0  0  0  0  0  0  0  0  0
   35.4290    2.5370   46.1250 H   0  0  0  0  0  0  0  0  0  0  0  0
   36.5990    2.2680   48.4910 C   0  0  0  0  0  1  0  0  0  0  0  0
   37.5690    4.4770   47.7190 C   0  0  0  0  0  3  0  0  0  0  0  0
   37.6840    5.5040   46.7660 C   0  0  0  0  0  3  0  0  0  0  0  0
   36.9580    5.4470   45.5790 C   0  0  0  0  0  3  0  0  0  0  0  0
   37.8280    7.5170   39.8780 O   0  0  0  0  0  0  0  0  0  0  0  0
   38.6930    7.3240   40.2190 H   0  0  0  0  0  0  0  0  0  0  0  0
  1  2  2  0  0  0  0
  1  6  1  0  0  0  0
  2  3  1  0  0  0  0
  3  4  2  0  0  0  0
  4  7  1  0  0  0  0
  5 11  1  0  0  0  0
  5  4  1  0  0  0  0
  6  5  2  0  0  0  0
  7 36  1  0  0  0  0
  8 21  1  6  0  0  0
  8  9  1  0  0  0  0
  8  7  1  0  0  0  0
  9 13  1  0  0  0  0
 10 16  1  0  0  0  0
 10  9  2  0  0  0  0
 11 10  1  0  0  0  0
 12 11  1  0  0  0  0
 13 14  1  0  0  0  0
 13 18  2  0  0  0  0
 15 19  1  0  0  0  0
 15 14  1  0  0  0  0
 16 15  1  0  0  0  0
 17 13  2  0  0  0  0
 20 15  1  0  0  0  0
 22 21  2  0  0  0  0
 23 22  1  0  0  0  0
 24 23  2  0  0  0  0
 24 25  1  0  0  0  0
 25 26  2  0  0  0  0
 26 21  1  0  0  0  0
 26 27  1  0  0  0  0
 28 24  1  0  0  0  0
 29 28  1  0  0  0  0
 30 29  1  0  0  0  0
 30 35  1  0  0  0  0
 31 30  2  0  0  0  0
 32 31  1  0  0  0  0
 32 33  2  0  0  0  0
 33 34  1  0  0  0  0
 34 35  2  0  0  0  0
 36 37  2  0  0  0  0
 38 36  1  1  0  0  0
 38 45  1  0  0  0  0
 38 39  1  0  0  0  0
 39 40  1  0  0  0  0
 40 43  2  0  0  0  0
 40 42  1  0  0  0  0
 41 39  1  0  0  0  0
 44 43  1  0  0  0  0
 45 44  2  0  0  0  0
 46 47  1  0  0  0  0
 46  6  1  0  0  0  0
M  END
>  <minimizedAffinity>
-9.78271866

$$$$

 OpenBabel09052209333D

 47 52  0  0  1  0  0  0  0  0999 V2000
   35.3050    6.8630   39.6200 C   0  0  0  0  0  3  0  0  0  0  0  0
   34.3290    6.0270   40.1000 C   0  0  0  0  0  3  0  0  0  0  0  0
   34.6660    5.0990   41.0760 C   0  0  0  0  0  3  0  0  0  0  0  0
   35.9840    4.9950   41.5460 C   0  0  0  0  0  0  0  0  0  0  0  0
   36.9700    5.8460   41.0330 C   0  0  0  0  0  0  0  0  0  0  0  0
   36.6140    6.7820   40.0800 C   0  0  0  0  0  0  0  0  0  0  0  0
   36.3260    4.0190   42.5220 N   0  0  0  0  0  0  0  0  0  0  0  0
   37.3720    3.0410   42.1530 C   0  0  2  0  0  3  0  0  0  0  0  0
   38.7250    3.6460   42.4200 C   0  0  0  0  0  0  0  0  0  0  0  0
   39.1090    4.9020   42.0900 C   0  0  0  0  0  0  0  0  0  0  0  0
   38.3110    5.8440   41.4530 N   0  0  0  0  0  0  0  0  0  0  0  0
   38.7990    6.7150   41.2490 H   0  0  0  0  0  0  0  0  0  0  0  0
   39.7740    2.5560   43.2180 S   0  0  0  0  0  0  0  0  0  0  0  0
   41.3650    3.3770   43.4390 C   0  0  0  0  0  2  0  0  0  0  0  0
   41.6730    4.3800   42.3310 C   0  0  0  0  0  0  0  0  0  0  0  0
   40.5180    5.4080   42.3680 C   0  0  0  0  0  2  0  0  0  0  0  0
   39.8770    1.3520   42.3980 O   0  0  0  0  0  0  0  0  0  0  0  0
   39.2500    2.1660   44.5060 O   0  0  0  0  0  0  0  0  0  0  0  0
   43.0090    5.0890   42.6650 C   0  0  0  0  0  1  0  0  0  0  0  0
   41.7680    3.6970   40.9390 C   0  0  0  0  0  1  0  0  0  0  0  0
   37.0750    2.5960   40.7020 C   0  0  0  0  0  0  0  0  0  0  0  0
   37.8110    3.0720   39.6180 C   0  0  0  0  0  3  0  0  0  0  0  0
   37.5190    2.6470   38.3270 C   0  0  0  0  0  3  0  0  0  0  0  0
   36.4900    1.7230   38.0990 C   0  0  0  0  0  0  0  0  0  0  0  0
   35.7560    1.2420   39.1840 C   0  0  0  0  0  3  0  0  0  0  0  0
   36.0520    1.6840   40.4750 C   0  0  0  0  0  0  0  0  0  0  0  0
   35.3690    1.2250   41.5210 F   0  0  0  0  0  0  0  0  0  0  0  0
   36.1600    1.2860   36.8410 O   0  0  0  0  0  0  0  0  0  0  0  0
   35.3010    2.0320   35.9500 C   0  0  0  0  0  2  0  0  0  0  0  0
   33.9010    2.1450   36.5370 C   0  0  0  0  0  0  0  0  0  0  0  0
   33.6560    3.0010   37.6150 C   0  0  0  0  0  3  0  0  0  0  0  0
   32.3790    3.0790   38.1560 C   0  0  0  0  0  3  0  0  0  0  0  0
   31.3410    2.2910   37.6340 C   0  0  0  0  0  3  0  0  0  0  0  0
   31.5970    1.4370   36.5710 C   0  0  0  0  0  3  0  0  0  0  0  0
   32.8740    1.3750   36.0240 C   0  0  0  0  0  3  0  0  0  0  0  0
   35.7380    3.9450   43.7950 C   0  0  0  0  0  0  0  0  0  0  0  0
   34.5970    3.5380   43.9520 O   0  0  0  0  0  0  0  0  0  0  0  0
   36.4820    4.3780   45.0050 C   0  0  2  0  0  3  0  0  0  0  0  0
   36.7650    3.4220   45.9820 N   0  0  0  0  0  0  0  0  0  0  0  0
   37.4360    3.7560   47.1410 C   0  0  0  0  0  0  0  0  0  0  0  0
   36.4690    2.4560   45.8360 H   0  0  0  0  0  0  0  0  0  0  0  0
   37.7350    2.6870   48.1560 C   0  0  0  0  0  1  0  0  0  0  0  0
   37.8410    5.0710   47.3080 C   0  0  0  0  0  3  0  0  0  0  0  0
   37.5570    6.0440   46.3330 C   0  0  0  0  0  3  0  0  0  0  0  0
   36.8580    5.7000   45.1790 C   0  0  0  0  0  3  0  0  0  0  0  0
   37.5360    7.6360   39.5510 O   0  0  0  0  0  0  0  0  0  0  0  0
   38.4300    7.5810   39.8650 H   0  0  0  0  0  0  0  0  0  0  0  0
  1  6  2  0  0  0  0
  1  2  1  0  0  0  0
  2  3  2  0  0  0  0
  3  4  1  0  0  0  0
  4  7  1  0  0  0  0
  5 11  1  0  0  0  0
  5  4  2  0  0  0  0
  6  5  1  0  0  0  0
  7 36  1  0  0  0  0
  8 21  1  6  0  0  0
  8  9  1  0  0  0  0
  8  7  1  0  0  0  0
  9 13  1  0  0  0  0
 10 16  1  0  0  0  0
 10  9  2  0  0  0  0
 11 10  1  0  0  0  0
 12 11  1  0  0  0  0
 13 14  1  0  0  0  0
 13 18  2  0  0  0  0
 15 16  1  0  0  0  0
 15 19  1  0  0  0  0
 15 14  1  0  0  0  0
 17 13  2  0  0  0  0
 20 15  1  0  0  0  0
 22 21  2  0  0  0  0
 23 22  1  0  0  0  0
 24 23  2  0  0  0  0
 24 25  1  0  0  0  0
 25 26  2  0  0  0  0
 26 21  1  0  0  0  0
 26 27  1  0  0  0  0
 28 24  1  0  0  0  0
 29 30  1  0  0  0  0
 29 28  1  0  0  0  0
 30 31  1  0  0  0  0
 31 32  2  0  0  0  0
 33 32  1  0  0  0  0
 34 33  2  0  0  0  0
 35 30  2  0  0  0  0
 35 34  1  0  0  0  0
 36 37  2  0  0  0  0
 38 36  1  1  0  0  0
 38 45  1  0  0  0  0
 38 39  1  0  0  0  0
 39 40  1  0  0  0  0
 40 43  2  0  0  0  0
 40 42  1  0  0  0  0
 41 39  1  0  0  0  0
 44 43  1  0  0  0  0
 45 44  2  0  0  0  0
 46 47  1  0  0  0  0
 46  6  1  0  0  0  0
M  END
>  <minimizedAffinity>
-9.76700687

$$$$

 OpenBabel09052209333D

 47 52  0  0  1  0  0  0  0  0999 V2000
   22.2710   -7.6330   49.5840 C   0  0  0  0  0  3  0  0  0  0  0  0
   23.6050   -7.6710   49.9070 C   0  0  0  0  0  3  0  0  0  0  0  0
   24.3660   -6.5240   49.7330 C   0  0  0  0  0  3  0  0  0  0  0  0
   23.7960   -5.3520   49.2120 C   0  0  0  0  0  0  0  0  0  0  0  0
   22.4380   -5.3360   48.8740 C   0  0  0  0  0  0  0  0  0  0  0  0
   21.6860   -6.4790   49.0760 C   0  0  0  0  0  0  0  0  0  0  0  0
   24.5930   -4.1930   49.0070 N   0  0  0  0  0  0  0  0  0  0  0  0
   24.6560   -3.6580   47.6300 C   0  0  2  0  0  3  0  0  0  0  0  0
   23.4650   -2.7670   47.3940 C   0  0  0  0  0  0  0  0  0  0  0  0
   22.1850   -3.0500   47.7380 C   0  0  0  0  0  0  0  0  0  0  0  0
   21.7630   -4.2110   48.3720 N   0  0  0  0  0  0  0  0  0  0  0  0
   20.7520   -4.2550   48.5020 H   0  0  0  0  0  0  0  0  0  0  0  0
   23.8960   -1.3020   46.6260 S   0  0  0  0  0  0  0  0  0  0  0  0
   22.3880   -0.3480   46.3600 C   0  0  0  0  0  2  0  0  0  0  0  0
   21.1610   -1.2290   46.1430 C   0  0  0  0  0  0  0  0  0  0  0  0
   21.0420   -2.0970   47.4190 C   0  0  0  0  0  2  0  0  0  0  0  0
   24.5730   -1.6340   45.3750 O   0  0  0  0  0  0  0  0  0  0  0  0
   24.8160   -0.5340   47.4310 O   0  0  0  0  0  0  0  0  0  0  0  0
   19.9150   -0.3170   46.0190 C   0  0  0  0  0  1  0  0  0  0  0  0
   21.2990   -2.1160   44.8760 C   0  0  0  0  0  1  0  0  0  0  0  0
   24.8230   -4.8740   46.6870 C   0  0  0  0  0  0  0  0  0  0  0  0
   23.8100   -5.2790   45.8190 C   0  0  0  0  0  3  0  0  0  0  0  0
   23.9960   -6.3740   44.9820 C   0  0  0  0  0  3  0  0  0  0  0  0
   25.2090   -7.0760   44.9890 C   0  0  0  0  0  0  0  0  0  0  0  0
   26.2250   -6.6670   45.8550 C   0  0  0  0  0  3  0  0  0  0  0  0
   26.0230   -5.5720   46.6970 C   0  0  0  0  0  0  0  0  0  0  0  0
   26.9870   -5.1630   47.5190 F   0  0  0  0  0  0  0  0  0  0  0  0
   25.4300   -8.1680   44.1900 O   0  0  0  0  0  0  0  0  0  0  0  0
   24.5350   -8.5570   43.1250 C   0  0  0  0  0  2  0  0  0  0  0  0
   25.0710   -8.0800   41.7830 C   0  0  0  0  0  0  0  0  0  0  0  0
   24.5940   -6.8950   41.2140 C   0  0  0  0  0  3  0  0  0  0  0  0
   25.0740   -6.4810   39.9780 C   0  0  0  0  0  3  0  0  0  0  0  0
   26.0250   -7.2560   39.2950 C   0  0  0  0  0  3  0  0  0  0  0  0
   26.4850   -8.4360   39.8630 C   0  0  0  0  0  3  0  0  0  0  0  0
   26.0110   -8.8360   41.1070 C   0  0  0  0  0  3  0  0  0  0  0  0
   25.3010   -3.5380   50.0290 C   0  0  0  0  0  0  0  0  0  0  0  0
   26.3890   -3.9370   50.4110 O   0  0  0  0  0  0  0  0  0  0  0  0
   24.7380   -2.3370   50.6970 C   0  0  2  0  0  3  0  0  0  0  0  0
   25.3360   -1.1020   50.4430 N   0  0  0  0  0  0  0  0  0  0  0  0
   24.8780    0.0530   51.0440 C   0  0  0  0  0  0  0  0  0  0  0  0
   26.1260   -1.0520   49.8010 H   0  0  0  0  0  0  0  0  0  0  0  0
   25.5420    1.3660   50.7240 C   0  0  0  0  0  1  0  0  0  0  0  0
   23.7930   -0.0380   51.9010 C   0  0  0  0  0  3  0  0  0  0  0  0
   23.1860   -1.2790   52.1690 C   0  0  0  0  0  3  0  0  0  0  0  0
   23.6720   -2.4410   51.5750 C   0  0  0  0  0  3  0  0  0  0  0  0
   20.3580   -6.5140   48.7660 O   0  0  0  0  0  0  0  0  0  0  0  0
   19.9590   -5.7260   48.4200 H   0  0  0  0  0  0  0  0  0  0  0  0
  1  2  1  0  0  0  0
  3  2  2  0  0  0  0
  4  3  1  0  0  0  0
  5  6  1  0  0  0  0
  5  4  2  0  0  0  0
  6  1  2  0  0  0  0
  7  4  1  0  0  0  0
  7 36  1  0  0  0  0
  8 21  1  6  0  0  0
  8  7  1  0  0  0  0
  9  8  1  0  0  0  0
  9 10  2  0  0  0  0
 10 11  1  0  0  0  0
 11 12  1  0  0  0  0
 11  5  1  0  0  0  0
 13  9  1  0  0  0  0
 13 18  2  0  0  0  0
 14 13  1  0  0  0  0
 15 14  1  0  0  0  0
 15 16  1  0  0  0  0
 16 10  1  0  0  0  0
 17 13  2  0  0  0  0
 19 15  1  0  0  0  0
 20 15  1  0  0  0  0
 21 26  1  0  0  0  0
 22 21  2  0  0  0  0
 23 24  2  0  0  0  0
 23 22  1  0  0  0  0
 24 25  1  0  0  0  0
 25 26  2  0  0  0  0
 26 27  1  0  0  0  0
 28 24  1  0  0  0  0
 29 28  1  0  0  0  0
 30 29  1  0  0  0  0
 31 30  1  0  0  0  0
 32 31  2  0  0  0  0
 33 34  2  0  0  0  0
 33 32  1  0  0  0  0
 34 35  1  0  0  0  0
 35 30  2  0  0  0  0
 36 37  2  0  0  0  0
 38 36  1  1  0  0  0
 38 45  1  0  0  0  0
 39 38  1  0  0  0  0
 39 40  1  0  0  0  0
 40 43  2  0  0  0  0
 41 39  1  0  0  0  0
 42 40  1  0  0  0  0
 43 44  1  0  0  0  0
 45 44  2  0  0  0  0
 46  6  1  0  0  0  0
 47 46  1  0  0  0  0
M  END
>  <minimizedAffinity>
-9.72856712

$$$$

 OpenBabel09052209333D

 47 52  0  0  1  0  0  0  0  0999 V2000
   36.9080   -1.1280   41.1810 C   0  0  0  0  0  3  0  0  0  0  0  0
   35.8270   -0.2910   41.0540 C   0  0  0  0  0  3  0  0  0  0  0  0
   36.0440    1.0220   40.6570 C   0  0  0  0  0  3  0  0  0  0  0  0
   37.3420    1.4970   40.4140 C   0  0  0  0  0  0  0  0  0  0  0  0
   38.4330    0.6330   40.5640 C   0  0  0  0  0  0  0  0  0  0  0  0
   38.2000   -0.6780   40.9360 C   0  0  0  0  0  0  0  0  0  0  0  0
   37.5550    2.8520   40.0410 N   0  0  0  0  0  0  0  0  0  0  0  0
   38.4290    3.6600   40.9170 C   0  0  2  0  0  3  0  0  0  0  0  0
   39.8650    3.4240   40.5280 C   0  0  0  0  0  0  0  0  0  0  0  0
   40.4280    2.2190   40.2720 C   0  0  0  0  0  0  0  0  0  0  0  0
   39.7670    0.9990   40.3210 N   0  0  0  0  0  0  0  0  0  0  0  0
   40.3780    0.2020   40.1430 H   0  0  0  0  0  0  0  0  0  0  0  0
   40.7550    4.8820   40.4290 S   0  0  0  0  0  0  0  0  0  0  0  0
   42.4580    4.4650   40.0030 C   0  0  0  0  0  2  0  0  0  0  0  0
   42.8870    3.1050   40.5430 C   0  0  0  0  0  0  0  0  0  0  0  0
   41.9040    2.0820   39.9250 C   0  0  0  0  0  2  0  0  0  0  0  0
   40.6520    5.5580   41.7210 O   0  0  0  0  0  0  0  0  0  0  0  0
   40.2090    5.7670   39.4280 O   0  0  0  0  0  0  0  0  0  0  0  0
   44.3240    2.8080   40.0450 C   0  0  0  0  0  1  0  0  0  0  0  0
   42.8420    3.0540   42.0950 C   0  0  0  0  0  1  0  0  0  0  0  0
   38.0310    3.3250   42.3740 C   0  0  0  0  0  0  0  0  0  0  0  0
   38.8660    2.5960   43.2190 C   0  0  0  0  0  3  0  0  0  0  0  0
   38.4780    2.3170   44.5240 C   0  0  0  0  0  3  0  0  0  0  0  0
   37.2490    2.7790   45.0140 C   0  0  0  0  0  0  0  0  0  0  0  0
   36.4140    3.5130   44.1700 C   0  0  0  0  0  3  0  0  0  0  0  0
   36.8110    3.7780   42.8580 C   0  0  0  0  0  0  0  0  0  0  0  0
   36.0310    4.4880   42.0450 F   0  0  0  0  0  0  0  0  0  0  0  0
   36.8210    2.5160   46.2900 O   0  0  0  0  0  0  0  0  0  0  0  0
   37.2910    1.3880   47.0610 C   0  0  0  0  0  2  0  0  0  0  0  0
   37.3990    1.7610   48.5330 C   0  0  0  0  0  0  0  0  0  0  0  0
   37.5700    3.0950   48.9110 C   0  0  0  0  0  3  0  0  0  0  0  0
   37.6890    3.4210   50.2560 C   0  0  0  0  0  3  0  0  0  0  0  0
   37.6530    2.4120   51.2330 C   0  0  0  0  0  3  0  0  0  0  0  0
   37.4930    1.0900   50.8460 C   0  0  0  0  0  3  0  0  0  0  0  0
   37.3590    0.7730   49.4990 C   0  0  0  0  0  3  0  0  0  0  0  0
   36.9930    3.4460   38.8970 C   0  0  0  0  0  0  0  0  0  0  0  0
   37.6250    4.2290   38.2060 O   0  0  0  0  0  0  0  0  0  0  0  0
   35.5940    3.1520   38.4940 C   0  0  2  0  0  3  0  0  0  0  0  0
   35.3750    2.1180   37.5840 N   0  0  0  0  0  0  0  0  0  0  0  0
   34.1030    1.8020   37.1500 C   0  0  0  0  0  0  0  0  0  0  0  0
   36.1700    1.5850   37.2310 H   0  0  0  0  0  0  0  0  0  0  0  0
   33.9140    0.6650   36.1820 C   0  0  0  0  0  1  0  0  0  0  0  0
   33.0380    2.5300   37.6550 C   0  0  0  0  0  3  0  0  0  0  0  0
   33.2480    3.5780   38.5690 C   0  0  0  0  0  3  0  0  0  0  0  0
   34.5370    3.9030   38.9820 C   0  0  0  0  0  3  0  0  0  0  0  0
   39.2280   -1.5600   41.0930 O   0  0  0  0  0  0  0  0  0  0  0  0
   40.1110   -1.2530   40.9250 H   0  0  0  0  0  0  0  0  0  0  0  0
  2  1  1  0  0  0  0
  3  2  2  0  0  0  0
  4  5  2  0  0  0  0
  4  3  1  0  0  0  0
  5  6  1  0  0  0  0
  6 46  1  0  0  0  0
  6  1  2  0  0  0  0
  7  4  1  0  0  0  0
  7  8  1  0  0  0  0
  8 21  1  1  0  0  0
  9  8  1  0  0  0  0
 10 11  1  0  0  0  0
 10  9  2  0  0  0  0
 11  5  1  0  0  0  0
 12 11  1  0  0  0  0
 13  9  1  0  0  0  0
 13 17  2  0  0  0  0
 14 13  1  0  0  0  0
 14 15  1  0  0  0  0
 15 20  1  0  0  0  0
 16 10  1  0  0  0  0
 16 15  1  0  0  0  0
 18 13  2  0  0  0  0
 19 15  1  0  0  0  0
 21 26  2  0  0  0  0
 21 22  1  0  0  0  0
 22 23  2  0  0  0  0
 23 24  1  0  0  0  0
 24 28  1  0  0  0  0
 25 24  2  0  0  0  0
 26 25  1  0  0  0  0
 27 26  1  0  0  0  0
 28 29  1  0  0  0  0
 29 30  1  0  0  0  0
 30 31  2  0  0  0  0
 30 35  1  0  0  0  0
 31 32  1  0  0  0  0
 32 33  2  0  0  0  0
 34 33  1  0  0  0  0
 35 34  2  0  0  0  0
 36  7  1  0  0  0  0
 37 36  2  0  0  0  0
 38 36  1  6  0  0  0
 38 45  1  0  0  0  0
 39 38  1  0  0  0  0
 40 39  1  0  0  0  0
 40 43  2  0  0  0  0
 41 39  1  0  0  0  0
 42 40  1  0  0  0  0
 43 44  1  0  0  0  0
 44 45  2  0  0  0  0
 47 46  1  0  0  0  0
M  END
>  <minimizedAffinity>
-9.71938419

$$$$

 OpenBabel09052209333D

 47 52  0  0  1  0  0  0  0  0999 V2000
   34.8180    3.9780   41.2450 C   0  0  0  0  0  3  0  0  0  0  0  0
   35.0130    5.0490   42.0810 C   0  0  0  0  0  3  0  0  0  0  0  0
   36.3060    5.5100   42.2840 C   0  0  0  0  0  3  0  0  0  0  0  0
   37.4000    4.8800   41.6720 C   0  0  0  0  0  0  0  0  0  0  0  0
   37.1850    3.7790   40.8360 C   0  0  0  0  0  0  0  0  0  0  0  0
   35.8880    3.3460   40.6220 C   0  0  0  0  0  0  0  0  0  0  0  0
   38.7240    5.3390   41.9150 N   0  0  0  0  0  0  0  0  0  0  0  0
   39.6770    4.3660   42.4870 C   0  0  2  0  0  3  0  0  0  0  0  0
   40.2670    3.5430   41.3720 C   0  0  0  0  0  0  0  0  0  0  0  0
   39.5760    2.9880   40.3470 C   0  0  0  0  0  0  0  0  0  0  0  0
   38.2050    3.0940   40.1540 N   0  0  0  0  0  0  0  0  0  0  0  0
   37.8680    2.5650   39.3500 H   0  0  0  0  0  0  0  0  0  0  0  0
   41.9620    3.3720   41.5220 S   0  0  0  0  0  0  0  0  0  0  0  0
   42.5390    2.3370   40.1610 C   0  0  0  0  0  2  0  0  0  0  0  0
   41.4990    1.3130   39.7140 C   0  0  0  0  0  0  0  0  0  0  0  0
   40.2610    2.1370   39.2870 C   0  0  0  0  0  2  0  0  0  0  0  0
   42.2390    2.7810   42.8280 O   0  0  0  0  0  0  0  0  0  0  0  0
   42.6290    4.6520   41.4700 O   0  0  0  0  0  0  0  0  0  0  0  0
   42.0580    0.5460   38.4910 C   0  0  0  0  0  1  0  0  0  0  0  0
   41.1400    0.3150   40.8490 C   0  0  0  0  0  1  0  0  0  0  0  0
   38.9210    3.6020   43.6000 C   0  0  0  0  0  0  0  0  0  0  0  0
   38.6590    2.2360   43.5110 C   0  0  0  0  0  3  0  0  0  0  0  0
   37.9800    1.5810   44.5320 C   0  0  0  0  0  3  0  0  0  0  0  0
   37.5620    2.2820   45.6710 C   0  0  0  0  0  0  0  0  0  0  0  0
   37.8290    3.6490   45.7630 C   0  0  0  0  0  3  0  0  0  0  0  0
   38.5030    4.2980   44.7270 C   0  0  0  0  0  0  0  0  0  0  0  0
   38.7750    5.5980   44.8050 F   0  0  0  0  0  0  0  0  0  0  0  0
   36.8790    1.6780   46.6960 O   0  0  0  0  0  0  0  0  0  0  0  0
   37.5110    0.7970   47.6510 C   0  0  0  0  0  2  0  0  0  0  0  0
   37.5450    1.4460   49.0280 C   0  0  0  0  0  0  0  0  0  0  0  0
   37.6420    2.8350   49.1500 C   0  0  0  0  0  3  0  0  0  0  0  0
   37.6950    3.4140   50.4120 C   0  0  0  0  0  3  0  0  0  0  0  0
   37.6650    2.6070   51.5600 C   0  0  0  0  0  3  0  0  0  0  0  0
   37.5780    1.2290   51.4280 C   0  0  0  0  0  3  0  0  0  0  0  0
   37.5110    0.6570   50.1630 C   0  0  0  0  0  3  0  0  0  0  0  0
   39.1630    6.6440   41.6340 C   0  0  0  0  0  0  0  0  0  0  0  0
   39.6140    7.3700   42.5060 O   0  0  0  0  0  0  0  0  0  0  0  0
   39.0790    7.1970   40.2580 C   0  0  2  0  0  3  0  0  0  0  0  0
   39.0340    8.5840   40.1070 N   0  0  0  0  0  0  0  0  0  0  0  0
   38.9360    9.1670   38.8600 C   0  0  0  0  0  0  0  0  0  0  0  0
   39.0730    9.1780   40.9350 H   0  0  0  0  0  0  0  0  0  0  0  0
   38.9100   10.6680   38.7460 C   0  0  0  0  0  1  0  0  0  0  0  0
   38.9010    8.3390   37.7490 C   0  0  0  0  0  3  0  0  0  0  0  0
   38.9400    6.9400   37.8900 C   0  0  0  0  0  3  0  0  0  0  0  0
   39.0150    6.3630   39.1540 C   0  0  0  0  0  3  0  0  0  0  0  0
   35.6250    2.2810   39.8140 O   0  0  0  0  0  0  0  0  0  0  0  0
   36.3560    1.8500   39.3880 H   0  0  0  0  0  0  0  0  0  0  0  0
  1  2  1  0  0  0  0
  2  3  2  0  0  0  0
  4  7  1  0  0  0  0
  4  3  1  0  0  0  0
  5  4  2  0  0  0  0
  6  5  1  0  0  0  0
  6  1  2  0  0  0  0
  7  8  1  0  0  0  0
  8 21  1  1  0  0  0
  9 13  1  0  0  0  0
  9  8  1  0  0  0  0
 10  9  2  0  0  0  0
 11 10  1  0  0  0  0
 11  5  1  0  0  0  0
 12 11  1  0  0  0  0
 13 17  2  0  0  0  0
 14 13  1  0  0  0  0
 15 14  1  0  0  0  0
 15 20  1  0  0  0  0
 16 15  1  0  0  0  0
 16 10  1  0  0  0  0
 18 13  2  0  0  0  0
 19 15  1  0  0  0  0
 21 26  1  0  0  0  0
 22 21  2  0  0  0  0
 22 23  1  0  0  0  0
 23 24  2  0  0  0  0
 24 25  1  0  0  0  0
 24 28  1  0  0  0  0
 26 27  1  0  0  0  0
 26 25  2  0  0  0  0
 28 29  1  0  0  0  0
 29 30  1  0  0  0  0
 30 31  2  0  0  0  0
 30 35  1  0  0  0  0
 31 32  1  0  0  0  0
 32 33  2  0  0  0  0
 34 33  1  0  0  0  0
 35 34  2  0  0  0  0
 36  7  1  0  0  0  0
 36 37  2  0  0  0  0
 38 36  1  1  0  0  0
 39 38  1  0  0  0  0
 39 41  1  0  0  0  0
 40 39  1  0  0  0  0
 42 40  1  0  0  0  0
 43 44  1  0  0  0  0
 43 40  2  0  0  0  0
 44 45  2  0  0  0  0
 45 38  1  0  0  0  0
 46  6  1  0  0  0  0
 47 46  1  0  0  0  0
M  END
>  <minimizedAffinity>
-9.62865162

$$$$
