MODEL 1
REMARK VINA RESULT:      -7.4      0.000      0.000
REMARK  Name = 
REMARK  9 active torsions:
REMARK  status: ('A' for Active; 'I' for Inactive)
REMARK    1  A    between atoms: C_2  and  C_5
REMARK    2  A    between atoms: C_10  and  C_11
REMARK    3  A    between atoms: C_14  and  C_16
REMARK    4  A    between atoms: C_14  and  C_18
REMARK    5  A    between atoms: C_15  and  C_19
REMARK    6  A    between atoms: C_18  and  C_23
REMARK    7  A    between atoms: C_20  and  C_26
REMARK    8  A    between atoms: C_23  and  C_27
REMARK    9  A    between atoms: C_27  and  C_32
REMARK                            x       y       z     vdW  Elec       q    Type
REMARK                         _______ _______ _______ _____ _____    ______ ____
ROOT
ATOM      1  C   UNL     1       8.477  30.940  79.002  0.00  0.00    +0.000 C 
ATOM      2  O   UNL     1       9.002  29.899  79.408  0.00  0.00    +0.000 OA
ATOM      3  N   UNL     1       7.204  31.299  79.482  0.00  0.00    +0.000 N 
ATOM      4  C   UNL     1       6.543  30.606  80.646  0.00  0.00    +0.000 C 
ATOM      5  C   UNL     1       6.452  32.546  79.155  0.00  0.00    +0.000 C 
ATOM      6  C   UNL     1       5.077  31.132  80.497  0.00  0.00    +0.000 C 
ATOM      7  C   UNL     1       5.230  32.585  80.079  0.00  0.00    +0.000 C 
ENDROOT
BRANCH   1  13
ATOM      8  C   UNL     1      10.845  32.857  75.919  0.00  0.00    +0.000 A 
ATOM      9  C   UNL     1      10.764  33.417  77.203  0.00  0.00    +0.000 A 
ATOM     10  C   UNL     1      10.023  31.769  75.621  0.00  0.00    +0.000 A 
ATOM     11  C   UNL     1       9.954  32.817  78.191  0.00  0.00    +0.000 A 
ATOM     12  C   UNL     1       9.138  31.260  76.571  0.00  0.00    +0.000 A 
ATOM     13  C   UNL     1       9.187  31.677  77.898  0.00  0.00    +0.000 A 
BRANCH   8  15
ATOM     14  F   UNL     1      13.057  33.544  75.260  0.00  0.00    +0.000 F 
ATOM     15  C   UNL     1      11.775  33.366  74.843  0.00  0.00    +0.000 C 
ATOM     16  F   UNL     1      11.371  34.573  74.352  0.00  0.00    +0.000 F 
ATOM     17  F   UNL     1      11.835  32.534  73.766  0.00  0.00    +0.000 F 
ENDBRANCH   8  15
ENDBRANCH   1  13
BRANCH   5  18
ATOM     18  C   UNL     1       6.157  32.786  77.691  0.00  0.00    +0.000 A 
ATOM     19  C   UNL     1       5.537  31.838  76.870  0.00  0.00    +0.000 A 
ATOM     20  C   UNL     1       6.560  34.013  77.120  0.00  0.00    +0.000 A 
ATOM     21  C   UNL     1       5.375  32.094  75.505  0.00  0.00    +0.000 A 
ATOM     22  C   UNL     1       6.401  34.262  75.760  0.00  0.00    +0.000 A 
ATOM     23  C   UNL     1       5.814  33.298  74.951  0.00  0.00    +0.000 A 
ENDBRANCH   5  18
BRANCH   4  24
ATOM     24  C   UNL     1       6.349  29.061  80.721  0.00  0.00    +0.000 C 
ATOM     25  O   UNL     1       5.510  28.471  80.044  0.00  0.00    +0.000 OA
ATOM     26  O   UNL     1       7.097  28.390  81.618  0.00  0.00    +0.000 OA
ENDBRANCH   4  24
BRANCH   7  27
ATOM     27  C   UNL     1       3.980  33.195  79.494  0.00  0.00    +0.000 C 
ATOM     28  O   UNL     1       3.036  32.564  79.054  0.00  0.00    +0.000 OA
ATOM     29  O   UNL     1       3.988  34.551  79.527  0.00  0.00    +0.000 OA
ENDBRANCH   7  27
BRANCH   4  30
ATOM     30  C   UNL     1       7.080  31.104  82.023  0.00  0.00    +0.000 C 
BRANCH  30  31
ATOM     31  C   UNL     1       8.375  31.917  82.050  0.00  0.00    +0.000 C 
BRANCH  31  32
ATOM     32  C   UNL     1       8.039  33.375  82.404  0.00  0.00    +0.000 C 
ATOM     33  C   UNL     1       8.669  34.376  81.455  0.00  0.00    +0.000 C 
ENDBRANCH  31  32
ENDBRANCH  30  31
ENDBRANCH   4  30
TORSDOF 8
ENDMDL
MODEL 2
REMARK VINA RESULT:      -7.2      3.973      6.456
REMARK  Name = 
REMARK  9 active torsions:
REMARK  status: ('A' for Active; 'I' for Inactive)
REMARK    1  A    between atoms: C_2  and  C_5
REMARK    2  A    between atoms: C_10  and  C_11
REMARK    3  A    between atoms: C_14  and  C_16
REMARK    4  A    between atoms: C_14  and  C_18
REMARK    5  A    between atoms: C_15  and  C_19
REMARK    6  A    between atoms: C_18  and  C_23
REMARK    7  A    between atoms: C_20  and  C_26
REMARK    8  A    between atoms: C_23  and  C_27
REMARK    9  A    between atoms: C_27  and  C_32
REMARK                            x       y       z     vdW  Elec       q    Type
REMARK                         _______ _______ _______ _____ _____    ______ ____
ROOT
ATOM      1  C   UNL     1       4.823  33.407  79.866  0.00  0.00    +0.000 C 
ATOM      2  O   UNL     1       3.818  33.952  80.333  0.00  0.00    +0.000 OA
ATOM      3  N   UNL     1       5.512  34.030  78.809  0.00  0.00    +0.000 N 
ATOM      4  C   UNL     1       5.233  35.444  78.371  0.00  0.00    +0.000 C 
ATOM      5  C   UNL     1       6.774  33.552  78.171  0.00  0.00    +0.000 C 
ATOM      6  C   UNL     1       5.980  35.471  76.996  0.00  0.00    +0.000 C 
ATOM      7  C   UNL     1       7.248  34.667  77.232  0.00  0.00    +0.000 C 
ENDROOT
BRANCH   1  13
ATOM      8  C   UNL     1       5.973  29.383  80.992  0.00  0.00    +0.000 A 
ATOM      9  C   UNL     1       4.802  29.605  80.253  0.00  0.00    +0.000 A 
ATOM     10  C   UNL     1       6.661  30.491  81.487  0.00  0.00    +0.000 A 
ATOM     11  C   UNL     1       4.405  30.920  79.928  0.00  0.00    +0.000 A 
ATOM     12  C   UNL     1       6.191  31.785  81.261  0.00  0.00    +0.000 A 
ATOM     13  C   UNL     1       5.148  32.027  80.371  0.00  0.00    +0.000 A 
BRANCH   8  15
ATOM     14  F   UNL     1       7.569  27.654  80.478  0.00  0.00    +0.000 F 
ATOM     15  C   UNL     1       6.530  28.008  81.280  0.00  0.00    +0.000 C 
ATOM     16  F   UNL     1       5.587  27.034  81.121  0.00  0.00    +0.000 F 
ATOM     17  F   UNL     1       6.975  27.881  82.561  0.00  0.00    +0.000 F 
ENDBRANCH   8  15
ENDBRANCH   1  13
BRANCH   5  18
ATOM     18  C   UNL     1       6.734  32.170  77.558  0.00  0.00    +0.000 A 
ATOM     19  C   UNL     1       5.711  31.741  76.705  0.00  0.00    +0.000 A 
ATOM     20  C   UNL     1       7.760  31.261  77.892  0.00  0.00    +0.000 A 
ATOM     21  C   UNL     1       5.692  30.421  76.245  0.00  0.00    +0.000 A 
ATOM     22  C   UNL     1       7.735  29.946  77.436  0.00  0.00    +0.000 A 
ATOM     23  C   UNL     1       6.695  29.525  76.617  0.00  0.00    +0.000 A 
ENDBRANCH   5  18
BRANCH   4  24
ATOM     24  C   UNL     1       3.809  35.958  78.000  0.00  0.00    +0.000 C 
ATOM     25  O   UNL     1       3.232  35.608  76.973  0.00  0.00    +0.000 OA
ATOM     26  O   UNL     1       3.248  36.865  78.822  0.00  0.00    +0.000 OA
ENDBRANCH   4  24
BRANCH   7  27
ATOM     27  C   UNL     1       7.937  34.215  75.968  0.00  0.00    +0.000 C 
ATOM     28  O   UNL     1       9.123  33.951  75.876  0.00  0.00    +0.000 OA
ATOM     29  O   UNL     1       7.090  34.100  74.915  0.00  0.00    +0.000 OA
ENDBRANCH   7  27
BRANCH   4  30
ATOM     30  C   UNL     1       5.915  36.503  79.292  0.00  0.00    +0.000 C 
BRANCH  30  31
ATOM     31  C   UNL     1       6.559  37.728  78.642  0.00  0.00    +0.000 C 
BRANCH  31  32
ATOM     32  C   UNL     1       7.821  38.105  79.434  0.00  0.00    +0.000 C 
ATOM     33  C   UNL     1       8.560  36.898  79.981  0.00  0.00    +0.000 C 
ENDBRANCH  31  32
ENDBRANCH  30  31
ENDBRANCH   4  30
TORSDOF 8
ENDMDL
MODEL 3
REMARK VINA RESULT:      -7.2      2.832      4.135
REMARK  Name = 
REMARK  9 active torsions:
REMARK  status: ('A' for Active; 'I' for Inactive)
REMARK    1  A    between atoms: C_2  and  C_5
REMARK    2  A    between atoms: C_10  and  C_11
REMARK    3  A    between atoms: C_14  and  C_16
REMARK    4  A    between atoms: C_14  and  C_18
REMARK    5  A    between atoms: C_15  and  C_19
REMARK    6  A    between atoms: C_18  and  C_23
REMARK    7  A    between atoms: C_20  and  C_26
REMARK    8  A    between atoms: C_23  and  C_27
REMARK    9  A    between atoms: C_27  and  C_32
REMARK                            x       y       z     vdW  Elec       q    Type
REMARK                         _______ _______ _______ _____ _____    ______ ____
ROOT
ATOM      1  C   UNL     1       8.616  34.926  78.912  0.00  0.00    +0.000 C 
ATOM      2  O   UNL     1       9.341  35.152  79.886  0.00  0.00    +0.000 OA
ATOM      3  N   UNL     1       7.275  35.352  78.941  0.00  0.00    +0.000 N 
ATOM      4  C   UNL     1       6.735  36.280  79.997  0.00  0.00    +0.000 C 
ATOM      5  C   UNL     1       6.281  35.226  77.835  0.00  0.00    +0.000 C 
ATOM      6  C   UNL     1       5.196  36.112  79.766  0.00  0.00    +0.000 C 
ATOM      7  C   UNL     1       5.042  36.023  78.256  0.00  0.00    +0.000 C 
ENDROOT
BRANCH   1  13
ATOM      8  C   UNL     1      10.633  32.538  75.909  0.00  0.00    +0.000 A 
ATOM      9  C   UNL     1      10.380  33.899  75.681  0.00  0.00    +0.000 A 
ATOM     10  C   UNL     1      10.079  31.946  77.044  0.00  0.00    +0.000 A 
ATOM     11  C   UNL     1       9.682  34.663  76.640  0.00  0.00    +0.000 A 
ATOM     12  C   UNL     1       9.288  32.685  77.924  0.00  0.00    +0.000 A 
ATOM     13  C   UNL     1       9.192  34.069  77.816  0.00  0.00    +0.000 A 
BRANCH   8  15
ATOM     14  F   UNL     1      12.733  31.452  75.448  0.00  0.00    +0.000 F 
ATOM     15  C   UNL     1      11.472  31.680  74.992  0.00  0.00    +0.000 C 
ATOM     16  F   UNL     1      11.619  32.246  73.759  0.00  0.00    +0.000 F 
ATOM     17  F   UNL     1      10.919  30.456  74.768  0.00  0.00    +0.000 F 
ENDBRANCH   8  15
ENDBRANCH   1  13
BRANCH   5  18
ATOM     18  C   UNL     1       6.004  33.824  77.339  0.00  0.00    +0.000 A 
ATOM     19  C   UNL     1       5.680  32.762  78.190  0.00  0.00    +0.000 A 
ATOM     20  C   UNL     1       6.114  33.570  75.955  0.00  0.00    +0.000 A 
ATOM     21  C   UNL     1       5.523  31.473  77.672  0.00  0.00    +0.000 A 
ATOM     22  C   UNL     1       5.962  32.285  75.443  0.00  0.00    +0.000 A 
ATOM     23  C   UNL     1       5.673  31.234  76.305  0.00  0.00    +0.000 A 
ENDBRANCH   5  18
BRANCH   4  24
ATOM     24  C   UNL     1       6.885  36.014  81.526  0.00  0.00    +0.000 C 
ATOM     25  O   UNL     1       7.376  36.840  82.291  0.00  0.00    +0.000 OA
ATOM     26  O   UNL     1       6.514  34.800  81.978  0.00  0.00    +0.000 OA
ENDBRANCH   4  24
BRANCH   7  27
ATOM     27  C   UNL     1       3.715  35.467  77.802  0.00  0.00    +0.000 C 
ATOM     28  O   UNL     1       3.304  35.490  76.655  0.00  0.00    +0.000 OA
ATOM     29  O   UNL     1       3.007  34.898  78.809  0.00  0.00    +0.000 OA
ENDBRANCH   7  27
BRANCH   4  30
ATOM     30  C   UNL     1       7.087  37.774  79.720  0.00  0.00    +0.000 C 
BRANCH  30  31
ATOM     31  C   UNL     1       8.450  38.100  79.105  0.00  0.00    +0.000 C 
BRANCH  31  32
ATOM     32  C   UNL     1       9.249  38.960  80.096  0.00  0.00    +0.000 C 
ATOM     33  C   UNL     1       8.404  40.023  80.773  0.00  0.00    +0.000 C 
ENDBRANCH  31  32
ENDBRANCH  30  31
ENDBRANCH   4  30
TORSDOF 8
ENDMDL
MODEL 4
REMARK VINA RESULT:      -6.9      2.869      4.516
REMARK  Name = 
REMARK  9 active torsions:
REMARK  status: ('A' for Active; 'I' for Inactive)
REMARK    1  A    between atoms: C_2  and  C_5
REMARK    2  A    between atoms: C_10  and  C_11
REMARK    3  A    between atoms: C_14  and  C_16
REMARK    4  A    between atoms: C_14  and  C_18
REMARK    5  A    between atoms: C_15  and  C_19
REMARK    6  A    between atoms: C_18  and  C_23
REMARK    7  A    between atoms: C_20  and  C_26
REMARK    8  A    between atoms: C_23  and  C_27
REMARK    9  A    between atoms: C_27  and  C_32
REMARK                            x       y       z     vdW  Elec       q    Type
REMARK                         _______ _______ _______ _____ _____    ______ ____
ROOT
ATOM      1  C   UNL     1       6.678  32.486  80.708  0.00  0.00    +0.000 C 
ATOM      2  O   UNL     1       6.848  32.063  81.856  0.00  0.00    +0.000 OA
ATOM      3  N   UNL     1       6.217  31.603  79.713  0.00  0.00    +0.000 N 
ATOM      4  C   UNL     1       5.691  30.225  80.022  0.00  0.00    +0.000 C 
ATOM      5  C   UNL     1       5.894  31.953  78.299  0.00  0.00    +0.000 C 
ATOM      6  C   UNL     1       5.684  29.594  78.590  0.00  0.00    +0.000 C 
ATOM      7  C   UNL     1       5.230  30.720  77.676  0.00  0.00    +0.000 C 
ENDROOT
BRANCH   1  13
ATOM      8  C   UNL     1       7.984  36.443  79.514  0.00  0.00    +0.000 A 
ATOM      9  C   UNL     1       8.923  35.460  79.861  0.00  0.00    +0.000 A 
ATOM     10  C   UNL     1       6.632  36.164  79.718  0.00  0.00    +0.000 A 
ATOM     11  C   UNL     1       8.494  34.188  80.295  0.00  0.00    +0.000 A 
ATOM     12  C   UNL     1       6.226  34.944  80.261  0.00  0.00    +0.000 A 
ATOM     13  C   UNL     1       7.126  33.895  80.426  0.00  0.00    +0.000 A 
BRANCH   8  15
ATOM     14  F   UNL     1       7.293  38.595  78.683  0.00  0.00    +0.000 F 
ATOM     15  C   UNL     1       8.357  37.785  78.930  0.00  0.00    +0.000 C 
ATOM     16  F   UNL     1       9.013  37.657  77.740  0.00  0.00    +0.000 F 
ATOM     17  F   UNL     1       9.197  38.491  79.737  0.00  0.00    +0.000 F 
ENDBRANCH   8  15
ENDBRANCH   1  13
BRANCH   5  18
ATOM     18  C   UNL     1       7.016  32.558  77.484  0.00  0.00    +0.000 A 
ATOM     19  C   UNL     1       8.297  31.999  77.413  0.00  0.00    +0.000 A 
ATOM     20  C   UNL     1       6.765  33.763  76.793  0.00  0.00    +0.000 A 
ATOM     21  C   UNL     1       9.309  32.660  76.712  0.00  0.00    +0.000 A 
ATOM     22  C   UNL     1       7.778  34.420  76.100  0.00  0.00    +0.000 A 
ATOM     23  C   UNL     1       9.053  33.870  76.065  0.00  0.00    +0.000 A 
ENDBRANCH   5  18
BRANCH   4  24
ATOM     24  C   UNL     1       6.485  29.176  80.858  0.00  0.00    +0.000 C 
ATOM     25  O   UNL     1       7.524  28.661  80.449  0.00  0.00    +0.000 OA
ATOM     26  O   UNL     1       5.952  28.794  82.033  0.00  0.00    +0.000 OA
ENDBRANCH   4  24
BRANCH   7  27
ATOM     27  C   UNL     1       5.518  30.484  76.214  0.00  0.00    +0.000 C 
ATOM     28  O   UNL     1       4.966  31.059  75.292  0.00  0.00    +0.000 OA
ATOM     29  O   UNL     1       6.496  29.567  76.008  0.00  0.00    +0.000 OA
ENDBRANCH   7  27
BRANCH   4  30
ATOM     30  C   UNL     1       4.216  30.247  80.529  0.00  0.00    +0.000 C 
BRANCH  30  31
ATOM     31  C   UNL     1       3.594  31.593  80.904  0.00  0.00    +0.000 C 
BRANCH  31  32
ATOM     32  C   UNL     1       2.371  31.841  80.007  0.00  0.00    +0.000 C 
ATOM     33  C   UNL     1       2.530  33.054  79.110  0.00  0.00    +0.000 C 
ENDBRANCH  31  32
ENDBRANCH  30  31
ENDBRANCH   4  30
TORSDOF 8
ENDMDL
MODEL 5
REMARK VINA RESULT:      -6.9      4.184      6.416
REMARK  Name = 
REMARK  9 active torsions:
REMARK  status: ('A' for Active; 'I' for Inactive)
REMARK    1  A    between atoms: C_2  and  C_5
REMARK    2  A    between atoms: C_10  and  C_11
REMARK    3  A    between atoms: C_14  and  C_16
REMARK    4  A    between atoms: C_14  and  C_18
REMARK    5  A    between atoms: C_15  and  C_19
REMARK    6  A    between atoms: C_18  and  C_23
REMARK    7  A    between atoms: C_20  and  C_26
REMARK    8  A    between atoms: C_23  and  C_27
REMARK    9  A    between atoms: C_27  and  C_32
REMARK                            x       y       z     vdW  Elec       q    Type
REMARK                         _______ _______ _______ _____ _____    ______ ____
ROOT
ATOM      1  C   UNL     1       7.500  32.856  76.759  0.00  0.00    +0.000 C 
ATOM      2  O   UNL     1       8.165  32.840  75.719  0.00  0.00    +0.000 OA
ATOM      3  N   UNL     1       8.095  33.320  77.947  0.00  0.00    +0.000 N 
ATOM      4  C   UNL     1       9.427  34.023  77.974  0.00  0.00    +0.000 C 
ATOM      5  C   UNL     1       7.427  33.471  79.273  0.00  0.00    +0.000 C 
ATOM      6  C   UNL     1       9.748  33.970  79.504  0.00  0.00    +0.000 C 
ATOM      7  C   UNL     1       8.411  34.209  80.186  0.00  0.00    +0.000 C 
ENDROOT
BRANCH   1  13
ATOM      8  C   UNL     1       3.599  30.979  76.990  0.00  0.00    +0.000 A 
ATOM      9  C   UNL     1       4.738  30.215  76.693  0.00  0.00    +0.000 A 
ATOM     10  C   UNL     1       3.733  32.367  77.047  0.00  0.00    +0.000 A 
ATOM     11  C   UNL     1       5.999  30.836  76.572  0.00  0.00    +0.000 A 
ATOM     12  C   UNL     1       4.964  32.978  76.806  0.00  0.00    +0.000 A 
ATOM     13  C   UNL     1       6.132  32.229  76.705  0.00  0.00    +0.000 A 
BRANCH   8  15
ATOM     14  F   UNL     1       1.911  29.360  76.414  0.00  0.00    +0.000 F 
ATOM     15  C   UNL     1       2.237  30.381  77.252  0.00  0.00    +0.000 C 
ATOM     16  F   UNL     1       1.242  31.305  77.120  0.00  0.00    +0.000 F 
ATOM     17  F   UNL     1       2.115  29.891  78.517  0.00  0.00    +0.000 F 
ENDBRANCH   8  15
ENDBRANCH   1  13
BRANCH   5  18
ATOM     18  C   UNL     1       6.818  32.219  79.864  0.00  0.00    +0.000 A 
ATOM     19  C   UNL     1       7.496  30.996  79.930  0.00  0.00    +0.000 A 
ATOM     20  C   UNL     1       5.491  32.280  80.339  0.00  0.00    +0.000 A 
ATOM     21  C   UNL     1       6.841  29.859  80.409  0.00  0.00    +0.000 A 
ATOM     22  C   UNL     1       4.840  31.144  80.811  0.00  0.00    +0.000 A 
ATOM     23  C   UNL     1       5.515  29.930  80.839  0.00  0.00    +0.000 A 
ENDBRANCH   5  18
BRANCH   4  24
ATOM     24  C   UNL     1      10.718  33.431  77.330  0.00  0.00    +0.000 C 
ATOM     25  O   UNL     1      11.432  34.084  76.572  0.00  0.00    +0.000 OA
ATOM     26  O   UNL     1      10.994  32.138  77.582  0.00  0.00    +0.000 OA
ENDBRANCH   4  24
BRANCH   7  27
ATOM     27  C   UNL     1       8.381  33.816  81.643  0.00  0.00    +0.000 C 
ATOM     28  O   UNL     1       9.135  33.015  82.165  0.00  0.00    +0.000 OA
ATOM     29  O   UNL     1       7.427  34.473  82.348  0.00  0.00    +0.000 OA
ENDBRANCH   7  27
BRANCH   4  30
ATOM     30  C   UNL     1       9.319  35.526  77.572  0.00  0.00    +0.000 C 
BRANCH  30  31
ATOM     31  C   UNL     1       7.982  36.045  77.041  0.00  0.00    +0.000 C 
BRANCH  31  32
ATOM     32  C   UNL     1       7.449  37.118  78.003  0.00  0.00    +0.000 C 
ATOM     33  C   UNL     1       8.542  37.774  78.824  0.00  0.00    +0.000 C 
ENDBRANCH  31  32
ENDBRANCH  30  31
ENDBRANCH   4  30
TORSDOF 8
ENDMDL
MODEL 6
REMARK VINA RESULT:      -6.9      1.825      4.717
REMARK  Name = 
REMARK  9 active torsions:
REMARK  status: ('A' for Active; 'I' for Inactive)
REMARK    1  A    between atoms: C_2  and  C_5
REMARK    2  A    between atoms: C_10  and  C_11
REMARK    3  A    between atoms: C_14  and  C_16
REMARK    4  A    between atoms: C_14  and  C_18
REMARK    5  A    between atoms: C_15  and  C_19
REMARK    6  A    between atoms: C_18  and  C_23
REMARK    7  A    between atoms: C_20  and  C_26
REMARK    8  A    between atoms: C_23  and  C_27
REMARK    9  A    between atoms: C_27  and  C_32
REMARK                            x       y       z     vdW  Elec       q    Type
REMARK                         _______ _______ _______ _____ _____    ______ ____
ROOT
ATOM      1  C   UNL     1       5.117  33.501  77.631  0.00  0.00    +0.000 C 
ATOM      2  O   UNL     1       4.115  34.042  77.154  0.00  0.00    +0.000 OA
ATOM      3  N   UNL     1       4.972  32.650  78.743  0.00  0.00    +0.000 N 
ATOM      4  C   UNL     1       3.632  32.174  79.240  0.00  0.00    +0.000 C 
ATOM      5  C   UNL     1       6.055  31.865  79.405  0.00  0.00    +0.000 C 
ATOM      6  C   UNL     1       4.032  31.606  80.642  0.00  0.00    +0.000 C 
ATOM      7  C   UNL     1       5.376  30.934  80.415  0.00  0.00    +0.000 C 
ENDROOT
BRANCH   1  13
ATOM      8  C   UNL     1       9.119  34.570  76.355  0.00  0.00    +0.000 A 
ATOM      9  C   UNL     1       8.320  35.499  77.037  0.00  0.00    +0.000 A 
ATOM     10  C   UNL     1       8.537  33.364  75.961  0.00  0.00    +0.000 A 
ATOM     11  C   UNL     1       7.000  35.165  77.410  0.00  0.00    +0.000 A 
ATOM     12  C   UNL     1       7.196  33.094  76.231  0.00  0.00    +0.000 A 
ATOM     13  C   UNL     1       6.451  33.917  77.071  0.00  0.00    +0.000 A 
BRANCH   8  15
ATOM     14  F   UNL     1      10.921  36.116  75.953  0.00  0.00    +0.000 F 
ATOM     15  C   UNL     1      10.574  34.803  76.025  0.00  0.00    +0.000 C 
ATOM     16  F   UNL     1      10.916  34.260  74.820  0.00  0.00    +0.000 F 
ATOM     17  F   UNL     1      11.415  34.235  76.933  0.00  0.00    +0.000 F 
ENDBRANCH   8  15
ENDBRANCH   1  13
BRANCH   5  18
ATOM     18  C   UNL     1       7.224  32.658  79.946  0.00  0.00    +0.000 A 
ATOM     19  C   UNL     1       7.072  33.777  80.772  0.00  0.00    +0.000 A 
ATOM     20  C   UNL     1       8.528  32.269  79.571  0.00  0.00    +0.000 A 
ATOM     21  C   UNL     1       8.192  34.514  81.164  0.00  0.00    +0.000 A 
ATOM     22  C   UNL     1       9.641  33.008  79.959  0.00  0.00    +0.000 A 
ATOM     23  C   UNL     1       9.471  34.137  80.752  0.00  0.00    +0.000 A 
ENDBRANCH   5  18
BRANCH   4  24
ATOM     24  C   UNL     1       2.456  33.138  79.581  0.00  0.00    +0.000 C 
ATOM     25  O   UNL     1       2.628  34.199  80.178  0.00  0.00    +0.000 OA
ATOM     26  O   UNL     1       1.213  32.733  79.255  0.00  0.00    +0.000 OA
ENDBRANCH   4  24
BRANCH   7  27
ATOM     27  C   UNL     1       6.151  30.658  81.681  0.00  0.00    +0.000 C 
ATOM     28  O   UNL     1       7.137  29.946  81.755  0.00  0.00    +0.000 OA
ATOM     29  O   UNL     1       5.654  31.314  82.759  0.00  0.00    +0.000 OA
ENDBRANCH   7  27
BRANCH   4  30
ATOM     30  C   UNL     1       3.069  30.987  78.399  0.00  0.00    +0.000 C 
BRANCH  30  31
ATOM     31  C   UNL     1       3.625  30.762  76.992  0.00  0.00    +0.000 C 
BRANCH  31  32
ATOM     32  C   UNL     1       4.508  29.504  77.002  0.00  0.00    +0.000 C 
ATOM     33  C   UNL     1       5.910  29.760  76.482  0.00  0.00    +0.000 C 
ENDBRANCH  31  32
ENDBRANCH  30  31
ENDBRANCH   4  30
TORSDOF 8
ENDMDL
MODEL 7
REMARK VINA RESULT:      -6.8      2.271      4.965
REMARK  Name = 
REMARK  9 active torsions:
REMARK  status: ('A' for Active; 'I' for Inactive)
REMARK    1  A    between atoms: C_2  and  C_5
REMARK    2  A    between atoms: C_10  and  C_11
REMARK    3  A    between atoms: C_14  and  C_16
REMARK    4  A    between atoms: C_14  and  C_18
REMARK    5  A    between atoms: C_15  and  C_19
REMARK    6  A    between atoms: C_18  and  C_23
REMARK    7  A    between atoms: C_20  and  C_26
REMARK    8  A    between atoms: C_23  and  C_27
REMARK    9  A    between atoms: C_27  and  C_32
REMARK                            x       y       z     vdW  Elec       q    Type
REMARK                         _______ _______ _______ _____ _____    ______ ____
ROOT
ATOM      1  C   UNL     1       6.389  33.792  76.673  0.00  0.00    +0.000 C 
ATOM      2  O   UNL     1       5.825  34.341  75.722  0.00  0.00    +0.000 OA
ATOM      3  N   UNL     1       5.711  33.682  77.901  0.00  0.00    +0.000 N 
ATOM      4  C   UNL     1       4.244  33.985  78.056  0.00  0.00    +0.000 C 
ATOM      5  C   UNL     1       6.209  32.996  79.130  0.00  0.00    +0.000 C 
ATOM      6  C   UNL     1       4.129  34.060  79.614  0.00  0.00    +0.000 C 
ATOM      7  C   UNL     1       5.040  32.953  80.120  0.00  0.00    +0.000 C 
ENDROOT
BRANCH   1  13
ATOM      8  C   UNL     1      10.473  32.682  75.739  0.00  0.00    +0.000 A 
ATOM      9  C   UNL     1       9.512  31.694  76.000  0.00  0.00    +0.000 A 
ATOM     10  C   UNL     1      10.121  34.016  75.945  0.00  0.00    +0.000 A 
ATOM     11  C   UNL     1       8.195  32.060  76.351  0.00  0.00    +0.000 A 
ATOM     12  C   UNL     1       8.850  34.358  76.408  0.00  0.00    +0.000 A 
ATOM     13  C   UNL     1       7.833  33.411  76.484  0.00  0.00    +0.000 A 
BRANCH   8  15
ATOM     14  F   UNL     1      12.146  32.899  74.020  0.00  0.00    +0.000 F 
ATOM     15  C   UNL     1      11.868  32.379  75.245  0.00  0.00    +0.000 C 
ATOM     16  F   UNL     1      12.089  31.036  75.139  0.00  0.00    +0.000 F 
ATOM     17  F   UNL     1      12.834  32.842  76.086  0.00  0.00    +0.000 F 
ENDBRANCH   8  15
ENDBRANCH   1  13
BRANCH   5  18
ATOM     18  C   UNL     1       7.515  33.503  79.700  0.00  0.00    +0.000 A 
ATOM     19  C   UNL     1       8.566  32.659  80.073  0.00  0.00    +0.000 A 
ATOM     20  C   UNL     1       7.664  34.893  79.895  0.00  0.00    +0.000 A 
ATOM     21  C   UNL     1       9.710  33.190  80.675  0.00  0.00    +0.000 A 
ATOM     22  C   UNL     1       8.803  35.418  80.499  0.00  0.00    +0.000 A 
ATOM     23  C   UNL     1       9.824  34.564  80.895  0.00  0.00    +0.000 A 
ENDBRANCH   5  18
BRANCH   4  24
ATOM     24  C   UNL     1       3.596  35.328  77.598  0.00  0.00    +0.000 C 
ATOM     25  O   UNL     1       2.997  35.437  76.531  0.00  0.00    +0.000 OA
ATOM     26  O   UNL     1       3.776  36.400  78.392  0.00  0.00    +0.000 OA
ENDBRANCH   4  24
BRANCH   7  27
ATOM     27  C   UNL     1       5.407  33.073  81.579  0.00  0.00    +0.000 C 
ATOM     28  O   UNL     1       5.328  34.095  82.237  0.00  0.00    +0.000 OA
ATOM     29  O   UNL     1       5.821  31.900  82.119  0.00  0.00    +0.000 OA
ENDBRANCH   7  27
BRANCH   4  30
ATOM     30  C   UNL     1       3.336  32.811  77.577  0.00  0.00    +0.000 C 
BRANCH  30  31
ATOM     31  C   UNL     1       2.079  32.484  78.386  0.00  0.00    +0.000 C 
BRANCH  31  32
ATOM     32  C   UNL     1       1.486  31.163  77.871  0.00  0.00    +0.000 C 
ATOM     33  C   UNL     1       2.471  30.352  77.051  0.00  0.00    +0.000 C 
ENDBRANCH  31  32
ENDBRANCH  30  31
ENDBRANCH   4  30
TORSDOF 8
ENDMDL
MODEL 8
REMARK VINA RESULT:      -6.8      3.956      6.455
REMARK  Name = 
REMARK  9 active torsions:
REMARK  status: ('A' for Active; 'I' for Inactive)
REMARK    1  A    between atoms: C_2  and  C_5
REMARK    2  A    between atoms: C_10  and  C_11
REMARK    3  A    between atoms: C_14  and  C_16
REMARK    4  A    between atoms: C_14  and  C_18
REMARK    5  A    between atoms: C_15  and  C_19
REMARK    6  A    between atoms: C_18  and  C_23
REMARK    7  A    between atoms: C_20  and  C_26
REMARK    8  A    between atoms: C_23  and  C_27
REMARK    9  A    between atoms: C_27  and  C_32
REMARK                            x       y       z     vdW  Elec       q    Type
REMARK                         _______ _______ _______ _____ _____    ______ ____
ROOT
ATOM      1  C   UNL     1       5.967  36.012  78.381  0.00  0.00    +0.000 C 
ATOM      2  O   UNL     1       5.655  37.123  77.942  0.00  0.00    +0.000 OA
ATOM      3  N   UNL     1       6.785  35.931  79.523  0.00  0.00    +0.000 N 
ATOM      4  C   UNL     1       7.107  37.124  80.385  0.00  0.00    +0.000 C 
ATOM      5  C   UNL     1       7.205  34.683  80.226  0.00  0.00    +0.000 C 
ATOM      6  C   UNL     1       8.290  36.553  81.235  0.00  0.00    +0.000 C 
ATOM      7  C   UNL     1       7.895  35.114  81.524  0.00  0.00    +0.000 C 
ENDROOT
BRANCH   1  13
ATOM      8  C   UNL     1       5.097  32.367  76.203  0.00  0.00    +0.000 A 
ATOM      9  C   UNL     1       6.024  33.291  75.698  0.00  0.00    +0.000 A 
ATOM     10  C   UNL     1       4.353  32.727  77.327  0.00  0.00    +0.000 A 
ATOM     11  C   UNL     1       6.271  34.499  76.385  0.00  0.00    +0.000 A 
ATOM     12  C   UNL     1       4.521  33.975  77.927  0.00  0.00    +0.000 A 
ATOM     13  C   UNL     1       5.566  34.816  77.559  0.00  0.00    +0.000 A 
BRANCH   8  15
ATOM     14  F   UNL     1       4.591  31.032  74.263  0.00  0.00    +0.000 F 
ATOM     15  C   UNL     1       4.861  31.004  75.595  0.00  0.00    +0.000 C 
ATOM     16  F   UNL     1       3.805  30.364  76.177  0.00  0.00    +0.000 F 
ATOM     17  F   UNL     1       5.926  30.170  75.753  0.00  0.00    +0.000 F 
ENDBRANCH   8  15
ENDBRANCH   1  13
BRANCH   5  18
ATOM     18  C   UNL     1       7.966  33.671  79.399  0.00  0.00    +0.000 A 
ATOM     19  C   UNL     1       9.087  34.000  78.629  0.00  0.00    +0.000 A 
ATOM     20  C   UNL     1       7.499  32.339  79.376  0.00  0.00    +0.000 A 
ATOM     21  C   UNL     1       9.688  33.032  77.820  0.00  0.00    +0.000 A 
ATOM     22  C   UNL     1       8.098  31.379  78.565  0.00  0.00    +0.000 A 
ATOM     23  C   UNL     1       9.190  31.729  77.781  0.00  0.00    +0.000 A 
ENDBRANCH   5  18
BRANCH   4  24
ATOM     24  C   UNL     1       7.698  38.451  79.820  0.00  0.00    +0.000 C 
ATOM     25  O   UNL     1       8.890  38.575  79.546  0.00  0.00    +0.000 OA
ATOM     26  O   UNL     1       6.859  39.498  79.702  0.00  0.00    +0.000 OA
ENDBRANCH   4  24
BRANCH   7  27
ATOM     27  C   UNL     1       9.037  34.240  81.985  0.00  0.00    +0.000 C 
ATOM     28  O   UNL     1       8.913  33.134  82.481  0.00  0.00    +0.000 OA
ATOM     29  O   UNL     1      10.253  34.799  81.766  0.00  0.00    +0.000 OA
ENDBRANCH   7  27
BRANCH   4  30
ATOM     30  C   UNL     1       5.953  37.479  81.373  0.00  0.00    +0.000 C 
BRANCH  30  31
ATOM     31  C   UNL     1       6.318  37.973  82.773  0.00  0.00    +0.000 C 
BRANCH  31  32
ATOM     32  C   UNL     1       5.572  39.288  83.047  0.00  0.00    +0.000 C 
ATOM     33  C   UNL     1       6.478  40.504  82.998  0.00  0.00    +0.000 C 
ENDBRANCH  31  32
ENDBRANCH  30  31
ENDBRANCH   4  30
TORSDOF 8
ENDMDL
MODEL 9
REMARK VINA RESULT:      -6.8      2.207      3.337
REMARK  Name = 
REMARK  9 active torsions:
REMARK  status: ('A' for Active; 'I' for Inactive)
REMARK    1  A    between atoms: C_2  and  C_5
REMARK    2  A    between atoms: C_10  and  C_11
REMARK    3  A    between atoms: C_14  and  C_16
REMARK    4  A    between atoms: C_14  and  C_18
REMARK    5  A    between atoms: C_15  and  C_19
REMARK    6  A    between atoms: C_18  and  C_23
REMARK    7  A    between atoms: C_20  and  C_26
REMARK    8  A    between atoms: C_23  and  C_27
REMARK    9  A    between atoms: C_27  and  C_32
REMARK                            x       y       z     vdW  Elec       q    Type
REMARK                         _______ _______ _______ _____ _____    ______ ____
ROOT
ATOM      1  C   UNL     1       6.737  30.878  77.189  0.00  0.00    +0.000 C 
ATOM      2  O   UNL     1       6.448  29.911  76.478  0.00  0.00    +0.000 OA
ATOM      3  N   UNL     1       5.927  31.178  78.300  0.00  0.00    +0.000 N 
ATOM      4  C   UNL     1       4.860  30.245  78.811  0.00  0.00    +0.000 C 
ATOM      5  C   UNL     1       6.161  32.261  79.301  0.00  0.00    +0.000 C 
ATOM      6  C   UNL     1       4.072  31.205  79.763  0.00  0.00    +0.000 C 
ATOM      7  C   UNL     1       5.144  32.052  80.428  0.00  0.00    +0.000 C 
ENDROOT
BRANCH   1  13
ATOM      8  C   UNL     1       9.860  33.681  76.104  0.00  0.00    +0.000 A 
ATOM      9  C   UNL     1       8.615  33.720  75.458  0.00  0.00    +0.000 A 
ATOM     10  C   UNL     1      10.115  32.624  76.979  0.00  0.00    +0.000 A 
ATOM     11  C   UNL     1       7.617  32.776  75.780  0.00  0.00    +0.000 A 
ATOM     12  C   UNL     1       9.162  31.629  77.198  0.00  0.00    +0.000 A 
ATOM     13  C   UNL     1       7.862  31.760  76.719  0.00  0.00    +0.000 A 
BRANCH   8  15
ATOM     14  F   UNL     1      10.570  35.975  76.280  0.00  0.00    +0.000 F 
ATOM     15  C   UNL     1      10.937  34.721  75.905  0.00  0.00    +0.000 C 
ATOM     16  F   UNL     1      11.315  34.818  74.597  0.00  0.00    +0.000 F 
ATOM     17  F   UNL     1      12.076  34.433  76.594  0.00  0.00    +0.000 F 
ENDBRANCH   8  15
ENDBRANCH   1  13
BRANCH   5  18
ATOM     18  C   UNL     1       6.237  33.671  78.758  0.00  0.00    +0.000 A 
ATOM     19  C   UNL     1       5.256  34.225  77.929  0.00  0.00    +0.000 A 
ATOM     20  C   UNL     1       7.370  34.449  79.077  0.00  0.00    +0.000 A 
ATOM     21  C   UNL     1       5.436  35.503  77.392  0.00  0.00    +0.000 A 
ATOM     22  C   UNL     1       7.547  35.720  78.538  0.00  0.00    +0.000 A 
ATOM     23  C   UNL     1       6.581  36.245  77.689  0.00  0.00    +0.000 A 
ENDBRANCH   5  18
BRANCH   4  24
ATOM     24  C   UNL     1       3.735  29.656  77.907  0.00  0.00    +0.000 C 
ATOM     25  O   UNL     1       3.914  28.671  77.194  0.00  0.00    +0.000 OA
ATOM     26  O   UNL     1       2.561  30.314  77.879  0.00  0.00    +0.000 OA
ENDBRANCH   4  24
BRANCH   7  27
ATOM     27  C   UNL     1       4.622  33.306  81.085  0.00  0.00    +0.000 C 
ATOM     28  O   UNL     1       5.255  34.006  81.856  0.00  0.00    +0.000 OA
ATOM     29  O   UNL     1       3.355  33.612  80.711  0.00  0.00    +0.000 OA
ENDBRANCH   7  27
BRANCH   4  30
ATOM     30  C   UNL     1       5.442  29.093  79.688  0.00  0.00    +0.000 C 
BRANCH  30  31
ATOM     31  C   UNL     1       4.483  28.295  80.573  0.00  0.00    +0.000 C 
BRANCH  31  32
ATOM     32  C   UNL     1       5.288  27.248  81.359  0.00  0.00    +0.000 C 
ATOM     33  C   UNL     1       6.729  27.659  81.588  0.00  0.00    +0.000 C 
ENDBRANCH  31  32
ENDBRANCH  30  31
ENDBRANCH   4  30
TORSDOF 8
ENDMDL
