MODEL 1
REMARK VINA RESULT:      -7.8      0.000      0.000
REMARK  Name = 
REMARK  6 active torsions:
REMARK  status: ('A' for Active; 'I' for Inactive)
REMARK    1  A    between atoms: C_2  and  C_5
REMARK    2  A    between atoms: C_10  and  C_11
REMARK    3  A    between atoms: C_14  and  C_16
REMARK    4  A    between atoms: C_14  and  C_18
REMARK    5  A    between atoms: C_15  and  C_19
REMARK    6  A    between atoms: C_20  and  C_25
REMARK                            x       y       z     vdW  Elec       q    Type
REMARK                         _______ _______ _______ _____ _____    ______ ____
ROOT
ATOM      1  C   UNL     1       7.182  32.454  76.247  0.00  0.00    +0.000 C 
ATOM      2  O   UNL     1       6.466  32.854  75.333  0.00  0.00    +0.000 OA
ATOM      3  N   UNL     1       6.649  31.917  77.419  0.00  0.00    +0.000 N 
ATOM      4  C   UNL     1       5.182  31.609  77.634  0.00  0.00    +0.000 C 
ATOM      5  C   UNL     1       7.471  31.290  78.479  0.00  0.00    +0.000 C 
ATOM      6  C   UNL     1       5.190  30.542  78.768  0.00  0.00    +0.000 C 
ATOM      7  C   UNL     1       4.449  31.070  76.397  0.00  0.00    +0.000 C 
ATOM      8  C   UNL     1       6.636  30.074  78.851  0.00  0.00    +0.000 C 
ENDROOT
BRANCH   1  14
ATOM      9  C   UNL     1      11.436  32.786  75.606  0.00  0.00    +0.000 A 
ATOM     10  C   UNL     1      10.786  31.544  75.564  0.00  0.00    +0.000 A 
ATOM     11  C   UNL     1      10.686  33.920  75.969  0.00  0.00    +0.000 A 
ATOM     12  C   UNL     1       9.425  31.443  75.851  0.00  0.00    +0.000 A 
ATOM     13  C   UNL     1       9.308  33.825  76.218  0.00  0.00    +0.000 A 
ATOM     14  C   UNL     1       8.666  32.586  76.110  0.00  0.00    +0.000 A 
BRANCH   9  16
ATOM     15  F   UNL     1      13.599  33.716  76.093  0.00  0.00    +0.000 F 
ATOM     16  C   UNL     1      12.906  32.890  75.260  0.00  0.00    +0.000 C 
ATOM     17  F   UNL     1      13.117  33.366  74.004  0.00  0.00    +0.000 F 
ATOM     18  F   UNL     1      13.542  31.687  75.321  0.00  0.00    +0.000 F 
ENDBRANCH   9  16
ENDBRANCH   1  14
BRANCH   5  19
ATOM     19  C   UNL     1       7.842  32.259  79.604  0.00  0.00    +0.000 A 
ATOM     20  C   UNL     1       6.905  32.900  80.434  0.00  0.00    +0.000 A 
ATOM     21  C   UNL     1       9.196  32.590  79.797  0.00  0.00    +0.000 A 
ATOM     22  C   UNL     1       7.292  33.827  81.406  0.00  0.00    +0.000 A 
ATOM     23  C   UNL     1       9.585  33.520  80.762  0.00  0.00    +0.000 A 
ATOM     24  C   UNL     1       8.631  34.144  81.567  0.00  0.00    +0.000 A 
ENDBRANCH   5  19
BRANCH   4  25
ATOM     25  C   UNL     1       4.352  32.830  78.103  0.00  0.00    +0.000 C 
ATOM     26  O   UNL     1       4.683  33.996  77.920  0.00  0.00    +0.000 OA
ATOM     27  O   UNL     1       3.235  32.516  78.789  0.00  0.00    +0.000 OA
ENDBRANCH   4  25
BRANCH   8  28
ATOM     28  C   UNL     1       7.022  29.329  80.102  0.00  0.00    +0.000 C 
ATOM     29  O   UNL     1       8.018  28.619  80.146  0.00  0.00    +0.000 OA
ATOM     30  O   UNL     1       6.222  29.475  81.172  0.00  0.00    +0.000 OA
ENDBRANCH   8  28
TORSDOF 5
ENDMDL
MODEL 2
REMARK VINA RESULT:      -7.6      1.308      1.701
REMARK  Name = 
REMARK  6 active torsions:
REMARK  status: ('A' for Active; 'I' for Inactive)
REMARK    1  A    between atoms: C_2  and  C_5
REMARK    2  A    between atoms: C_10  and  C_11
REMARK    3  A    between atoms: C_14  and  C_16
REMARK    4  A    between atoms: C_14  and  C_18
REMARK    5  A    between atoms: C_15  and  C_19
REMARK    6  A    between atoms: C_20  and  C_25
REMARK                            x       y       z     vdW  Elec       q    Type
REMARK                         _______ _______ _______ _____ _____    ______ ____
ROOT
ATOM      1  C   UNL     1       7.235  33.051  76.259  0.00  0.00    +0.000 C 
ATOM      2  O   UNL     1       6.544  33.217  75.257  0.00  0.00    +0.000 OA
ATOM      3  N   UNL     1       6.676  32.979  77.535  0.00  0.00    +0.000 N 
ATOM      4  C   UNL     1       5.190  32.924  77.821  0.00  0.00    +0.000 C 
ATOM      5  C   UNL     1       7.450  32.632  78.749  0.00  0.00    +0.000 C 
ATOM      6  C   UNL     1       5.108  32.279  79.236  0.00  0.00    +0.000 C 
ATOM      7  C   UNL     1       4.370  32.107  76.813  0.00  0.00    +0.000 C 
ATOM      8  C   UNL     1       6.495  31.701  79.480  0.00  0.00    +0.000 C 
ENDROOT
BRANCH   1  14
ATOM      9  C   UNL     1      11.481  32.732  75.569  0.00  0.00    +0.000 A 
ATOM     10  C   UNL     1      10.665  31.594  75.628  0.00  0.00    +0.000 A 
ATOM     11  C   UNL     1      10.904  33.985  75.846  0.00  0.00    +0.000 A 
ATOM     12  C   UNL     1       9.308  31.708  75.930  0.00  0.00    +0.000 A 
ATOM     13  C   UNL     1       9.530  34.104  76.110  0.00  0.00    +0.000 A 
ATOM     14  C   UNL     1       8.720  32.962  76.104  0.00  0.00    +0.000 A 
BRANCH   9  16
ATOM     15  F   UNL     1      13.244  33.103  73.974  0.00  0.00    +0.000 F 
ATOM     16  C   UNL     1      12.946  32.602  75.207  0.00  0.00    +0.000 C 
ATOM     17  F   UNL     1      13.371  31.310  75.196  0.00  0.00    +0.000 F 
ATOM     18  F   UNL     1      13.759  33.261  76.078  0.00  0.00    +0.000 F 
ENDBRANCH   9  16
ENDBRANCH   1  14
BRANCH   5  19
ATOM     19  C   UNL     1       7.956  33.860  79.510  0.00  0.00    +0.000 A 
ATOM     20  C   UNL     1       7.391  35.142  79.403  0.00  0.00    +0.000 A 
ATOM     21  C   UNL     1       9.095  33.731  80.326  0.00  0.00    +0.000 A 
ATOM     22  C   UNL     1       7.931  36.245  80.070  0.00  0.00    +0.000 A 
ATOM     23  C   UNL     1       9.640  34.832  80.988  0.00  0.00    +0.000 A 
ATOM     24  C   UNL     1       9.060  36.095  80.858  0.00  0.00    +0.000 A 
ENDBRANCH   5  19
BRANCH   4  25
ATOM     25  C   UNL     1       4.513  34.317  77.867  0.00  0.00    +0.000 C 
ATOM     26  O   UNL     1       4.465  35.088  76.914  0.00  0.00    +0.000 OA
ATOM     27  O   UNL     1       4.012  34.656  79.071  0.00  0.00    +0.000 OA
ENDBRANCH   4  25
BRANCH   8  28
ATOM     28  C   UNL     1       6.828  31.353  80.907  0.00  0.00    +0.000 C 
ATOM     29  O   UNL     1       6.210  31.836  81.848  0.00  0.00    +0.000 OA
ATOM     30  O   UNL     1       7.837  30.487  81.105  0.00  0.00    +0.000 OA
ENDBRANCH   8  28
TORSDOF 5
ENDMDL
MODEL 3
REMARK VINA RESULT:      -7.5      1.839      2.588
REMARK  Name = 
REMARK  6 active torsions:
REMARK  status: ('A' for Active; 'I' for Inactive)
REMARK    1  A    between atoms: C_2  and  C_5
REMARK    2  A    between atoms: C_10  and  C_11
REMARK    3  A    between atoms: C_14  and  C_16
REMARK    4  A    between atoms: C_14  and  C_18
REMARK    5  A    between atoms: C_15  and  C_19
REMARK    6  A    between atoms: C_20  and  C_25
REMARK                            x       y       z     vdW  Elec       q    Type
REMARK                         _______ _______ _______ _____ _____    ______ ____
ROOT
ATOM      1  C   UNL     1       5.938  31.240  76.706  0.00  0.00    +0.000 C 
ATOM      2  O   UNL     1       5.279  30.777  75.779  0.00  0.00    +0.000 OA
ATOM      3  N   UNL     1       5.501  31.168  78.029  0.00  0.00    +0.000 N 
ATOM      4  C   UNL     1       4.290  30.386  78.493  0.00  0.00    +0.000 C 
ATOM      5  C   UNL     1       6.327  31.578  79.187  0.00  0.00    +0.000 C 
ATOM      6  C   UNL     1       4.567  30.138  80.005  0.00  0.00    +0.000 C 
ATOM      7  C   UNL     1       4.066  29.053  77.765  0.00  0.00    +0.000 C 
ATOM      8  C   UNL     1       6.040  30.473  80.191  0.00  0.00    +0.000 C 
ENDROOT
BRANCH   1  14
ATOM      9  C   UNL     1       9.629  33.370  76.033  0.00  0.00    +0.000 A 
ATOM     10  C   UNL     1       8.386  34.009  75.917  0.00  0.00    +0.000 A 
ATOM     11  C   UNL     1       9.648  31.983  76.271  0.00  0.00    +0.000 A 
ATOM     12  C   UNL     1       7.200  33.289  76.060  0.00  0.00    +0.000 A 
ATOM     13  C   UNL     1       8.455  31.266  76.455  0.00  0.00    +0.000 A 
ATOM     14  C   UNL     1       7.226  31.935  76.397  0.00  0.00    +0.000 A 
BRANCH   9  16
ATOM     15  F   UNL     1      11.527  34.015  74.703  0.00  0.00    +0.000 F 
ATOM     16  C   UNL     1      10.910  34.167  75.910  0.00  0.00    +0.000 C 
ATOM     17  F   UNL     1      11.835  33.821  76.846  0.00  0.00    +0.000 F 
ATOM     18  F   UNL     1      10.708  35.506  76.054  0.00  0.00    +0.000 F 
ENDBRANCH   9  16
ENDBRANCH   1  14
BRANCH   5  19
ATOM     19  C   UNL     1       6.065  33.019  79.633  0.00  0.00    +0.000 A 
ATOM     20  C   UNL     1       4.807  33.504  80.029  0.00  0.00    +0.000 A 
ATOM     21  C   UNL     1       7.123  33.946  79.593  0.00  0.00    +0.000 A 
ATOM     22  C   UNL     1       4.606  34.846  80.365  0.00  0.00    +0.000 A 
ATOM     23  C   UNL     1       6.923  35.287  79.921  0.00  0.00    +0.000 A 
ATOM     24  C   UNL     1       5.661  35.741  80.306  0.00  0.00    +0.000 A 
ENDBRANCH   5  19
BRANCH   4  25
ATOM     25  C   UNL     1       2.956  31.161  78.349  0.00  0.00    +0.000 C 
ATOM     26  O   UNL     1       2.807  32.141  77.627  0.00  0.00    +0.000 OA
ATOM     27  O   UNL     1       1.958  30.704  79.130  0.00  0.00    +0.000 OA
ENDBRANCH   4  25
BRANCH   8  28
ATOM     28  C   UNL     1       6.497  30.692  81.609  0.00  0.00    +0.000 C 
ATOM     29  O   UNL     1       5.702  30.777  82.536  0.00  0.00    +0.000 OA
ATOM     30  O   UNL     1       7.822  30.791  81.815  0.00  0.00    +0.000 OA
ENDBRANCH   8  28
TORSDOF 5
ENDMDL
MODEL 4
REMARK VINA RESULT:      -7.3      2.162      2.720
REMARK  Name = 
REMARK  6 active torsions:
REMARK  status: ('A' for Active; 'I' for Inactive)
REMARK    1  A    between atoms: C_2  and  C_5
REMARK    2  A    between atoms: C_10  and  C_11
REMARK    3  A    between atoms: C_14  and  C_16
REMARK    4  A    between atoms: C_14  and  C_18
REMARK    5  A    between atoms: C_15  and  C_19
REMARK    6  A    between atoms: C_20  and  C_25
REMARK                            x       y       z     vdW  Elec       q    Type
REMARK                         _______ _______ _______ _____ _____    ______ ____
ROOT
ATOM      1  C   UNL     1       6.554  33.177  76.462  0.00  0.00    +0.000 C 
ATOM      2  O   UNL     1       5.830  32.920  75.504  0.00  0.00    +0.000 OA
ATOM      3  N   UNL     1       6.035  33.584  77.691  0.00  0.00    +0.000 N 
ATOM      4  C   UNL     1       4.562  33.594  78.041  0.00  0.00    +0.000 C 
ATOM      5  C   UNL     1       6.858  33.759  78.909  0.00  0.00    +0.000 C 
ATOM      6  C   UNL     1       4.550  33.543  79.598  0.00  0.00    +0.000 C 
ATOM      7  C   UNL     1       3.754  32.424  77.462  0.00  0.00    +0.000 C 
ATOM      8  C   UNL     1       5.970  33.151  79.984  0.00  0.00    +0.000 C 
ENDROOT
BRANCH   1  14
ATOM      9  C   UNL     1      10.791  32.799  75.737  0.00  0.00    +0.000 A 
ATOM     10  C   UNL     1      10.004  31.685  76.061  0.00  0.00    +0.000 A 
ATOM     11  C   UNL     1      10.189  34.071  75.757  0.00  0.00    +0.000 A 
ATOM     12  C   UNL     1       8.652  31.835  76.370  0.00  0.00    +0.000 A 
ATOM     13  C   UNL     1       8.819  34.217  76.027  0.00  0.00    +0.000 A 
ATOM     14  C   UNL     1       8.037  33.085  76.288  0.00  0.00    +0.000 A 
BRANCH   9  16
ATOM     15  F   UNL     1      13.099  33.291  76.201  0.00  0.00    +0.000 F 
ATOM     16  C   UNL     1      12.249  32.623  75.370  0.00  0.00    +0.000 C 
ATOM     17  F   UNL     1      12.531  33.064  74.115  0.00  0.00    +0.000 F 
ATOM     18  F   UNL     1      12.643  31.320  75.411  0.00  0.00    +0.000 F 
ENDBRANCH   9  16
ENDBRANCH   1  14
BRANCH   5  19
ATOM     19  C   UNL     1       7.325  35.202  79.117  0.00  0.00    +0.000 A 
ATOM     20  C   UNL     1       6.830  36.302  78.396  0.00  0.00    +0.000 A 
ATOM     21  C   UNL     1       8.357  35.456  80.039  0.00  0.00    +0.000 A 
ATOM     22  C   UNL     1       7.336  37.592  78.577  0.00  0.00    +0.000 A 
ATOM     23  C   UNL     1       8.869  36.742  80.218  0.00  0.00    +0.000 A 
ATOM     24  C   UNL     1       8.361  37.814  79.483  0.00  0.00    +0.000 A 
ENDBRANCH   5  19
BRANCH   4  25
ATOM     25  C   UNL     1       3.820  34.873  77.577  0.00  0.00    +0.000 C 
ATOM     26  O   UNL     1       3.718  35.220  76.406  0.00  0.00    +0.000 OA
ATOM     27  O   UNL     1       3.326  35.626  78.579  0.00  0.00    +0.000 OA
ENDBRANCH   4  25
BRANCH   8  28
ATOM     28  C   UNL     1       6.358  33.393  81.419  0.00  0.00    +0.000 C 
ATOM     29  O   UNL     1       5.773  34.213  82.114  0.00  0.00    +0.000 OA
ATOM     30  O   UNL     1       7.380  32.667  81.905  0.00  0.00    +0.000 OA
ENDBRANCH   8  28
TORSDOF 5
ENDMDL
MODEL 5
REMARK VINA RESULT:      -7.3      3.702      4.943
REMARK  Name = 
REMARK  6 active torsions:
REMARK  status: ('A' for Active; 'I' for Inactive)
REMARK    1  A    between atoms: C_2  and  C_5
REMARK    2  A    between atoms: C_10  and  C_11
REMARK    3  A    between atoms: C_14  and  C_16
REMARK    4  A    between atoms: C_14  and  C_18
REMARK    5  A    between atoms: C_15  and  C_19
REMARK    6  A    between atoms: C_20  and  C_25
REMARK                            x       y       z     vdW  Elec       q    Type
REMARK                         _______ _______ _______ _____ _____    ______ ____
ROOT
ATOM      1  C   UNL     1       7.117  32.987  76.879  0.00  0.00    +0.000 C 
ATOM      2  O   UNL     1       7.508  32.733  75.743  0.00  0.00    +0.000 OA
ATOM      3  N   UNL     1       6.433  32.047  77.651  0.00  0.00    +0.000 N 
ATOM      4  C   UNL     1       6.245  30.594  77.268  0.00  0.00    +0.000 C 
ATOM      5  C   UNL     1       6.076  32.258  79.072  0.00  0.00    +0.000 C 
ATOM      6  C   UNL     1       5.979  29.884  78.628  0.00  0.00    +0.000 C 
ATOM      7  C   UNL     1       7.446  29.955  76.556  0.00  0.00    +0.000 C 
ATOM      8  C   UNL     1       6.387  30.902  79.684  0.00  0.00    +0.000 C 
ENDROOT
BRANCH   1  14
ATOM      9  C   UNL     1       7.588  36.905  78.623  0.00  0.00    +0.000 A 
ATOM     10  C   UNL     1       6.541  36.623  77.733  0.00  0.00    +0.000 A 
ATOM     11  C   UNL     1       8.553  35.908  78.857  0.00  0.00    +0.000 A 
ATOM     12  C   UNL     1       6.449  35.375  77.117  0.00  0.00    +0.000 A 
ATOM     13  C   UNL     1       8.437  34.638  78.269  0.00  0.00    +0.000 A 
ATOM     14  C   UNL     1       7.350  34.357  77.432  0.00  0.00    +0.000 A 
BRANCH   9  16
ATOM     15  F   UNL     1       7.414  38.185  80.652  0.00  0.00    +0.000 F 
ATOM     16  C   UNL     1       7.661  38.251  79.312  0.00  0.00    +0.000 C 
ATOM     17  F   UNL     1       6.768  39.146  78.812  0.00  0.00    +0.000 F 
ATOM     18  F   UNL     1       8.887  38.832  79.193  0.00  0.00    +0.000 F 
ENDBRANCH   9  16
ENDBRANCH   1  14
BRANCH   5  19
ATOM     19  C   UNL     1       4.659  32.806  79.260  0.00  0.00    +0.000 A 
ATOM     20  C   UNL     1       3.507  32.219  78.708  0.00  0.00    +0.000 A 
ATOM     21  C   UNL     1       4.483  34.004  79.977  0.00  0.00    +0.000 A 
ATOM     22  C   UNL     1       2.242  32.795  78.856  0.00  0.00    +0.000 A 
ATOM     23  C   UNL     1       3.222  34.585  80.120  0.00  0.00    +0.000 A 
ATOM     24  C   UNL     1       2.098  33.982  79.556  0.00  0.00    +0.000 A 
ENDBRANCH   5  19
BRANCH   4  25
ATOM     25  C   UNL     1       5.035  30.348  76.331  0.00  0.00    +0.000 C 
ATOM     26  O   UNL     1       4.797  31.015  75.330  0.00  0.00    +0.000 OA
ATOM     27  O   UNL     1       4.212  29.358  76.729  0.00  0.00    +0.000 OA
ENDBRANCH   4  25
BRANCH   8  28
ATOM     28  C   UNL     1       5.890  30.644  81.082  0.00  0.00    +0.000 C 
ATOM     29  O   UNL     1       5.096  29.745  81.327  0.00  0.00    +0.000 OA
ATOM     30  O   UNL     1       6.357  31.447  82.054  0.00  0.00    +0.000 OA
ENDBRANCH   8  28
TORSDOF 5
ENDMDL
MODEL 6
REMARK VINA RESULT:      -7.3      4.201      5.766
REMARK  Name = 
REMARK  6 active torsions:
REMARK  status: ('A' for Active; 'I' for Inactive)
REMARK    1  A    between atoms: C_2  and  C_5
REMARK    2  A    between atoms: C_10  and  C_11
REMARK    3  A    between atoms: C_14  and  C_16
REMARK    4  A    between atoms: C_14  and  C_18
REMARK    5  A    between atoms: C_15  and  C_19
REMARK    6  A    between atoms: C_20  and  C_25
REMARK                            x       y       z     vdW  Elec       q    Type
REMARK                         _______ _______ _______ _____ _____    ______ ____
ROOT
ATOM      1  C   UNL     1       5.573  35.018  77.193  0.00  0.00    +0.000 C 
ATOM      2  O   UNL     1       4.506  35.060  76.587  0.00  0.00    +0.000 OA
ATOM      3  N   UNL     1       6.465  33.955  77.043  0.00  0.00    +0.000 N 
ATOM      4  C   UNL     1       6.316  32.846  76.022  0.00  0.00    +0.000 C 
ATOM      5  C   UNL     1       7.821  33.934  77.637  0.00  0.00    +0.000 C 
ATOM      6  C   UNL     1       7.764  32.298  75.858  0.00  0.00    +0.000 C 
ATOM      7  C   UNL     1       5.756  33.292  74.664  0.00  0.00    +0.000 C 
ATOM      8  C   UNL     1       8.654  33.349  76.507  0.00  0.00    +0.000 C 
ENDROOT
BRANCH   1  14
ATOM      9  C   UNL     1       6.687  38.042  80.061  0.00  0.00    +0.000 A 
ATOM     10  C   UNL     1       5.887  36.950  80.426  0.00  0.00    +0.000 A 
ATOM     11  C   UNL     1       7.035  38.193  78.706  0.00  0.00    +0.000 A 
ATOM     12  C   UNL     1       5.470  36.023  79.471  0.00  0.00    +0.000 A 
ATOM     13  C   UNL     1       6.650  37.238  77.752  0.00  0.00    +0.000 A 
ATOM     14  C   UNL     1       5.904  36.121  78.147  0.00  0.00    +0.000 A 
BRANCH   9  16
ATOM     15  F   UNL     1       6.165  39.461  81.932  0.00  0.00    +0.000 F 
ATOM     16  C   UNL     1       7.162  39.024  81.111  0.00  0.00    +0.000 C 
ATOM     17  F   UNL     1       7.716  40.142  80.571  0.00  0.00    +0.000 F 
ATOM     18  F   UNL     1       8.109  38.492  81.933  0.00  0.00    +0.000 F 
ENDBRANCH   9  16
ENDBRANCH   1  14
BRANCH   5  19
ATOM     19  C   UNL     1       7.873  33.223  78.991  0.00  0.00    +0.000 A 
ATOM     20  C   UNL     1       7.331  31.949  79.233  0.00  0.00    +0.000 A 
ATOM     21  C   UNL     1       8.441  33.894  80.090  0.00  0.00    +0.000 A 
ATOM     22  C   UNL     1       7.348  31.369  80.505  0.00  0.00    +0.000 A 
ATOM     23  C   UNL     1       8.453  33.320  81.362  0.00  0.00    +0.000 A 
ATOM     24  C   UNL     1       7.902  32.056  81.573  0.00  0.00    +0.000 A 
ENDBRANCH   5  19
BRANCH   4  25
ATOM     25  C   UNL     1       5.394  31.691  76.487  0.00  0.00    +0.000 C 
ATOM     26  O   UNL     1       4.400  31.847  77.188  0.00  0.00    +0.000 OA
ATOM     27  O   UNL     1       5.797  30.465  76.101  0.00  0.00    +0.000 OA
ENDBRANCH   4  25
BRANCH   8  28
ATOM     28  C   UNL     1      10.059  32.918  76.837  0.00  0.00    +0.000 C 
ATOM     29  O   UNL     1      10.370  31.736  76.903  0.00  0.00    +0.000 OA
ATOM     30  O   UNL     1      10.960  33.890  77.058  0.00  0.00    +0.000 OA
ENDBRANCH   8  28
TORSDOF 5
ENDMDL
MODEL 7
REMARK VINA RESULT:      -7.1      3.476      5.967
REMARK  Name = 
REMARK  6 active torsions:
REMARK  status: ('A' for Active; 'I' for Inactive)
REMARK    1  A    between atoms: C_2  and  C_5
REMARK    2  A    between atoms: C_10  and  C_11
REMARK    3  A    between atoms: C_14  and  C_16
REMARK    4  A    between atoms: C_14  and  C_18
REMARK    5  A    between atoms: C_15  and  C_19
REMARK    6  A    between atoms: C_20  and  C_25
REMARK                            x       y       z     vdW  Elec       q    Type
REMARK                         _______ _______ _______ _____ _____    ______ ____
ROOT
ATOM      1  C   UNL     1       7.363  32.988  80.530  0.00  0.00    +0.000 C 
ATOM      2  O   UNL     1       7.494  32.575  81.679  0.00  0.00    +0.000 OA
ATOM      3  N   UNL     1       7.169  32.123  79.453  0.00  0.00    +0.000 N 
ATOM      4  C   UNL     1       6.929  30.633  79.581  0.00  0.00    +0.000 C 
ATOM      5  C   UNL     1       6.860  32.582  78.080  0.00  0.00    +0.000 C 
ATOM      6  C   UNL     1       6.215  30.258  78.249  0.00  0.00    +0.000 C 
ATOM      7  C   UNL     1       6.069  30.219  80.783  0.00  0.00    +0.000 C 
ATOM      8  C   UNL     1       5.792  31.590  77.646  0.00  0.00    +0.000 C 
ENDROOT
BRANCH   1  14
ATOM      9  C   UNL     1       7.539  37.271  80.040  0.00  0.00    +0.000 A 
ATOM     10  C   UNL     1       6.314  36.589  80.058  0.00  0.00    +0.000 A 
ATOM     11  C   UNL     1       8.725  36.516  80.079  0.00  0.00    +0.000 A 
ATOM     12  C   UNL     1       6.277  35.197  80.138  0.00  0.00    +0.000 A 
ATOM     13  C   UNL     1       8.688  35.118  80.201  0.00  0.00    +0.000 A 
ATOM     14  C   UNL     1       7.455  34.460  80.279  0.00  0.00    +0.000 A 
BRANCH   9  16
ATOM     15  F   UNL     1       6.802  39.304  78.987  0.00  0.00    +0.000 F 
ATOM     16  C   UNL     1       7.568  38.784  79.988  0.00  0.00    +0.000 C 
ATOM     17  F   UNL     1       8.820  39.278  79.794  0.00  0.00    +0.000 F 
ATOM     18  F   UNL     1       7.110  39.355  81.136  0.00  0.00    +0.000 F 
ENDBRANCH   9  16
ENDBRANCH   1  14
BRANCH   5  19
ATOM     19  C   UNL     1       8.102  32.710  77.196  0.00  0.00    +0.000 A 
ATOM     20  C   UNL     1       8.864  31.619  76.745  0.00  0.00    +0.000 A 
ATOM     21  C   UNL     1       8.561  33.995  76.851  0.00  0.00    +0.000 A 
ATOM     22  C   UNL     1      10.029  31.793  75.991  0.00  0.00    +0.000 A 
ATOM     23  C   UNL     1       9.727  34.172  76.105  0.00  0.00    +0.000 A 
ATOM     24  C   UNL     1      10.466  33.069  75.676  0.00  0.00    +0.000 A 
ENDBRANCH   5  19
BRANCH   4  25
ATOM     25  C   UNL     1       8.231  29.801  79.702  0.00  0.00    +0.000 C 
ATOM     26  O   UNL     1       9.357  30.264  79.556  0.00  0.00    +0.000 OA
ATOM     27  O   UNL     1       8.035  28.489  79.936  0.00  0.00    +0.000 OA
ENDBRANCH   4  25
BRANCH   8  28
ATOM     28  C   UNL     1       5.420  31.570  76.186  0.00  0.00    +0.000 C 
ATOM     29  O   UNL     1       5.312  30.521  75.564  0.00  0.00    +0.000 OA
ATOM     30  O   UNL     1       5.212  32.758  75.594  0.00  0.00    +0.000 OA
ENDBRANCH   8  28
TORSDOF 5
ENDMDL
MODEL 8
REMARK VINA RESULT:      -7.1      1.732      2.522
REMARK  Name = 
REMARK  6 active torsions:
REMARK  status: ('A' for Active; 'I' for Inactive)
REMARK    1  A    between atoms: C_2  and  C_5
REMARK    2  A    between atoms: C_10  and  C_11
REMARK    3  A    between atoms: C_14  and  C_16
REMARK    4  A    between atoms: C_14  and  C_18
REMARK    5  A    between atoms: C_15  and  C_19
REMARK    6  A    between atoms: C_20  and  C_25
REMARK                            x       y       z     vdW  Elec       q    Type
REMARK                         _______ _______ _______ _____ _____    ______ ____
ROOT
ATOM      1  C   UNL     1       5.397  31.595  77.458  0.00  0.00    +0.000 C 
ATOM      2  O   UNL     1       4.473  32.025  76.772  0.00  0.00    +0.000 OA
ATOM      3  N   UNL     1       5.173  30.936  78.667  0.00  0.00    +0.000 N 
ATOM      4  C   UNL     1       3.810  30.528  79.184  0.00  0.00    +0.000 C 
ATOM      5  C   UNL     1       6.243  30.274  79.448  0.00  0.00    +0.000 C 
ATOM      6  C   UNL     1       4.122  29.375  80.183  0.00  0.00    +0.000 C 
ATOM      7  C   UNL     1       2.828  30.049  78.105  0.00  0.00    +0.000 C 
ATOM      8  C   UNL     1       5.564  28.987  79.890  0.00  0.00    +0.000 C 
ENDROOT
BRANCH   1  14
ATOM      9  C   UNL     1       9.512  32.297  76.368  0.00  0.00    +0.000 A 
ATOM     10  C   UNL     1       8.665  33.351  76.737  0.00  0.00    +0.000 A 
ATOM     11  C   UNL     1       8.963  31.006  76.256  0.00  0.00    +0.000 A 
ATOM     12  C   UNL     1       7.317  33.119  77.010  0.00  0.00    +0.000 A 
ATOM     13  C   UNL     1       7.616  30.765  76.570  0.00  0.00    +0.000 A 
ATOM     14  C   UNL     1       6.802  31.821  76.996  0.00  0.00    +0.000 A 
BRANCH   9  16
ATOM     15  F   UNL     1      11.663  32.961  77.215  0.00  0.00    +0.000 F 
ATOM     16  C   UNL     1      10.981  32.554  76.106  0.00  0.00    +0.000 C 
ATOM     17  F   UNL     1      11.186  33.518  75.169  0.00  0.00    +0.000 F 
ATOM     18  F   UNL     1      11.633  31.446  75.659  0.00  0.00    +0.000 F 
ENDBRANCH   9  16
ENDBRANCH   1  14
BRANCH   5  19
ATOM     19  C   UNL     1       6.830  31.170  80.541  0.00  0.00    +0.000 A 
ATOM     20  C   UNL     1       8.127  31.710  80.505  0.00  0.00    +0.000 A 
ATOM     21  C   UNL     1       6.063  31.431  81.691  0.00  0.00    +0.000 A 
ATOM     22  C   UNL     1       8.641  32.470  81.560  0.00  0.00    +0.000 A 
ATOM     23  C   UNL     1       6.576  32.183  82.749  0.00  0.00    +0.000 A 
ATOM     24  C   UNL     1       7.869  32.702  82.686  0.00  0.00    +0.000 A 
ENDBRANCH   5  19
BRANCH   4  25
ATOM     25  C   UNL     1       3.067  31.658  79.940  0.00  0.00    +0.000 C 
ATOM     26  O   UNL     1       2.984  32.814  79.537  0.00  0.00    +0.000 OA
ATOM     27  O   UNL     1       2.548  31.289  81.128  0.00  0.00    +0.000 OA
ENDBRANCH   4  25
BRANCH   8  28
ATOM     28  C   UNL     1       6.259  28.166  80.945  0.00  0.00    +0.000 C 
ATOM     29  O   UNL     1       5.681  27.803  81.961  0.00  0.00    +0.000 OA
ATOM     30  O   UNL     1       7.546  27.849  80.722  0.00  0.00    +0.000 OA
ENDBRANCH   8  28
TORSDOF 5
ENDMDL
MODEL 9
REMARK VINA RESULT:      -6.9      4.327      6.592
REMARK  Name = 
REMARK  6 active torsions:
REMARK  status: ('A' for Active; 'I' for Inactive)
REMARK    1  A    between atoms: C_2  and  C_5
REMARK    2  A    between atoms: C_10  and  C_11
REMARK    3  A    between atoms: C_14  and  C_16
REMARK    4  A    between atoms: C_14  and  C_18
REMARK    5  A    between atoms: C_15  and  C_19
REMARK    6  A    between atoms: C_20  and  C_25
REMARK                            x       y       z     vdW  Elec       q    Type
REMARK                         _______ _______ _______ _____ _____    ______ ____
ROOT
ATOM      1  C   UNL     1       8.691  31.695  76.375  0.00  0.00    +0.000 C 
ATOM      2  O   UNL     1       9.377  30.930  75.703  0.00  0.00    +0.000 OA
ATOM      3  N   UNL     1       9.140  32.965  76.736  0.00  0.00    +0.000 N 
ATOM      4  C   UNL     1      10.412  33.606  76.220  0.00  0.00    +0.000 C 
ATOM      5  C   UNL     1       8.293  33.971  77.416  0.00  0.00    +0.000 C 
ATOM      6  C   UNL     1      10.166  35.131  76.419  0.00  0.00    +0.000 C 
ATOM      7  C   UNL     1      10.734  33.304  74.749  0.00  0.00    +0.000 C 
ATOM      8  C   UNL     1       8.672  35.251  76.688  0.00  0.00    +0.000 C 
ENDROOT
BRANCH   1  14
ATOM      9  C   UNL     1       4.823  30.190  77.553  0.00  0.00    +0.000 A 
ATOM     10  C   UNL     1       4.979  30.982  76.407  0.00  0.00    +0.000 A 
ATOM     11  C   UNL     1       5.943  29.980  78.379  0.00  0.00    +0.000 A 
ATOM     12  C   UNL     1       6.222  31.526  76.083  0.00  0.00    +0.000 A 
ATOM     13  C   UNL     1       7.202  30.494  78.031  0.00  0.00    +0.000 A 
ATOM     14  C   UNL     1       7.350  31.231  76.850  0.00  0.00    +0.000 A 
BRANCH   9  16
ATOM     15  F   UNL     1       2.709  29.345  76.776  0.00  0.00    +0.000 F 
ATOM     16  C   UNL     1       3.478  29.575  77.878  0.00  0.00    +0.000 C 
ATOM     17  F   UNL     1       2.727  30.359  78.698  0.00  0.00    +0.000 F 
ATOM     18  F   UNL     1       3.592  28.372  78.506  0.00  0.00    +0.000 F 
ENDBRANCH   9  16
ENDBRANCH   1  14
BRANCH   5  19
ATOM     19  C   UNL     1       8.446  33.956  78.938  0.00  0.00    +0.000 A 
ATOM     20  C   UNL     1       9.650  34.224  79.612  0.00  0.00    +0.000 A 
ATOM     21  C   UNL     1       7.339  33.596  79.729  0.00  0.00    +0.000 A 
ATOM     22  C   UNL     1       9.753  34.134  81.003  0.00  0.00    +0.000 A 
ATOM     23  C   UNL     1       7.441  33.499  81.117  0.00  0.00    +0.000 A 
ATOM     24  C   UNL     1       8.652  33.765  81.758  0.00  0.00    +0.000 A 
ENDBRANCH   5  19
BRANCH   4  25
ATOM     25  C   UNL     1      11.680  33.196  77.009  0.00  0.00    +0.000 C 
ATOM     26  O   UNL     1      12.780  33.717  76.858  0.00  0.00    +0.000 OA
ATOM     27  O   UNL     1      11.501  32.167  77.860  0.00  0.00    +0.000 OA
ENDBRANCH   4  25
BRANCH   8  28
ATOM     28  C   UNL     1       8.209  36.552  77.290  0.00  0.00    +0.000 C 
ATOM     29  O   UNL     1       8.990  37.328  77.824  0.00  0.00    +0.000 OA
ATOM     30  O   UNL     1       6.895  36.824  77.217  0.00  0.00    +0.000 OA
ENDBRANCH   8  28
TORSDOF 5
ENDMDL
