MODEL 1
REMARK VINA RESULT:      -7.6      0.000      0.000
REMARK  Name = 
REMARK  9 active torsions:
REMARK  status: ('A' for Active; 'I' for Inactive)
REMARK    1  A    between atoms: C_2  and  C_5
REMARK    2  A    between atoms: C_10  and  C_11
REMARK    3  A    between atoms: C_14  and  C_16
REMARK    4  A    between atoms: C_14  and  C_18
REMARK    5  A    between atoms: C_15  and  C_19
REMARK    6  A    between atoms: C_18  and  C_23
REMARK    7  A    between atoms: C_20  and  C_26
REMARK    8  A    between atoms: C_23  and  C_27
REMARK    9  A    between atoms: C_23  and  C_28
REMARK                            x       y       z     vdW  Elec       q    Type
REMARK                         _______ _______ _______ _____ _____    ______ ____
ROOT
ATOM      1  C   UNL     1       8.465  30.921  78.890  0.00  0.00    +0.000 C 
ATOM      2  O   UNL     1       8.866  29.794  79.176  0.00  0.00    +0.000 OA
ATOM      3  N   UNL     1       7.235  31.354  79.422  0.00  0.00    +0.000 N 
ATOM      4  C   UNL     1       6.654  30.749  80.664  0.00  0.00    +0.000 C 
ATOM      5  C   UNL     1       6.500  32.602  79.070  0.00  0.00    +0.000 C 
ATOM      6  C   UNL     1       5.175  31.264  80.539  0.00  0.00    +0.000 C 
ATOM      7  C   UNL     1       5.315  32.691  80.045  0.00  0.00    +0.000 C 
ENDROOT
BRANCH   1  13
ATOM      8  C   UNL     1      10.918  33.036  76.015  0.00  0.00    +0.000 A 
ATOM      9  C   UNL     1      10.775  33.509  77.326  0.00  0.00    +0.000 A 
ATOM     10  C   UNL     1      10.159  31.933  75.623  0.00  0.00    +0.000 A 
ATOM     11  C   UNL     1       9.949  32.832  78.243  0.00  0.00    +0.000 A 
ATOM     12  C   UNL     1       9.258  31.340  76.506  0.00  0.00    +0.000 A 
ATOM     13  C   UNL     1       9.224  31.694  77.852  0.00  0.00    +0.000 A 
BRANCH   8  15
ATOM     14  F   UNL     1      11.789  33.082  73.775  0.00  0.00    +0.000 F 
ATOM     15  C   UNL     1      11.835  33.671  74.999  0.00  0.00    +0.000 C 
ATOM     16  F   UNL     1      13.141  33.622  75.389  0.00  0.00    +0.000 F 
ATOM     17  F   UNL     1      11.560  34.990  74.799  0.00  0.00    +0.000 F 
ENDBRANCH   8  15
ENDBRANCH   1  13
BRANCH   5  18
ATOM     18  C   UNL     1       6.163  32.733  77.599  0.00  0.00    +0.000 A 
ATOM     19  C   UNL     1       5.505  31.741  76.862  0.00  0.00    +0.000 A 
ATOM     20  C   UNL     1       6.558  33.911  76.933  0.00  0.00    +0.000 A 
ATOM     21  C   UNL     1       5.256  31.927  75.498  0.00  0.00    +0.000 A 
ATOM     22  C   UNL     1       6.309  34.093  75.576  0.00  0.00    +0.000 A 
ATOM     23  C   UNL     1       5.653  33.102  74.858  0.00  0.00    +0.000 A 
ENDBRANCH   5  18
BRANCH   4  24
ATOM     24  C   UNL     1       6.418  29.218  80.813  0.00  0.00    +0.000 C 
ATOM     25  O   UNL     1       7.103  28.501  81.533  0.00  0.00    +0.000 OA
ATOM     26  O   UNL     1       5.299  28.758  80.217  0.00  0.00    +0.000 OA
ENDBRANCH   4  24
BRANCH   7  27
ATOM     27  C   UNL     1       4.128  33.461  79.522  0.00  0.00    +0.000 C 
ATOM     28  O   UNL     1       4.138  34.692  79.468  0.00  0.00    +0.000 OA
ATOM     29  O   UNL     1       3.050  32.755  79.157  0.00  0.00    +0.000 OA
ENDBRANCH   7  27
BRANCH   4  30
ATOM     30  C   UNL     1       7.319  31.327  81.961  0.00  0.00    +0.000 C 
BRANCH  30  31
ATOM     31  C   UNL     1       6.484  31.394  83.262  0.00  0.00    +0.000 C 
ATOM     32  C   UNL     1       7.158  30.547  84.354  0.00  0.00    +0.000 C 
ATOM     33  C   UNL     1       6.293  32.808  83.806  0.00  0.00    +0.000 C 
ENDBRANCH  30  31
ENDBRANCH   4  30
TORSDOF 7
ENDMDL
MODEL 2
REMARK VINA RESULT:      -7.3      4.123      6.581
REMARK  Name = 
REMARK  9 active torsions:
REMARK  status: ('A' for Active; 'I' for Inactive)
REMARK    1  A    between atoms: C_2  and  C_5
REMARK    2  A    between atoms: C_10  and  C_11
REMARK    3  A    between atoms: C_14  and  C_16
REMARK    4  A    between atoms: C_14  and  C_18
REMARK    5  A    between atoms: C_15  and  C_19
REMARK    6  A    between atoms: C_18  and  C_23
REMARK    7  A    between atoms: C_20  and  C_26
REMARK    8  A    between atoms: C_23  and  C_27
REMARK    9  A    between atoms: C_23  and  C_28
REMARK                            x       y       z     vdW  Elec       q    Type
REMARK                         _______ _______ _______ _____ _____    ______ ____
ROOT
ATOM      1  C   UNL     1       5.055  33.426  80.339  0.00  0.00    +0.000 C 
ATOM      2  O   UNL     1       4.147  33.969  80.965  0.00  0.00    +0.000 OA
ATOM      3  N   UNL     1       5.586  34.084  79.212  0.00  0.00    +0.000 N 
ATOM      4  C   UNL     1       5.464  35.567  79.033  0.00  0.00    +0.000 C 
ATOM      5  C   UNL     1       6.562  33.529  78.233  0.00  0.00    +0.000 C 
ATOM      6  C   UNL     1       5.807  35.674  77.503  0.00  0.00    +0.000 C 
ATOM      7  C   UNL     1       6.945  34.692  77.303  0.00  0.00    +0.000 C 
ENDROOT
BRANCH   1  13
ATOM      8  C   UNL     1       6.167  29.312  81.107  0.00  0.00    +0.000 A 
ATOM      9  C   UNL     1       4.903  29.632  80.596  0.00  0.00    +0.000 A 
ATOM     10  C   UNL     1       7.017  30.355  81.473  0.00  0.00    +0.000 A 
ATOM     11  C   UNL     1       4.539  30.975  80.381  0.00  0.00    +0.000 A 
ATOM     12  C   UNL     1       6.603  31.681  81.363  0.00  0.00    +0.000 A 
ATOM     13  C   UNL     1       5.420  32.019  80.710  0.00  0.00    +0.000 A 
BRANCH   8  15
ATOM     14  F   UNL     1       7.672  27.545  80.479  0.00  0.00    +0.000 F 
ATOM     15  C   UNL     1       6.649  27.895  81.302  0.00  0.00    +0.000 C 
ATOM     16  F   UNL     1       5.659  26.984  81.075  0.00  0.00    +0.000 F 
ATOM     17  F   UNL     1       7.081  27.659  82.571  0.00  0.00    +0.000 F 
ENDBRANCH   8  15
ENDBRANCH   1  13
BRANCH   5  18
ATOM     18  C   UNL     1       6.105  32.255  77.550  0.00  0.00    +0.000 A 
ATOM     19  C   UNL     1       4.841  32.096  76.970  0.00  0.00    +0.000 A 
ATOM     20  C   UNL     1       6.997  31.164  77.523  0.00  0.00    +0.000 A 
ATOM     21  C   UNL     1       4.485  30.876  76.385  0.00  0.00    +0.000 A 
ATOM     22  C   UNL     1       6.641  29.952  76.940  0.00  0.00    +0.000 A 
ATOM     23  C   UNL     1       5.384  29.809  76.366  0.00  0.00    +0.000 A 
ENDBRANCH   5  18
BRANCH   4  24
ATOM     24  C   UNL     1       4.093  36.301  79.077  0.00  0.00    +0.000 C 
ATOM     25  O   UNL     1       3.750  37.026  80.004  0.00  0.00    +0.000 OA
ATOM     26  O   UNL     1       3.369  36.216  77.942  0.00  0.00    +0.000 OA
ENDBRANCH   4  24
BRANCH   7  27
ATOM     27  C   UNL     1       7.388  34.274  75.924  0.00  0.00    +0.000 C 
ATOM     28  O   UNL     1       8.545  33.908  75.707  0.00  0.00    +0.000 OA
ATOM     29  O   UNL     1       6.486  34.357  74.937  0.00  0.00    +0.000 OA
ENDBRANCH   7  27
BRANCH   4  30
ATOM     30  C   UNL     1       6.528  36.347  79.881  0.00  0.00    +0.000 C 
BRANCH  30  31
ATOM     31  C   UNL     1       7.063  37.697  79.347  0.00  0.00    +0.000 C 
ATOM     32  C   UNL     1       6.951  38.768  80.445  0.00  0.00    +0.000 C 
ATOM     33  C   UNL     1       8.515  37.649  78.876  0.00  0.00    +0.000 C 
ENDBRANCH  30  31
ENDBRANCH   4  30
TORSDOF 7
ENDMDL
MODEL 3
REMARK VINA RESULT:      -7.1      4.221      6.518
REMARK  Name = 
REMARK  9 active torsions:
REMARK  status: ('A' for Active; 'I' for Inactive)
REMARK    1  A    between atoms: C_2  and  C_5
REMARK    2  A    between atoms: C_10  and  C_11
REMARK    3  A    between atoms: C_14  and  C_16
REMARK    4  A    between atoms: C_14  and  C_18
REMARK    5  A    between atoms: C_15  and  C_19
REMARK    6  A    between atoms: C_18  and  C_23
REMARK    7  A    between atoms: C_20  and  C_26
REMARK    8  A    between atoms: C_23  and  C_27
REMARK    9  A    between atoms: C_23  and  C_28
REMARK                            x       y       z     vdW  Elec       q    Type
REMARK                         _______ _______ _______ _____ _____    ______ ____
ROOT
ATOM      1  C   UNL     1       6.092  36.050  78.284  0.00  0.00    +0.000 C 
ATOM      2  O   UNL     1       5.851  37.142  77.774  0.00  0.00    +0.000 OA
ATOM      3  N   UNL     1       6.886  36.008  79.446  0.00  0.00    +0.000 N 
ATOM      4  C   UNL     1       7.031  37.196  80.348  0.00  0.00    +0.000 C 
ATOM      5  C   UNL     1       7.425  34.790  80.115  0.00  0.00    +0.000 C 
ATOM      6  C   UNL     1       8.295  36.750  81.168  0.00  0.00    +0.000 C 
ATOM      7  C   UNL     1       8.074  35.271  81.423  0.00  0.00    +0.000 C 
ENDROOT
BRANCH   1  13
ATOM      8  C   UNL     1       5.145  32.360  76.223  0.00  0.00    +0.000 A 
ATOM      9  C   UNL     1       6.043  33.283  75.670  0.00  0.00    +0.000 A 
ATOM     10  C   UNL     1       4.474  32.709  77.394  0.00  0.00    +0.000 A 
ATOM     11  C   UNL     1       6.319  34.495  76.333  0.00  0.00    +0.000 A 
ATOM     12  C   UNL     1       4.669  33.959  77.980  0.00  0.00    +0.000 A 
ATOM     13  C   UNL     1       5.671  34.818  77.537  0.00  0.00    +0.000 A 
BRANCH   8  15
ATOM     14  F   UNL     1       4.584  31.073  74.272  0.00  0.00    +0.000 F 
ATOM     15  C   UNL     1       4.851  31.016  75.603  0.00  0.00    +0.000 C 
ATOM     16  F   UNL     1       3.769  30.416  76.177  0.00  0.00    +0.000 F 
ATOM     17  F   UNL     1       5.880  30.137  75.749  0.00  0.00    +0.000 F 
ENDBRANCH   8  15
ENDBRANCH   1  13
BRANCH   5  18
ATOM     18  C   UNL     1       8.290  33.921  79.225  0.00  0.00    +0.000 A 
ATOM     19  C   UNL     1       9.368  34.407  78.475  0.00  0.00    +0.000 A 
ATOM     20  C   UNL     1       7.972  32.551  79.130  0.00  0.00    +0.000 A 
ATOM     21  C   UNL     1      10.099  33.543  77.653  0.00  0.00    +0.000 A 
ATOM     22  C   UNL     1       8.701  31.693  78.312  0.00  0.00    +0.000 A 
ATOM     23  C   UNL     1       9.769  32.189  77.575  0.00  0.00    +0.000 A 
ENDBRANCH   5  18
BRANCH   4  24
ATOM     24  C   UNL     1       7.498  38.585  79.825  0.00  0.00    +0.000 C 
ATOM     25  O   UNL     1       6.770  39.571  79.796  0.00  0.00    +0.000 OA
ATOM     26  O   UNL     1       8.817  38.675  79.556  0.00  0.00    +0.000 OA
ENDBRANCH   4  24
BRANCH   7  27
ATOM     27  C   UNL     1       9.184  34.389  81.935  0.00  0.00    +0.000 C 
ATOM     28  O   UNL     1      10.367  34.716  81.819  0.00  0.00    +0.000 OA
ATOM     29  O   UNL     1       8.835  33.217  82.483  0.00  0.00    +0.000 OA
ENDBRANCH   7  27
BRANCH   4  30
ATOM     30  C   UNL     1       5.798  37.359  81.302  0.00  0.00    +0.000 C 
BRANCH  30  31
ATOM     31  C   UNL     1       6.033  37.862  82.746  0.00  0.00    +0.000 C 
ATOM     32  C   UNL     1       5.253  39.167  82.973  0.00  0.00    +0.000 C 
ATOM     33  C   UNL     1       5.619  36.865  83.827  0.00  0.00    +0.000 C 
ENDBRANCH  30  31
ENDBRANCH   4  30
TORSDOF 7
ENDMDL
MODEL 4
REMARK VINA RESULT:      -7.1      2.926      4.380
REMARK  Name = 
REMARK  9 active torsions:
REMARK  status: ('A' for Active; 'I' for Inactive)
REMARK    1  A    between atoms: C_2  and  C_5
REMARK    2  A    between atoms: C_10  and  C_11
REMARK    3  A    between atoms: C_14  and  C_16
REMARK    4  A    between atoms: C_14  and  C_18
REMARK    5  A    between atoms: C_15  and  C_19
REMARK    6  A    between atoms: C_18  and  C_23
REMARK    7  A    between atoms: C_20  and  C_26
REMARK    8  A    between atoms: C_23  and  C_27
REMARK    9  A    between atoms: C_23  and  C_28
REMARK                            x       y       z     vdW  Elec       q    Type
REMARK                         _______ _______ _______ _____ _____    ______ ____
ROOT
ATOM      1  C   UNL     1       6.938  32.449  80.755  0.00  0.00    +0.000 C 
ATOM      2  O   UNL     1       7.212  32.028  81.877  0.00  0.00    +0.000 OA
ATOM      3  N   UNL     1       6.439  31.543  79.798  0.00  0.00    +0.000 N 
ATOM      4  C   UNL     1       5.775  30.260  80.195  0.00  0.00    +0.000 C 
ATOM      5  C   UNL     1       6.206  31.813  78.351  0.00  0.00    +0.000 C 
ATOM      6  C   UNL     1       5.827  29.502  78.820  0.00  0.00    +0.000 C 
ATOM      7  C   UNL     1       5.501  30.567  77.791  0.00  0.00    +0.000 C 
ENDROOT
BRANCH   1  13
ATOM      8  C   UNL     1       8.111  36.427  79.508  0.00  0.00    +0.000 A 
ATOM      9  C   UNL     1       9.072  35.474  79.872  0.00  0.00    +0.000 A 
ATOM     10  C   UNL     1       6.764  36.103  79.668  0.00  0.00    +0.000 A 
ATOM     11  C   UNL     1       8.678  34.194  80.307  0.00  0.00    +0.000 A 
ATOM     12  C   UNL     1       6.387  34.875  80.208  0.00  0.00    +0.000 A 
ATOM     13  C   UNL     1       7.318  33.862  80.422  0.00  0.00    +0.000 A 
BRANCH   8  15
ATOM     14  F   UNL     1       9.230  38.532  79.812  0.00  0.00    +0.000 F 
ATOM     15  C   UNL     1       8.459  37.793  78.971  0.00  0.00    +0.000 C 
ATOM     16  F   UNL     1       7.347  38.544  78.727  0.00  0.00    +0.000 F 
ATOM     17  F   UNL     1       9.131  37.735  77.789  0.00  0.00    +0.000 F 
ENDBRANCH   8  15
ENDBRANCH   1  13
BRANCH   5  18
ATOM     18  C   UNL     1       7.436  32.276  77.597  0.00  0.00    +0.000 A 
ATOM     19  C   UNL     1       8.671  31.619  77.649  0.00  0.00    +0.000 A 
ATOM     20  C   UNL     1       7.333  33.448  76.821  0.00  0.00    +0.000 A 
ATOM     21  C   UNL     1       9.768  32.129  76.946  0.00  0.00    +0.000 A 
ATOM     22  C   UNL     1       8.425  33.953  76.122  0.00  0.00    +0.000 A 
ATOM     23  C   UNL     1       9.644  33.289  76.181  0.00  0.00    +0.000 A 
ENDBRANCH   5  18
BRANCH   4  24
ATOM     24  C   UNL     1       6.462  29.221  81.127  0.00  0.00    +0.000 C 
ATOM     25  O   UNL     1       6.005  28.891  82.216  0.00  0.00    +0.000 OA
ATOM     26  O   UNL     1       7.516  28.581  80.582  0.00  0.00    +0.000 OA
ENDBRANCH   4  24
BRANCH   7  27
ATOM     27  C   UNL     1       5.720  30.330  76.318  0.00  0.00    +0.000 C 
ATOM     28  O   UNL     1       5.040  30.909  75.469  0.00  0.00    +0.000 OA
ATOM     29  O   UNL     1       6.654  29.434  75.973  0.00  0.00    +0.000 OA
ENDBRANCH   7  27
BRANCH   4  30
ATOM     30  C   UNL     1       4.285  30.484  80.632  0.00  0.00    +0.000 C 
BRANCH  30  31
ATOM     31  C   UNL     1       3.739  31.930  80.708  0.00  0.00    +0.000 C 
ATOM     32  C   UNL     1       2.476  32.052  79.839  0.00  0.00    +0.000 C 
ATOM     33  C   UNL     1       3.391  32.389  82.121  0.00  0.00    +0.000 C 
ENDBRANCH  30  31
ENDBRANCH   4  30
TORSDOF 7
ENDMDL
MODEL 5
REMARK VINA RESULT:      -7.0      1.866      2.792
REMARK  Name = 
REMARK  9 active torsions:
REMARK  status: ('A' for Active; 'I' for Inactive)
REMARK    1  A    between atoms: C_2  and  C_5
REMARK    2  A    between atoms: C_10  and  C_11
REMARK    3  A    between atoms: C_14  and  C_16
REMARK    4  A    between atoms: C_14  and  C_18
REMARK    5  A    between atoms: C_15  and  C_19
REMARK    6  A    between atoms: C_18  and  C_23
REMARK    7  A    between atoms: C_20  and  C_26
REMARK    8  A    between atoms: C_23  and  C_27
REMARK    9  A    between atoms: C_23  and  C_28
REMARK                            x       y       z     vdW  Elec       q    Type
REMARK                         _______ _______ _______ _____ _____    ______ ____
ROOT
ATOM      1  C   UNL     1       6.946  32.093  79.845  0.00  0.00    +0.000 C 
ATOM      2  O   UNL     1       6.763  31.143  80.604  0.00  0.00    +0.000 OA
ATOM      3  N   UNL     1       6.016  33.152  79.852  0.00  0.00    +0.000 N 
ATOM      4  C   UNL     1       5.130  33.417  81.031  0.00  0.00    +0.000 C 
ATOM      5  C   UNL     1       5.966  34.301  78.905  0.00  0.00    +0.000 C 
ATOM      6  C   UNL     1       4.067  34.355  80.353  0.00  0.00    +0.000 C 
ATOM      7  C   UNL     1       4.883  35.251  79.442  0.00  0.00    +0.000 C 
ENDROOT
BRANCH   1  13
ATOM      8  C   UNL     1       9.956  31.938  76.735  0.00  0.00    +0.000 A 
ATOM      9  C   UNL     1       8.857  31.070  76.717  0.00  0.00    +0.000 A 
ATOM     10  C   UNL     1      10.121  32.774  77.840  0.00  0.00    +0.000 A 
ATOM     11  C   UNL     1       7.901  31.107  77.751  0.00  0.00    +0.000 A 
ATOM     12  C   UNL     1       9.231  32.720  78.911  0.00  0.00    +0.000 A 
ATOM     13  C   UNL     1       8.052  31.985  78.837  0.00  0.00    +0.000 A 
BRANCH   8  15
ATOM     14  F   UNL     1      10.840  33.072  74.808  0.00  0.00    +0.000 F 
ATOM     15  C   UNL     1      10.983  32.000  75.631  0.00  0.00    +0.000 C 
ATOM     16  F   UNL     1      10.932  30.901  74.825  0.00  0.00    +0.000 F 
ATOM     17  F   UNL     1      12.258  32.050  76.105  0.00  0.00    +0.000 F 
ENDBRANCH   8  15
ENDBRANCH   1  13
BRANCH   5  18
ATOM     18  C   UNL     1       5.839  33.904  77.448  0.00  0.00    +0.000 A 
ATOM     19  C   UNL     1       4.929  32.948  76.980  0.00  0.00    +0.000 A 
ATOM     20  C   UNL     1       6.705  34.516  76.519  0.00  0.00    +0.000 A 
ATOM     21  C   UNL     1       4.895  32.616  75.622  0.00  0.00    +0.000 A 
ATOM     22  C   UNL     1       6.669  34.184  75.168  0.00  0.00    +0.000 A 
ATOM     23  C   UNL     1       5.760  33.235  74.718  0.00  0.00    +0.000 A 
ENDBRANCH   5  18
BRANCH   4  24
ATOM     24  C   UNL     1       4.207  32.324  81.642  0.00  0.00    +0.000 C 
ATOM     25  O   UNL     1       4.211  32.032  82.832  0.00  0.00    +0.000 OA
ATOM     26  O   UNL     1       3.279  31.829  80.796  0.00  0.00    +0.000 OA
ENDBRANCH   4  24
BRANCH   7  27
ATOM     27  C   UNL     1       4.226  36.112  78.392  0.00  0.00    +0.000 C 
ATOM     28  O   UNL     1       3.137  35.805  77.903  0.00  0.00    +0.000 OA
ATOM     29  O   UNL     1       4.893  37.199  77.982  0.00  0.00    +0.000 OA
ENDBRANCH   7  27
BRANCH   4  30
ATOM     30  C   UNL     1       5.885  34.191  82.167  0.00  0.00    +0.000 C 
BRANCH  30  31
ATOM     31  C   UNL     1       7.421  34.039  82.279  0.00  0.00    +0.000 C 
ATOM     32  C   UNL     1       8.060  35.415  82.526  0.00  0.00    +0.000 C 
ATOM     33  C   UNL     1       7.873  33.098  83.393  0.00  0.00    +0.000 C 
ENDBRANCH  30  31
ENDBRANCH   4  30
TORSDOF 7
ENDMDL
MODEL 6
REMARK VINA RESULT:      -6.9      2.308      4.964
REMARK  Name = 
REMARK  9 active torsions:
REMARK  status: ('A' for Active; 'I' for Inactive)
REMARK    1  A    between atoms: C_2  and  C_5
REMARK    2  A    between atoms: C_10  and  C_11
REMARK    3  A    between atoms: C_14  and  C_16
REMARK    4  A    between atoms: C_14  and  C_18
REMARK    5  A    between atoms: C_15  and  C_19
REMARK    6  A    between atoms: C_18  and  C_23
REMARK    7  A    between atoms: C_20  and  C_26
REMARK    8  A    between atoms: C_23  and  C_27
REMARK    9  A    between atoms: C_23  and  C_28
REMARK                            x       y       z     vdW  Elec       q    Type
REMARK                         _______ _______ _______ _____ _____    ______ ____
ROOT
ATOM      1  C   UNL     1       6.613  34.315  76.898  0.00  0.00    +0.000 C 
ATOM      2  O   UNL     1       6.121  35.064  76.056  0.00  0.00    +0.000 OA
ATOM      3  N   UNL     1       5.873  34.027  78.061  0.00  0.00    +0.000 N 
ATOM      4  C   UNL     1       4.381  34.167  78.103  0.00  0.00    +0.000 C 
ATOM      5  C   UNL     1       6.351  33.288  79.263  0.00  0.00    +0.000 C 
ATOM      6  C   UNL     1       4.161  34.155  79.659  0.00  0.00    +0.000 C 
ATOM      7  C   UNL     1       5.122  33.097  80.167  0.00  0.00    +0.000 C 
ENDROOT
BRANCH   1  13
ATOM      8  C   UNL     1      10.682  33.089  76.063  0.00  0.00    +0.000 A 
ATOM      9  C   UNL     1       9.640  32.154  76.090  0.00  0.00    +0.000 A 
ATOM     10  C   UNL     1      10.400  34.406  76.427  0.00  0.00    +0.000 A 
ATOM     11  C   UNL     1       8.326  32.558  76.395  0.00  0.00    +0.000 A 
ATOM     12  C   UNL     1       9.118  34.771  76.838  0.00  0.00    +0.000 A 
ATOM     13  C   UNL     1       8.043  33.896  76.715  0.00  0.00    +0.000 A 
BRANCH   8  15
ATOM     14  F   UNL     1      12.462  33.185  74.450  0.00  0.00    +0.000 F 
ATOM     15  C   UNL     1      12.100  32.741  75.682  0.00  0.00    +0.000 C 
ATOM     16  F   UNL     1      12.308  31.393  75.669  0.00  0.00    +0.000 F 
ATOM     17  F   UNL     1      13.015  33.246  76.554  0.00  0.00    +0.000 F 
ENDBRANCH   8  15
ENDBRANCH   1  13
BRANCH   5  18
ATOM     18  C   UNL     1       7.573  33.894  79.923  0.00  0.00    +0.000 A 
ATOM     19  C   UNL     1       7.683  35.249  80.257  0.00  0.00    +0.000 A 
ATOM     20  C   UNL     1       8.668  33.047  80.190  0.00  0.00    +0.000 A 
ATOM     21  C   UNL     1       8.859  35.736  80.838  0.00  0.00    +0.000 A 
ATOM     22  C   UNL     1       9.836  33.534  80.768  0.00  0.00    +0.000 A 
ATOM     23  C   UNL     1       9.931  34.880  81.097  0.00  0.00    +0.000 A 
ENDBRANCH   5  18
BRANCH   4  24
ATOM     24  C   UNL     1       3.658  35.489  77.717  0.00  0.00    +0.000 C 
ATOM     25  O   UNL     1       3.805  36.539  78.332  0.00  0.00    +0.000 OA
ATOM     26  O   UNL     1       2.977  35.442  76.553  0.00  0.00    +0.000 OA
ENDBRANCH   4  24
BRANCH   7  27
ATOM     27  C   UNL     1       5.436  32.961  81.635  0.00  0.00    +0.000 C 
ATOM     28  O   UNL     1       5.274  33.903  82.413  0.00  0.00    +0.000 OA
ATOM     29  O   UNL     1       5.938  31.791  82.051  0.00  0.00    +0.000 OA
ENDBRANCH   7  27
BRANCH   4  30
ATOM     30  C   UNL     1       3.661  32.938  77.447  0.00  0.00    +0.000 C 
BRANCH  30  31
ATOM     31  C   UNL     1       4.459  31.629  77.240  0.00  0.00    +0.000 C 
ATOM     32  C   UNL     1       3.653  30.440  77.790  0.00  0.00    +0.000 C 
ATOM     33  C   UNL     1       4.805  31.336  75.782  0.00  0.00    +0.000 C 
ENDBRANCH  30  31
ENDBRANCH   4  30
TORSDOF 7
ENDMDL
MODEL 7
REMARK VINA RESULT:      -6.9      4.296      6.675
REMARK  Name = 
REMARK  9 active torsions:
REMARK  status: ('A' for Active; 'I' for Inactive)
REMARK    1  A    between atoms: C_2  and  C_5
REMARK    2  A    between atoms: C_10  and  C_11
REMARK    3  A    between atoms: C_14  and  C_16
REMARK    4  A    between atoms: C_14  and  C_18
REMARK    5  A    between atoms: C_15  and  C_19
REMARK    6  A    between atoms: C_18  and  C_23
REMARK    7  A    between atoms: C_20  and  C_26
REMARK    8  A    between atoms: C_23  and  C_27
REMARK    9  A    between atoms: C_23  and  C_28
REMARK                            x       y       z     vdW  Elec       q    Type
REMARK                         _______ _______ _______ _____ _____    ______ ____
ROOT
ATOM      1  C   UNL     1       7.483  32.567  76.787  0.00  0.00    +0.000 C 
ATOM      2  O   UNL     1       8.146  32.525  75.752  0.00  0.00    +0.000 OA
ATOM      3  N   UNL     1       8.130  32.914  77.990  0.00  0.00    +0.000 N 
ATOM      4  C   UNL     1       9.411  33.692  78.001  0.00  0.00    +0.000 C 
ATOM      5  C   UNL     1       7.552  32.861  79.362  0.00  0.00    +0.000 C 
ATOM      6  C   UNL     1       9.873  33.413  79.477  0.00  0.00    +0.000 C 
ATOM      7  C   UNL     1       8.596  33.498  80.292  0.00  0.00    +0.000 C 
ENDROOT
BRANCH   1  13
ATOM      8  C   UNL     1       3.447  31.003  76.909  0.00  0.00    +0.000 A 
ATOM      9  C   UNL     1       4.520  30.194  76.513  0.00  0.00    +0.000 A 
ATOM     10  C   UNL     1       3.690  32.355  77.151  0.00  0.00    +0.000 A 
ATOM     11  C   UNL     1       5.824  30.722  76.445  0.00  0.00    +0.000 A 
ATOM     12  C   UNL     1       4.964  32.891  76.969  0.00  0.00    +0.000 A 
ATOM     13  C   UNL     1       6.067  32.075  76.735  0.00  0.00    +0.000 A 
BRANCH   8  15
ATOM     14  F   UNL     1       1.623  29.697  76.044  0.00  0.00    +0.000 F 
ATOM     15  C   UNL     1       2.036  30.491  77.067  0.00  0.00    +0.000 C 
ATOM     16  F   UNL     1       1.130  31.507  77.141  0.00  0.00    +0.000 F 
ATOM     17  F   UNL     1       1.868  29.764  78.206  0.00  0.00    +0.000 F 
ENDBRANCH   8  15
ENDBRANCH   1  13
BRANCH   5  18
ATOM     18  C   UNL     1       7.043  31.494  79.771  0.00  0.00    +0.000 A 
ATOM     19  C   UNL     1       7.778  30.313  79.615  0.00  0.00    +0.000 A 
ATOM     20  C   UNL     1       5.746  31.408  80.317  0.00  0.00    +0.000 A 
ATOM     21  C   UNL     1       7.223  29.085  79.992  0.00  0.00    +0.000 A 
ATOM     22  C   UNL     1       5.196  30.186  80.691  0.00  0.00    +0.000 A 
ATOM     23  C   UNL     1       5.938  29.022  80.532  0.00  0.00    +0.000 A 
ENDBRANCH   5  18
BRANCH   4  24
ATOM     24  C   UNL     1      10.671  33.233  77.211  0.00  0.00    +0.000 C 
ATOM     25  O   UNL     1      11.211  32.146  77.382  0.00  0.00    +0.000 OA
ATOM     26  O   UNL     1      11.036  34.052  76.203  0.00  0.00    +0.000 OA
ENDBRANCH   4  24
BRANCH   7  27
ATOM     27  C   UNL     1       8.543  33.017  81.720  0.00  0.00    +0.000 C 
ATOM     28  O   UNL     1       9.238  32.073  82.103  0.00  0.00    +0.000 OA
ATOM     29  O   UNL     1       7.680  33.627  82.543  0.00  0.00    +0.000 OA
ENDBRANCH   7  27
BRANCH   4  30
ATOM     30  C   UNL     1       9.165  35.226  77.793  0.00  0.00    +0.000 C 
BRANCH  30  31
ATOM     31  C   UNL     1       7.814  35.832  78.241  0.00  0.00    +0.000 C 
ATOM     32  C   UNL     1       8.065  37.123  79.038  0.00  0.00    +0.000 C 
ATOM     33  C   UNL     1       6.867  36.161  77.089  0.00  0.00    +0.000 C 
ENDBRANCH  30  31
ENDBRANCH   4  30
TORSDOF 7
ENDMDL
MODEL 8
REMARK VINA RESULT:      -6.8      4.741      7.295
REMARK  Name = 
REMARK  9 active torsions:
REMARK  status: ('A' for Active; 'I' for Inactive)
REMARK    1  A    between atoms: C_2  and  C_5
REMARK    2  A    between atoms: C_10  and  C_11
REMARK    3  A    between atoms: C_14  and  C_16
REMARK    4  A    between atoms: C_14  and  C_18
REMARK    5  A    between atoms: C_15  and  C_19
REMARK    6  A    between atoms: C_18  and  C_23
REMARK    7  A    between atoms: C_20  and  C_26
REMARK    8  A    between atoms: C_23  and  C_27
REMARK    9  A    between atoms: C_23  and  C_28
REMARK                            x       y       z     vdW  Elec       q    Type
REMARK                         _______ _______ _______ _____ _____    ______ ____
ROOT
ATOM      1  C   UNL     1       4.920  35.632  79.385  0.00  0.00    +0.000 C 
ATOM      2  O   UNL     1       4.282  36.669  79.558  0.00  0.00    +0.000 OA
ATOM      3  N   UNL     1       6.266  35.729  78.980  0.00  0.00    +0.000 N 
ATOM      4  C   UNL     1       7.079  36.964  79.225  0.00  0.00    +0.000 C 
ATOM      5  C   UNL     1       7.154  34.608  78.561  0.00  0.00    +0.000 C 
ATOM      6  C   UNL     1       8.268  36.696  78.235  0.00  0.00    +0.000 C 
ATOM      7  C   UNL     1       8.556  35.214  78.386  0.00  0.00    +0.000 C 
ENDROOT
BRANCH   1  13
ATOM      8  C   UNL     1       2.953  31.775  79.320  0.00  0.00    +0.000 A 
ATOM      9  C   UNL     1       2.626  32.766  78.385  0.00  0.00    +0.000 A 
ATOM     10  C   UNL     1       3.841  32.100  80.345  0.00  0.00    +0.000 A 
ATOM     11  C   UNL     1       3.248  34.028  78.435  0.00  0.00    +0.000 A 
ATOM     12  C   UNL     1       4.364  33.388  80.452  0.00  0.00    +0.000 A 
ATOM     13  C   UNL     1       4.177  34.330  79.445  0.00  0.00    +0.000 A 
BRANCH   8  15
ATOM     14  F   UNL     1       3.128  29.492  78.588  0.00  0.00    +0.000 F 
ATOM     15  C   UNL     1       2.376  30.381  79.288  0.00  0.00    +0.000 C 
ATOM     16  F   UNL     1       1.138  30.355  78.716  0.00  0.00    +0.000 F 
ATOM     17  F   UNL     1       2.218  29.852  80.533  0.00  0.00    +0.000 F 
ENDBRANCH   8  15
ENDBRANCH   1  13
BRANCH   5  18
ATOM     18  C   UNL     1       6.629  33.801  77.391  0.00  0.00    +0.000 A 
ATOM     19  C   UNL     1       6.232  34.366  76.173  0.00  0.00    +0.000 A 
ATOM     20  C   UNL     1       6.511  32.405  77.552  0.00  0.00    +0.000 A 
ATOM     21  C   UNL     1       5.729  33.552  75.152  0.00  0.00    +0.000 A 
ATOM     22  C   UNL     1       6.010  31.598  76.534  0.00  0.00    +0.000 A 
ATOM     23  C   UNL     1       5.623  32.173  75.331  0.00  0.00    +0.000 A 
ENDBRANCH   5  18
BRANCH   4  24
ATOM     24  C   UNL     1       6.617  38.372  78.750  0.00  0.00    +0.000 C 
ATOM     25  O   UNL     1       6.037  38.564  77.688  0.00  0.00    +0.000 OA
ATOM     26  O   UNL     1       6.754  39.352  79.667  0.00  0.00    +0.000 OA
ENDBRANCH   4  24
BRANCH   7  27
ATOM     27  C   UNL     1       9.440  34.482  77.409  0.00  0.00    +0.000 C 
ATOM     28  O   UNL     1       9.646  34.924  76.277  0.00  0.00    +0.000 OA
ATOM     29  O   UNL     1       9.957  33.311  77.804  0.00  0.00    +0.000 OA
ENDBRANCH   7  27
BRANCH   4  30
ATOM     30  C   UNL     1       7.608  37.032  80.699  0.00  0.00    +0.000 C 
BRANCH  30  31
ATOM     31  C   UNL     1       9.133  37.132  80.940  0.00  0.00    +0.000 C 
ATOM     32  C   UNL     1       9.474  38.508  81.535  0.00  0.00    +0.000 C 
ATOM     33  C   UNL     1       9.687  36.059  81.875  0.00  0.00    +0.000 C 
ENDBRANCH  30  31
ENDBRANCH   4  30
TORSDOF 7
ENDMDL
MODEL 9
REMARK VINA RESULT:      -6.8      2.157      3.341
REMARK  Name = 
REMARK  9 active torsions:
REMARK  status: ('A' for Active; 'I' for Inactive)
REMARK    1  A    between atoms: C_2  and  C_5
REMARK    2  A    between atoms: C_10  and  C_11
REMARK    3  A    between atoms: C_14  and  C_16
REMARK    4  A    between atoms: C_14  and  C_18
REMARK    5  A    between atoms: C_15  and  C_19
REMARK    6  A    between atoms: C_18  and  C_23
REMARK    7  A    between atoms: C_20  and  C_26
REMARK    8  A    between atoms: C_23  and  C_27
REMARK    9  A    between atoms: C_23  and  C_28
REMARK                            x       y       z     vdW  Elec       q    Type
REMARK                         _______ _______ _______ _____ _____    ______ ____
ROOT
ATOM      1  C   UNL     1       7.115  32.135  77.126  0.00  0.00    +0.000 C 
ATOM      2  O   UNL     1       6.649  31.433  76.229  0.00  0.00    +0.000 OA
ATOM      3  N   UNL     1       6.290  32.471  78.217  0.00  0.00    +0.000 N 
ATOM      4  C   UNL     1       5.092  31.649  78.585  0.00  0.00    +0.000 C 
ATOM      5  C   UNL     1       6.605  33.435  79.310  0.00  0.00    +0.000 C 
ATOM      6  C   UNL     1       4.351  32.671  79.520  0.00  0.00    +0.000 C 
ATOM      7  C   UNL     1       5.461  33.313  80.330  0.00  0.00    +0.000 C 
ENDROOT
BRANCH   1  13
ATOM      8  C   UNL     1      11.114  33.605  76.352  0.00  0.00    +0.000 A 
ATOM      9  C   UNL     1      10.882  32.636  77.337  0.00  0.00    +0.000 A 
ATOM     10  C   UNL     1      10.015  34.171  75.707  0.00  0.00    +0.000 A 
ATOM     11  C   UNL     1       9.573  32.189  77.603  0.00  0.00    +0.000 A 
ATOM     12  C   UNL     1       8.717  33.803  76.060  0.00  0.00    +0.000 A 
ATOM     13  C   UNL     1       8.475  32.732  76.916  0.00  0.00    +0.000 A 
BRANCH   8  15
ATOM     14  F   UNL     1      12.603  35.437  75.894  0.00  0.00    +0.000 F 
ATOM     15  C   UNL     1      12.493  34.084  75.969  0.00  0.00    +0.000 C 
ATOM     16  F   UNL     1      12.876  33.610  74.749  0.00  0.00    +0.000 F 
ATOM     17  F   UNL     1      13.452  33.671  76.842  0.00  0.00    +0.000 F 
ENDBRANCH   8  15
ENDBRANCH   1  13
BRANCH   5  18
ATOM     18  C   UNL     1       6.923  34.837  78.832  0.00  0.00    +0.000 A 
ATOM     19  C   UNL     1       6.119  35.554  77.938  0.00  0.00    +0.000 A 
ATOM     20  C   UNL     1       8.109  35.439  79.297  0.00  0.00    +0.000 A 
ATOM     21  C   UNL     1       6.500  36.835  77.522  0.00  0.00    +0.000 A 
ATOM     22  C   UNL     1       8.486  36.714  78.883  0.00  0.00    +0.000 A 
ATOM     23  C   UNL     1       7.677  37.414  77.997  0.00  0.00    +0.000 A 
ENDBRANCH   5  18
BRANCH   4  24
ATOM     24  C   UNL     1       3.965  31.317  77.566  0.00  0.00    +0.000 C 
ATOM     25  O   UNL     1       3.834  30.214  77.046  0.00  0.00    +0.000 OA
ATOM     26  O   UNL     1       3.036  32.283  77.414  0.00  0.00    +0.000 OA
ENDBRANCH   4  24
BRANCH   7  27
ATOM     27  C   UNL     1       5.218  34.554  81.151  0.00  0.00    +0.000 C 
ATOM     28  O   UNL     1       4.279  35.313  80.901  0.00  0.00    +0.000 OA
ATOM     29  O   UNL     1       6.087  34.821  82.135  0.00  0.00    +0.000 OA
ENDBRANCH   7  27
BRANCH   4  30
ATOM     30  C   UNL     1       5.491  30.367  79.395  0.00  0.00    +0.000 C 
BRANCH  30  31
ATOM     31  C   UNL     1       6.861  30.334  80.114  0.00  0.00    +0.000 C 
ATOM     32  C   UNL     1       6.664  29.926  81.583  0.00  0.00    +0.000 C 
ATOM     33  C   UNL     1       7.870  29.377  79.485  0.00  0.00    +0.000 C 
ENDBRANCH  30  31
ENDBRANCH   4  30
TORSDOF 7
ENDMDL
