MODEL 1
REMARK VINA RESULT:      -8.8      0.000      0.000
REMARK  Name = 
REMARK  7 active torsions:
REMARK  status: ('A' for Active; 'I' for Inactive)
REMARK    1  A    between atoms: C_2  and  C_5
REMARK    2  A    between atoms: C_10  and  C_11
REMARK    3  A    between atoms: C_14  and  C_16
REMARK    4  A    between atoms: C_14  and  C_18
REMARK    5  A    between atoms: C_15  and  C_19
REMARK    6  A    between atoms: C_18  and  C_23
REMARK    7  A    between atoms: C_20  and  C_26
REMARK                            x       y       z     vdW  Elec       q    Type
REMARK                         _______ _______ _______ _____ _____    ______ ____
ROOT
ATOM      1  C   UNL     1       7.373  32.240  76.867  0.00  0.00    +0.000 C 
ATOM      2  O   UNL     1       6.423  32.164  76.086  0.00  0.00    +0.000 OA
ATOM      3  N   UNL     1       7.138  32.162  78.272  0.00  0.00    +0.000 N 
ATOM      4  C   UNL     1       8.094  32.462  79.374  0.00  0.00    +0.000 C 
ATOM      5  C   UNL     1       5.763  32.413  78.792  0.00  0.00    +0.000 C 
ATOM      6  C   UNL     1       7.302  32.087  80.629  0.00  0.00    +0.000 C 
ATOM      7  C   UNL     1       5.875  32.519  80.337  0.00  0.00    +0.000 C 
ENDROOT
BRANCH   1  13
ATOM      8  C   UNL     1      11.380  32.680  75.110  0.00  0.00    +0.000 A 
ATOM      9  C   UNL     1      10.594  33.800  75.412  0.00  0.00    +0.000 A 
ATOM     10  C   UNL     1      10.857  31.434  75.373  0.00  0.00    +0.000 A 
ATOM     11  C   UNL     1       9.296  33.649  75.968  0.00  0.00    +0.000 A 
ATOM     12  C   UNL     1       9.583  31.313  75.895  0.00  0.00    +0.000 A 
ATOM     13  C   UNL     1       8.751  32.376  76.223  0.00  0.00    +0.000 A 
BRANCH   8  15
ATOM     14  F   UNL     1      12.888  33.514  73.437  0.00  0.00    +0.000 F 
ATOM     15  C   UNL     1      12.753  32.690  74.501  0.00  0.00    +0.000 C 
ATOM     16  F   UNL     1      13.123  31.446  74.080  0.00  0.00    +0.000 F 
ATOM     17  F   UNL     1      13.707  33.060  75.404  0.00  0.00    +0.000 F 
ENDBRANCH   8  15
ENDBRANCH   1  13
BRANCH   5  18
ATOM     18  C   UNL     1       4.608  31.555  78.328  0.00  0.00    +0.000 A 
ATOM     19  C   UNL     1       3.380  32.070  77.903  0.00  0.00    +0.000 A 
ATOM     20  C   UNL     1       4.852  30.175  78.159  0.00  0.00    +0.000 A 
ATOM     21  C   UNL     1       2.444  31.232  77.282  0.00  0.00    +0.000 A 
ATOM     22  C   UNL     1       3.924  29.346  77.533  0.00  0.00    +0.000 A 
ATOM     23  C   UNL     1       2.723  29.878  77.082  0.00  0.00    +0.000 A 
ENDBRANCH   5  18
BRANCH   4  24
ATOM     24  C   UNL     1       9.264  31.432  79.464  0.00  0.00    +0.000 C 
ATOM     25  O   UNL     1      10.442  31.717  79.301  0.00  0.00    +0.000 OA
ATOM     26  O   UNL     1       8.865  30.171  79.766  0.00  0.00    +0.000 OA
ENDBRANCH   4  24
BRANCH   7  27
ATOM     27  C   UNL     1       4.916  31.723  81.196  0.00  0.00    +0.000 C 
ATOM     28  O   UNL     1       5.144  30.618  81.657  0.00  0.00    +0.000 OA
ATOM     29  O   UNL     1       3.787  32.387  81.530  0.00  0.00    +0.000 OA
ENDBRANCH   7  27
BRANCH   4  30
ATOM     30  C   UNL     1       8.577  33.965  79.408  0.00  0.00    +0.000 C 
BRANCH  30  31
ATOM     31  C   UNL     1       7.714  35.175  79.104  0.00  0.00    +0.000 A 
ATOM     32  C   UNL     1       7.195  35.925  80.166  0.00  0.00    +0.000 A 
ATOM     33  C   UNL     1       7.637  35.702  77.801  0.00  0.00    +0.000 A 
ATOM     34  C   UNL     1       6.658  37.194  79.941  0.00  0.00    +0.000 A 
ATOM     35  C   UNL     1       7.091  36.970  77.579  0.00  0.00    +0.000 A 
ATOM     36  C   UNL     1       6.618  37.721  78.652  0.00  0.00    +0.000 A 
ENDBRANCH  30  31
ENDBRANCH   4  30
TORSDOF 7
ENDMDL
MODEL 2
REMARK VINA RESULT:      -8.7      1.182      1.755
REMARK  Name = 
REMARK  7 active torsions:
REMARK  status: ('A' for Active; 'I' for Inactive)
REMARK    1  A    between atoms: C_2  and  C_5
REMARK    2  A    between atoms: C_10  and  C_11
REMARK    3  A    between atoms: C_14  and  C_16
REMARK    4  A    between atoms: C_14  and  C_18
REMARK    5  A    between atoms: C_15  and  C_19
REMARK    6  A    between atoms: C_18  and  C_23
REMARK    7  A    between atoms: C_20  and  C_26
REMARK                            x       y       z     vdW  Elec       q    Type
REMARK                         _______ _______ _______ _____ _____    ______ ____
ROOT
ATOM      1  C   UNL     1       7.393  32.178  76.952  0.00  0.00    +0.000 C 
ATOM      2  O   UNL     1       6.424  32.122  76.193  0.00  0.00    +0.000 OA
ATOM      3  N   UNL     1       7.197  32.024  78.356  0.00  0.00    +0.000 N 
ATOM      4  C   UNL     1       8.177  32.288  79.447  0.00  0.00    +0.000 C 
ATOM      5  C   UNL     1       5.832  32.220  78.923  0.00  0.00    +0.000 C 
ATOM      6  C   UNL     1       7.426  31.833  80.701  0.00  0.00    +0.000 C 
ATOM      7  C   UNL     1       5.983  32.249  80.468  0.00  0.00    +0.000 C 
ENDROOT
BRANCH   1  13
ATOM      8  C   UNL     1      11.342  32.791  75.117  0.00  0.00    +0.000 A 
ATOM      9  C   UNL     1      10.539  33.877  75.488  0.00  0.00    +0.000 A 
ATOM     10  C   UNL     1      10.854  31.522  75.336  0.00  0.00    +0.000 A 
ATOM     11  C   UNL     1       9.259  33.672  76.068  0.00  0.00    +0.000 A 
ATOM     12  C   UNL     1       9.597  31.348  75.884  0.00  0.00    +0.000 A 
ATOM     13  C   UNL     1       8.751  32.376  76.280  0.00  0.00    +0.000 A 
BRANCH   8  15
ATOM     14  F   UNL     1      12.780  33.714  73.428  0.00  0.00    +0.000 F 
ATOM     15  C   UNL     1      12.698  32.860  74.475  0.00  0.00    +0.000 C 
ATOM     16  F   UNL     1      13.097  31.640  74.013  0.00  0.00    +0.000 F 
ATOM     17  F   UNL     1      13.662  33.240  75.363  0.00  0.00    +0.000 F 
ENDBRANCH   8  15
ENDBRANCH   1  13
BRANCH   5  18
ATOM     18  C   UNL     1       4.682  31.362  78.446  0.00  0.00    +0.000 A 
ATOM     19  C   UNL     1       3.433  31.873  78.080  0.00  0.00    +0.000 A 
ATOM     20  C   UNL     1       4.949  29.998  78.200  0.00  0.00    +0.000 A 
ATOM     21  C   UNL     1       2.498  31.048  77.441  0.00  0.00    +0.000 A 
ATOM     22  C   UNL     1       4.020  29.183  77.556  0.00  0.00    +0.000 A 
ATOM     23  C   UNL     1       2.798  29.712  77.165  0.00  0.00    +0.000 A 
ENDBRANCH   5  18
BRANCH   4  24
ATOM     24  C   UNL     1       9.368  31.279  79.454  0.00  0.00    +0.000 C 
ATOM     25  O   UNL     1      10.544  31.607  79.370  0.00  0.00    +0.000 OA
ATOM     26  O   UNL     1       8.992  29.983  79.585  0.00  0.00    +0.000 OA
ENDBRANCH   4  24
BRANCH   7  27
ATOM     27  C   UNL     1       5.064  31.391  81.310  0.00  0.00    +0.000 C 
ATOM     28  O   UNL     1       3.928  31.693  81.633  0.00  0.00    +0.000 OA
ATOM     29  O   UNL     1       5.559  30.168  81.602  0.00  0.00    +0.000 OA
ENDBRANCH   7  27
BRANCH   4  30
ATOM     30  C   UNL     1       8.631  33.797  79.545  0.00  0.00    +0.000 C 
BRANCH  30  31
ATOM     31  C   UNL     1       8.778  34.591  80.829  0.00  0.00    +0.000 A 
ATOM     32  C   UNL     1      10.039  34.687  81.430  0.00  0.00    +0.000 A 
ATOM     33  C   UNL     1       7.746  35.433  81.283  0.00  0.00    +0.000 A 
ATOM     34  C   UNL     1      10.279  35.635  82.426  0.00  0.00    +0.000 A 
ATOM     35  C   UNL     1       7.989  36.377  82.286  0.00  0.00    +0.000 A 
ATOM     36  C   UNL     1       9.260  36.488  82.843  0.00  0.00    +0.000 A 
ENDBRANCH  30  31
ENDBRANCH   4  30
TORSDOF 7
ENDMDL
MODEL 3
REMARK VINA RESULT:      -8.2      2.153      5.473
REMARK  Name = 
REMARK  7 active torsions:
REMARK  status: ('A' for Active; 'I' for Inactive)
REMARK    1  A    between atoms: C_2  and  C_5
REMARK    2  A    between atoms: C_10  and  C_11
REMARK    3  A    between atoms: C_14  and  C_16
REMARK    4  A    between atoms: C_14  and  C_18
REMARK    5  A    between atoms: C_15  and  C_19
REMARK    6  A    between atoms: C_18  and  C_23
REMARK    7  A    between atoms: C_20  and  C_26
REMARK                            x       y       z     vdW  Elec       q    Type
REMARK                         _______ _______ _______ _____ _____    ______ ____
ROOT
ATOM      1  C   UNL     1       8.632  34.629  78.210  0.00  0.00    +0.000 C 
ATOM      2  O   UNL     1       9.219  35.365  79.005  0.00  0.00    +0.000 OA
ATOM      3  N   UNL     1       7.208  34.575  78.221  0.00  0.00    +0.000 N 
ATOM      4  C   UNL     1       6.327  33.598  77.522  0.00  0.00    +0.000 C 
ATOM      5  C   UNL     1       6.473  35.055  79.428  0.00  0.00    +0.000 C 
ATOM      6  C   UNL     1       4.921  34.124  77.823  0.00  0.00    +0.000 C 
ATOM      7  C   UNL     1       4.990  34.632  79.253  0.00  0.00    +0.000 C 
ENDROOT
BRANCH   1  13
ATOM      8  C   UNL     1      11.290  32.470  75.451  0.00  0.00    +0.000 A 
ATOM      9  C   UNL     1      10.995  33.827  75.261  0.00  0.00    +0.000 A 
ATOM     10  C   UNL     1      10.715  31.829  76.525  0.00  0.00    +0.000 A 
ATOM     11  C   UNL     1      10.126  34.514  76.149  0.00  0.00    +0.000 A 
ATOM     12  C   UNL     1       9.856  32.514  77.363  0.00  0.00    +0.000 A 
ATOM     13  C   UNL     1       9.524  33.857  77.239  0.00  0.00    +0.000 A 
BRANCH   8  15
ATOM     14  F   UNL     1      11.650  30.402  74.282  0.00  0.00    +0.000 F 
ATOM     15  C   UNL     1      12.168  31.616  74.582  0.00  0.00    +0.000 C 
ATOM     16  F   UNL     1      13.381  31.389  75.164  0.00  0.00    +0.000 F 
ATOM     17  F   UNL     1      12.450  32.223  73.392  0.00  0.00    +0.000 F 
ENDBRANCH   8  15
ENDBRANCH   1  13
BRANCH   5  18
ATOM     18  C   UNL     1       6.642  36.481  79.901  0.00  0.00    +0.000 A 
ATOM     19  C   UNL     1       6.900  36.832  81.230  0.00  0.00    +0.000 A 
ATOM     20  C   UNL     1       6.710  37.488  78.915  0.00  0.00    +0.000 A 
ATOM     21  C   UNL     1       7.263  38.147  81.551  0.00  0.00    +0.000 A 
ATOM     22  C   UNL     1       7.080  38.792  79.236  0.00  0.00    +0.000 A 
ATOM     23  C   UNL     1       7.370  39.119  80.554  0.00  0.00    +0.000 A 
ENDBRANCH   5  18
BRANCH   4  24
ATOM     24  C   UNL     1       6.356  33.754  75.969  0.00  0.00    +0.000 C 
ATOM     25  O   UNL     1       5.994  34.761  75.374  0.00  0.00    +0.000 OA
ATOM     26  O   UNL     1       6.846  32.672  75.316  0.00  0.00    +0.000 OA
ENDBRANCH   4  24
BRANCH   7  27
ATOM     27  C   UNL     1       3.903  35.661  79.481  0.00  0.00    +0.000 C 
ATOM     28  O   UNL     1       3.470  35.989  80.571  0.00  0.00    +0.000 OA
ATOM     29  O   UNL     1       3.504  36.304  78.360  0.00  0.00    +0.000 OA
ENDBRANCH   7  27
BRANCH   4  30
ATOM     30  C   UNL     1       6.516  32.107  78.007  0.00  0.00    +0.000 C 
BRANCH  30  31
ATOM     31  C   UNL     1       5.399  31.109  78.244  0.00  0.00    +0.000 A 
ATOM     32  C   UNL     1       4.957  30.315  77.179  0.00  0.00    +0.000 A 
ATOM     33  C   UNL     1       4.980  30.787  79.548  0.00  0.00    +0.000 A 
ATOM     34  C   UNL     1       4.158  29.195  77.415  0.00  0.00    +0.000 A 
ATOM     35  C   UNL     1       4.172  29.669  79.779  0.00  0.00    +0.000 A 
ATOM     36  C   UNL     1       3.778  28.865  78.713  0.00  0.00    +0.000 A 
ENDBRANCH  30  31
ENDBRANCH   4  30
TORSDOF 7
ENDMDL
MODEL 4
REMARK VINA RESULT:      -8.1      3.234      5.669
REMARK  Name = 
REMARK  7 active torsions:
REMARK  status: ('A' for Active; 'I' for Inactive)
REMARK    1  A    between atoms: C_2  and  C_5
REMARK    2  A    between atoms: C_10  and  C_11
REMARK    3  A    between atoms: C_14  and  C_16
REMARK    4  A    between atoms: C_14  and  C_18
REMARK    5  A    between atoms: C_15  and  C_19
REMARK    6  A    between atoms: C_18  and  C_23
REMARK    7  A    between atoms: C_20  and  C_26
REMARK                            x       y       z     vdW  Elec       q    Type
REMARK                         _______ _______ _______ _____ _____    ______ ____
ROOT
ATOM      1  C   UNL     1       5.894  34.125  79.523  0.00  0.00    +0.000 C 
ATOM      2  O   UNL     1       5.052  33.943  80.404  0.00  0.00    +0.000 OA
ATOM      3  N   UNL     1       6.003  33.193  78.450  0.00  0.00    +0.000 N 
ATOM      4  C   UNL     1       7.085  33.098  77.430  0.00  0.00    +0.000 C 
ATOM      5  C   UNL     1       5.421  31.829  78.613  0.00  0.00    +0.000 C 
ATOM      6  C   UNL     1       6.585  31.992  76.499  0.00  0.00    +0.000 C 
ATOM      7  C   UNL     1       5.919  30.977  77.414  0.00  0.00    +0.000 C 
ENDROOT
BRANCH   1  13
ATOM      8  C   UNL     1       8.230  37.821  79.991  0.00  0.00    +0.000 A 
ATOM      9  C   UNL     1       6.983  37.828  79.353  0.00  0.00    +0.000 A 
ATOM     10  C   UNL     1       8.709  36.619  80.462  0.00  0.00    +0.000 A 
ATOM     11  C   UNL     1       6.240  36.628  79.194  0.00  0.00    +0.000 A 
ATOM     12  C   UNL     1       7.976  35.462  80.277  0.00  0.00    +0.000 A 
ATOM     13  C   UNL     1       6.733  35.394  79.660  0.00  0.00    +0.000 A 
BRANCH   8  15
ATOM     14  F   UNL     1       8.482  40.160  80.480  0.00  0.00    +0.000 F 
ATOM     15  C   UNL     1       9.131  39.004  80.206  0.00  0.00    +0.000 C 
ATOM     16  F   UNL     1       9.911  39.246  79.113  0.00  0.00    +0.000 F 
ATOM     17  F   UNL     1      10.006  38.796  81.232  0.00  0.00    +0.000 F 
ENDBRANCH   8  15
ENDBRANCH   1  13
BRANCH   5  18
ATOM     18  C   UNL     1       3.947  31.662  78.900  0.00  0.00    +0.000 A 
ATOM     19  C   UNL     1       2.936  32.245  78.129  0.00  0.00    +0.000 A 
ATOM     20  C   UNL     1       3.580  30.733  79.896  0.00  0.00    +0.000 A 
ATOM     21  C   UNL     1       1.600  31.867  78.321  0.00  0.00    +0.000 A 
ATOM     22  C   UNL     1       2.252  30.351  80.078  0.00  0.00    +0.000 A 
ATOM     23  C   UNL     1       1.262  30.911  79.281  0.00  0.00    +0.000 A 
ENDBRANCH   5  18
BRANCH   4  24
ATOM     24  C   UNL     1       7.101  34.308  76.444  0.00  0.00    +0.000 C 
ATOM     25  O   UNL     1       7.938  35.200  76.467  0.00  0.00    +0.000 OA
ATOM     26  O   UNL     1       6.106  34.281  75.523  0.00  0.00    +0.000 OA
ENDBRANCH   4  24
BRANCH   7  27
ATOM     27  C   UNL     1       4.914  30.164  76.627  0.00  0.00    +0.000 C 
ATOM     28  O   UNL     1       4.473  29.081  76.968  0.00  0.00    +0.000 OA
ATOM     29  O   UNL     1       4.431  30.788  75.530  0.00  0.00    +0.000 OA
ENDBRANCH   7  27
BRANCH   4  30
ATOM     30  C   UNL     1       8.504  32.763  78.036  0.00  0.00    +0.000 C 
BRANCH  30  31
ATOM     31  C   UNL     1       9.774  32.544  77.236  0.00  0.00    +0.000 A 
ATOM     32  C   UNL     1       9.784  31.575  76.225  0.00  0.00    +0.000 A 
ATOM     33  C   UNL     1      10.845  33.454  77.312  0.00  0.00    +0.000 A 
ATOM     34  C   UNL     1      10.811  31.547  75.281  0.00  0.00    +0.000 A 
ATOM     35  C   UNL     1      11.876  33.417  76.368  0.00  0.00    +0.000 A 
ATOM     36  C   UNL     1      11.848  32.475  75.344  0.00  0.00    +0.000 A 
ENDBRANCH  30  31
ENDBRANCH   4  30
TORSDOF 7
ENDMDL
MODEL 5
REMARK VINA RESULT:      -8.0      3.536      6.222
REMARK  Name = 
REMARK  7 active torsions:
REMARK  status: ('A' for Active; 'I' for Inactive)
REMARK    1  A    between atoms: C_2  and  C_5
REMARK    2  A    between atoms: C_10  and  C_11
REMARK    3  A    between atoms: C_14  and  C_16
REMARK    4  A    between atoms: C_14  and  C_18
REMARK    5  A    between atoms: C_15  and  C_19
REMARK    6  A    between atoms: C_18  and  C_23
REMARK    7  A    between atoms: C_20  and  C_26
REMARK                            x       y       z     vdW  Elec       q    Type
REMARK                         _______ _______ _______ _____ _____    ______ ____
ROOT
ATOM      1  C   UNL     1       6.920  33.871  79.844  0.00  0.00    +0.000 C 
ATOM      2  O   UNL     1       6.566  33.201  80.816  0.00  0.00    +0.000 OA
ATOM      3  N   UNL     1       6.969  33.267  78.554  0.00  0.00    +0.000 N 
ATOM      4  C   UNL     1       7.581  33.817  77.311  0.00  0.00    +0.000 C 
ATOM      5  C   UNL     1       7.012  31.779  78.451  0.00  0.00    +0.000 C 
ATOM      6  C   UNL     1       7.216  32.772  76.255  0.00  0.00    +0.000 C 
ATOM      7  C   UNL     1       7.325  31.436  76.969  0.00  0.00    +0.000 C 
ENDROOT
BRANCH   1  13
ATOM      8  C   UNL     1       7.907  38.094  80.571  0.00  0.00    +0.000 A 
ATOM      9  C   UNL     1       8.883  37.094  80.672  0.00  0.00    +0.000 A 
ATOM     10  C   UNL     1       6.624  37.714  80.245  0.00  0.00    +0.000 A 
ATOM     11  C   UNL     1       8.554  35.731  80.448  0.00  0.00    +0.000 A 
ATOM     12  C   UNL     1       6.324  36.379  80.052  0.00  0.00    +0.000 A 
ATOM     13  C   UNL     1       7.240  35.337  80.130  0.00  0.00    +0.000 A 
BRANCH   8  15
ATOM     14  F   UNL     1       9.136  40.107  80.112  0.00  0.00    +0.000 F 
ATOM     15  C   UNL     1       8.107  39.564  80.804  0.00  0.00    +0.000 C 
ATOM     16  F   UNL     1       8.337  39.837  82.121  0.00  0.00    +0.000 F 
ATOM     17  F   UNL     1       6.995  40.286  80.478  0.00  0.00    +0.000 F 
ENDBRANCH   8  15
ENDBRANCH   1  13
BRANCH   5  18
ATOM     18  C   UNL     1       5.897  30.946  79.041  0.00  0.00    +0.000 A 
ATOM     19  C   UNL     1       4.539  31.207  78.830  0.00  0.00    +0.000 A 
ATOM     20  C   UNL     1       6.257  29.749  79.695  0.00  0.00    +0.000 A 
ATOM     21  C   UNL     1       3.575  30.268  79.221  0.00  0.00    +0.000 A 
ATOM     22  C   UNL     1       5.297  28.813  80.075  0.00  0.00    +0.000 A 
ATOM     23  C   UNL     1       3.955  29.068  79.826  0.00  0.00    +0.000 A 
ENDBRANCH   5  18
BRANCH   4  24
ATOM     24  C   UNL     1       6.814  35.058  76.753  0.00  0.00    +0.000 C 
ATOM     25  O   UNL     1       5.678  35.015  76.303  0.00  0.00    +0.000 OA
ATOM     26  O   UNL     1       7.514  36.217  76.828  0.00  0.00    +0.000 OA
ENDBRANCH   4  24
BRANCH   7  27
ATOM     27  C   UNL     1       6.470  30.407  76.260  0.00  0.00    +0.000 C 
ATOM     28  O   UNL     1       5.411  30.643  75.705  0.00  0.00    +0.000 OA
ATOM     29  O   UNL     1       7.031  29.180  76.179  0.00  0.00    +0.000 OA
ENDBRANCH   7  27
BRANCH   4  30
ATOM     30  C   UNL     1       9.141  34.036  77.412  0.00  0.00    +0.000 C 
BRANCH  30  31
ATOM     31  C   UNL     1      10.156  33.641  76.355  0.00  0.00    +0.000 A 
ATOM     32  C   UNL     1      10.620  34.612  75.460  0.00  0.00    +0.000 A 
ATOM     33  C   UNL     1      10.824  32.404  76.418  0.00  0.00    +0.000 A 
ATOM     34  C   UNL     1      11.754  34.373  74.681  0.00  0.00    +0.000 A 
ATOM     35  C   UNL     1      11.954  32.166  75.631  0.00  0.00    +0.000 A 
ATOM     36  C   UNL     1      12.428  33.158  74.777  0.00  0.00    +0.000 A 
ENDBRANCH  30  31
ENDBRANCH   4  30
TORSDOF 7
ENDMDL
MODEL 6
REMARK VINA RESULT:      -7.8      3.307      5.978
REMARK  Name = 
REMARK  7 active torsions:
REMARK  status: ('A' for Active; 'I' for Inactive)
REMARK    1  A    between atoms: C_2  and  C_5
REMARK    2  A    between atoms: C_10  and  C_11
REMARK    3  A    between atoms: C_14  and  C_16
REMARK    4  A    between atoms: C_14  and  C_18
REMARK    5  A    between atoms: C_15  and  C_19
REMARK    6  A    between atoms: C_18  and  C_23
REMARK    7  A    between atoms: C_20  and  C_26
REMARK                            x       y       z     vdW  Elec       q    Type
REMARK                         _______ _______ _______ _____ _____    ______ ____
ROOT
ATOM      1  C   UNL     1       6.969  33.507  79.646  0.00  0.00    +0.000 C 
ATOM      2  O   UNL     1       6.268  32.779  80.352  0.00  0.00    +0.000 OA
ATOM      3  N   UNL     1       6.880  33.405  78.226  0.00  0.00    +0.000 N 
ATOM      4  C   UNL     1       7.788  34.009  77.211  0.00  0.00    +0.000 C 
ATOM      5  C   UNL     1       6.290  32.175  77.623  0.00  0.00    +0.000 C 
ATOM      6  C   UNL     1       7.115  33.643  75.886  0.00  0.00    +0.000 C 
ATOM      7  C   UNL     1       6.569  32.241  76.097  0.00  0.00    +0.000 C 
ENDROOT
BRANCH   1  13
ATOM      8  C   UNL     1       9.454  36.361  81.885  0.00  0.00    +0.000 A 
ATOM      9  C   UNL     1       8.178  36.715  81.427  0.00  0.00    +0.000 A 
ATOM     10  C   UNL     1       9.912  35.092  81.607  0.00  0.00    +0.000 A 
ATOM     11  C   UNL     1       7.387  35.791  80.693  0.00  0.00    +0.000 A 
ATOM     12  C   UNL     1       9.131  34.219  80.873  0.00  0.00    +0.000 A 
ATOM     13  C   UNL     1       7.858  34.499  80.393  0.00  0.00    +0.000 A 
BRANCH   8  15
ATOM     14  F   UNL     1       9.965  37.611  83.872  0.00  0.00    +0.000 F 
ATOM     15  C   UNL     1      10.405  37.238  82.648  0.00  0.00    +0.000 C 
ATOM     16  F   UNL     1      10.681  38.388  81.967  0.00  0.00    +0.000 F 
ATOM     17  F   UNL     1      11.614  36.634  82.836  0.00  0.00    +0.000 F 
ENDBRANCH   8  15
ENDBRANCH   1  13
BRANCH   5  18
ATOM     18  C   UNL     1       4.873  31.771  77.960  0.00  0.00    +0.000 A 
ATOM     19  C   UNL     1       3.775  32.630  77.855  0.00  0.00    +0.000 A 
ATOM     20  C   UNL     1       4.634  30.406  78.231  0.00  0.00    +0.000 A 
ATOM     21  C   UNL     1       2.473  32.124  77.970  0.00  0.00    +0.000 A 
ATOM     22  C   UNL     1       3.339  29.904  78.335  0.00  0.00    +0.000 A 
ATOM     23  C   UNL     1       2.257  30.762  78.192  0.00  0.00    +0.000 A 
ENDBRANCH   5  18
BRANCH   4  24
ATOM     24  C   UNL     1       7.688  35.566  77.153  0.00  0.00    +0.000 C 
ATOM     25  O   UNL     1       8.651  36.318  77.224  0.00  0.00    +0.000 OA
ATOM     26  O   UNL     1       6.424  36.031  76.993  0.00  0.00    +0.000 OA
ENDBRANCH   4  24
BRANCH   7  27
ATOM     27  C   UNL     1       5.429  31.988  75.133  0.00  0.00    +0.000 C 
ATOM     28  O   UNL     1       4.815  30.940  75.038  0.00  0.00    +0.000 OA
ATOM     29  O   UNL     1       5.044  33.077  74.431  0.00  0.00    +0.000 OA
ENDBRANCH   7  27
BRANCH   4  30
ATOM     30  C   UNL     1       9.273  33.478  77.286  0.00  0.00    +0.000 C 
BRANCH  30  31
ATOM     31  C   UNL     1      10.132  33.091  76.097  0.00  0.00    +0.000 A 
ATOM     32  C   UNL     1      10.896  34.076  75.459  0.00  0.00    +0.000 A 
ATOM     33  C   UNL     1      10.374  31.740  75.786  0.00  0.00    +0.000 A 
ATOM     34  C   UNL     1      11.911  33.719  74.570  0.00  0.00    +0.000 A 
ATOM     35  C   UNL     1      11.386  31.388  74.889  0.00  0.00    +0.000 A 
ATOM     36  C   UNL     1      12.166  32.377  74.296  0.00  0.00    +0.000 A 
ENDBRANCH  30  31
ENDBRANCH   4  30
TORSDOF 7
ENDMDL
MODEL 7
REMARK VINA RESULT:      -7.7      3.964      6.627
REMARK  Name = 
REMARK  7 active torsions:
REMARK  status: ('A' for Active; 'I' for Inactive)
REMARK    1  A    between atoms: C_2  and  C_5
REMARK    2  A    between atoms: C_10  and  C_11
REMARK    3  A    between atoms: C_14  and  C_16
REMARK    4  A    between atoms: C_14  and  C_18
REMARK    5  A    between atoms: C_15  and  C_19
REMARK    6  A    between atoms: C_18  and  C_23
REMARK    7  A    between atoms: C_20  and  C_26
REMARK                            x       y       z     vdW  Elec       q    Type
REMARK                         _______ _______ _______ _____ _____    ______ ____
ROOT
ATOM      1  C   UNL     1       8.396  35.305  78.309  0.00  0.00    +0.000 C 
ATOM      2  O   UNL     1       8.747  35.253  77.128  0.00  0.00    +0.000 OA
ATOM      3  N   UNL     1       8.344  34.108  79.081  0.00  0.00    +0.000 N 
ATOM      4  C   UNL     1       7.735  33.917  80.428  0.00  0.00    +0.000 C 
ATOM      5  C   UNL     1       8.295  32.793  78.378  0.00  0.00    +0.000 C 
ATOM      6  C   UNL     1       8.095  32.469  80.767  0.00  0.00    +0.000 C 
ATOM      7  C   UNL     1       7.980  31.717  79.452  0.00  0.00    +0.000 C 
ENDROOT
BRANCH   1  13
ATOM      8  C   UNL     1       7.414  39.275  79.925  0.00  0.00    +0.000 A 
ATOM      9  C   UNL     1       6.487  38.554  79.162  0.00  0.00    +0.000 A 
ATOM     10  C   UNL     1       8.649  38.707  80.149  0.00  0.00    +0.000 A 
ATOM     11  C   UNL     1       6.816  37.278  78.633  0.00  0.00    +0.000 A 
ATOM     12  C   UNL     1       8.952  37.473  79.606  0.00  0.00    +0.000 A 
ATOM     13  C   UNL     1       8.083  36.701  78.846  0.00  0.00    +0.000 A 
BRANCH   8  15
ATOM     14  F   UNL     1       8.355  41.326  80.751  0.00  0.00    +0.000 F 
ATOM     15  C   UNL     1       7.212  40.637  80.524  0.00  0.00    +0.000 C 
ATOM     16  F   UNL     1       6.557  40.568  81.719  0.00  0.00    +0.000 F 
ATOM     17  F   UNL     1       6.431  41.429  79.733  0.00  0.00    +0.000 F 
ENDBRANCH   8  15
ENDBRANCH   1  13
BRANCH   5  18
ATOM     18  C   UNL     1       9.407  32.396  77.434  0.00  0.00    +0.000 A 
ATOM     19  C   UNL     1       9.204  31.662  76.261  0.00  0.00    +0.000 A 
ATOM     20  C   UNL     1      10.686  32.945  77.670  0.00  0.00    +0.000 A 
ATOM     21  C   UNL     1      10.242  31.525  75.331  0.00  0.00    +0.000 A 
ATOM     22  C   UNL     1      11.713  32.816  76.738  0.00  0.00    +0.000 A 
ATOM     23  C   UNL     1      11.487  32.115  75.561  0.00  0.00    +0.000 A 
ENDBRANCH   5  18
BRANCH   4  24
ATOM     24  C   UNL     1       8.506  34.669  81.558  0.00  0.00    +0.000 C 
ATOM     25  O   UNL     1       8.000  35.505  82.294  0.00  0.00    +0.000 OA
ATOM     26  O   UNL     1       9.805  34.300  81.677  0.00  0.00    +0.000 OA
ENDBRANCH   4  24
BRANCH   7  27
ATOM     27  C   UNL     1       8.831  30.465  79.506  0.00  0.00    +0.000 C 
ATOM     28  O   UNL     1       9.959  30.408  79.963  0.00  0.00    +0.000 OA
ATOM     29  O   UNL     1       8.194  29.344  79.101  0.00  0.00    +0.000 OA
ENDBRANCH   7  27
BRANCH   4  30
ATOM     30  C   UNL     1       6.175  34.162  80.462  0.00  0.00    +0.000 C 
BRANCH  30  31
ATOM     31  C   UNL     1       5.167  33.557  79.503  0.00  0.00    +0.000 A 
ATOM     32  C   UNL     1       4.402  32.462  79.920  0.00  0.00    +0.000 A 
ATOM     33  C   UNL     1       4.807  34.223  78.316  0.00  0.00    +0.000 A 
ATOM     34  C   UNL     1       3.274  32.070  79.198  0.00  0.00    +0.000 A 
ATOM     35  C   UNL     1       3.680  33.822  77.591  0.00  0.00    +0.000 A 
ATOM     36  C   UNL     1       2.905  32.757  78.043  0.00  0.00    +0.000 A 
ENDBRANCH  30  31
ENDBRANCH   4  30
TORSDOF 7
ENDMDL
MODEL 8
REMARK VINA RESULT:      -7.7      3.758      6.145
REMARK  Name = 
REMARK  7 active torsions:
REMARK  status: ('A' for Active; 'I' for Inactive)
REMARK    1  A    between atoms: C_2  and  C_5
REMARK    2  A    between atoms: C_10  and  C_11
REMARK    3  A    between atoms: C_14  and  C_16
REMARK    4  A    between atoms: C_14  and  C_18
REMARK    5  A    between atoms: C_15  and  C_19
REMARK    6  A    between atoms: C_18  and  C_23
REMARK    7  A    between atoms: C_20  and  C_26
REMARK                            x       y       z     vdW  Elec       q    Type
REMARK                         _______ _______ _______ _____ _____    ______ ____
ROOT
ATOM      1  C   UNL     1       6.964  33.934  79.563  0.00  0.00    +0.000 C 
ATOM      2  O   UNL     1       7.424  33.210  80.448  0.00  0.00    +0.000 OA
ATOM      3  N   UNL     1       6.316  33.345  78.437  0.00  0.00    +0.000 N 
ATOM      4  C   UNL     1       5.908  34.011  77.169  0.00  0.00    +0.000 C 
ATOM      5  C   UNL     1       6.567  31.908  78.127  0.00  0.00    +0.000 C 
ATOM      6  C   UNL     1       5.173  32.899  76.417  0.00  0.00    +0.000 C 
ATOM      7  C   UNL     1       5.952  31.632  76.728  0.00  0.00    +0.000 C 
ENDROOT
BRANCH   1  13
ATOM      8  C   UNL     1       7.388  38.240  80.345  0.00  0.00    +0.000 A 
ATOM      9  C   UNL     1       6.261  37.532  80.782  0.00  0.00    +0.000 A 
ATOM     10  C   UNL     1       8.359  37.549  79.654  0.00  0.00    +0.000 A 
ATOM     11  C   UNL     1       6.125  36.144  80.514  0.00  0.00    +0.000 A 
ATOM     12  C   UNL     1       8.194  36.203  79.389  0.00  0.00    +0.000 A 
ATOM     13  C   UNL     1       7.108  35.437  79.795  0.00  0.00    +0.000 A 
BRANCH   8  15
ATOM     14  F   UNL     1       6.822  40.520  79.841  0.00  0.00    +0.000 F 
ATOM     15  C   UNL     1       7.651  39.707  80.535  0.00  0.00    +0.000 C 
ATOM     16  F   UNL     1       8.922  40.040  80.166  0.00  0.00    +0.000 F 
ATOM     17  F   UNL     1       7.551  40.075  81.846  0.00  0.00    +0.000 F 
ENDBRANCH   8  15
ENDBRANCH   1  13
BRANCH   5  18
ATOM     18  C   UNL     1       6.240  30.843  79.149  0.00  0.00    +0.000 A 
ATOM     19  C   UNL     1       4.973  30.676  79.717  0.00  0.00    +0.000 A 
ATOM     20  C   UNL     1       7.227  29.869  79.411  0.00  0.00    +0.000 A 
ATOM     21  C   UNL     1       4.692  29.537  80.484  0.00  0.00    +0.000 A 
ATOM     22  C   UNL     1       6.942  28.733  80.165  0.00  0.00    +0.000 A 
ATOM     23  C   UNL     1       5.669  28.561  80.692  0.00  0.00    +0.000 A 
ENDBRANCH   5  18
BRANCH   4  24
ATOM     24  C   UNL     1       4.744  35.033  77.364  0.00  0.00    +0.000 C 
ATOM     25  O   UNL     1       4.865  36.243  77.230  0.00  0.00    +0.000 OA
ATOM     26  O   UNL     1       3.556  34.461  77.679  0.00  0.00    +0.000 OA
ENDBRANCH   4  24
BRANCH   7  27
ATOM     27  C   UNL     1       5.055  30.426  76.547  0.00  0.00    +0.000 C 
ATOM     28  O   UNL     1       5.442  29.273  76.481  0.00  0.00    +0.000 OA
ATOM     29  O   UNL     1       3.733  30.708  76.577  0.00  0.00    +0.000 OA
ENDBRANCH   7  27
BRANCH   4  30
ATOM     30  C   UNL     1       7.117  34.589  76.334  0.00  0.00    +0.000 C 
BRANCH  30  31
ATOM     31  C   UNL     1       8.545  34.079  76.383  0.00  0.00    +0.000 A 
ATOM     32  C   UNL     1       8.821  32.782  75.932  0.00  0.00    +0.000 A 
ATOM     33  C   UNL     1       9.620  34.955  76.625  0.00  0.00    +0.000 A 
ATOM     34  C   UNL     1      10.135  32.385  75.680  0.00  0.00    +0.000 A 
ATOM     35  C   UNL     1      10.935  34.549  76.379  0.00  0.00    +0.000 A 
ATOM     36  C   UNL     1      11.189  33.271  75.890  0.00  0.00    +0.000 A 
ENDBRANCH  30  31
ENDBRANCH   4  30
TORSDOF 7
ENDMDL
MODEL 9
REMARK VINA RESULT:      -7.6      2.943      5.567
REMARK  Name = 
REMARK  7 active torsions:
REMARK  status: ('A' for Active; 'I' for Inactive)
REMARK    1  A    between atoms: C_2  and  C_5
REMARK    2  A    between atoms: C_10  and  C_11
REMARK    3  A    between atoms: C_14  and  C_16
REMARK    4  A    between atoms: C_14  and  C_18
REMARK    5  A    between atoms: C_15  and  C_19
REMARK    6  A    between atoms: C_18  and  C_23
REMARK    7  A    between atoms: C_20  and  C_26
REMARK                            x       y       z     vdW  Elec       q    Type
REMARK                         _______ _______ _______ _____ _____    ______ ____
ROOT
ATOM      1  C   UNL     1       9.353  34.049  78.945  0.00  0.00    +0.000 C 
ATOM      2  O   UNL     1       9.451  33.489  80.039  0.00  0.00    +0.000 OA
ATOM      3  N   UNL     1       8.691  35.309  78.858  0.00  0.00    +0.000 N 
ATOM      4  C   UNL     1       8.264  36.031  77.626  0.00  0.00    +0.000 C 
ATOM      5  C   UNL     1       7.777  35.726  79.960  0.00  0.00    +0.000 C 
ATOM      6  C   UNL     1       7.724  37.355  78.172  0.00  0.00    +0.000 C 
ATOM      7  C   UNL     1       7.018  36.988  79.466  0.00  0.00    +0.000 C 
ENDROOT
BRANCH   1  13
ATOM      8  C   UNL     1      11.305  31.913  75.634  0.00  0.00    +0.000 A 
ATOM      9  C   UNL     1      12.007  32.844  76.410  0.00  0.00    +0.000 A 
ATOM     10  C   UNL     1       9.979  31.692  75.934  0.00  0.00    +0.000 A 
ATOM     11  C   UNL     1      11.367  33.539  77.470  0.00  0.00    +0.000 A 
ATOM     12  C   UNL     1       9.373  32.396  76.957  0.00  0.00    +0.000 A 
ATOM     13  C   UNL     1      10.007  33.327  77.769  0.00  0.00    +0.000 A 
BRANCH   8  15
ATOM     14  F   UNL     1      11.260  29.921  74.293  0.00  0.00    +0.000 F 
ATOM     15  C   UNL     1      11.846  31.127  74.474  0.00  0.00    +0.000 C 
ATOM     16  F   UNL     1      13.184  30.895  74.606  0.00  0.00    +0.000 F 
ATOM     17  F   UNL     1      11.715  31.804  73.296  0.00  0.00    +0.000 F 
ENDBRANCH   8  15
ENDBRANCH   1  13
BRANCH   5  18
ATOM     18  C   UNL     1       8.301  35.852  81.372  0.00  0.00    +0.000 A 
ATOM     19  C   UNL     1       9.481  36.525  81.706  0.00  0.00    +0.000 A 
ATOM     20  C   UNL     1       7.462  35.410  82.418  0.00  0.00    +0.000 A 
ATOM     21  C   UNL     1       9.783  36.789  83.048  0.00  0.00    +0.000 A 
ATOM     22  C   UNL     1       7.760  35.683  83.751  0.00  0.00    +0.000 A 
ATOM     23  C   UNL     1       8.916  36.384  84.065  0.00  0.00    +0.000 A 
ENDBRANCH   5  18
BRANCH   4  24
ATOM     24  C   UNL     1       9.466  36.549  76.775  0.00  0.00    +0.000 C 
ATOM     25  O   UNL     1      10.036  35.886  75.919  0.00  0.00    +0.000 OA
ATOM     26  O   UNL     1       9.824  37.828  77.049  0.00  0.00    +0.000 OA
ENDBRANCH   4  24
BRANCH   7  27
ATOM     27  C   UNL     1       6.948  38.201  80.370  0.00  0.00    +0.000 C 
ATOM     28  O   UNL     1       6.108  38.380  81.233  0.00  0.00    +0.000 OA
ATOM     29  O   UNL     1       7.986  39.056  80.231  0.00  0.00    +0.000 OA
ENDBRANCH   7  27
BRANCH   4  30
ATOM     30  C   UNL     1       7.181  35.257  76.777  0.00  0.00    +0.000 C 
BRANCH  30  31
ATOM     31  C   UNL     1       5.916  34.626  77.327  0.00  0.00    +0.000 A 
ATOM     32  C   UNL     1       4.704  35.317  77.212  0.00  0.00    +0.000 A 
ATOM     33  C   UNL     1       5.889  33.272  77.713  0.00  0.00    +0.000 A 
ATOM     34  C   UNL     1       3.491  34.661  77.427  0.00  0.00    +0.000 A 
ATOM     35  C   UNL     1       4.672  32.621  77.935  0.00  0.00    +0.000 A 
ATOM     36  C   UNL     1       3.474  33.312  77.774  0.00  0.00    +0.000 A 
ENDBRANCH  30  31
ENDBRANCH   4  30
TORSDOF 7
ENDMDL
