MODEL 1
REMARK VINA RESULT:      -7.3      0.000      0.000
REMARK  Name = 
REMARK  9 active torsions:
REMARK  status: ('A' for Active; 'I' for Inactive)
REMARK    1  A    between atoms: C_2  and  C_5
REMARK    2  A    between atoms: C_10  and  C_11
REMARK    3  A    between atoms: C_14  and  C_16
REMARK    4  A    between atoms: C_14  and  C_18
REMARK    5  A    between atoms: C_15  and  C_19
REMARK    6  A    between atoms: C_18  and  C_23
REMARK    7  A    between atoms: C_20  and  C_26
REMARK    8  A    between atoms: C_23  and  C_27
REMARK    9  A    between atoms: C_27  and  C_32
REMARK                            x       y       z     vdW  Elec       q    Type
REMARK                         _______ _______ _______ _____ _____    ______ ____
ROOT
ATOM      1  C   UNL     1       8.416  30.883  79.073  0.00  0.00    +0.000 C 
ATOM      2  O   UNL     1       8.965  29.858  79.479  0.00  0.00    +0.000 OA
ATOM      3  N   UNL     1       7.136  31.242  79.527  0.00  0.00    +0.000 N 
ATOM      4  C   UNL     1       6.423  30.517  80.642  0.00  0.00    +0.000 C 
ATOM      5  C   UNL     1       6.400  32.497  79.188  0.00  0.00    +0.000 C 
ATOM      6  C   UNL     1       4.962  31.034  80.403  0.00  0.00    +0.000 C 
ATOM      7  C   UNL     1       5.131  32.506  80.051  0.00  0.00    +0.000 C 
ENDROOT
BRANCH   1  13
ATOM      8  C   UNL     1      10.670  33.018  76.056  0.00  0.00    +0.000 A 
ATOM      9  C   UNL     1      10.603  33.511  77.368  0.00  0.00    +0.000 A 
ATOM     10  C   UNL     1       9.919  31.884  75.733  0.00  0.00    +0.000 A 
ATOM     11  C   UNL     1       9.853  32.826  78.350  0.00  0.00    +0.000 A 
ATOM     12  C   UNL     1       9.102  31.271  76.682  0.00  0.00    +0.000 A 
ATOM     13  C   UNL     1       9.137  31.664  78.017  0.00  0.00    +0.000 A 
BRANCH   8  15
ATOM     14  F   UNL     1      11.629  32.896  73.848  0.00  0.00    +0.000 F 
ATOM     15  C   UNL     1      11.510  33.651  74.973  0.00  0.00    +0.000 C 
ATOM     16  F   UNL     1      12.786  33.893  75.395  0.00  0.00    +0.000 F 
ATOM     17  F   UNL     1      11.023  34.858  74.573  0.00  0.00    +0.000 F 
ENDBRANCH   8  15
ENDBRANCH   1  13
BRANCH   5  18
ATOM     18  C   UNL     1       6.183  32.786  77.719  0.00  0.00    +0.000 A 
ATOM     19  C   UNL     1       5.624  31.864  76.828  0.00  0.00    +0.000 A 
ATOM     20  C   UNL     1       6.601  34.037  77.216  0.00  0.00    +0.000 A 
ATOM     21  C   UNL     1       5.544  32.165  75.465  0.00  0.00    +0.000 A 
ATOM     22  C   UNL     1       6.526  34.332  75.856  0.00  0.00    +0.000 A 
ATOM     23  C   UNL     1       6.004  33.389  74.979  0.00  0.00    +0.000 A 
ENDBRANCH   5  18
BRANCH   4  24
ATOM     24  C   UNL     1       6.287  28.954  80.697  0.00  0.00    +0.000 C 
ATOM     25  O   UNL     1       5.367  28.357  80.148  0.00  0.00    +0.000 OA
ATOM     26  O   UNL     1       7.129  28.308  81.520  0.00  0.00    +0.000 OA
ENDBRANCH   4  24
BRANCH   7  27
ATOM     27  C   UNL     1       3.902  33.165  79.455  0.00  0.00    +0.000 C 
ATOM     28  O   UNL     1       2.973  32.563  78.956  0.00  0.00    +0.000 OA
ATOM     29  O   UNL     1       3.932  34.510  79.570  0.00  0.00    +0.000 OA
ENDBRANCH   7  27
BRANCH   4  30
ATOM     30  C   UNL     1       6.828  31.004  82.068  0.00  0.00    +0.000 C 
BRANCH  30  31
ATOM     31  C   UNL     1       8.160  31.720  82.305  0.00  0.00    +0.000 C 
BRANCH  31  32
ATOM     32  C   UNL     1       7.841  33.212  82.532  0.00  0.00    +0.000 C 
ATOM     33  C   UNL     1       8.617  34.158  81.637  0.00  0.00    +0.000 C 
ENDBRANCH  31  32
ENDBRANCH  30  31
ENDBRANCH   4  30
TORSDOF 8
ENDMDL
MODEL 2
REMARK VINA RESULT:      -7.0      4.023      6.407
REMARK  Name = 
REMARK  9 active torsions:
REMARK  status: ('A' for Active; 'I' for Inactive)
REMARK    1  A    between atoms: C_2  and  C_5
REMARK    2  A    between atoms: C_10  and  C_11
REMARK    3  A    between atoms: C_14  and  C_16
REMARK    4  A    between atoms: C_14  and  C_18
REMARK    5  A    between atoms: C_15  and  C_19
REMARK    6  A    between atoms: C_18  and  C_23
REMARK    7  A    between atoms: C_20  and  C_26
REMARK    8  A    between atoms: C_23  and  C_27
REMARK    9  A    between atoms: C_27  and  C_32
REMARK                            x       y       z     vdW  Elec       q    Type
REMARK                         _______ _______ _______ _____ _____    ______ ____
ROOT
ATOM      1  C   UNL     1       4.882  33.422  80.243  0.00  0.00    +0.000 C 
ATOM      2  O   UNL     1       4.047  33.959  80.971  0.00  0.00    +0.000 OA
ATOM      3  N   UNL     1       5.386  34.086  79.113  0.00  0.00    +0.000 N 
ATOM      4  C   UNL     1       5.084  35.531  78.803  0.00  0.00    +0.000 C 
ATOM      5  C   UNL     1       6.463  33.589  78.205  0.00  0.00    +0.000 C 
ATOM      6  C   UNL     1       5.507  35.573  77.294  0.00  0.00    +0.000 C 
ATOM      7  C   UNL     1       6.774  34.732  77.229  0.00  0.00    +0.000 C 
ENDROOT
BRANCH   1  13
ATOM      8  C   UNL     1       6.072  29.331  81.011  0.00  0.00    +0.000 A 
ATOM      9  C   UNL     1       4.828  29.605  80.424  0.00  0.00    +0.000 A 
ATOM     10  C   UNL     1       6.865  30.406  81.424  0.00  0.00    +0.000 A 
ATOM     11  C   UNL     1       4.430  30.940  80.189  0.00  0.00    +0.000 A 
ATOM     12  C   UNL     1       6.420  31.720  81.280  0.00  0.00    +0.000 A 
ATOM     13  C   UNL     1       5.257  32.009  80.573  0.00  0.00    +0.000 A 
BRANCH   8  15
ATOM     14  F   UNL     1       7.050  27.693  82.485  0.00  0.00    +0.000 F 
ATOM     15  C   UNL     1       6.600  27.932  81.225  0.00  0.00    +0.000 C 
ATOM     16  F   UNL     1       7.648  27.652  80.396  0.00  0.00    +0.000 F 
ATOM     17  F   UNL     1       5.665  26.976  80.965  0.00  0.00    +0.000 F 
ENDBRANCH   8  15
ENDBRANCH   1  13
BRANCH   5  18
ATOM     18  C   UNL     1       6.246  32.235  77.565  0.00  0.00    +0.000 A 
ATOM     19  C   UNL     1       5.067  31.877  76.904  0.00  0.00    +0.000 A 
ATOM     20  C   UNL     1       7.273  31.273  77.674  0.00  0.00    +0.000 A 
ATOM     21  C   UNL     1       4.900  30.575  76.422  0.00  0.00    +0.000 A 
ATOM     22  C   UNL     1       7.102  29.974  77.199  0.00  0.00    +0.000 A 
ATOM     23  C   UNL     1       5.909  29.624  76.579  0.00  0.00    +0.000 A 
ENDBRANCH   5  18
BRANCH   4  24
ATOM     24  C   UNL     1       3.631  36.125  78.825  0.00  0.00    +0.000 C 
ATOM     25  O   UNL     1       2.828  35.926  77.920  0.00  0.00    +0.000 OA
ATOM     26  O   UNL     1       3.359  37.009  79.799  0.00  0.00    +0.000 OA
ENDBRANCH   4  24
BRANCH   7  27
ATOM     27  C   UNL     1       7.209  34.339  75.830  0.00  0.00    +0.000 C 
ATOM     28  O   UNL     1       6.470  34.294  74.868  0.00  0.00    +0.000 OA
ATOM     29  O   UNL     1       8.531  34.073  75.757  0.00  0.00    +0.000 OA
ENDBRANCH   7  27
BRANCH   4  30
ATOM     30  C   UNL     1       6.016  36.541  79.543  0.00  0.00    +0.000 C 
BRANCH  30  31
ATOM     31  C   UNL     1       6.615  37.741  78.807  0.00  0.00    +0.000 C 
BRANCH  31  32
ATOM     32  C   UNL     1       8.143  37.683  79.010  0.00  0.00    +0.000 C 
ATOM     33  C   UNL     1       8.695  38.776  79.904  0.00  0.00    +0.000 C 
ENDBRANCH  31  32
ENDBRANCH  30  31
ENDBRANCH   4  30
TORSDOF 8
ENDMDL
MODEL 3
REMARK VINA RESULT:      -6.9      2.861      4.202
REMARK  Name = 
REMARK  9 active torsions:
REMARK  status: ('A' for Active; 'I' for Inactive)
REMARK    1  A    between atoms: C_2  and  C_5
REMARK    2  A    between atoms: C_10  and  C_11
REMARK    3  A    between atoms: C_14  and  C_16
REMARK    4  A    between atoms: C_14  and  C_18
REMARK    5  A    between atoms: C_15  and  C_19
REMARK    6  A    between atoms: C_18  and  C_23
REMARK    7  A    between atoms: C_20  and  C_26
REMARK    8  A    between atoms: C_23  and  C_27
REMARK    9  A    between atoms: C_27  and  C_32
REMARK                            x       y       z     vdW  Elec       q    Type
REMARK                         _______ _______ _______ _____ _____    ______ ____
ROOT
ATOM      1  C   UNL     1       8.603  34.943  79.222  0.00  0.00    +0.000 C 
ATOM      2  O   UNL     1       9.313  35.230  80.186  0.00  0.00    +0.000 OA
ATOM      3  N   UNL     1       7.239  35.275  79.207  0.00  0.00    +0.000 N 
ATOM      4  C   UNL     1       6.589  36.135  80.262  0.00  0.00    +0.000 C 
ATOM      5  C   UNL     1       6.292  35.068  78.070  0.00  0.00    +0.000 C 
ATOM      6  C   UNL     1       5.082  35.796  79.990  0.00  0.00    +0.000 C 
ATOM      7  C   UNL     1       4.972  35.738  78.473  0.00  0.00    +0.000 C 
ENDROOT
BRANCH   1  13
ATOM      8  C   UNL     1      10.644  32.700  76.132  0.00  0.00    +0.000 A 
ATOM      9  C   UNL     1      10.278  34.036  75.909  0.00  0.00    +0.000 A 
ATOM     10  C   UNL     1      10.250  32.093  77.328  0.00  0.00    +0.000 A 
ATOM     11  C   UNL     1       9.596  34.765  76.909  0.00  0.00    +0.000 A 
ATOM     12  C   UNL     1       9.490  32.788  78.268  0.00  0.00    +0.000 A 
ATOM     13  C   UNL     1       9.244  34.151  78.123  0.00  0.00    +0.000 A 
BRANCH   8  15
ATOM     14  F   UNL     1      11.595  32.472  73.929  0.00  0.00    +0.000 F 
ATOM     15  C   UNL     1      11.439  31.881  75.143  0.00  0.00    +0.000 C 
ATOM     16  F   UNL     1      10.853  30.673  74.897  0.00  0.00    +0.000 F 
ATOM     17  F   UNL     1      12.692  31.594  75.593  0.00  0.00    +0.000 F 
ENDBRANCH   8  15
ENDBRANCH   1  13
BRANCH   5  18
ATOM     18  C   UNL     1       6.164  33.658  77.536  0.00  0.00    +0.000 A 
ATOM     19  C   UNL     1       5.940  32.545  78.352  0.00  0.00    +0.000 A 
ATOM     20  C   UNL     1       6.315  33.453  76.148  0.00  0.00    +0.000 A 
ATOM     21  C   UNL     1       5.929  31.260  77.799  0.00  0.00    +0.000 A 
ATOM     22  C   UNL     1       6.311  32.172  75.600  0.00  0.00    +0.000 A 
ATOM     23  C   UNL     1       6.126  31.074  76.431  0.00  0.00    +0.000 A 
ENDBRANCH   5  18
BRANCH   4  24
ATOM     24  C   UNL     1       6.779  35.892  81.802  0.00  0.00    +0.000 C 
ATOM     25  O   UNL     1       6.303  34.918  82.374  0.00  0.00    +0.000 OA
ATOM     26  O   UNL     1       7.341  36.891  82.501  0.00  0.00    +0.000 OA
ENDBRANCH   4  24
BRANCH   7  27
ATOM     27  C   UNL     1       3.695  35.107  77.949  0.00  0.00    +0.000 C 
ATOM     28  O   UNL     1       2.982  34.365  78.592  0.00  0.00    +0.000 OA
ATOM     29  O   UNL     1       3.413  35.491  76.686  0.00  0.00    +0.000 OA
ENDBRANCH   7  27
BRANCH   4  30
ATOM     30  C   UNL     1       6.741  37.667  80.006  0.00  0.00    +0.000 C 
BRANCH  30  31
ATOM     31  C   UNL     1       7.814  38.201  79.053  0.00  0.00    +0.000 C 
BRANCH  31  32
ATOM     32  C   UNL     1       8.946  38.783  79.924  0.00  0.00    +0.000 C 
ATOM     33  C   UNL     1       8.513  39.917  80.832  0.00  0.00    +0.000 C 
ENDBRANCH  31  32
ENDBRANCH  30  31
ENDBRANCH   4  30
TORSDOF 8
ENDMDL
MODEL 4
REMARK VINA RESULT:      -6.8      4.281      6.656
REMARK  Name = 
REMARK  9 active torsions:
REMARK  status: ('A' for Active; 'I' for Inactive)
REMARK    1  A    between atoms: C_2  and  C_5
REMARK    2  A    between atoms: C_10  and  C_11
REMARK    3  A    between atoms: C_14  and  C_16
REMARK    4  A    between atoms: C_14  and  C_18
REMARK    5  A    between atoms: C_15  and  C_19
REMARK    6  A    between atoms: C_18  and  C_23
REMARK    7  A    between atoms: C_20  and  C_26
REMARK    8  A    between atoms: C_23  and  C_27
REMARK    9  A    between atoms: C_27  and  C_32
REMARK                            x       y       z     vdW  Elec       q    Type
REMARK                         _______ _______ _______ _____ _____    ______ ____
ROOT
ATOM      1  C   UNL     1       7.980  31.493  76.674  0.00  0.00    +0.000 C 
ATOM      2  O   UNL     1       8.770  30.567  76.492  0.00  0.00    +0.000 OA
ATOM      3  N   UNL     1       8.439  32.811  76.832  0.00  0.00    +0.000 N 
ATOM      4  C   UNL     1       9.879  33.212  76.629  0.00  0.00    +0.000 C 
ATOM      5  C   UNL     1       7.588  34.031  76.965  0.00  0.00    +0.000 C 
ATOM      6  C   UNL     1       9.870  34.606  77.346  0.00  0.00    +0.000 C 
ATOM      7  C   UNL     1       8.542  35.233  76.945  0.00  0.00    +0.000 C 
ENDROOT
BRANCH   1  13
ATOM      8  C   UNL     1       3.758  30.644  77.118  0.00  0.00    +0.000 A 
ATOM      9  C   UNL     1       4.651  30.342  78.156  0.00  0.00    +0.000 A 
ATOM     10  C   UNL     1       4.277  31.131  75.914  0.00  0.00    +0.000 A 
ATOM     11  C   UNL     1       6.032  30.602  78.007  0.00  0.00    +0.000 A 
ATOM     12  C   UNL     1       5.651  31.290  75.739  0.00  0.00    +0.000 A 
ATOM     13  C   UNL     1       6.532  31.130  76.805  0.00  0.00    +0.000 A 
BRANCH   8  15
ATOM     14  F   UNL     1       1.557  31.627  77.156  0.00  0.00    +0.000 F 
ATOM     15  C   UNL     1       2.263  30.467  77.231  0.00  0.00    +0.000 C 
ATOM     16  F   UNL     1       1.907  29.891  78.416  0.00  0.00    +0.000 F 
ATOM     17  F   UNL     1       1.759  29.651  76.263  0.00  0.00    +0.000 F 
ENDBRANCH   8  15
ENDBRANCH   1  13
BRANCH   5  18
ATOM     18  C   UNL     1       6.569  34.035  78.084  0.00  0.00    +0.000 A 
ATOM     19  C   UNL     1       6.888  33.744  79.415  0.00  0.00    +0.000 A 
ATOM     20  C   UNL     1       5.223  34.309  77.761  0.00  0.00    +0.000 A 
ATOM     21  C   UNL     1       5.877  33.671  80.379  0.00  0.00    +0.000 A 
ATOM     22  C   UNL     1       4.217  34.230  78.721  0.00  0.00    +0.000 A 
ATOM     23  C   UNL     1       4.545  33.901  80.031  0.00  0.00    +0.000 A 
ENDBRANCH   5  18
BRANCH   4  24
ATOM     24  C   UNL     1      11.082  32.439  77.277  0.00  0.00    +0.000 C 
ATOM     25  O   UNL     1      12.057  32.080  76.626  0.00  0.00    +0.000 OA
ATOM     26  O   UNL     1      10.920  32.034  78.547  0.00  0.00    +0.000 OA
ENDBRANCH   4  24
BRANCH   7  27
ATOM     27  C   UNL     1       8.135  36.445  77.762  0.00  0.00    +0.000 C 
ATOM     28  O   UNL     1       8.610  36.739  78.840  0.00  0.00    +0.000 OA
ATOM     29  O   UNL     1       7.199  37.194  77.140  0.00  0.00    +0.000 OA
ENDBRANCH   7  27
BRANCH   4  30
ATOM     30  C   UNL     1      10.248  33.493  75.139  0.00  0.00    +0.000 C 
BRANCH  30  31
ATOM     31  C   UNL     1      11.329  34.515  74.777  0.00  0.00    +0.000 C 
BRANCH  31  32
ATOM     32  C   UNL     1      11.972  34.049  73.455  0.00  0.00    +0.000 C 
ATOM     33  C   UNL     1      12.347  32.580  73.429  0.00  0.00    +0.000 C 
ENDBRANCH  31  32
ENDBRANCH  30  31
ENDBRANCH   4  30
TORSDOF 8
ENDMDL
MODEL 5
REMARK VINA RESULT:      -6.8      2.844      4.394
REMARK  Name = 
REMARK  9 active torsions:
REMARK  status: ('A' for Active; 'I' for Inactive)
REMARK    1  A    between atoms: C_2  and  C_5
REMARK    2  A    between atoms: C_10  and  C_11
REMARK    3  A    between atoms: C_14  and  C_16
REMARK    4  A    between atoms: C_14  and  C_18
REMARK    5  A    between atoms: C_15  and  C_19
REMARK    6  A    between atoms: C_18  and  C_23
REMARK    7  A    between atoms: C_20  and  C_26
REMARK    8  A    between atoms: C_23  and  C_27
REMARK    9  A    between atoms: C_27  and  C_32
REMARK                            x       y       z     vdW  Elec       q    Type
REMARK                         _______ _______ _______ _____ _____    ______ ____
ROOT
ATOM      1  C   UNL     1       6.544  32.460  80.658  0.00  0.00    +0.000 C 
ATOM      2  O   UNL     1       6.663  32.070  81.819  0.00  0.00    +0.000 OA
ATOM      3  N   UNL     1       6.055  31.604  79.658  0.00  0.00    +0.000 N 
ATOM      4  C   UNL     1       5.493  30.234  79.947  0.00  0.00    +0.000 C 
ATOM      5  C   UNL     1       5.776  31.974  78.238  0.00  0.00    +0.000 C 
ATOM      6  C   UNL     1       5.538  29.618  78.506  0.00  0.00    +0.000 C 
ATOM      7  C   UNL     1       5.105  30.755  77.591  0.00  0.00    +0.000 C 
ENDROOT
BRANCH   1  13
ATOM      8  C   UNL     1       7.923  36.419  79.580  0.00  0.00    +0.000 A 
ATOM      9  C   UNL     1       8.848  35.402  79.861  0.00  0.00    +0.000 A 
ATOM     10  C   UNL     1       6.562  36.146  79.749  0.00  0.00    +0.000 A 
ATOM     11  C   UNL     1       8.400  34.114  80.231  0.00  0.00    +0.000 A 
ATOM     12  C   UNL     1       6.133  34.903  80.211  0.00  0.00    +0.000 A 
ATOM     13  C   UNL     1       7.027  33.846  80.356  0.00  0.00    +0.000 A 
BRANCH   8  15
ATOM     14  F   UNL     1       9.038  38.512  80.014  0.00  0.00    +0.000 F 
ATOM     15  C   UNL     1       8.322  37.796  79.106  0.00  0.00    +0.000 C 
ATOM     16  F   UNL     1       7.234  38.564  78.802  0.00  0.00    +0.000 F 
ATOM     17  F   UNL     1       9.072  37.761  77.969  0.00  0.00    +0.000 F 
ENDBRANCH   8  15
ENDBRANCH   1  13
BRANCH   5  18
ATOM     18  C   UNL     1       6.921  32.574  77.450  0.00  0.00    +0.000 A 
ATOM     19  C   UNL     1       8.192  31.994  77.380  0.00  0.00    +0.000 A 
ATOM     20  C   UNL     1       6.703  33.799  76.783  0.00  0.00    +0.000 A 
ATOM     21  C   UNL     1       9.228  32.655  76.713  0.00  0.00    +0.000 A 
ATOM     22  C   UNL     1       7.739  34.458  76.125  0.00  0.00    +0.000 A 
ATOM     23  C   UNL     1       9.006  33.888  76.099  0.00  0.00    +0.000 A 
ENDBRANCH   5  18
BRANCH   4  24
ATOM     24  C   UNL     1       6.226  29.181  80.853  0.00  0.00    +0.000 C 
ATOM     25  O   UNL     1       5.714  28.720  81.867  0.00  0.00    +0.000 OA
ATOM     26  O   UNL     1       7.515  28.937  80.563  0.00  0.00    +0.000 OA
ENDBRANCH   4  24
BRANCH   7  27
ATOM     27  C   UNL     1       5.374  30.526  76.116  0.00  0.00    +0.000 C 
ATOM     28  O   UNL     1       4.809  31.111  75.215  0.00  0.00    +0.000 OA
ATOM     29  O   UNL     1       6.349  29.615  75.906  0.00  0.00    +0.000 OA
ENDBRANCH   7  27
BRANCH   4  30
ATOM     30  C   UNL     1       3.990  30.248  80.366  0.00  0.00    +0.000 C 
BRANCH  30  31
ATOM     31  C   UNL     1       3.343  31.515  80.930  0.00  0.00    +0.000 C 
BRANCH  31  32
ATOM     32  C   UNL     1       2.392  32.062  79.845  0.00  0.00    +0.000 C 
ATOM     33  C   UNL     1       2.680  33.490  79.426  0.00  0.00    +0.000 C 
ENDBRANCH  31  32
ENDBRANCH  30  31
ENDBRANCH   4  30
TORSDOF 8
ENDMDL
MODEL 6
REMARK VINA RESULT:      -6.7      4.169      6.485
REMARK  Name = 
REMARK  9 active torsions:
REMARK  status: ('A' for Active; 'I' for Inactive)
REMARK    1  A    between atoms: C_2  and  C_5
REMARK    2  A    between atoms: C_10  and  C_11
REMARK    3  A    between atoms: C_14  and  C_16
REMARK    4  A    between atoms: C_14  and  C_18
REMARK    5  A    between atoms: C_15  and  C_19
REMARK    6  A    between atoms: C_18  and  C_23
REMARK    7  A    between atoms: C_20  and  C_26
REMARK    8  A    between atoms: C_23  and  C_27
REMARK    9  A    between atoms: C_27  and  C_32
REMARK                            x       y       z     vdW  Elec       q    Type
REMARK                         _______ _______ _______ _____ _____    ______ ____
ROOT
ATOM      1  C   UNL     1       7.413  32.776  76.776  0.00  0.00    +0.000 C 
ATOM      2  O   UNL     1       8.003  32.788  75.696  0.00  0.00    +0.000 OA
ATOM      3  N   UNL     1       8.037  33.244  77.944  0.00  0.00    +0.000 N 
ATOM      4  C   UNL     1       9.377  33.936  77.941  0.00  0.00    +0.000 C 
ATOM      5  C   UNL     1       7.406  33.370  79.292  0.00  0.00    +0.000 C 
ATOM      6  C   UNL     1       9.742  33.817  79.461  0.00  0.00    +0.000 C 
ATOM      7  C   UNL     1       8.430  34.078  80.189  0.00  0.00    +0.000 C 
ENDROOT
BRANCH   1  13
ATOM      8  C   UNL     1       3.484  30.976  77.036  0.00  0.00    +0.000 A 
ATOM      9  C   UNL     1       4.603  30.186  76.733  0.00  0.00    +0.000 A 
ATOM     10  C   UNL     1       3.657  32.358  77.155  0.00  0.00    +0.000 A 
ATOM     11  C   UNL     1       5.883  30.774  76.630  0.00  0.00    +0.000 A 
ATOM     12  C   UNL     1       4.907  32.943  76.953  0.00  0.00    +0.000 A 
ATOM     13  C   UNL     1       6.046  32.160  76.793  0.00  0.00    +0.000 A 
BRANCH   8  15
ATOM     14  F   UNL     1       1.806  29.353  76.435  0.00  0.00    +0.000 F 
ATOM     15  C   UNL     1       2.098  30.411  77.238  0.00  0.00    +0.000 C 
ATOM     16  F   UNL     1       1.129  31.341  76.995  0.00  0.00    +0.000 F 
ATOM     17  F   UNL     1       1.887  29.990  78.516  0.00  0.00    +0.000 F 
ENDBRANCH   8  15
ENDBRANCH   1  13
BRANCH   5  18
ATOM     18  C   UNL     1       6.791  32.117  79.878  0.00  0.00    +0.000 A 
ATOM     19  C   UNL     1       7.452  30.885  79.923  0.00  0.00    +0.000 A 
ATOM     20  C   UNL     1       5.471  32.190  80.372  0.00  0.00    +0.000 A 
ATOM     21  C   UNL     1       6.785  29.748  80.390  0.00  0.00    +0.000 A 
ATOM     22  C   UNL     1       4.807  31.055  80.831  0.00  0.00    +0.000 A 
ATOM     23  C   UNL     1       5.464  29.830  80.832  0.00  0.00    +0.000 A 
ENDBRANCH   5  18
BRANCH   4  24
ATOM     24  C   UNL     1      10.632  33.369  77.186  0.00  0.00    +0.000 C 
ATOM     25  O   UNL     1      11.134  33.944  76.226  0.00  0.00    +0.000 OA
ATOM     26  O   UNL     1      11.029  32.133  77.529  0.00  0.00    +0.000 OA
ENDBRANCH   4  24
BRANCH   7  27
ATOM     27  C   UNL     1       8.430  33.701  81.659  0.00  0.00    +0.000 C 
ATOM     28  O   UNL     1       9.151  32.858  82.152  0.00  0.00    +0.000 OA
ATOM     29  O   UNL     1       7.556  34.437  82.378  0.00  0.00    +0.000 OA
ENDBRANCH   7  27
BRANCH   4  30
ATOM     30  C   UNL     1       9.295  35.464  77.633  0.00  0.00    +0.000 C 
BRANCH  30  31
ATOM     31  C   UNL     1       8.011  36.085  77.079  0.00  0.00    +0.000 C 
BRANCH  31  32
ATOM     32  C   UNL     1       7.601  37.218  78.041  0.00  0.00    +0.000 C 
ATOM     33  C   UNL     1       6.208  37.766  77.801  0.00  0.00    +0.000 C 
ENDBRANCH  31  32
ENDBRANCH  30  31
ENDBRANCH   4  30
TORSDOF 8
ENDMDL
MODEL 7
REMARK VINA RESULT:      -6.7      2.108      3.078
REMARK  Name = 
REMARK  9 active torsions:
REMARK  status: ('A' for Active; 'I' for Inactive)
REMARK    1  A    between atoms: C_2  and  C_5
REMARK    2  A    between atoms: C_10  and  C_11
REMARK    3  A    between atoms: C_14  and  C_16
REMARK    4  A    between atoms: C_14  and  C_18
REMARK    5  A    between atoms: C_15  and  C_19
REMARK    6  A    between atoms: C_18  and  C_23
REMARK    7  A    between atoms: C_20  and  C_26
REMARK    8  A    between atoms: C_23  and  C_27
REMARK    9  A    between atoms: C_27  and  C_32
REMARK                            x       y       z     vdW  Elec       q    Type
REMARK                         _______ _______ _______ _____ _____    ______ ____
ROOT
ATOM      1  C   UNL     1       7.418  31.110  77.144  0.00  0.00    +0.000 C 
ATOM      2  O   UNL     1       7.283  30.112  76.436  0.00  0.00    +0.000 OA
ATOM      3  N   UNL     1       6.410  31.497  78.042  0.00  0.00    +0.000 N 
ATOM      4  C   UNL     1       5.192  30.655  78.327  0.00  0.00    +0.000 C 
ATOM      5  C   UNL     1       6.484  32.625  79.018  0.00  0.00    +0.000 C 
ATOM      6  C   UNL     1       4.273  31.734  78.999  0.00  0.00    +0.000 C 
ATOM      7  C   UNL     1       5.216  32.543  79.879  0.00  0.00    +0.000 C 
ENDROOT
BRANCH   1  13
ATOM      8  C   UNL     1      11.077  33.308  76.422  0.00  0.00    +0.000 A 
ATOM      9  C   UNL     1      10.920  32.568  77.604  0.00  0.00    +0.000 A 
ATOM     10  C   UNL     1       9.995  33.392  75.541  0.00  0.00    +0.000 A 
ATOM     11  C   UNL     1       9.720  31.864  77.850  0.00  0.00    +0.000 A 
ATOM     12  C   UNL     1       8.780  32.778  75.839  0.00  0.00    +0.000 A 
ATOM     13  C   UNL     1       8.657  31.926  76.933  0.00  0.00    +0.000 A 
BRANCH   8  15
ATOM     14  F   UNL     1      12.249  35.377  76.030  0.00  0.00    +0.000 F 
ATOM     15  C   UNL     1      12.355  34.022  76.054  0.00  0.00    +0.000 C 
ATOM     16  F   UNL     1      12.800  33.662  74.814  0.00  0.00    +0.000 F 
ATOM     17  F   UNL     1      13.379  33.733  76.905  0.00  0.00    +0.000 F 
ENDBRANCH   8  15
ENDBRANCH   1  13
BRANCH   5  18
ATOM     18  C   UNL     1       6.794  33.996  78.457  0.00  0.00    +0.000 A 
ATOM     19  C   UNL     1       6.094  34.565  77.388  0.00  0.00    +0.000 A 
ATOM     20  C   UNL     1       7.869  34.720  79.017  0.00  0.00    +0.000 A 
ATOM     21  C   UNL     1       6.499  35.795  76.859  0.00  0.00    +0.000 A 
ATOM     22  C   UNL     1       8.275  35.941  78.483  0.00  0.00    +0.000 A 
ATOM     23  C   UNL     1       7.593  36.474  77.397  0.00  0.00    +0.000 A 
ENDBRANCH   5  18
BRANCH   4  24
ATOM     24  C   UNL     1       4.302  30.025  77.196  0.00  0.00    +0.000 C 
ATOM     25  O   UNL     1       4.063  28.824  77.144  0.00  0.00    +0.000 OA
ATOM     26  O   UNL     1       3.956  30.838  76.185  0.00  0.00    +0.000 OA
ENDBRANCH   4  24
BRANCH   7  27
ATOM     27  C   UNL     1       4.648  33.853  80.389  0.00  0.00    +0.000 C 
ATOM     28  O   UNL     1       5.136  34.512  81.285  0.00  0.00    +0.000 OA
ATOM     29  O   UNL     1       3.545  34.235  79.710  0.00  0.00    +0.000 OA
ENDBRANCH   7  27
BRANCH   4  30
ATOM     30  C   UNL     1       5.428  29.554  79.407  0.00  0.00    +0.000 C 
BRANCH  30  31
ATOM     31  C   UNL     1       6.816  29.333  80.013  0.00  0.00    +0.000 C 
BRANCH  31  32
ATOM     32  C   UNL     1       6.608  28.893  81.477  0.00  0.00    +0.000 C 
ATOM     33  C   UNL     1       6.161  27.453  81.636  0.00  0.00    +0.000 C 
ENDBRANCH  31  32
ENDBRANCH  30  31
ENDBRANCH   4  30
TORSDOF 8
ENDMDL
MODEL 8
REMARK VINA RESULT:      -6.7      1.791      2.366
REMARK  Name = 
REMARK  9 active torsions:
REMARK  status: ('A' for Active; 'I' for Inactive)
REMARK    1  A    between atoms: C_2  and  C_5
REMARK    2  A    between atoms: C_10  and  C_11
REMARK    3  A    between atoms: C_14  and  C_16
REMARK    4  A    between atoms: C_14  and  C_18
REMARK    5  A    between atoms: C_15  and  C_19
REMARK    6  A    between atoms: C_18  and  C_23
REMARK    7  A    between atoms: C_20  and  C_26
REMARK    8  A    between atoms: C_23  and  C_27
REMARK    9  A    between atoms: C_27  and  C_32
REMARK                            x       y       z     vdW  Elec       q    Type
REMARK                         _______ _______ _______ _____ _____    ______ ____
ROOT
ATOM      1  C   UNL     1       7.573  32.284  79.894  0.00  0.00    +0.000 C 
ATOM      2  O   UNL     1       7.797  31.454  80.775  0.00  0.00    +0.000 OA
ATOM      3  N   UNL     1       6.478  33.159  79.990  0.00  0.00    +0.000 N 
ATOM      4  C   UNL     1       5.613  33.265  81.222  0.00  0.00    +0.000 C 
ATOM      5  C   UNL     1       6.148  34.267  79.044  0.00  0.00    +0.000 C 
ATOM      6  C   UNL     1       4.372  34.004  80.612  0.00  0.00    +0.000 C 
ATOM      7  C   UNL     1       4.969  35.032  79.661  0.00  0.00    +0.000 C 
ENDROOT
BRANCH   1  13
ATOM      8  C   UNL     1      10.271  32.046  76.517  0.00  0.00    +0.000 A 
ATOM      9  C   UNL     1      10.422  33.065  77.470  0.00  0.00    +0.000 A 
ATOM     10  C   UNL     1       9.180  31.181  76.635  0.00  0.00    +0.000 A 
ATOM     11  C   UNL     1       9.532  33.155  78.564  0.00  0.00    +0.000 A 
ATOM     12  C   UNL     1       8.248  31.338  77.661  0.00  0.00    +0.000 A 
ATOM     13  C   UNL     1       8.464  32.251  78.690  0.00  0.00    +0.000 A 
BRANCH   8  15
ATOM     14  F   UNL     1      11.195  32.827  74.432  0.00  0.00    +0.000 F 
ATOM     15  C   UNL     1      11.225  31.839  75.366  0.00  0.00    +0.000 C 
ATOM     16  F   UNL     1      10.963  30.682  74.690  0.00  0.00    +0.000 F 
ATOM     17  F   UNL     1      12.521  31.737  75.773  0.00  0.00    +0.000 F 
ENDBRANCH   8  15
ENDBRANCH   1  13
BRANCH   5  18
ATOM     18  C   UNL     1       5.984  33.895  77.586  0.00  0.00    +0.000 A 
ATOM     19  C   UNL     1       5.163  32.850  77.147  0.00  0.00    +0.000 A 
ATOM     20  C   UNL     1       6.725  34.615  76.626  0.00  0.00    +0.000 A 
ATOM     21  C   UNL     1       5.136  32.501  75.793  0.00  0.00    +0.000 A 
ATOM     22  C   UNL     1       6.701  34.261  75.279  0.00  0.00    +0.000 A 
ATOM     23  C   UNL     1       5.911  33.196  74.865  0.00  0.00    +0.000 A 
ENDBRANCH   5  18
BRANCH   4  24
ATOM     24  C   UNL     1       5.010  32.014  81.955  0.00  0.00    +0.000 C 
ATOM     25  O   UNL     1       5.247  31.768  83.132  0.00  0.00    +0.000 OA
ATOM     26  O   UNL     1       4.360  31.125  81.186  0.00  0.00    +0.000 OA
ENDBRANCH   4  24
BRANCH   7  27
ATOM     27  C   UNL     1       3.980  35.660  78.697  0.00  0.00    +0.000 C 
ATOM     28  O   UNL     1       2.919  35.162  78.380  0.00  0.00    +0.000 OA
ATOM     29  O   UNL     1       4.393  36.865  78.249  0.00  0.00    +0.000 OA
ENDBRANCH   7  27
BRANCH   4  30
ATOM     30  C   UNL     1       6.191  34.216  82.315  0.00  0.00    +0.000 C 
BRANCH  30  31
ATOM     31  C   UNL     1       7.691  34.511  82.387  0.00  0.00    +0.000 C 
BRANCH  31  32
ATOM     32  C   UNL     1       7.893  35.963  81.910  0.00  0.00    +0.000 C 
ATOM     33  C   UNL     1       8.835  36.107  80.731  0.00  0.00    +0.000 C 
ENDBRANCH  31  32
ENDBRANCH  30  31
ENDBRANCH   4  30
TORSDOF 8
ENDMDL
MODEL 9
REMARK VINA RESULT:      -6.6      2.460      5.018
REMARK  Name = 
REMARK  9 active torsions:
REMARK  status: ('A' for Active; 'I' for Inactive)
REMARK    1  A    between atoms: C_2  and  C_5
REMARK    2  A    between atoms: C_10  and  C_11
REMARK    3  A    between atoms: C_14  and  C_16
REMARK    4  A    between atoms: C_14  and  C_18
REMARK    5  A    between atoms: C_15  and  C_19
REMARK    6  A    between atoms: C_18  and  C_23
REMARK    7  A    between atoms: C_20  and  C_26
REMARK    8  A    between atoms: C_23  and  C_27
REMARK    9  A    between atoms: C_27  and  C_32
REMARK                            x       y       z     vdW  Elec       q    Type
REMARK                         _______ _______ _______ _____ _____    ______ ____
ROOT
ATOM      1  C   UNL     1       5.240  34.239  77.318  0.00  0.00    +0.000 C 
ATOM      2  O   UNL     1       4.529  34.822  76.499  0.00  0.00    +0.000 OA
ATOM      3  N   UNL     1       4.850  34.129  78.662  0.00  0.00    +0.000 N 
ATOM      4  C   UNL     1       3.491  34.553  79.163  0.00  0.00    +0.000 C 
ATOM      5  C   UNL     1       5.569  33.374  79.731  0.00  0.00    +0.000 C 
ATOM      6  C   UNL     1       3.785  34.620  80.702  0.00  0.00    +0.000 C 
ATOM      7  C   UNL     1       4.671  33.413  80.975  0.00  0.00    +0.000 C 
ENDROOT
BRANCH   1  13
ATOM      8  C   UNL     1       9.130  32.773  76.106  0.00  0.00    +0.000 A 
ATOM      9  C   UNL     1       8.901  34.152  76.223  0.00  0.00    +0.000 A 
ATOM     10  C   UNL     1       8.053  31.902  76.295  0.00  0.00    +0.000 A 
ATOM     11  C   UNL     1       7.627  34.634  76.602  0.00  0.00    +0.000 A 
ATOM     12  C   UNL     1       6.776  32.390  76.569  0.00  0.00    +0.000 A 
ATOM     13  C   UNL     1       6.567  33.741  76.828  0.00  0.00    +0.000 A 
BRANCH   8  15
ATOM     14  F   UNL     1      10.438  30.874  75.405  0.00  0.00    +0.000 F 
ATOM     15  C   UNL     1      10.480  32.180  75.782  0.00  0.00    +0.000 C 
ATOM     16  F   UNL     1      11.328  32.232  76.850  0.00  0.00    +0.000 F 
ATOM     17  F   UNL     1      11.116  32.847  74.779  0.00  0.00    +0.000 F 
ENDBRANCH   8  15
ENDBRANCH   1  13
BRANCH   5  18
ATOM     18  C   UNL     1       7.018  33.741  79.970  0.00  0.00    +0.000 A 
ATOM     19  C   UNL     1       7.460  35.058  80.134  0.00  0.00    +0.000 A 
ATOM     20  C   UNL     1       7.975  32.704  79.991  0.00  0.00    +0.000 A 
ATOM     21  C   UNL     1       8.827  35.329  80.253  0.00  0.00    +0.000 A 
ATOM     22  C   UNL     1       9.336  32.977  80.104  0.00  0.00    +0.000 A 
ATOM     23  C   UNL     1       9.762  34.294  80.226  0.00  0.00    +0.000 A 
ENDBRANCH   5  18
BRANCH   4  24
ATOM     24  C   UNL     1       2.848  35.943  78.820  0.00  0.00    +0.000 C 
ATOM     25  O   UNL     1       3.516  36.966  78.714  0.00  0.00    +0.000 OA
ATOM     26  O   UNL     1       1.506  35.999  78.817  0.00  0.00    +0.000 OA
ENDBRANCH   4  24
BRANCH   7  27
ATOM     27  C   UNL     1       5.367  33.423  82.323  0.00  0.00    +0.000 C 
ATOM     28  O   UNL     1       5.548  34.418  82.995  0.00  0.00    +0.000 OA
ATOM     29  O   UNL     1       5.737  32.188  82.720  0.00  0.00    +0.000 OA
ENDBRANCH   7  27
BRANCH   4  30
ATOM     30  C   UNL     1       2.387  33.466  78.979  0.00  0.00    +0.000 C 
BRANCH  30  31
ATOM     31  C   UNL     1       2.551  32.345  77.950  0.00  0.00    +0.000 C 
BRANCH  31  32
ATOM     32  C   UNL     1       2.851  31.050  78.732  0.00  0.00    +0.000 C 
ATOM     33  C   UNL     1       4.113  30.334  78.291  0.00  0.00    +0.000 C 
ENDBRANCH  31  32
ENDBRANCH  30  31
ENDBRANCH   4  30
TORSDOF 8
ENDMDL
