MODEL 1
REMARK VINA RESULT:      -7.7      0.000      0.000
REMARK  Name = 
REMARK  6 active torsions:
REMARK  status: ('A' for Active; 'I' for Inactive)
REMARK    1  A    between atoms: C_2  and  C_5
REMARK    2  A    between atoms: C_10  and  C_11
REMARK    3  A    between atoms: C_14  and  C_16
REMARK    4  A    between atoms: C_14  and  C_18
REMARK    5  A    between atoms: C_15  and  C_19
REMARK    6  A    between atoms: C_20  and  C_25
REMARK                            x       y       z     vdW  Elec       q    Type
REMARK                         _______ _______ _______ _____ _____    ______ ____
ROOT
ATOM      1  C   UNL     1       7.167  32.390  76.193  0.00  0.00    +0.000 C 
ATOM      2  O   UNL     1       6.530  32.792  75.228  0.00  0.00    +0.000 OA
ATOM      3  N   UNL     1       6.550  31.871  77.338  0.00  0.00    +0.000 N 
ATOM      4  C   UNL     1       5.076  31.548  77.445  0.00  0.00    +0.000 C 
ATOM      5  C   UNL     1       7.312  31.229  78.441  0.00  0.00    +0.000 C 
ATOM      6  C   UNL     1       5.010  30.498  78.596  0.00  0.00    +0.000 C 
ATOM      7  C   UNL     1       4.459  30.982  76.158  0.00  0.00    +0.000 C 
ATOM      8  C   UNL     1       6.447  30.028  78.785  0.00  0.00    +0.000 C 
ENDROOT
BRANCH   1  14
ATOM      9  C   UNL     1      11.422  32.721  75.711  0.00  0.00    +0.000 A 
ATOM     10  C   UNL     1      10.767  31.494  75.539  0.00  0.00    +0.000 A 
ATOM     11  C   UNL     1      10.689  33.816  76.206  0.00  0.00    +0.000 A 
ATOM     12  C   UNL     1       9.402  31.376  75.801  0.00  0.00    +0.000 A 
ATOM     13  C   UNL     1       9.304  33.707  76.425  0.00  0.00    +0.000 A 
ATOM     14  C   UNL     1       8.655  32.496  76.162  0.00  0.00    +0.000 A 
BRANCH   9  16
ATOM     15  F   UNL     1      13.100  33.404  74.133  0.00  0.00    +0.000 F 
ATOM     16  C   UNL     1      12.890  32.853  75.363  0.00  0.00    +0.000 C 
ATOM     17  F   UNL     1      13.540  31.659  75.354  0.00  0.00    +0.000 F 
ATOM     18  F   UNL     1      13.563  33.647  76.240  0.00  0.00    +0.000 F 
ENDBRANCH   9  16
ENDBRANCH   1  14
BRANCH   5  19
ATOM     19  C   UNL     1       7.655  32.200  79.571  0.00  0.00    +0.000 A 
ATOM     20  C   UNL     1       6.707  33.002  80.225  0.00  0.00    +0.000 A 
ATOM     21  C   UNL     1       9.002  32.348  79.956  0.00  0.00    +0.000 A 
ATOM     22  C   UNL     1       7.085  33.954  81.175  0.00  0.00    +0.000 A 
ATOM     23  C   UNL     1       9.379  33.292  80.916  0.00  0.00    +0.000 A 
ATOM     24  C   UNL     1       8.422  34.106  81.517  0.00  0.00    +0.000 A 
ENDBRANCH   5  19
BRANCH   4  25
ATOM     25  C   UNL     1       4.157  32.735  77.835  0.00  0.00    +0.000 C 
ATOM     26  O   UNL     1       4.124  33.807  77.231  0.00  0.00    +0.000 OA
ATOM     27  O   UNL     1       3.418  32.526  78.950  0.00  0.00    +0.000 OA
ENDBRANCH   4  25
BRANCH   8  28
ATOM     28  C   UNL     1       6.765  29.330  80.083  0.00  0.00    +0.000 C 
ATOM     29  O   UNL     1       7.788  28.673  80.229  0.00  0.00    +0.000 OA
ATOM     30  O   UNL     1       5.874  29.468  81.080  0.00  0.00    +0.000 OA
ENDBRANCH   8  28
TORSDOF 5
ENDMDL
MODEL 2
REMARK VINA RESULT:      -7.7      1.706      4.456
REMARK  Name = 
REMARK  6 active torsions:
REMARK  status: ('A' for Active; 'I' for Inactive)
REMARK    1  A    between atoms: C_2  and  C_5
REMARK    2  A    between atoms: C_10  and  C_11
REMARK    3  A    between atoms: C_14  and  C_16
REMARK    4  A    between atoms: C_14  and  C_18
REMARK    5  A    between atoms: C_15  and  C_19
REMARK    6  A    between atoms: C_20  and  C_25
REMARK                            x       y       z     vdW  Elec       q    Type
REMARK                         _______ _______ _______ _____ _____    ______ ____
ROOT
ATOM      1  C   UNL     1       9.269  31.673  79.081  0.00  0.00    +0.000 C 
ATOM      2  O   UNL     1       9.980  30.986  79.802  0.00  0.00    +0.000 OA
ATOM      3  N   UNL     1       7.947  31.995  79.414  0.00  0.00    +0.000 N 
ATOM      4  C   UNL     1       7.315  31.727  80.762  0.00  0.00    +0.000 C 
ATOM      5  C   UNL     1       7.133  32.960  78.632  0.00  0.00    +0.000 C 
ATOM      6  C   UNL     1       6.140  32.751  80.829  0.00  0.00    +0.000 C 
ATOM      7  C   UNL     1       8.266  31.914  81.954  0.00  0.00    +0.000 C 
ATOM      8  C   UNL     1       6.426  33.754  79.717  0.00  0.00    +0.000 C 
ENDROOT
BRANCH   1  14
ATOM      9  C   UNL     1      11.200  32.889  75.442  0.00  0.00    +0.000 A 
ATOM     10  C   UNL     1      11.330  33.641  76.617  0.00  0.00    +0.000 A 
ATOM     11  C   UNL     1      10.294  31.812  75.425  0.00  0.00    +0.000 A 
ATOM     12  C   UNL     1      10.613  33.295  77.763  0.00  0.00    +0.000 A 
ATOM     13  C   UNL     1       9.608  31.437  76.594  0.00  0.00    +0.000 A 
ATOM     14  C   UNL     1       9.820  32.149  77.779  0.00  0.00    +0.000 A 
BRANCH   9  16
ATOM     15  F   UNL     1      13.370  33.263  74.479  0.00  0.00    +0.000 F 
ATOM     16  C   UNL     1      12.030  33.235  74.224  0.00  0.00    +0.000 C 
ATOM     17  F   UNL     1      11.723  34.453  73.704  0.00  0.00    +0.000 F 
ATOM     18  F   UNL     1      11.868  32.337  73.213  0.00  0.00    +0.000 F 
ENDBRANCH   9  16
ENDBRANCH   1  14
BRANCH   5  19
ATOM     19  C   UNL     1       6.263  32.283  77.572  0.00  0.00    +0.000 A 
ATOM     20  C   UNL     1       5.732  30.991  77.707  0.00  0.00    +0.000 A 
ATOM     21  C   UNL     1       6.013  32.961  76.362  0.00  0.00    +0.000 A 
ATOM     22  C   UNL     1       5.036  30.373  76.665  0.00  0.00    +0.000 A 
ATOM     23  C   UNL     1       5.306  32.347  75.323  0.00  0.00    +0.000 A 
ATOM     24  C   UNL     1       4.829  31.047  75.468  0.00  0.00    +0.000 A 
ENDBRANCH   5  19
BRANCH   4  25
ATOM     25  C   UNL     1       6.717  30.309  80.953  0.00  0.00    +0.000 C 
ATOM     26  O   UNL     1       7.317  29.268  80.685  0.00  0.00    +0.000 OA
ATOM     27  O   UNL     1       5.435  30.297  81.387  0.00  0.00    +0.000 OA
ENDBRANCH   4  25
BRANCH   8  28
ATOM     28  C   UNL     1       5.272  34.613  79.268  0.00  0.00    +0.000 C 
ATOM     29  O   UNL     1       4.110  34.301  79.488  0.00  0.00    +0.000 OA
ATOM     30  O   UNL     1       5.581  35.750  78.618  0.00  0.00    +0.000 OA
ENDBRANCH   8  28
TORSDOF 5
ENDMDL
MODEL 3
REMARK VINA RESULT:      -7.4      2.156      4.804
REMARK  Name = 
REMARK  6 active torsions:
REMARK  status: ('A' for Active; 'I' for Inactive)
REMARK    1  A    between atoms: C_2  and  C_5
REMARK    2  A    between atoms: C_10  and  C_11
REMARK    3  A    between atoms: C_14  and  C_16
REMARK    4  A    between atoms: C_14  and  C_18
REMARK    5  A    between atoms: C_15  and  C_19
REMARK    6  A    between atoms: C_20  and  C_25
REMARK                            x       y       z     vdW  Elec       q    Type
REMARK                         _______ _______ _______ _____ _____    ______ ____
ROOT
ATOM      1  C   UNL     1       9.328  32.572  78.906  0.00  0.00    +0.000 C 
ATOM      2  O   UNL     1       9.792  31.935  79.842  0.00  0.00    +0.000 OA
ATOM      3  N   UNL     1       8.178  33.362  79.031  0.00  0.00    +0.000 N 
ATOM      4  C   UNL     1       7.506  33.694  80.345  0.00  0.00    +0.000 C 
ATOM      5  C   UNL     1       7.703  34.267  77.952  0.00  0.00    +0.000 C 
ATOM      6  C   UNL     1       6.715  35.002  80.036  0.00  0.00    +0.000 C 
ATOM      7  C   UNL     1       8.478  33.912  81.514  0.00  0.00    +0.000 C 
ATOM      8  C   UNL     1       7.292  35.512  78.721  0.00  0.00    +0.000 C 
ENDROOT
BRANCH   1  14
ATOM      9  C   UNL     1      11.500  32.043  75.239  0.00  0.00    +0.000 A 
ATOM     10  C   UNL     1      11.907  32.986  76.192  0.00  0.00    +0.000 A 
ATOM     11  C   UNL     1      10.272  31.380  75.424  0.00  0.00    +0.000 A 
ATOM     12  C   UNL     1      11.134  33.223  77.329  0.00  0.00    +0.000 A 
ATOM     13  C   UNL     1       9.519  31.587  76.593  0.00  0.00    +0.000 A 
ATOM     14  C   UNL     1       9.988  32.468  77.573  0.00  0.00    +0.000 A 
BRANCH   9  16
ATOM     15  F   UNL     1      13.318  30.790  74.289  0.00  0.00    +0.000 F 
ATOM     16  C   UNL     1      12.378  31.747  74.041  0.00  0.00    +0.000 C 
ATOM     17  F   UNL     1      13.061  32.839  73.605  0.00  0.00    +0.000 F 
ATOM     18  F   UNL     1      11.664  31.293  72.974  0.00  0.00    +0.000 F 
ENDBRANCH   9  16
ENDBRANCH   1  14
BRANCH   5  19
ATOM     19  C   UNL     1       6.654  33.616  77.049  0.00  0.00    +0.000 A 
ATOM     20  C   UNL     1       5.744  32.641  77.487  0.00  0.00    +0.000 A 
ATOM     21  C   UNL     1       6.619  33.967  75.685  0.00  0.00    +0.000 A 
ATOM     22  C   UNL     1       4.879  31.996  76.599  0.00  0.00    +0.000 A 
ATOM     23  C   UNL     1       5.744  33.330  74.798  0.00  0.00    +0.000 A 
ATOM     24  C   UNL     1       4.883  32.335  75.252  0.00  0.00    +0.000 A 
ENDBRANCH   5  19
BRANCH   4  25
ATOM     25  C   UNL     1       6.493  32.641  80.865  0.00  0.00    +0.000 C 
ATOM     26  O   UNL     1       6.783  31.470  81.110  0.00  0.00    +0.000 OA
ATOM     27  O   UNL     1       5.223  33.095  80.975  0.00  0.00    +0.000 OA
ENDBRANCH   4  25
BRANCH   8  28
ATOM     28  C   UNL     1       6.465  36.518  77.963  0.00  0.00    +0.000 C 
ATOM     29  O   UNL     1       5.252  36.596  78.105  0.00  0.00    +0.000 OA
ATOM     30  O   UNL     1       7.124  37.337  77.124  0.00  0.00    +0.000 OA
ENDBRANCH   8  28
TORSDOF 5
ENDMDL
MODEL 4
REMARK VINA RESULT:      -7.4      1.734      2.495
REMARK  Name = 
REMARK  6 active torsions:
REMARK  status: ('A' for Active; 'I' for Inactive)
REMARK    1  A    between atoms: C_2  and  C_5
REMARK    2  A    between atoms: C_10  and  C_11
REMARK    3  A    between atoms: C_14  and  C_16
REMARK    4  A    between atoms: C_14  and  C_18
REMARK    5  A    between atoms: C_15  and  C_19
REMARK    6  A    between atoms: C_20  and  C_25
REMARK                            x       y       z     vdW  Elec       q    Type
REMARK                         _______ _______ _______ _____ _____    ______ ____
ROOT
ATOM      1  C   UNL     1       5.908  31.233  76.644  0.00  0.00    +0.000 C 
ATOM      2  O   UNL     1       5.235  30.796  75.720  0.00  0.00    +0.000 OA
ATOM      3  N   UNL     1       5.482  31.178  77.977  0.00  0.00    +0.000 N 
ATOM      4  C   UNL     1       4.276  30.403  78.459  0.00  0.00    +0.000 C 
ATOM      5  C   UNL     1       6.359  31.552  79.118  0.00  0.00    +0.000 C 
ATOM      6  C   UNL     1       4.570  30.163  79.972  0.00  0.00    +0.000 C 
ATOM      7  C   UNL     1       4.050  29.069  77.732  0.00  0.00    +0.000 C 
ATOM      8  C   UNL     1       6.054  30.469  80.139  0.00  0.00    +0.000 C 
ENDROOT
BRANCH   1  14
ATOM      9  C   UNL     1       9.653  33.268  76.108  0.00  0.00    +0.000 A 
ATOM     10  C   UNL     1       8.434  33.941  75.954  0.00  0.00    +0.000 A 
ATOM     11  C   UNL     1       9.637  31.871  76.283  0.00  0.00    +0.000 A 
ATOM     12  C   UNL     1       7.226  33.247  76.025  0.00  0.00    +0.000 A 
ATOM     13  C   UNL     1       8.417  31.181  76.401  0.00  0.00    +0.000 A 
ATOM     14  C   UNL     1       7.212  31.887  76.331  0.00  0.00    +0.000 A 
BRANCH   9  16
ATOM     15  F   UNL     1      11.700  33.859  77.220  0.00  0.00    +0.000 F 
ATOM     16  C   UNL     1      10.955  34.041  76.092  0.00  0.00    +0.000 C 
ATOM     17  F   UNL     1      10.770  35.383  75.978  0.00  0.00    +0.000 F 
ATOM     18  F   UNL     1      11.762  33.678  75.057  0.00  0.00    +0.000 F 
ENDBRANCH   9  16
ENDBRANCH   1  14
BRANCH   5  19
ATOM     19  C   UNL     1       6.178  33.006  79.554  0.00  0.00    +0.000 A 
ATOM     20  C   UNL     1       4.938  33.572  79.891  0.00  0.00    +0.000 A 
ATOM     21  C   UNL     1       7.302  33.855  79.577  0.00  0.00    +0.000 A 
ATOM     22  C   UNL     1       4.808  34.933  80.176  0.00  0.00    +0.000 A 
ATOM     23  C   UNL     1       7.174  35.215  79.875  0.00  0.00    +0.000 A 
ATOM     24  C   UNL     1       5.925  35.759  80.162  0.00  0.00    +0.000 A 
ENDBRANCH   5  19
BRANCH   4  25
ATOM     25  C   UNL     1       2.918  31.145  78.354  0.00  0.00    +0.000 C 
ATOM     26  O   UNL     1       2.749  32.185  77.718  0.00  0.00    +0.000 OA
ATOM     27  O   UNL     1       1.919  30.587  79.078  0.00  0.00    +0.000 OA
ENDBRANCH   4  25
BRANCH   8  28
ATOM     28  C   UNL     1       6.538  30.725  81.543  0.00  0.00    +0.000 C 
ATOM     29  O   UNL     1       5.762  30.851  82.481  0.00  0.00    +0.000 OA
ATOM     30  O   UNL     1       7.869  30.799  81.721  0.00  0.00    +0.000 OA
ENDBRANCH   8  28
TORSDOF 5
ENDMDL
MODEL 5
REMARK VINA RESULT:      -7.3      2.435      4.008
REMARK  Name = 
REMARK  6 active torsions:
REMARK  status: ('A' for Active; 'I' for Inactive)
REMARK    1  A    between atoms: C_2  and  C_5
REMARK    2  A    between atoms: C_10  and  C_11
REMARK    3  A    between atoms: C_14  and  C_16
REMARK    4  A    between atoms: C_14  and  C_18
REMARK    5  A    between atoms: C_15  and  C_19
REMARK    6  A    between atoms: C_20  and  C_25
REMARK                            x       y       z     vdW  Elec       q    Type
REMARK                         _______ _______ _______ _____ _____    ______ ____
ROOT
ATOM      1  C   UNL     1       9.281  35.505  77.077  0.00  0.00    +0.000 C 
ATOM      2  O   UNL     1       9.660  36.623  77.399  0.00  0.00    +0.000 OA
ATOM      3  N   UNL     1       7.979  35.051  77.324  0.00  0.00    +0.000 N 
ATOM      4  C   UNL     1       6.845  35.926  77.809  0.00  0.00    +0.000 C 
ATOM      5  C   UNL     1       7.462  33.763  76.792  0.00  0.00    +0.000 C 
ATOM      6  C   UNL     1       5.565  35.156  77.360  0.00  0.00    +0.000 C 
ATOM      7  C   UNL     1       6.853  37.348  77.229  0.00  0.00    +0.000 C 
ATOM      8  C   UNL     1       6.057  34.131  76.345  0.00  0.00    +0.000 C 
ENDROOT
BRANCH   1  14
ATOM      9  C   UNL     1      11.793  32.579  75.184  0.00  0.00    +0.000 A 
ATOM     10  C   UNL     1      11.475  32.489  76.545  0.00  0.00    +0.000 A 
ATOM     11  C   UNL     1      11.411  33.734  74.475  0.00  0.00    +0.000 A 
ATOM     12  C   UNL     1      10.747  33.501  77.172  0.00  0.00    +0.000 A 
ATOM     13  C   UNL     1      10.638  34.730  75.098  0.00  0.00    +0.000 A 
ATOM     14  C   UNL     1      10.257  34.577  76.435  0.00  0.00    +0.000 A 
BRANCH   9  16
ATOM     15  F   UNL     1      11.728  30.375  74.229  0.00  0.00    +0.000 F 
ATOM     16  C   UNL     1      12.528  31.447  74.499  0.00  0.00    +0.000 C 
ATOM     17  F   UNL     1      13.562  30.965  75.239  0.00  0.00    +0.000 F 
ATOM     18  F   UNL     1      13.058  31.819  73.302  0.00  0.00    +0.000 F 
ENDBRANCH   9  16
ENDBRANCH   1  14
BRANCH   5  19
ATOM     19  C   UNL     1       7.608  32.608  77.783  0.00  0.00    +0.000 A 
ATOM     20  C   UNL     1       7.759  31.266  77.401  0.00  0.00    +0.000 A 
ATOM     21  C   UNL     1       7.539  32.883  79.163  0.00  0.00    +0.000 A 
ATOM     22  C   UNL     1       7.778  30.234  78.343  0.00  0.00    +0.000 A 
ATOM     23  C   UNL     1       7.570  31.851  80.107  0.00  0.00    +0.000 A 
ATOM     24  C   UNL     1       7.676  30.525  79.697  0.00  0.00    +0.000 A 
ENDBRANCH   5  19
BRANCH   4  25
ATOM     25  C   UNL     1       6.762  36.126  79.345  0.00  0.00    +0.000 C 
ATOM     26  O   UNL     1       7.696  36.529  80.038  0.00  0.00    +0.000 OA
ATOM     27  O   UNL     1       5.579  35.761  79.892  0.00  0.00    +0.000 OA
ENDBRANCH   4  25
BRANCH   8  28
ATOM     28  C   UNL     1       5.132  32.979  76.044  0.00  0.00    +0.000 C 
ATOM     29  O   UNL     1       4.303  32.587  76.855  0.00  0.00    +0.000 OA
ATOM     30  O   UNL     1       5.254  32.404  74.834  0.00  0.00    +0.000 OA
ENDBRANCH   8  28
TORSDOF 5
ENDMDL
MODEL 6
REMARK VINA RESULT:      -7.3      4.061      5.693
REMARK  Name = 
REMARK  6 active torsions:
REMARK  status: ('A' for Active; 'I' for Inactive)
REMARK    1  A    between atoms: C_2  and  C_5
REMARK    2  A    between atoms: C_10  and  C_11
REMARK    3  A    between atoms: C_14  and  C_16
REMARK    4  A    between atoms: C_14  and  C_18
REMARK    5  A    between atoms: C_15  and  C_19
REMARK    6  A    between atoms: C_20  and  C_25
REMARK                            x       y       z     vdW  Elec       q    Type
REMARK                         _______ _______ _______ _____ _____    ______ ____
ROOT
ATOM      1  C   UNL     1       5.472  34.976  77.128  0.00  0.00    +0.000 C 
ATOM      2  O   UNL     1       4.386  35.003  76.565  0.00  0.00    +0.000 OA
ATOM      3  N   UNL     1       6.368  33.910  76.985  0.00  0.00    +0.000 N 
ATOM      4  C   UNL     1       6.213  32.790  75.978  0.00  0.00    +0.000 C 
ATOM      5  C   UNL     1       7.751  33.942  77.528  0.00  0.00    +0.000 C 
ATOM      6  C   UNL     1       7.664  32.249  75.800  0.00  0.00    +0.000 C 
ATOM      7  C   UNL     1       5.629  33.232  74.628  0.00  0.00    +0.000 C 
ATOM      8  C   UNL     1       8.563  33.322  76.404  0.00  0.00    +0.000 C 
ENDROOT
BRANCH   1  14
ATOM      9  C   UNL     1       6.793  37.985  79.894  0.00  0.00    +0.000 A 
ATOM     10  C   UNL     1       5.917  36.968  80.295  0.00  0.00    +0.000 A 
ATOM     11  C   UNL     1       7.110  38.107  78.528  0.00  0.00    +0.000 A 
ATOM     12  C   UNL     1       5.412  36.060  79.364  0.00  0.00    +0.000 A 
ATOM     13  C   UNL     1       6.636  37.163  77.599  0.00  0.00    +0.000 A 
ATOM     14  C   UNL     1       5.834  36.103  78.036  0.00  0.00    +0.000 A 
BRANCH   9  16
ATOM     15  F   UNL     1       8.250  38.309  81.778  0.00  0.00    +0.000 F 
ATOM     16  C   UNL     1       7.385  38.926  80.923  0.00  0.00    +0.000 C 
ATOM     17  F   UNL     1       6.441  39.514  81.705  0.00  0.00    +0.000 F 
ATOM     18  F   UNL     1       8.093  39.940  80.353  0.00  0.00    +0.000 F 
ENDBRANCH   9  16
ENDBRANCH   1  14
BRANCH   5  19
ATOM     19  C   UNL     1       7.861  33.304  78.914  0.00  0.00    +0.000 A 
ATOM     20  C   UNL     1       7.341  32.041  79.234  0.00  0.00    +0.000 A 
ATOM     21  C   UNL     1       8.470  34.035  79.952  0.00  0.00    +0.000 A 
ATOM     22  C   UNL     1       7.369  31.549  80.542  0.00  0.00    +0.000 A 
ATOM     23  C   UNL     1       8.509  33.537  81.259  0.00  0.00    +0.000 A 
ATOM     24  C   UNL     1       7.946  32.299  81.558  0.00  0.00    +0.000 A 
ENDBRANCH   5  19
BRANCH   4  25
ATOM     25  C   UNL     1       5.318  31.606  76.427  0.00  0.00    +0.000 C 
ATOM     26  O   UNL     1       4.184  31.736  76.886  0.00  0.00    +0.000 OA
ATOM     27  O   UNL     1       5.910  30.392  76.331  0.00  0.00    +0.000 OA
ENDBRANCH   4  25
BRANCH   8  28
ATOM     28  C   UNL     1       9.971  32.909  76.750  0.00  0.00    +0.000 C 
ATOM     29  O   UNL     1      10.298  31.733  76.831  0.00  0.00    +0.000 OA
ATOM     30  O   UNL     1      10.859  33.898  76.958  0.00  0.00    +0.000 OA
ENDBRANCH   8  28
TORSDOF 5
ENDMDL
MODEL 7
REMARK VINA RESULT:      -7.2      1.655      2.399
REMARK  Name = 
REMARK  6 active torsions:
REMARK  status: ('A' for Active; 'I' for Inactive)
REMARK    1  A    between atoms: C_2  and  C_5
REMARK    2  A    between atoms: C_10  and  C_11
REMARK    3  A    between atoms: C_14  and  C_16
REMARK    4  A    between atoms: C_14  and  C_18
REMARK    5  A    between atoms: C_15  and  C_19
REMARK    6  A    between atoms: C_20  and  C_25
REMARK                            x       y       z     vdW  Elec       q    Type
REMARK                         _______ _______ _______ _____ _____    ______ ____
ROOT
ATOM      1  C   UNL     1       5.291  31.716  77.559  0.00  0.00    +0.000 C 
ATOM      2  O   UNL     1       4.331  32.078  76.892  0.00  0.00    +0.000 OA
ATOM      3  N   UNL     1       5.149  31.011  78.761  0.00  0.00    +0.000 N 
ATOM      4  C   UNL     1       3.846  30.431  79.265  0.00  0.00    +0.000 C 
ATOM      5  C   UNL     1       6.304  30.425  79.490  0.00  0.00    +0.000 C 
ATOM      6  C   UNL     1       4.296  29.299  80.237  0.00  0.00    +0.000 C 
ATOM      7  C   UNL     1       2.936  29.870  78.162  0.00  0.00    +0.000 C 
ATOM      8  C   UNL     1       5.770  29.070  79.923  0.00  0.00    +0.000 C 
ENDROOT
BRANCH   1  14
ATOM      9  C   UNL     1       9.353  32.729  76.599  0.00  0.00    +0.000 A 
ATOM     10  C   UNL     1       8.471  33.687  77.115  0.00  0.00    +0.000 A 
ATOM     11  C   UNL     1       8.847  31.464  76.245  0.00  0.00    +0.000 A 
ATOM     12  C   UNL     1       7.127  33.374  77.323  0.00  0.00    +0.000 A 
ATOM     13  C   UNL     1       7.503  31.136  76.498  0.00  0.00    +0.000 A 
ATOM     14  C   UNL     1       6.661  32.080  77.096  0.00  0.00    +0.000 A 
BRANCH   9  16
ATOM     15  F   UNL     1      11.085  33.796  75.319  0.00  0.00    +0.000 F 
ATOM     16  C   UNL     1      10.822  33.059  76.437  0.00  0.00    +0.000 C 
ATOM     17  F   UNL     1      11.605  31.951  76.347  0.00  0.00    +0.000 F 
ATOM     18  F   UNL     1      11.310  33.787  77.479  0.00  0.00    +0.000 F 
ENDBRANCH   9  16
ENDBRANCH   1  14
BRANCH   5  19
ATOM     19  C   UNL     1       6.850  31.349  80.580  0.00  0.00    +0.000 A 
ATOM     20  C   UNL     1       6.052  31.949  81.566  0.00  0.00    +0.000 A 
ATOM     21  C   UNL     1       8.222  31.667  80.577  0.00  0.00    +0.000 A 
ATOM     22  C   UNL     1       6.579  32.873  82.472  0.00  0.00    +0.000 A 
ATOM     23  C   UNL     1       8.753  32.583  81.491  0.00  0.00    +0.000 A 
ATOM     24  C   UNL     1       7.929  33.197  82.431  0.00  0.00    +0.000 A 
ENDBRANCH   5  19
BRANCH   4  25
ATOM     25  C   UNL     1       2.943  31.408  80.063  0.00  0.00    +0.000 C 
ATOM     26  O   UNL     1       2.515  32.472  79.615  0.00  0.00    +0.000 OA
ATOM     27  O   UNL     1       2.701  31.028  81.339  0.00  0.00    +0.000 OA
ENDBRANCH   4  25
BRANCH   8  28
ATOM     28  C   UNL     1       6.578  28.337  80.962  0.00  0.00    +0.000 C 
ATOM     29  O   UNL     1       6.165  28.169  82.102  0.00  0.00    +0.000 OA
ATOM     30  O   UNL     1       7.778  27.867  80.577  0.00  0.00    +0.000 OA
ENDBRANCH   8  28
TORSDOF 5
ENDMDL
MODEL 8
REMARK VINA RESULT:      -7.2      2.108      4.522
REMARK  Name = 
REMARK  6 active torsions:
REMARK  status: ('A' for Active; 'I' for Inactive)
REMARK    1  A    between atoms: C_2  and  C_5
REMARK    2  A    between atoms: C_10  and  C_11
REMARK    3  A    between atoms: C_14  and  C_16
REMARK    4  A    between atoms: C_14  and  C_18
REMARK    5  A    between atoms: C_15  and  C_19
REMARK    6  A    between atoms: C_20  and  C_25
REMARK                            x       y       z     vdW  Elec       q    Type
REMARK                         _______ _______ _______ _____ _____    ______ ____
ROOT
ATOM      1  C   UNL     1       9.186  33.800  78.656  0.00  0.00    +0.000 C 
ATOM      2  O   UNL     1       9.964  34.064  79.563  0.00  0.00    +0.000 OA
ATOM      3  N   UNL     1       7.796  33.859  78.816  0.00  0.00    +0.000 N 
ATOM      4  C   UNL     1       7.097  34.447  80.022  0.00  0.00    +0.000 C 
ATOM      5  C   UNL     1       6.849  33.703  77.682  0.00  0.00    +0.000 C 
ATOM      6  C   UNL     1       5.682  34.819  79.484  0.00  0.00    +0.000 C 
ATOM      7  C   UNL     1       7.794  35.680  80.616  0.00  0.00    +0.000 C 
ATOM      8  C   UNL     1       5.811  34.776  77.966  0.00  0.00    +0.000 C 
ENDROOT
BRANCH   1  14
ATOM      9  C   UNL     1      11.145  32.595  75.028  0.00  0.00    +0.000 A 
ATOM     10  C   UNL     1      10.918  33.948  75.314  0.00  0.00    +0.000 A 
ATOM     11  C   UNL     1      10.577  31.621  75.870  0.00  0.00    +0.000 A 
ATOM     12  C   UNL     1      10.187  34.321  76.442  0.00  0.00    +0.000 A 
ATOM     13  C   UNL     1       9.881  32.000  77.032  0.00  0.00    +0.000 A 
ATOM     14  C   UNL     1       9.742  33.357  77.344  0.00  0.00    +0.000 A 
BRANCH   9  16
ATOM     15  F   UNL     1      13.135  31.545  74.185  0.00  0.00    +0.000 F 
ATOM     16  C   UNL     1      11.992  32.203  73.836  0.00  0.00    +0.000 C 
ATOM     17  F   UNL     1      12.387  33.271  73.094  0.00  0.00    +0.000 F 
ATOM     18  F   UNL     1      11.335  31.369  72.983  0.00  0.00    +0.000 F 
ENDBRANCH   9  16
ENDBRANCH   1  14
BRANCH   5  19
ATOM     19  C   UNL     1       6.352  32.266  77.515  0.00  0.00    +0.000 A 
ATOM     20  C   UNL     1       6.406  31.557  76.306  0.00  0.00    +0.000 A 
ATOM     21  C   UNL     1       5.757  31.620  78.617  0.00  0.00    +0.000 A 
ATOM     22  C   UNL     1       5.838  30.287  76.176  0.00  0.00    +0.000 A 
ATOM     23  C   UNL     1       5.200  30.344  78.491  0.00  0.00    +0.000 A 
ATOM     24  C   UNL     1       5.228  29.681  77.267  0.00  0.00    +0.000 A 
ENDBRANCH   5  19
BRANCH   4  25
ATOM     25  C   UNL     1       6.909  33.483  81.222  0.00  0.00    +0.000 C 
ATOM     26  O   UNL     1       7.692  32.578  81.508  0.00  0.00    +0.000 OA
ATOM     27  O   UNL     1       5.762  33.674  81.916  0.00  0.00    +0.000 OA
ENDBRANCH   4  25
BRANCH   8  28
ATOM     28  C   UNL     1       4.529  34.686  77.180  0.00  0.00    +0.000 C 
ATOM     29  O   UNL     1       4.525  34.593  75.959  0.00  0.00    +0.000 OA
ATOM     30  O   UNL     1       3.383  34.704  77.884  0.00  0.00    +0.000 OA
ENDBRANCH   8  28
TORSDOF 5
ENDMDL
MODEL 9
REMARK VINA RESULT:      -7.2      3.668      4.900
REMARK  Name = 
REMARK  6 active torsions:
REMARK  status: ('A' for Active; 'I' for Inactive)
REMARK    1  A    between atoms: C_2  and  C_5
REMARK    2  A    between atoms: C_10  and  C_11
REMARK    3  A    between atoms: C_14  and  C_16
REMARK    4  A    between atoms: C_14  and  C_18
REMARK    5  A    between atoms: C_15  and  C_19
REMARK    6  A    between atoms: C_20  and  C_25
REMARK                            x       y       z     vdW  Elec       q    Type
REMARK                         _______ _______ _______ _____ _____    ______ ____
ROOT
ATOM      1  C   UNL     1       7.166  33.031  76.810  0.00  0.00    +0.000 C 
ATOM      2  O   UNL     1       7.565  32.746  75.689  0.00  0.00    +0.000 OA
ATOM      3  N   UNL     1       6.452  32.128  77.608  0.00  0.00    +0.000 N 
ATOM      4  C   UNL     1       6.273  30.660  77.289  0.00  0.00    +0.000 C 
ATOM      5  C   UNL     1       6.110  32.405  79.027  0.00  0.00    +0.000 C 
ATOM      6  C   UNL     1       5.973  30.014  78.676  0.00  0.00    +0.000 C 
ATOM      7  C   UNL     1       7.499  30.002  76.638  0.00  0.00    +0.000 C 
ATOM      8  C   UNL     1       6.378  31.069  79.700  0.00  0.00    +0.000 C 
ENDROOT
BRANCH   1  14
ATOM      9  C   UNL     1       7.597  36.928  78.565  0.00  0.00    +0.000 A 
ATOM     10  C   UNL     1       6.588  36.662  77.630  0.00  0.00    +0.000 A 
ATOM     11  C   UNL     1       8.574  35.944  78.804  0.00  0.00    +0.000 A 
ATOM     12  C   UNL     1       6.524  35.425  76.988  0.00  0.00    +0.000 A 
ATOM     13  C   UNL     1       8.481  34.681  78.191  0.00  0.00    +0.000 A 
ATOM     14  C   UNL     1       7.415  34.408  77.328  0.00  0.00    +0.000 A 
BRANCH   9  16
ATOM     15  F   UNL     1       6.737  39.160  78.797  0.00  0.00    +0.000 F 
ATOM     16  C   UNL     1       7.620  38.250  79.302  0.00  0.00    +0.000 C 
ATOM     17  F   UNL     1       8.838  38.853  79.267  0.00  0.00    +0.000 F 
ATOM     18  F   UNL     1       7.297  38.118  80.618  0.00  0.00    +0.000 F 
ENDBRANCH   9  16
ENDBRANCH   1  14
BRANCH   5  19
ATOM     19  C   UNL     1       4.717  33.013  79.196  0.00  0.00    +0.000 A 
ATOM     20  C   UNL     1       4.458  34.176  79.936  0.00  0.00    +0.000 A 
ATOM     21  C   UNL     1       3.613  32.353  78.622  0.00  0.00    +0.000 A 
ATOM     22  C   UNL     1       3.154  34.631  80.153  0.00  0.00    +0.000 A 
ATOM     23  C   UNL     1       2.309  32.814  78.828  0.00  0.00    +0.000 A 
ATOM     24  C   UNL     1       2.077  33.946  79.605  0.00  0.00    +0.000 A 
ENDBRANCH   5  19
BRANCH   4  25
ATOM     25  C   UNL     1       5.092  30.319  76.344  0.00  0.00    +0.000 C 
ATOM     26  O   UNL     1       4.814  30.960  75.330  0.00  0.00    +0.000 OA
ATOM     27  O   UNL     1       4.333  29.276  76.754  0.00  0.00    +0.000 OA
ENDBRANCH   4  25
BRANCH   8  28
ATOM     28  C   UNL     1       5.831  30.904  81.094  0.00  0.00    +0.000 C 
ATOM     29  O   UNL     1       4.880  30.172  81.333  0.00  0.00    +0.000 OA
ATOM     30  O   UNL     1       6.444  31.596  82.072  0.00  0.00    +0.000 OA
ENDBRANCH   8  28
TORSDOF 5
ENDMDL
