MODEL 1
REMARK VINA RESULT:      -9.1      0.000      0.000
REMARK  Name = 
REMARK  8 active torsions:
REMARK  status: ('A' for Active; 'I' for Inactive)
REMARK    1  A    between atoms: C_2  and  C_5
REMARK    2  A    between atoms: C_10  and  C_11
REMARK    3  A    between atoms: C_14  and  C_16
REMARK    4  A    between atoms: C_14  and  C_18
REMARK    5  A    between atoms: C_15  and  C_19
REMARK    6  A    between atoms: C_18  and  C_23
REMARK    7  A    between atoms: C_20  and  C_26
REMARK    8  A    between atoms: C_36  and  O_37
REMARK                            x       y       z     vdW  Elec       q    Type
REMARK                         _______ _______ _______ _____ _____    ______ ____
ROOT
ATOM      1  C   UNL     1       7.409  32.328  76.886  0.00  0.00    +0.000 C 
ATOM      2  O   UNL     1       6.463  32.367  76.098  0.00  0.00    +0.000 OA
ATOM      3  N   UNL     1       7.168  32.137  78.278  0.00  0.00    +0.000 N 
ATOM      4  C   UNL     1       8.125  32.365  79.399  0.00  0.00    +0.000 C 
ATOM      5  C   UNL     1       5.786  32.321  78.814  0.00  0.00    +0.000 C 
ATOM      6  C   UNL     1       7.340  31.848  80.608  0.00  0.00    +0.000 C 
ATOM      7  C   UNL     1       5.924  32.337  80.358  0.00  0.00    +0.000 C 
ENDROOT
BRANCH   1  13
ATOM      8  C   UNL     1      11.379  32.630  75.039  0.00  0.00    +0.000 A 
ATOM      9  C   UNL     1      10.671  33.777  75.422  0.00  0.00    +0.000 A 
ATOM     10  C   UNL     1      10.827  31.404  75.321  0.00  0.00    +0.000 A 
ATOM     11  C   UNL     1       9.393  33.677  76.032  0.00  0.00    +0.000 A 
ATOM     12  C   UNL     1       9.588  31.326  75.937  0.00  0.00    +0.000 A 
ATOM     13  C   UNL     1       8.803  32.423  76.273  0.00  0.00    +0.000 A 
BRANCH   8  15
ATOM     14  F   UNL     1      12.738  33.313  73.181  0.00  0.00    +0.000 F 
ATOM     15  C   UNL     1      12.698  32.589  74.322  0.00  0.00    +0.000 C 
ATOM     16  F   UNL     1      13.047  31.314  73.988  0.00  0.00    +0.000 F 
ATOM     17  F   UNL     1      13.716  33.047  75.108  0.00  0.00    +0.000 F 
ENDBRANCH   8  15
ENDBRANCH   1  13
BRANCH   5  18
ATOM     18  C   UNL     1       4.665  31.434  78.319  0.00  0.00    +0.000 A 
ATOM     19  C   UNL     1       3.409  31.913  77.930  0.00  0.00    +0.000 A 
ATOM     20  C   UNL     1       4.965  30.075  78.083  0.00  0.00    +0.000 A 
ATOM     21  C   UNL     1       2.497  31.060  77.292  0.00  0.00    +0.000 A 
ATOM     22  C   UNL     1       4.056  29.230  77.448  0.00  0.00    +0.000 A 
ATOM     23  C   UNL     1       2.824  29.727  77.043  0.00  0.00    +0.000 A 
ENDBRANCH   5  18
BRANCH   4  24
ATOM     24  C   UNL     1       9.349  31.398  79.398  0.00  0.00    +0.000 C 
ATOM     25  O   UNL     1      10.511  31.772  79.305  0.00  0.00    +0.000 OA
ATOM     26  O   UNL     1       9.028  30.093  79.553  0.00  0.00    +0.000 OA
ENDBRANCH   4  24
BRANCH   7  27
ATOM     27  C   UNL     1       4.927  31.552  81.179  0.00  0.00    +0.000 C 
ATOM     28  O   UNL     1       3.799  31.932  81.455  0.00  0.00    +0.000 OA
ATOM     29  O   UNL     1       5.379  30.325  81.520  0.00  0.00    +0.000 OA
ENDBRANCH   7  27
BRANCH   4  30
ATOM     30  C   UNL     1       8.545  33.884  79.558  0.00  0.00    +0.000 C 
BRANCH  30  31
ATOM     31  C   UNL     1       7.727  35.081  79.122  0.00  0.00    +0.000 A 
ATOM     32  C   UNL     1       6.868  35.688  80.041  0.00  0.00    +0.000 A 
ATOM     33  C   UNL     1       7.985  35.727  77.893  0.00  0.00    +0.000 A 
ATOM     34  C   UNL     1       6.309  36.937  79.768  0.00  0.00    +0.000 A 
ATOM     35  C   UNL     1       7.417  36.973  77.620  0.00  0.00    +0.000 A 
ATOM     36  C   UNL     1       6.600  37.576  78.568  0.00  0.00    +0.000 A 
BRANCH  36  37
ATOM     37  O   UNL     1       6.120  38.822  78.299  0.00  0.00    +0.000 OA
ATOM     38  H   UNL     1       5.981  39.432  78.997  0.00  0.00    +0.000 HD
ENDBRANCH  36  37
ENDBRANCH  30  31
ENDBRANCH   4  30
TORSDOF 8
ENDMDL
MODEL 2
REMARK VINA RESULT:      -8.5      1.620      2.327
REMARK  Name = 
REMARK  8 active torsions:
REMARK  status: ('A' for Active; 'I' for Inactive)
REMARK    1  A    between atoms: C_2  and  C_5
REMARK    2  A    between atoms: C_10  and  C_11
REMARK    3  A    between atoms: C_14  and  C_16
REMARK    4  A    between atoms: C_14  and  C_18
REMARK    5  A    between atoms: C_15  and  C_19
REMARK    6  A    between atoms: C_18  and  C_23
REMARK    7  A    between atoms: C_20  and  C_26
REMARK    8  A    between atoms: C_36  and  O_37
REMARK                            x       y       z     vdW  Elec       q    Type
REMARK                         _______ _______ _______ _____ _____    ______ ____
ROOT
ATOM      1  C   UNL     1       7.319  32.335  76.919  0.00  0.00    +0.000 C 
ATOM      2  O   UNL     1       6.376  32.382  76.128  0.00  0.00    +0.000 OA
ATOM      3  N   UNL     1       7.073  32.150  78.311  0.00  0.00    +0.000 N 
ATOM      4  C   UNL     1       8.030  32.370  79.433  0.00  0.00    +0.000 C 
ATOM      5  C   UNL     1       5.692  32.350  78.843  0.00  0.00    +0.000 C 
ATOM      6  C   UNL     1       7.236  31.865  80.642  0.00  0.00    +0.000 C 
ATOM      7  C   UNL     1       5.826  32.368  80.388  0.00  0.00    +0.000 C 
ENDROOT
BRANCH   1  13
ATOM      8  C   UNL     1      11.373  32.526  75.246  0.00  0.00    +0.000 A 
ATOM      9  C   UNL     1      10.701  31.303  75.376  0.00  0.00    +0.000 A 
ATOM     10  C   UNL     1      10.702  33.674  75.593  0.00  0.00    +0.000 A 
ATOM     11  C   UNL     1       9.385  31.245  75.904  0.00  0.00    +0.000 A 
ATOM     12  C   UNL     1       9.408  33.598  76.086  0.00  0.00    +0.000 A 
ATOM     13  C   UNL     1       8.716  32.414  76.309  0.00  0.00    +0.000 A 
BRANCH   8  15
ATOM     14  F   UNL     1      13.509  33.587  75.528  0.00  0.00    +0.000 F 
ATOM     15  C   UNL     1      12.785  32.727  74.776  0.00  0.00    +0.000 C 
ATOM     16  F   UNL     1      12.824  33.198  73.497  0.00  0.00    +0.000 F 
ATOM     17  F   UNL     1      13.481  31.554  74.748  0.00  0.00    +0.000 F 
ENDBRANCH   8  15
ENDBRANCH   1  13
BRANCH   5  18
ATOM     18  C   UNL     1       4.563  31.474  78.347  0.00  0.00    +0.000 A 
ATOM     19  C   UNL     1       3.310  31.963  77.963  0.00  0.00    +0.000 A 
ATOM     20  C   UNL     1       4.852  30.113  78.106  0.00  0.00    +0.000 A 
ATOM     21  C   UNL     1       2.390  31.120  77.324  0.00  0.00    +0.000 A 
ATOM     22  C   UNL     1       3.935  29.277  77.470  0.00  0.00    +0.000 A 
ATOM     23  C   UNL     1       2.706  29.785  77.070  0.00  0.00    +0.000 A 
ENDBRANCH   5  18
BRANCH   4  24
ATOM     24  C   UNL     1       9.243  31.392  79.438  0.00  0.00    +0.000 C 
ATOM     25  O   UNL     1       9.144  30.185  79.619  0.00  0.00    +0.000 OA
ATOM     26  O   UNL     1      10.435  31.981  79.179  0.00  0.00    +0.000 OA
ENDBRANCH   4  24
BRANCH   7  27
ATOM     27  C   UNL     1       4.819  31.595  81.207  0.00  0.00    +0.000 C 
ATOM     28  O   UNL     1       3.698  31.992  81.488  0.00  0.00    +0.000 OA
ATOM     29  O   UNL     1       5.253  30.360  81.542  0.00  0.00    +0.000 OA
ENDBRANCH   7  27
BRANCH   4  30
ATOM     30  C   UNL     1       8.465  33.886  79.590  0.00  0.00    +0.000 C 
BRANCH  30  31
ATOM     31  C   UNL     1       8.700  34.611  80.898  0.00  0.00    +0.000 A 
ATOM     32  C   UNL     1      10.002  34.705  81.398  0.00  0.00    +0.000 A 
ATOM     33  C   UNL     1       7.679  35.381  81.495  0.00  0.00    +0.000 A 
ATOM     34  C   UNL     1      10.296  35.583  82.442  0.00  0.00    +0.000 A 
ATOM     35  C   UNL     1       7.975  36.251  82.545  0.00  0.00    +0.000 A 
ATOM     36  C   UNL     1       9.285  36.360  82.996  0.00  0.00    +0.000 A 
BRANCH  36  37
ATOM     37  O   UNL     1       9.552  37.270  83.974  0.00  0.00    +0.000 OA
ATOM     38  H   UNL     1       9.963  38.084  83.756  0.00  0.00    +0.000 HD
ENDBRANCH  36  37
ENDBRANCH  30  31
ENDBRANCH   4  30
TORSDOF 8
ENDMDL
MODEL 3
REMARK VINA RESULT:      -8.3      3.306      5.959
REMARK  Name = 
REMARK  8 active torsions:
REMARK  status: ('A' for Active; 'I' for Inactive)
REMARK    1  A    between atoms: C_2  and  C_5
REMARK    2  A    between atoms: C_10  and  C_11
REMARK    3  A    between atoms: C_14  and  C_16
REMARK    4  A    between atoms: C_14  and  C_18
REMARK    5  A    between atoms: C_15  and  C_19
REMARK    6  A    between atoms: C_18  and  C_23
REMARK    7  A    between atoms: C_20  and  C_26
REMARK    8  A    between atoms: C_36  and  O_37
REMARK                            x       y       z     vdW  Elec       q    Type
REMARK                         _______ _______ _______ _____ _____    ______ ____
ROOT
ATOM      1  C   UNL     1       5.976  33.879  79.793  0.00  0.00    +0.000 C 
ATOM      2  O   UNL     1       5.293  33.530  80.757  0.00  0.00    +0.000 OA
ATOM      3  N   UNL     1       5.988  33.089  78.606  0.00  0.00    +0.000 N 
ATOM      4  C   UNL     1       6.960  33.171  77.479  0.00  0.00    +0.000 C 
ATOM      5  C   UNL     1       5.456  31.695  78.650  0.00  0.00    +0.000 C 
ATOM      6  C   UNL     1       6.364  32.193  76.462  0.00  0.00    +0.000 C 
ATOM      7  C   UNL     1       5.883  31.031  77.314  0.00  0.00    +0.000 C 
ENDROOT
BRANCH   1  13
ATOM      8  C   UNL     1       8.114  37.699  80.109  0.00  0.00    +0.000 A 
ATOM      9  C   UNL     1       6.761  37.656  79.746  0.00  0.00    +0.000 A 
ATOM     10  C   UNL     1       8.737  36.517  80.431  0.00  0.00    +0.000 A 
ATOM     11  C   UNL     1       6.068  36.420  79.659  0.00  0.00    +0.000 A 
ATOM     12  C   UNL     1       8.036  35.323  80.360  0.00  0.00    +0.000 A 
ATOM     13  C   UNL     1       6.718  35.204  79.936  0.00  0.00    +0.000 A 
BRANCH   8  15
ATOM     14  F   UNL     1       8.312  40.084  80.316  0.00  0.00    +0.000 F 
ATOM     15  C   UNL     1       8.986  38.920  80.170  0.00  0.00    +0.000 C 
ATOM     16  F   UNL     1       9.748  39.048  79.046  0.00  0.00    +0.000 F 
ATOM     17  F   UNL     1       9.876  38.855  81.203  0.00  0.00    +0.000 F 
ENDBRANCH   8  15
ENDBRANCH   1  13
BRANCH   5  18
ATOM     18  C   UNL     1       4.005  31.455  79.004  0.00  0.00    +0.000 A 
ATOM     19  C   UNL     1       3.583  30.545  79.979  0.00  0.00    +0.000 A 
ATOM     20  C   UNL     1       3.045  32.318  78.433  0.00  0.00    +0.000 A 
ATOM     21  C   UNL     1       2.244  30.528  80.394  0.00  0.00    +0.000 A 
ATOM     22  C   UNL     1       1.714  32.298  78.848  0.00  0.00    +0.000 A 
ATOM     23  C   UNL     1       1.315  31.408  79.836  0.00  0.00    +0.000 A 
ENDBRANCH   5  18
BRANCH   4  24
ATOM     24  C   UNL     1       6.900  34.510  76.681  0.00  0.00    +0.000 C 
ATOM     25  O   UNL     1       7.771  35.369  76.727  0.00  0.00    +0.000 OA
ATOM     26  O   UNL     1       5.812  34.635  75.885  0.00  0.00    +0.000 OA
ENDBRANCH   4  24
BRANCH   7  27
ATOM     27  C   UNL     1       4.868  30.196  76.568  0.00  0.00    +0.000 C 
ATOM     28  O   UNL     1       4.505  29.078  76.903  0.00  0.00    +0.000 OA
ATOM     29  O   UNL     1       4.326  30.846  75.516  0.00  0.00    +0.000 OA
ENDBRANCH   7  27
BRANCH   4  30
ATOM     30  C   UNL     1       8.435  32.776  77.900  0.00  0.00    +0.000 C 
BRANCH  30  31
ATOM     31  C   UNL     1       9.629  32.684  76.973  0.00  0.00    +0.000 A 
ATOM     32  C   UNL     1      10.751  33.477  77.229  0.00  0.00    +0.000 A 
ATOM     33  C   UNL     1       9.720  31.660  76.006  0.00  0.00    +0.000 A 
ATOM     34  C   UNL     1      11.956  33.230  76.571  0.00  0.00    +0.000 A 
ATOM     35  C   UNL     1      10.925  31.421  75.343  0.00  0.00    +0.000 A 
ATOM     36  C   UNL     1      12.038  32.196  75.646  0.00  0.00    +0.000 A 
BRANCH  36  37
ATOM     37  O   UNL     1      13.216  31.890  75.033  0.00  0.00    +0.000 OA
ATOM     38  H   UNL     1      14.027  32.163  75.415  0.00  0.00    +0.000 HD
ENDBRANCH  36  37
ENDBRANCH  30  31
ENDBRANCH   4  30
TORSDOF 8
ENDMDL
MODEL 4
REMARK VINA RESULT:      -8.2      3.623      6.262
REMARK  Name = 
REMARK  8 active torsions:
REMARK  status: ('A' for Active; 'I' for Inactive)
REMARK    1  A    between atoms: C_2  and  C_5
REMARK    2  A    between atoms: C_10  and  C_11
REMARK    3  A    between atoms: C_14  and  C_16
REMARK    4  A    between atoms: C_14  and  C_18
REMARK    5  A    between atoms: C_15  and  C_19
REMARK    6  A    between atoms: C_18  and  C_23
REMARK    7  A    between atoms: C_20  and  C_26
REMARK    8  A    between atoms: C_36  and  O_37
REMARK                            x       y       z     vdW  Elec       q    Type
REMARK                         _______ _______ _______ _____ _____    ______ ____
ROOT
ATOM      1  C   UNL     1       6.954  33.824  79.887  0.00  0.00    +0.000 C 
ATOM      2  O   UNL     1       6.700  33.134  80.875  0.00  0.00    +0.000 OA
ATOM      3  N   UNL     1       6.884  33.253  78.583  0.00  0.00    +0.000 N 
ATOM      4  C   UNL     1       7.439  33.819  77.320  0.00  0.00    +0.000 C 
ATOM      5  C   UNL     1       6.837  31.768  78.436  0.00  0.00    +0.000 C 
ATOM      6  C   UNL     1       6.917  32.837  76.266  0.00  0.00    +0.000 C 
ATOM      7  C   UNL     1       7.066  31.479  76.929  0.00  0.00    +0.000 C 
ENDROOT
BRANCH   1  13
ATOM      8  C   UNL     1       7.823  38.074  80.560  0.00  0.00    +0.000 A 
ATOM      9  C   UNL     1       6.503  37.609  80.479  0.00  0.00    +0.000 A 
ATOM     10  C   UNL     1       8.839  37.151  80.492  0.00  0.00    +0.000 A 
ATOM     11  C   UNL     1       6.224  36.233  80.275  0.00  0.00    +0.000 A 
ATOM     12  C   UNL     1       8.545  35.808  80.315  0.00  0.00    +0.000 A 
ATOM     13  C   UNL     1       7.265  35.294  80.153  0.00  0.00    +0.000 A 
BRANCH   8  15
ATOM     14  F   UNL     1       7.352  40.412  80.284  0.00  0.00    +0.000 F 
ATOM     15  C   UNL     1       8.263  39.503  80.698  0.00  0.00    +0.000 C 
ATOM     16  F   UNL     1       9.405  39.745  79.993  0.00  0.00    +0.000 F 
ATOM     17  F   UNL     1       8.565  39.816  81.992  0.00  0.00    +0.000 F 
ENDBRANCH   8  15
ENDBRANCH   1  13
BRANCH   5  18
ATOM     18  C   UNL     1       5.683  30.990  79.029  0.00  0.00    +0.000 A 
ATOM     19  C   UNL     1       4.343  31.373  78.908  0.00  0.00    +0.000 A 
ATOM     20  C   UNL     1       5.969  29.726  79.588  0.00  0.00    +0.000 A 
ATOM     21  C   UNL     1       3.322  30.499  79.304  0.00  0.00    +0.000 A 
ATOM     22  C   UNL     1       4.951  28.859  79.981  0.00  0.00    +0.000 A 
ATOM     23  C   UNL     1       3.625  29.242  79.830  0.00  0.00    +0.000 A 
ENDBRANCH   5  18
BRANCH   4  24
ATOM     24  C   UNL     1       6.757  35.144  76.861  0.00  0.00    +0.000 C 
ATOM     25  O   UNL     1       5.585  35.223  76.517  0.00  0.00    +0.000 OA
ATOM     26  O   UNL     1       7.562  36.231  76.914  0.00  0.00    +0.000 OA
ENDBRANCH   4  24
BRANCH   7  27
ATOM     27  C   UNL     1       6.192  30.447  76.253  0.00  0.00    +0.000 C 
ATOM     28  O   UNL     1       5.101  30.678  75.755  0.00  0.00    +0.000 OA
ATOM     29  O   UNL     1       6.779  29.232  76.176  0.00  0.00    +0.000 OA
ENDBRANCH   7  27
BRANCH   4  30
ATOM     30  C   UNL     1       9.020  33.913  77.323  0.00  0.00    +0.000 C 
BRANCH  30  31
ATOM     31  C   UNL     1       9.930  33.611  76.152  0.00  0.00    +0.000 A 
ATOM     32  C   UNL     1      10.496  34.672  75.440  0.00  0.00    +0.000 A 
ATOM     33  C   UNL     1      10.395  32.300  75.914  0.00  0.00    +0.000 A 
ATOM     34  C   UNL     1      11.538  34.443  74.540  0.00  0.00    +0.000 A 
ATOM     35  C   UNL     1      11.431  32.073  75.006  0.00  0.00    +0.000 A 
ATOM     36  C   UNL     1      12.007  33.150  74.342  0.00  0.00    +0.000 A 
BRANCH  36  37
ATOM     37  O   UNL     1      13.063  32.902  73.517  0.00  0.00    +0.000 OA
ATOM     38  H   UNL     1      13.230  33.467  72.788  0.00  0.00    +0.000 HD
ENDBRANCH  36  37
ENDBRANCH  30  31
ENDBRANCH   4  30
TORSDOF 8
ENDMDL
MODEL 5
REMARK VINA RESULT:      -8.1      2.027      5.560
REMARK  Name = 
REMARK  8 active torsions:
REMARK  status: ('A' for Active; 'I' for Inactive)
REMARK    1  A    between atoms: C_2  and  C_5
REMARK    2  A    between atoms: C_10  and  C_11
REMARK    3  A    between atoms: C_14  and  C_16
REMARK    4  A    between atoms: C_14  and  C_18
REMARK    5  A    between atoms: C_15  and  C_19
REMARK    6  A    between atoms: C_18  and  C_23
REMARK    7  A    between atoms: C_20  and  C_26
REMARK    8  A    between atoms: C_36  and  O_37
REMARK                            x       y       z     vdW  Elec       q    Type
REMARK                         _______ _______ _______ _____ _____    ______ ____
ROOT
ATOM      1  C   UNL     1       9.050  34.479  78.310  0.00  0.00    +0.000 C 
ATOM      2  O   UNL     1       9.638  35.169  79.144  0.00  0.00    +0.000 OA
ATOM      3  N   UNL     1       7.635  34.323  78.386  0.00  0.00    +0.000 N 
ATOM      4  C   UNL     1       6.800  33.310  77.678  0.00  0.00    +0.000 C 
ATOM      5  C   UNL     1       6.923  34.704  79.642  0.00  0.00    +0.000 C 
ATOM      6  C   UNL     1       5.379  33.747  78.043  0.00  0.00    +0.000 C 
ATOM      7  C   UNL     1       5.484  34.142  79.506  0.00  0.00    +0.000 C 
ENDROOT
BRANCH   1  13
ATOM      8  C   UNL     1      11.442  32.789  75.040  0.00  0.00    +0.000 A 
ATOM      9  C   UNL     1      11.062  34.138  75.036  0.00  0.00    +0.000 A 
ATOM     10  C   UNL     1      11.104  32.024  76.131  0.00  0.00    +0.000 A 
ATOM     11  C   UNL     1      10.301  34.686  76.101  0.00  0.00    +0.000 A 
ATOM     12  C   UNL     1      10.379  32.584  77.172  0.00  0.00    +0.000 A 
ATOM     13  C   UNL     1       9.908  33.891  77.193  0.00  0.00    +0.000 A 
BRANCH   8  15
ATOM     14  F   UNL     1      13.119  31.195  74.396  0.00  0.00    +0.000 F 
ATOM     15  C   UNL     1      12.180  32.062  73.953  0.00  0.00    +0.000 C 
ATOM     16  F   UNL     1      12.815  32.929  73.113  0.00  0.00    +0.000 F 
ATOM     17  F   UNL     1      11.333  31.345  73.159  0.00  0.00    +0.000 F 
ENDBRANCH   8  15
ENDBRANCH   1  13
BRANCH   5  18
ATOM     18  C   UNL     1       6.967  36.137  80.125  0.00  0.00    +0.000 A 
ATOM     19  C   UNL     1       7.237  36.504  81.447  0.00  0.00    +0.000 A 
ATOM     20  C   UNL     1       6.894  37.155  79.149  0.00  0.00    +0.000 A 
ATOM     21  C   UNL     1       7.463  37.849  81.773  0.00  0.00    +0.000 A 
ATOM     22  C   UNL     1       7.120  38.491  79.476  0.00  0.00    +0.000 A 
ATOM     23  C   UNL     1       7.414  38.837  80.789  0.00  0.00    +0.000 A 
ENDBRANCH   5  18
BRANCH   4  24
ATOM     24  C   UNL     1       6.777  33.473  76.128  0.00  0.00    +0.000 C 
ATOM     25  O   UNL     1       7.180  32.620  75.347  0.00  0.00    +0.000 OA
ATOM     26  O   UNL     1       6.229  34.634  75.698  0.00  0.00    +0.000 OA
ENDBRANCH   4  24
BRANCH   7  27
ATOM     27  C   UNL     1       4.325  35.023  79.914  0.00  0.00    +0.000 C 
ATOM     28  O   UNL     1       3.693  35.738  79.151  0.00  0.00    +0.000 OA
ATOM     29  O   UNL     1       3.993  34.884  81.216  0.00  0.00    +0.000 OA
ENDBRANCH   7  27
BRANCH   4  30
ATOM     30  C   UNL     1       7.109  31.824  78.133  0.00  0.00    +0.000 C 
BRANCH  30  31
ATOM     31  C   UNL     1       6.164  30.912  78.886  0.00  0.00    +0.000 A 
ATOM     32  C   UNL     1       5.197  30.197  78.174  0.00  0.00    +0.000 A 
ATOM     33  C   UNL     1       6.388  30.597  80.244  0.00  0.00    +0.000 A 
ATOM     34  C   UNL     1       4.496  29.156  78.783  0.00  0.00    +0.000 A 
ATOM     35  C   UNL     1       5.678  29.561  80.853  0.00  0.00    +0.000 A 
ATOM     36  C   UNL     1       4.753  28.836  80.111  0.00  0.00    +0.000 A 
BRANCH  36  37
ATOM     37  O   UNL     1       4.129  27.787  80.716  0.00  0.00    +0.000 OA
ATOM     38  H   UNL     1       4.574  26.967  80.808  0.00  0.00    +0.000 HD
ENDBRANCH  36  37
ENDBRANCH  30  31
ENDBRANCH   4  30
TORSDOF 8
ENDMDL
MODEL 6
REMARK VINA RESULT:      -7.9      3.587      6.472
REMARK  Name = 
REMARK  8 active torsions:
REMARK  status: ('A' for Active; 'I' for Inactive)
REMARK    1  A    between atoms: C_2  and  C_5
REMARK    2  A    between atoms: C_10  and  C_11
REMARK    3  A    between atoms: C_14  and  C_16
REMARK    4  A    between atoms: C_14  and  C_18
REMARK    5  A    between atoms: C_15  and  C_19
REMARK    6  A    between atoms: C_18  and  C_23
REMARK    7  A    between atoms: C_20  and  C_26
REMARK    8  A    between atoms: C_36  and  O_37
REMARK                            x       y       z     vdW  Elec       q    Type
REMARK                         _______ _______ _______ _____ _____    ______ ____
ROOT
ATOM      1  C   UNL     1       7.073  33.773  79.654  0.00  0.00    +0.000 C 
ATOM      2  O   UNL     1       6.396  32.991  80.323  0.00  0.00    +0.000 OA
ATOM      3  N   UNL     1       6.981  33.758  78.232  0.00  0.00    +0.000 N 
ATOM      4  C   UNL     1       7.919  34.392  77.261  0.00  0.00    +0.000 C 
ATOM      5  C   UNL     1       6.339  32.594  77.552  0.00  0.00    +0.000 C 
ATOM      6  C   UNL     1       7.211  34.157  75.924  0.00  0.00    +0.000 C 
ATOM      7  C   UNL     1       6.666  32.745  76.044  0.00  0.00    +0.000 C 
ENDROOT
BRANCH   1  13
ATOM      8  C   UNL     1       9.511  36.581  81.987  0.00  0.00    +0.000 A 
ATOM      9  C   UNL     1      10.010  35.324  81.618  0.00  0.00    +0.000 A 
ATOM     10  C   UNL     1       8.262  36.939  81.540  0.00  0.00    +0.000 A 
ATOM     11  C   UNL     1       9.225  34.424  80.852  0.00  0.00    +0.000 A 
ATOM     12  C   UNL     1       7.520  36.054  80.774  0.00  0.00    +0.000 A 
ATOM     13  C   UNL     1       7.926  34.768  80.438  0.00  0.00    +0.000 A 
BRANCH   8  15
ATOM     14  F   UNL     1      11.335  37.159  83.438  0.00  0.00    +0.000 F 
ATOM     15  C   UNL     1      10.198  37.598  82.853  0.00  0.00    +0.000 C 
ATOM     16  F   UNL     1       9.384  38.032  83.857  0.00  0.00    +0.000 F 
ATOM     17  F   UNL     1      10.530  38.719  82.149  0.00  0.00    +0.000 F 
ENDBRANCH   8  15
ENDBRANCH   1  13
BRANCH   5  18
ATOM     18  C   UNL     1       4.886  32.273  77.824  0.00  0.00    +0.000 A 
ATOM     19  C   UNL     1       4.429  31.013  78.223  0.00  0.00    +0.000 A 
ATOM     20  C   UNL     1       3.973  33.350  77.836  0.00  0.00    +0.000 A 
ATOM     21  C   UNL     1       3.106  30.847  78.653  0.00  0.00    +0.000 A 
ATOM     22  C   UNL     1       2.657  33.182  78.265  0.00  0.00    +0.000 A 
ATOM     23  C   UNL     1       2.226  31.930  78.683  0.00  0.00    +0.000 A 
ENDBRANCH   5  18
BRANCH   4  24
ATOM     24  C   UNL     1       7.941  35.950  77.321  0.00  0.00    +0.000 C 
ATOM     25  O   UNL     1       8.966  36.613  77.418  0.00  0.00    +0.000 OA
ATOM     26  O   UNL     1       6.722  36.529  77.213  0.00  0.00    +0.000 OA
ENDBRANCH   4  24
BRANCH   7  27
ATOM     27  C   UNL     1       5.562  32.503  75.040  0.00  0.00    +0.000 C 
ATOM     28  O   UNL     1       4.975  31.441  74.894  0.00  0.00    +0.000 OA
ATOM     29  O   UNL     1       5.219  33.618  74.358  0.00  0.00    +0.000 OA
ENDBRANCH   7  27
BRANCH   4  30
ATOM     30  C   UNL     1       9.370  33.758  77.294  0.00  0.00    +0.000 C 
BRANCH  30  31
ATOM     31  C   UNL     1      10.135  33.230  76.099  0.00  0.00    +0.000 A 
ATOM     32  C   UNL     1      10.910  34.113  75.343  0.00  0.00    +0.000 A 
ATOM     33  C   UNL     1      10.262  31.842  75.874  0.00  0.00    +0.000 A 
ATOM     34  C   UNL     1      11.831  33.629  74.413  0.00  0.00    +0.000 A 
ATOM     35  C   UNL     1      11.178  31.361  74.937  0.00  0.00    +0.000 A 
ATOM     36  C   UNL     1      11.969  32.258  74.229  0.00  0.00    +0.000 A 
BRANCH  36  37
ATOM     37  O   UNL     1      12.901  31.753  73.374  0.00  0.00    +0.000 OA
ATOM     38  H   UNL     1      12.792  30.893  73.016  0.00  0.00    +0.000 HD
ENDBRANCH  36  37
ENDBRANCH  30  31
ENDBRANCH   4  30
TORSDOF 8
ENDMDL
MODEL 7
REMARK VINA RESULT:      -7.9      1.837      2.420
REMARK  Name = 
REMARK  8 active torsions:
REMARK  status: ('A' for Active; 'I' for Inactive)
REMARK    1  A    between atoms: C_2  and  C_5
REMARK    2  A    between atoms: C_10  and  C_11
REMARK    3  A    between atoms: C_14  and  C_16
REMARK    4  A    between atoms: C_14  and  C_18
REMARK    5  A    between atoms: C_15  and  C_19
REMARK    6  A    between atoms: C_18  and  C_23
REMARK    7  A    between atoms: C_20  and  C_26
REMARK    8  A    between atoms: C_36  and  O_37
REMARK                            x       y       z     vdW  Elec       q    Type
REMARK                         _______ _______ _______ _____ _____    ______ ____
ROOT
ATOM      1  C   UNL     1       7.060  33.165  76.927  0.00  0.00    +0.000 C 
ATOM      2  O   UNL     1       6.184  32.632  76.243  0.00  0.00    +0.000 OA
ATOM      3  N   UNL     1       6.719  33.781  78.167  0.00  0.00    +0.000 N 
ATOM      4  C   UNL     1       7.557  34.721  78.966  0.00  0.00    +0.000 C 
ATOM      5  C   UNL     1       5.287  34.076  78.468  0.00  0.00    +0.000 C 
ATOM      6  C   UNL     1       6.719  34.905  80.234  0.00  0.00    +0.000 C 
ATOM      7  C   UNL     1       5.292  34.992  79.720  0.00  0.00    +0.000 C 
ENDROOT
BRANCH   1  13
ATOM      8  C   UNL     1      11.198  32.829  75.502  0.00  0.00    +0.000 A 
ATOM      9  C   UNL     1      10.485  31.699  75.926  0.00  0.00    +0.000 A 
ATOM     10  C   UNL     1      10.543  34.037  75.479  0.00  0.00    +0.000 A 
ATOM     11  C   UNL     1       9.143  31.808  76.373  0.00  0.00    +0.000 A 
ATOM     12  C   UNL     1       9.224  34.119  75.899  0.00  0.00    +0.000 A 
ATOM     13  C   UNL     1       8.488  33.053  76.400  0.00  0.00    +0.000 A 
BRANCH   8  15
ATOM     14  F   UNL     1      12.825  33.140  73.764  0.00  0.00    +0.000 F 
ATOM     15  C   UNL     1      12.638  32.874  75.077  0.00  0.00    +0.000 C 
ATOM     16  F   UNL     1      13.271  31.693  75.330  0.00  0.00    +0.000 F 
ATOM     17  F   UNL     1      13.341  33.816  75.769  0.00  0.00    +0.000 F 
ENDBRANCH   8  15
ENDBRANCH   1  13
BRANCH   5  18
ATOM     18  C   UNL     1       4.290  32.942  78.558  0.00  0.00    +0.000 A 
ATOM     19  C   UNL     1       3.051  32.943  77.909  0.00  0.00    +0.000 A 
ATOM     20  C   UNL     1       4.710  31.754  79.195  0.00  0.00    +0.000 A 
ATOM     21  C   UNL     1       2.274  31.777  77.871  0.00  0.00    +0.000 A 
ATOM     22  C   UNL     1       3.935  30.596  79.155  0.00  0.00    +0.000 A 
ATOM     23  C   UNL     1       2.719  30.605  78.484  0.00  0.00    +0.000 A 
ENDBRANCH   5  18
BRANCH   4  24
ATOM     24  C   UNL     1       8.853  34.081  79.550  0.00  0.00    +0.000 C 
ATOM     25  O   UNL     1       9.984  34.394  79.200  0.00  0.00    +0.000 OA
ATOM     26  O   UNL     1       8.633  33.166  80.523  0.00  0.00    +0.000 OA
ENDBRANCH   4  24
BRANCH   7  27
ATOM     27  C   UNL     1       4.300  34.710  80.823  0.00  0.00    +0.000 C 
ATOM     28  O   UNL     1       3.122  35.036  80.801  0.00  0.00    +0.000 OA
ATOM     29  O   UNL     1       4.827  33.975  81.828  0.00  0.00    +0.000 OA
ENDBRANCH   7  27
BRANCH   4  30
ATOM     30  C   UNL     1       7.832  36.093  78.223  0.00  0.00    +0.000 C 
BRANCH  30  31
ATOM     31  C   UNL     1       8.083  37.429  78.889  0.00  0.00    +0.000 A 
ATOM     32  C   UNL     1       7.006  38.290  79.112  0.00  0.00    +0.000 A 
ATOM     33  C   UNL     1       9.328  37.718  79.489  0.00  0.00    +0.000 A 
ATOM     34  C   UNL     1       7.146  39.394  79.953  0.00  0.00    +0.000 A 
ATOM     35  C   UNL     1       9.467  38.829  80.322  0.00  0.00    +0.000 A 
ATOM     36  C   UNL     1       8.369  39.646  80.563  0.00  0.00    +0.000 A 
BRANCH  36  37
ATOM     37  O   UNL     1       8.521  40.680  81.437  0.00  0.00    +0.000 OA
ATOM     38  H   UNL     1       9.366  40.872  81.794  0.00  0.00    +0.000 HD
ENDBRANCH  36  37
ENDBRANCH  30  31
ENDBRANCH   4  30
TORSDOF 8
ENDMDL
MODEL 8
REMARK VINA RESULT:      -7.9      2.214      5.845
REMARK  Name = 
REMARK  8 active torsions:
REMARK  status: ('A' for Active; 'I' for Inactive)
REMARK    1  A    between atoms: C_2  and  C_5
REMARK    2  A    between atoms: C_10  and  C_11
REMARK    3  A    between atoms: C_14  and  C_16
REMARK    4  A    between atoms: C_14  and  C_18
REMARK    5  A    between atoms: C_15  and  C_19
REMARK    6  A    between atoms: C_18  and  C_23
REMARK    7  A    between atoms: C_20  and  C_26
REMARK    8  A    between atoms: C_36  and  O_37
REMARK                            x       y       z     vdW  Elec       q    Type
REMARK                         _______ _______ _______ _____ _____    ______ ____
ROOT
ATOM      1  C   UNL     1       8.479  34.601  78.749  0.00  0.00    +0.000 C 
ATOM      2  O   UNL     1       9.154  35.153  79.619  0.00  0.00    +0.000 OA
ATOM      3  N   UNL     1       7.069  34.807  78.703  0.00  0.00    +0.000 N 
ATOM      4  C   UNL     1       6.065  34.008  77.944  0.00  0.00    +0.000 C 
ATOM      5  C   UNL     1       6.379  35.405  79.884  0.00  0.00    +0.000 C 
ATOM      6  C   UNL     1       4.776  34.802  78.175  0.00  0.00    +0.000 C 
ATOM      7  C   UNL     1       4.860  35.217  79.633  0.00  0.00    +0.000 C 
ENDROOT
BRANCH   1  13
ATOM      8  C   UNL     1      10.761  32.207  75.863  0.00  0.00    +0.000 A 
ATOM      9  C   UNL     1      10.123  31.606  76.957  0.00  0.00    +0.000 A 
ATOM     10  C   UNL     1      10.595  33.558  75.678  0.00  0.00    +0.000 A 
ATOM     11  C   UNL     1       9.374  32.380  77.881  0.00  0.00    +0.000 A 
ATOM     12  C   UNL     1       9.841  34.294  76.580  0.00  0.00    +0.000 A 
ATOM     13  C   UNL     1       9.248  33.772  77.723  0.00  0.00    +0.000 A 
BRANCH   8  15
ATOM     14  F   UNL     1      11.207  30.306  74.464  0.00  0.00    +0.000 F 
ATOM     15  C   UNL     1      11.641  31.526  74.854  0.00  0.00    +0.000 C 
ATOM     16  F   UNL     1      12.908  31.357  75.329  0.00  0.00    +0.000 F 
ATOM     17  F   UNL     1      11.779  32.270  73.719  0.00  0.00    +0.000 F 
ENDBRANCH   8  15
ENDBRANCH   1  13
BRANCH   5  18
ATOM     18  C   UNL     1       6.744  36.799  80.343  0.00  0.00    +0.000 A 
ATOM     19  C   UNL     1       7.080  37.121  81.662  0.00  0.00    +0.000 A 
ATOM     20  C   UNL     1       6.916  37.787  79.349  0.00  0.00    +0.000 A 
ATOM     21  C   UNL     1       7.604  38.385  81.967  0.00  0.00    +0.000 A 
ATOM     22  C   UNL     1       7.438  39.042  79.655  0.00  0.00    +0.000 A 
ATOM     23  C   UNL     1       7.792  39.338  80.965  0.00  0.00    +0.000 A 
ENDBRANCH   5  18
BRANCH   4  24
ATOM     24  C   UNL     1       6.209  34.110  76.395  0.00  0.00    +0.000 C 
ATOM     25  O   UNL     1       6.027  35.141  75.760  0.00  0.00    +0.000 OA
ATOM     26  O   UNL     1       6.600  32.961  75.795  0.00  0.00    +0.000 OA
ENDBRANCH   4  24
BRANCH   7  27
ATOM     27  C   UNL     1       3.933  36.376  79.921  0.00  0.00    +0.000 C 
ATOM     28  O   UNL     1       3.633  36.765  81.040  0.00  0.00    +0.000 OA
ATOM     29  O   UNL     1       3.520  37.008  78.801  0.00  0.00    +0.000 OA
ENDBRANCH   7  27
BRANCH   4  30
ATOM     30  C   UNL     1       5.950  32.512  78.451  0.00  0.00    +0.000 C 
BRANCH  30  31
ATOM     31  C   UNL     1       4.845  31.538  78.099  0.00  0.00    +0.000 A 
ATOM     32  C   UNL     1       3.520  31.980  78.112  0.00  0.00    +0.000 A 
ATOM     33  C   UNL     1       5.142  30.275  77.543  0.00  0.00    +0.000 A 
ATOM     34  C   UNL     1       2.510  31.204  77.541  0.00  0.00    +0.000 A 
ATOM     35  C   UNL     1       4.128  29.497  76.981  0.00  0.00    +0.000 A 
ATOM     36  C   UNL     1       2.824  29.978  76.967  0.00  0.00    +0.000 A 
BRANCH  36  37
ATOM     37  O   UNL     1       1.872  29.226  76.347  0.00  0.00    +0.000 OA
ATOM     38  H   UNL     1       2.124  28.515  75.791  0.00  0.00    +0.000 HD
ENDBRANCH  36  37
ENDBRANCH  30  31
ENDBRANCH   4  30
TORSDOF 8
ENDMDL
MODEL 9
REMARK VINA RESULT:      -7.8      2.121      5.354
REMARK  Name = 
REMARK  8 active torsions:
REMARK  status: ('A' for Active; 'I' for Inactive)
REMARK    1  A    between atoms: C_2  and  C_5
REMARK    2  A    between atoms: C_10  and  C_11
REMARK    3  A    between atoms: C_14  and  C_16
REMARK    4  A    between atoms: C_14  and  C_18
REMARK    5  A    between atoms: C_15  and  C_19
REMARK    6  A    between atoms: C_18  and  C_23
REMARK    7  A    between atoms: C_20  and  C_26
REMARK    8  A    between atoms: C_36  and  O_37
REMARK                            x       y       z     vdW  Elec       q    Type
REMARK                         _______ _______ _______ _____ _____    ______ ____
ROOT
ATOM      1  C   UNL     1       8.583  34.509  78.457  0.00  0.00    +0.000 C 
ATOM      2  O   UNL     1       9.177  35.078  79.374  0.00  0.00    +0.000 OA
ATOM      3  N   UNL     1       7.165  34.611  78.355  0.00  0.00    +0.000 N 
ATOM      4  C   UNL     1       6.257  33.769  77.524  0.00  0.00    +0.000 C 
ATOM      5  C   UNL     1       6.381  35.111  79.523  0.00  0.00    +0.000 C 
ATOM      6  C   UNL     1       4.903  34.455  77.723  0.00  0.00    +0.000 C 
ATOM      7  C   UNL     1       4.893  34.820  79.197  0.00  0.00    +0.000 C 
ENDROOT
BRANCH   1  13
ATOM      8  C   UNL     1      11.023  32.421  75.464  0.00  0.00    +0.000 A 
ATOM      9  C   UNL     1      10.874  33.815  75.431  0.00  0.00    +0.000 A 
ATOM     10  C   UNL     1      10.441  31.731  76.500  0.00  0.00    +0.000 A 
ATOM     11  C   UNL     1      10.096  34.489  76.408  0.00  0.00    +0.000 A 
ATOM     12  C   UNL     1       9.703  32.411  77.457  0.00  0.00    +0.000 A 
ATOM     13  C   UNL     1       9.455  33.779  77.439  0.00  0.00    +0.000 A 
BRANCH   8  15
ATOM     14  F   UNL     1      11.707  32.045  73.193  0.00  0.00    +0.000 F 
ATOM     15  C   UNL     1      11.751  31.574  74.460  0.00  0.00    +0.000 C 
ATOM     16  F   UNL     1      11.254  30.305  74.423  0.00  0.00    +0.000 F 
ATOM     17  F   UNL     1      13.071  31.435  74.777  0.00  0.00    +0.000 F 
ENDBRANCH   8  15
ENDBRANCH   1  13
BRANCH   5  18
ATOM     18  C   UNL     1       6.620  36.511  80.044  0.00  0.00    +0.000 A 
ATOM     19  C   UNL     1       6.789  36.818  81.398  0.00  0.00    +0.000 A 
ATOM     20  C   UNL     1       6.849  37.529  79.094  0.00  0.00    +0.000 A 
ATOM     21  C   UNL     1       7.210  38.099  81.783  0.00  0.00    +0.000 A 
ATOM     22  C   UNL     1       7.267  38.802  79.479  0.00  0.00    +0.000 A 
ATOM     23  C   UNL     1       7.457  39.084  80.826  0.00  0.00    +0.000 A 
ENDBRANCH   5  18
BRANCH   4  24
ATOM     24  C   UNL     1       6.459  33.938  75.987  0.00  0.00    +0.000 C 
ATOM     25  O   UNL     1       6.376  35.011  75.404  0.00  0.00    +0.000 OA
ATOM     26  O   UNL     1       6.781  32.795  75.338  0.00  0.00    +0.000 OA
ENDBRANCH   4  24
BRANCH   7  27
ATOM     27  C   UNL     1       3.870  35.895  79.482  0.00  0.00    +0.000 C 
ATOM     28  O   UNL     1       3.374  36.111  80.578  0.00  0.00    +0.000 OA
ATOM     29  O   UNL     1       3.606  36.667  78.405  0.00  0.00    +0.000 OA
ENDBRANCH   7  27
BRANCH   4  30
ATOM     30  C   UNL     1       6.235  32.250  77.974  0.00  0.00    +0.000 C 
BRANCH  30  31
ATOM     31  C   UNL     1       6.166  31.748  79.401  0.00  0.00    +0.000 A 
ATOM     32  C   UNL     1       7.349  31.623  80.135  0.00  0.00    +0.000 A 
ATOM     33  C   UNL     1       4.929  31.627  80.069  0.00  0.00    +0.000 A 
ATOM     34  C   UNL     1       7.306  31.427  81.516  0.00  0.00    +0.000 A 
ATOM     35  C   UNL     1       4.890  31.421  81.449  0.00  0.00    +0.000 A 
ATOM     36  C   UNL     1       6.079  31.344  82.164  0.00  0.00    +0.000 A 
BRANCH  36  37
ATOM     37  O   UNL     1       6.005  31.215  83.518  0.00  0.00    +0.000 OA
ATOM     38  H   UNL     1       5.600  31.887  84.031  0.00  0.00    +0.000 HD
ENDBRANCH  36  37
ENDBRANCH  30  31
ENDBRANCH   4  30
TORSDOF 8
ENDMDL
