MODEL 1
REMARK VINA RESULT:      -7.6      0.000      0.000
REMARK  Name = 
REMARK  8 active torsions:
REMARK  status: ('A' for Active; 'I' for Inactive)
REMARK    1  A    between atoms: C_2  and  C_5
REMARK    2  A    between atoms: C_10  and  C_11
REMARK    3  A    between atoms: C_14  and  C_16
REMARK    4  A    between atoms: C_14  and  C_18
REMARK    5  A    between atoms: C_15  and  C_19
REMARK    6  A    between atoms: C_18  and  C_23
REMARK    7  A    between atoms: C_20  and  C_26
REMARK    8  A    between atoms: C_23  and  C_27
REMARK                            x       y       z     vdW  Elec       q    Type
REMARK                         _______ _______ _______ _____ _____    ______ ____
ROOT
ATOM      1  C   UNL     1       7.702  30.535  78.906  0.00  0.00    +0.000 C 
ATOM      2  O   UNL     1       7.952  29.375  79.218  0.00  0.00    +0.000 OA
ATOM      3  N   UNL     1       6.475  31.113  79.296  0.00  0.00    +0.000 N 
ATOM      4  C   UNL     1       5.655  30.524  80.404  0.00  0.00    +0.000 C 
ATOM      5  C   UNL     1       6.031  32.518  79.047  0.00  0.00    +0.000 C 
ATOM      6  C   UNL     1       4.310  31.302  80.175  0.00  0.00    +0.000 C 
ATOM      7  C   UNL     1       4.757  32.725  79.880  0.00  0.00    +0.000 C 
ENDROOT
BRANCH   1  13
ATOM      8  C   UNL     1      10.354  32.794  76.317  0.00  0.00    +0.000 A 
ATOM      9  C   UNL     1       9.587  31.740  75.803  0.00  0.00    +0.000 A 
ATOM     10  C   UNL     1      10.313  33.028  77.690  0.00  0.00    +0.000 A 
ATOM     11  C   UNL     1       8.745  30.983  76.648  0.00  0.00    +0.000 A 
ATOM     12  C   UNL     1       9.579  32.197  78.529  0.00  0.00    +0.000 A 
ATOM     13  C   UNL     1       8.689  31.255  78.024  0.00  0.00    +0.000 A 
BRANCH   8  15
ATOM     14  F   UNL     1      11.688  33.081  74.333  0.00  0.00    +0.000 F 
ATOM     15  C   UNL     1      11.262  33.664  75.482  0.00  0.00    +0.000 C 
ATOM     16  F   UNL     1      12.393  34.012  76.166  0.00  0.00    +0.000 F 
ATOM     17  F   UNL     1      10.679  34.843  75.122  0.00  0.00    +0.000 F 
ENDBRANCH   8  15
ENDBRANCH   1  13
BRANCH   5  18
ATOM     18  C   UNL     1       5.955  32.890  77.581  0.00  0.00    +0.000 A 
ATOM     19  C   UNL     1       5.292  32.115  76.624  0.00  0.00    +0.000 A 
ATOM     20  C   UNL     1       6.647  34.041  77.150  0.00  0.00    +0.000 A 
ATOM     21  C   UNL     1       5.354  32.463  75.272  0.00  0.00    +0.000 A 
ATOM     22  C   UNL     1       6.714  34.382  75.803  0.00  0.00    +0.000 A 
ATOM     23  C   UNL     1       6.067  33.591  74.864  0.00  0.00    +0.000 A 
ENDBRANCH   5  18
BRANCH   4  24
ATOM     24  C   UNL     1       5.237  29.037  80.356  0.00  0.00    +0.000 C 
ATOM     25  O   UNL     1       5.375  28.256  81.293  0.00  0.00    +0.000 OA
ATOM     26  O   UNL     1       4.529  28.678  79.254  0.00  0.00    +0.000 OA
ENDBRANCH   4  24
BRANCH   7  27
ATOM     27  C   UNL     1       3.835  33.774  79.310  0.00  0.00    +0.000 C 
ATOM     28  O   UNL     1       4.073  34.969  79.434  0.00  0.00    +0.000 OA
ATOM     29  O   UNL     1       2.727  33.354  78.685  0.00  0.00    +0.000 OA
ENDBRANCH   7  27
BRANCH   4  30
ATOM     30  C   UNL     1       6.245  30.854  81.806  0.00  0.00    +0.000 C 
BRANCH  30  31
ATOM     31  C   UNL     1       7.607  31.553  81.787  0.00  0.00    +0.000 C 
BRANCH  31  32
ATOM     32  C   UNL     1       8.172  31.713  83.176  0.00  0.00    +0.000 C 
ATOM     33  O   UNL     1       8.616  32.748  83.637  0.00  0.00    +0.000 OA
ATOM     34  O   UNL     1       8.166  30.548  83.867  0.00  0.00    +0.000 OA
ENDBRANCH  31  32
ENDBRANCH  30  31
ENDBRANCH   4  30
TORSDOF 8
ENDMDL
MODEL 2
REMARK VINA RESULT:      -7.5      2.032      3.083
REMARK  Name = 
REMARK  8 active torsions:
REMARK  status: ('A' for Active; 'I' for Inactive)
REMARK    1  A    between atoms: C_2  and  C_5
REMARK    2  A    between atoms: C_10  and  C_11
REMARK    3  A    between atoms: C_14  and  C_16
REMARK    4  A    between atoms: C_14  and  C_18
REMARK    5  A    between atoms: C_15  and  C_19
REMARK    6  A    between atoms: C_18  and  C_23
REMARK    7  A    between atoms: C_20  and  C_26
REMARK    8  A    between atoms: C_23  and  C_27
REMARK                            x       y       z     vdW  Elec       q    Type
REMARK                         _______ _______ _______ _____ _____    ______ ____
ROOT
ATOM      1  C   UNL     1       7.467  31.528  77.035  0.00  0.00    +0.000 C 
ATOM      2  O   UNL     1       7.202  30.641  76.229  0.00  0.00    +0.000 OA
ATOM      3  N   UNL     1       6.575  31.797  78.093  0.00  0.00    +0.000 N 
ATOM      4  C   UNL     1       5.541  30.796  78.513  0.00  0.00    +0.000 C 
ATOM      5  C   UNL     1       6.762  32.799  79.186  0.00  0.00    +0.000 C 
ATOM      6  C   UNL     1       4.648  31.709  79.427  0.00  0.00    +0.000 C 
ATOM      7  C   UNL     1       5.655  32.530  80.217  0.00  0.00    +0.000 C 
ENDROOT
BRANCH   1  13
ATOM      8  C   UNL     1      11.086  33.749  76.132  0.00  0.00    +0.000 A 
ATOM      9  C   UNL     1      11.075  32.796  77.159  0.00  0.00    +0.000 A 
ATOM     10  C   UNL     1       9.886  34.028  75.481  0.00  0.00    +0.000 A 
ATOM     11  C   UNL     1       9.891  32.092  77.476  0.00  0.00    +0.000 A 
ATOM     12  C   UNL     1       8.701  33.421  75.886  0.00  0.00    +0.000 A 
ATOM     13  C   UNL     1       8.698  32.361  76.786  0.00  0.00    +0.000 A 
BRANCH   8  15
ATOM     14  F   UNL     1      12.161  35.876  75.792  0.00  0.00    +0.000 F 
ATOM     15  C   UNL     1      12.309  34.529  75.715  0.00  0.00    +0.000 C 
ATOM     16  F   UNL     1      12.656  34.265  74.419  0.00  0.00    +0.000 F 
ATOM     17  F   UNL     1      13.411  34.219  76.456  0.00  0.00    +0.000 F 
ENDBRANCH   8  15
ENDBRANCH   1  13
BRANCH   5  18
ATOM     18  C   UNL     1       6.905  34.225  78.697  0.00  0.00    +0.000 A 
ATOM     19  C   UNL     1       6.013  34.824  77.801  0.00  0.00    +0.000 A 
ATOM     20  C   UNL     1       8.033  34.961  79.114  0.00  0.00    +0.000 A 
ATOM     21  C   UNL     1       6.268  36.108  77.310  0.00  0.00    +0.000 A 
ATOM     22  C   UNL     1       8.289  36.235  78.618  0.00  0.00    +0.000 A 
ATOM     23  C   UNL     1       7.404  36.808  77.713  0.00  0.00    +0.000 A 
ENDBRANCH   5  18
BRANCH   4  24
ATOM     24  C   UNL     1       4.548  30.223  77.477  0.00  0.00    +0.000 C 
ATOM     25  O   UNL     1       4.513  29.043  77.139  0.00  0.00    +0.000 OA
ATOM     26  O   UNL     1       3.574  31.084  77.082  0.00  0.00    +0.000 OA
ENDBRANCH   4  24
BRANCH   7  27
ATOM     27  C   UNL     1       5.273  33.752  81.016  0.00  0.00    +0.000 C 
ATOM     28  O   UNL     1       5.981  34.167  81.924  0.00  0.00    +0.000 OA
ATOM     29  O   UNL     1       4.114  34.352  80.716  0.00  0.00    +0.000 OA
ENDBRANCH   7  27
BRANCH   4  30
ATOM     30  C   UNL     1       6.158  29.631  79.342  0.00  0.00    +0.000 C 
BRANCH  30  31
ATOM     31  C   UNL     1       5.213  28.995  80.365  0.00  0.00    +0.000 C 
BRANCH  31  32
ATOM     32  C   UNL     1       5.858  27.828  81.071  0.00  0.00    +0.000 C 
ATOM     33  O   UNL     1       5.267  26.857  81.504  0.00  0.00    +0.000 OA
ATOM     34  O   UNL     1       7.195  27.992  81.209  0.00  0.00    +0.000 OA
ENDBRANCH  31  32
ENDBRANCH  30  31
ENDBRANCH   4  30
TORSDOF 8
ENDMDL
MODEL 3
REMARK VINA RESULT:      -7.5      4.060      6.398
REMARK  Name = 
REMARK  8 active torsions:
REMARK  status: ('A' for Active; 'I' for Inactive)
REMARK    1  A    between atoms: C_2  and  C_5
REMARK    2  A    between atoms: C_10  and  C_11
REMARK    3  A    between atoms: C_14  and  C_16
REMARK    4  A    between atoms: C_14  and  C_18
REMARK    5  A    between atoms: C_15  and  C_19
REMARK    6  A    between atoms: C_18  and  C_23
REMARK    7  A    between atoms: C_20  and  C_26
REMARK    8  A    between atoms: C_23  and  C_27
REMARK                            x       y       z     vdW  Elec       q    Type
REMARK                         _______ _______ _______ _____ _____    ______ ____
ROOT
ATOM      1  C   UNL     1       4.777  33.316  79.723  0.00  0.00    +0.000 C 
ATOM      2  O   UNL     1       3.748  33.831  80.147  0.00  0.00    +0.000 OA
ATOM      3  N   UNL     1       5.527  33.975  78.727  0.00  0.00    +0.000 N 
ATOM      4  C   UNL     1       5.352  35.440  78.463  0.00  0.00    +0.000 C 
ATOM      5  C   UNL     1       6.823  33.520  78.136  0.00  0.00    +0.000 C 
ATOM      6  C   UNL     1       6.118  35.553  77.096  0.00  0.00    +0.000 C 
ATOM      7  C   UNL     1       7.354  34.692  77.298  0.00  0.00    +0.000 C 
ENDROOT
BRANCH   1  13
ATOM      8  C   UNL     1       5.964  29.323  80.947  0.00  0.00    +0.000 A 
ATOM      9  C   UNL     1       4.814  29.516  80.168  0.00  0.00    +0.000 A 
ATOM     10  C   UNL     1       6.651  30.450  81.394  0.00  0.00    +0.000 A 
ATOM     11  C   UNL     1       4.409  30.816  79.792  0.00  0.00    +0.000 A 
ATOM     12  C   UNL     1       6.171  31.728  81.123  0.00  0.00    +0.000 A 
ATOM     13  C   UNL     1       5.133  31.939  80.222  0.00  0.00    +0.000 A 
BRANCH   8  15
ATOM     14  F   UNL     1       6.953  27.933  82.644  0.00  0.00    +0.000 F 
ATOM     15  C   UNL     1       6.479  27.970  81.374  0.00  0.00    +0.000 C 
ATOM     16  F   UNL     1       7.508  27.551  80.578  0.00  0.00    +0.000 F 
ATOM     17  F   UNL     1       5.533  26.993  81.286  0.00  0.00    +0.000 F 
ENDBRANCH   8  15
ENDBRANCH   1  13
BRANCH   5  18
ATOM     18  C   UNL     1       6.746  32.172  77.450  0.00  0.00    +0.000 A 
ATOM     19  C   UNL     1       5.721  31.813  76.568  0.00  0.00    +0.000 A 
ATOM     20  C   UNL     1       7.723  31.206  77.771  0.00  0.00    +0.000 A 
ATOM     21  C   UNL     1       5.657  30.515  76.055  0.00  0.00    +0.000 A 
ATOM     22  C   UNL     1       7.653  29.912  77.266  0.00  0.00    +0.000 A 
ATOM     23  C   UNL     1       6.618  29.567  76.408  0.00  0.00    +0.000 A 
ENDBRANCH   5  18
BRANCH   4  24
ATOM     24  C   UNL     1       3.951  36.012  78.152  0.00  0.00    +0.000 C 
ATOM     25  O   UNL     1       3.435  36.938  78.772  0.00  0.00    +0.000 OA
ATOM     26  O   UNL     1       3.381  35.539  77.014  0.00  0.00    +0.000 OA
ENDBRANCH   4  24
BRANCH   7  27
ATOM     27  C   UNL     1       8.248  34.258  76.163  0.00  0.00    +0.000 C 
ATOM     28  O   UNL     1       7.804  34.067  75.038  0.00  0.00    +0.000 OA
ATOM     29  O   UNL     1       9.545  34.060  76.434  0.00  0.00    +0.000 OA
ENDBRANCH   7  27
BRANCH   4  30
ATOM     30  C   UNL     1       6.043  36.316  79.549  0.00  0.00    +0.000 C 
BRANCH  30  31
ATOM     31  C   UNL     1       6.713  37.589  79.023  0.00  0.00    +0.000 C 
BRANCH  31  32
ATOM     32  C   UNL     1       7.332  38.395  80.138  0.00  0.00    +0.000 C 
ATOM     33  O   UNL     1       8.483  38.295  80.519  0.00  0.00    +0.000 OA
ATOM     34  O   UNL     1       6.442  39.240  80.711  0.00  0.00    +0.000 OA
ENDBRANCH  31  32
ENDBRANCH  30  31
ENDBRANCH   4  30
TORSDOF 8
ENDMDL
MODEL 4
REMARK VINA RESULT:      -7.2      4.154      6.703
REMARK  Name = 
REMARK  8 active torsions:
REMARK  status: ('A' for Active; 'I' for Inactive)
REMARK    1  A    between atoms: C_2  and  C_5
REMARK    2  A    between atoms: C_10  and  C_11
REMARK    3  A    between atoms: C_14  and  C_16
REMARK    4  A    between atoms: C_14  and  C_18
REMARK    5  A    between atoms: C_15  and  C_19
REMARK    6  A    between atoms: C_18  and  C_23
REMARK    7  A    between atoms: C_20  and  C_26
REMARK    8  A    between atoms: C_23  and  C_27
REMARK                            x       y       z     vdW  Elec       q    Type
REMARK                         _______ _______ _______ _____ _____    ______ ____
ROOT
ATOM      1  C   UNL     1       6.136  36.069  78.275  0.00  0.00    +0.000 C 
ATOM      2  O   UNL     1       5.788  37.150  77.812  0.00  0.00    +0.000 OA
ATOM      3  N   UNL     1       6.955  36.033  79.423  0.00  0.00    +0.000 N 
ATOM      4  C   UNL     1       7.077  37.221  80.329  0.00  0.00    +0.000 C 
ATOM      5  C   UNL     1       7.428  34.813  80.146  0.00  0.00    +0.000 C 
ATOM      6  C   UNL     1       8.319  36.775  81.181  0.00  0.00    +0.000 C 
ATOM      7  C   UNL     1       8.061  35.302  81.457  0.00  0.00    +0.000 C 
ENDROOT
BRANCH   1  13
ATOM      8  C   UNL     1       5.215  32.347  76.239  0.00  0.00    +0.000 A 
ATOM      9  C   UNL     1       6.119  33.260  75.677  0.00  0.00    +0.000 A 
ATOM     10  C   UNL     1       4.555  32.712  77.410  0.00  0.00    +0.000 A 
ATOM     11  C   UNL     1       6.399  34.485  76.322  0.00  0.00    +0.000 A 
ATOM     12  C   UNL     1       4.744  33.972  77.968  0.00  0.00    +0.000 A 
ATOM     13  C   UNL     1       5.750  34.822  77.521  0.00  0.00    +0.000 A 
BRANCH   8  15
ATOM     14  F   UNL     1       5.867  30.087  75.726  0.00  0.00    +0.000 F 
ATOM     15  C   UNL     1       4.876  31.009  75.628  0.00  0.00    +0.000 C 
ATOM     16  F   UNL     1       4.600  31.121  74.294  0.00  0.00    +0.000 F 
ATOM     17  F   UNL     1       3.766  30.442  76.181  0.00  0.00    +0.000 F 
ENDBRANCH   8  15
ENDBRANCH   1  13
BRANCH   5  18
ATOM     18  C   UNL     1       8.261  33.877  79.295  0.00  0.00    +0.000 A 
ATOM     19  C   UNL     1       9.350  34.301  78.526  0.00  0.00    +0.000 A 
ATOM     20  C   UNL     1       7.874  32.523  79.221  0.00  0.00    +0.000 A 
ATOM     21  C   UNL     1      10.006  33.401  77.682  0.00  0.00    +0.000 A 
ATOM     22  C   UNL     1       8.523  31.630  78.374  0.00  0.00    +0.000 A 
ATOM     23  C   UNL     1       9.590  32.072  77.603  0.00  0.00    +0.000 A 
ENDBRANCH   5  18
BRANCH   4  24
ATOM     24  C   UNL     1       7.493  38.595  79.757  0.00  0.00    +0.000 C 
ATOM     25  O   UNL     1       6.719  39.534  79.595  0.00  0.00    +0.000 OA
ATOM     26  O   UNL     1       8.832  38.768  79.604  0.00  0.00    +0.000 OA
ENDBRANCH   4  24
BRANCH   7  27
ATOM     27  C   UNL     1       9.118  34.369  81.994  0.00  0.00    +0.000 C 
ATOM     28  O   UNL     1       8.821  33.316  82.542  0.00  0.00    +0.000 OA
ATOM     29  O   UNL     1      10.398  34.748  81.876  0.00  0.00    +0.000 OA
ENDBRANCH   7  27
BRANCH   4  30
ATOM     30  C   UNL     1       5.825  37.394  81.238  0.00  0.00    +0.000 C 
BRANCH  30  31
ATOM     31  C   UNL     1       6.116  37.932  82.643  0.00  0.00    +0.000 C 
BRANCH  31  32
ATOM     32  C   UNL     1       5.392  39.229  82.904  0.00  0.00    +0.000 C 
ATOM     33  O   UNL     1       5.804  40.334  82.606  0.00  0.00    +0.000 OA
ATOM     34  O   UNL     1       4.220  39.036  83.555  0.00  0.00    +0.000 OA
ENDBRANCH  31  32
ENDBRANCH  30  31
ENDBRANCH   4  30
TORSDOF 8
ENDMDL
MODEL 5
REMARK VINA RESULT:      -7.1      3.971      5.415
REMARK  Name = 
REMARK  8 active torsions:
REMARK  status: ('A' for Active; 'I' for Inactive)
REMARK    1  A    between atoms: C_2  and  C_5
REMARK    2  A    between atoms: C_10  and  C_11
REMARK    3  A    between atoms: C_14  and  C_16
REMARK    4  A    between atoms: C_14  and  C_18
REMARK    5  A    between atoms: C_15  and  C_19
REMARK    6  A    between atoms: C_18  and  C_23
REMARK    7  A    between atoms: C_20  and  C_26
REMARK    8  A    between atoms: C_23  and  C_27
REMARK                            x       y       z     vdW  Elec       q    Type
REMARK                         _______ _______ _______ _____ _____    ______ ____
ROOT
ATOM      1  C   UNL     1       7.699  33.460  80.779  0.00  0.00    +0.000 C 
ATOM      2  O   UNL     1       8.183  32.665  81.578  0.00  0.00    +0.000 OA
ATOM      3  N   UNL     1       7.175  32.990  79.557  0.00  0.00    +0.000 N 
ATOM      4  C   UNL     1       6.812  31.548  79.370  0.00  0.00    +0.000 C 
ATOM      5  C   UNL     1       6.507  33.807  78.498  0.00  0.00    +0.000 C 
ATOM      6  C   UNL     1       6.639  31.521  77.809  0.00  0.00    +0.000 C 
ATOM      7  C   UNL     1       5.893  32.810  77.504  0.00  0.00    +0.000 C 
ENDROOT
BRANCH   1  13
ATOM      8  C   UNL     1       7.904  37.742  81.465  0.00  0.00    +0.000 A 
ATOM      9  C   UNL     1       9.067  37.010  81.190  0.00  0.00    +0.000 A 
ATOM     10  C   UNL     1       6.706  37.044  81.606  0.00  0.00    +0.000 A 
ATOM     11  C   UNL     1       9.008  35.612  80.996  0.00  0.00    +0.000 A 
ATOM     12  C   UNL     1       6.682  35.655  81.537  0.00  0.00    +0.000 A 
ATOM     13  C   UNL     1       7.787  34.929  81.107  0.00  0.00    +0.000 A 
BRANCH   8  15
ATOM     14  F   UNL     1       8.296  39.950  80.589  0.00  0.00    +0.000 F 
ATOM     15  C   UNL     1       7.873  39.238  81.664  0.00  0.00    +0.000 C 
ATOM     16  F   UNL     1       8.673  39.623  82.704  0.00  0.00    +0.000 F 
ATOM     17  F   UNL     1       6.630  39.705  81.971  0.00  0.00    +0.000 F 
ENDBRANCH   8  15
ENDBRANCH   1  13
BRANCH   5  18
ATOM     18  C   UNL     1       7.384  34.896  77.917  0.00  0.00    +0.000 A 
ATOM     19  C   UNL     1       8.678  34.669  77.436  0.00  0.00    +0.000 A 
ATOM     20  C   UNL     1       6.894  36.219  77.925  0.00  0.00    +0.000 A 
ATOM     21  C   UNL     1       9.469  35.741  77.013  0.00  0.00    +0.000 A 
ATOM     22  C   UNL     1       7.686  37.286  77.511  0.00  0.00    +0.000 A 
ATOM     23  C   UNL     1       8.975  37.045  77.055  0.00  0.00    +0.000 A 
ENDBRANCH   5  18
BRANCH   4  24
ATOM     24  C   UNL     1       7.856  30.442  79.647  0.00  0.00    +0.000 C 
ATOM     25  O   UNL     1       7.637  29.449  80.336  0.00  0.00    +0.000 OA
ATOM     26  O   UNL     1       9.000  30.542  78.922  0.00  0.00    +0.000 OA
ENDBRANCH   4  24
BRANCH   7  27
ATOM     27  C   UNL     1       5.754  33.368  76.108  0.00  0.00    +0.000 C 
ATOM     28  O   UNL     1       6.517  33.037  75.210  0.00  0.00    +0.000 OA
ATOM     29  O   UNL     1       4.781  34.263  75.892  0.00  0.00    +0.000 OA
ENDBRANCH   7  27
BRANCH   4  30
ATOM     30  C   UNL     1       5.471  31.186  80.074  0.00  0.00    +0.000 C 
BRANCH  30  31
ATOM     31  C   UNL     1       4.565  30.234  79.288  0.00  0.00    +0.000 C 
BRANCH  31  32
ATOM     32  C   UNL     1       4.077  29.093  80.146  0.00  0.00    +0.000 C 
ATOM     33  O   UNL     1       4.532  27.965  80.137  0.00  0.00    +0.000 OA
ATOM     34  O   UNL     1       3.028  29.453  80.923  0.00  0.00    +0.000 OA
ENDBRANCH  31  32
ENDBRANCH  30  31
ENDBRANCH   4  30
TORSDOF 8
ENDMDL
MODEL 6
REMARK VINA RESULT:      -7.0      1.739      2.325
REMARK  Name = 
REMARK  8 active torsions:
REMARK  status: ('A' for Active; 'I' for Inactive)
REMARK    1  A    between atoms: C_2  and  C_5
REMARK    2  A    between atoms: C_10  and  C_11
REMARK    3  A    between atoms: C_14  and  C_16
REMARK    4  A    between atoms: C_14  and  C_18
REMARK    5  A    between atoms: C_15  and  C_19
REMARK    6  A    between atoms: C_18  and  C_23
REMARK    7  A    between atoms: C_20  and  C_26
REMARK    8  A    between atoms: C_23  and  C_27
REMARK                            x       y       z     vdW  Elec       q    Type
REMARK                         _______ _______ _______ _____ _____    ______ ____
ROOT
ATOM      1  C   UNL     1       7.499  32.092  79.569  0.00  0.00    +0.000 C 
ATOM      2  O   UNL     1       7.670  31.196  80.389  0.00  0.00    +0.000 OA
ATOM      3  N   UNL     1       6.393  32.957  79.701  0.00  0.00    +0.000 N 
ATOM      4  C   UNL     1       5.662  33.092  81.003  0.00  0.00    +0.000 C 
ATOM      5  C   UNL     1       6.062  34.124  78.828  0.00  0.00    +0.000 C 
ATOM      6  C   UNL     1       4.382  33.855  80.506  0.00  0.00    +0.000 C 
ATOM      7  C   UNL     1       4.927  34.885  79.530  0.00  0.00    +0.000 C 
ENDROOT
BRANCH   1  13
ATOM      8  C   UNL     1      10.359  32.104  76.303  0.00  0.00    +0.000 A 
ATOM      9  C   UNL     1      10.426  33.077  77.310  0.00  0.00    +0.000 A 
ATOM     10  C   UNL     1       9.298  31.202  76.330  0.00  0.00    +0.000 A 
ATOM     11  C   UNL     1       9.479  33.094  78.358  0.00  0.00    +0.000 A 
ATOM     12  C   UNL     1       8.302  31.307  77.296  0.00  0.00    +0.000 A 
ATOM     13  C   UNL     1       8.436  32.155  78.390  0.00  0.00    +0.000 A 
BRANCH   8  15
ATOM     14  F   UNL     1      11.021  31.058  74.239  0.00  0.00    +0.000 F 
ATOM     15  C   UNL     1      11.341  32.000  75.161  0.00  0.00    +0.000 C 
ATOM     16  F   UNL     1      12.594  31.681  75.603  0.00  0.00    +0.000 F 
ATOM     17  F   UNL     1      11.485  33.173  74.481  0.00  0.00    +0.000 F 
ENDBRANCH   8  15
ENDBRANCH   1  13
BRANCH   5  18
ATOM     18  C   UNL     1       5.843  33.763  77.374  0.00  0.00    +0.000 A 
ATOM     19  C   UNL     1       5.025  32.706  76.958  0.00  0.00    +0.000 A 
ATOM     20  C   UNL     1       6.553  34.486  76.394  0.00  0.00    +0.000 A 
ATOM     21  C   UNL     1       4.954  32.363  75.605  0.00  0.00    +0.000 A 
ATOM     22  C   UNL     1       6.488  34.138  75.048  0.00  0.00    +0.000 A 
ATOM     23  C   UNL     1       5.687  33.074  74.655  0.00  0.00    +0.000 A 
ENDBRANCH   5  18
BRANCH   4  24
ATOM     24  C   UNL     1       5.097  31.840  81.710  0.00  0.00    +0.000 C 
ATOM     25  O   UNL     1       4.402  30.993  81.154  0.00  0.00    +0.000 OA
ATOM     26  O   UNL     1       5.570  31.630  82.965  0.00  0.00    +0.000 OA
ENDBRANCH   4  24
BRANCH   7  27
ATOM     27  C   UNL     1       4.050  35.660  78.578  0.00  0.00    +0.000 C 
ATOM     28  O   UNL     1       2.971  35.220  78.202  0.00  0.00    +0.000 OA
ATOM     29  O   UNL     1       4.506  36.838  78.133  0.00  0.00    +0.000 OA
ENDBRANCH   7  27
BRANCH   4  30
ATOM     30  C   UNL     1       6.450  33.958  82.029  0.00  0.00    +0.000 C 
BRANCH  30  31
ATOM     31  C   UNL     1       7.715  34.621  81.478  0.00  0.00    +0.000 C 
BRANCH  31  32
ATOM     32  C   UNL     1       8.962  34.060  82.116  0.00  0.00    +0.000 C 
ATOM     33  O   UNL     1      10.101  34.364  81.814  0.00  0.00    +0.000 OA
ATOM     34  O   UNL     1       8.678  33.133  83.062  0.00  0.00    +0.000 OA
ENDBRANCH  31  32
ENDBRANCH  30  31
ENDBRANCH   4  30
TORSDOF 8
ENDMDL
MODEL 7
REMARK VINA RESULT:      -7.0      4.396      7.033
REMARK  Name = 
REMARK  8 active torsions:
REMARK  status: ('A' for Active; 'I' for Inactive)
REMARK    1  A    between atoms: C_2  and  C_5
REMARK    2  A    between atoms: C_10  and  C_11
REMARK    3  A    between atoms: C_14  and  C_16
REMARK    4  A    between atoms: C_14  and  C_18
REMARK    5  A    between atoms: C_15  and  C_19
REMARK    6  A    between atoms: C_18  and  C_23
REMARK    7  A    between atoms: C_20  and  C_26
REMARK    8  A    between atoms: C_23  and  C_27
REMARK                            x       y       z     vdW  Elec       q    Type
REMARK                         _______ _______ _______ _____ _____    ______ ____
ROOT
ATOM      1  C   UNL     1       8.021  31.486  76.814  0.00  0.00    +0.000 C 
ATOM      2  O   UNL     1       8.818  30.562  76.686  0.00  0.00    +0.000 OA
ATOM      3  N   UNL     1       8.500  32.802  76.978  0.00  0.00    +0.000 N 
ATOM      4  C   UNL     1       9.901  33.173  76.596  0.00  0.00    +0.000 C 
ATOM      5  C   UNL     1       7.677  34.044  77.097  0.00  0.00    +0.000 C 
ATOM      6  C   UNL     1       9.999  34.578  77.291  0.00  0.00    +0.000 C 
ATOM      7  C   UNL     1       8.655  35.225  76.997  0.00  0.00    +0.000 C 
ENDROOT
BRANCH   1  13
ATOM      8  C   UNL     1       3.756  30.748  77.152  0.00  0.00    +0.000 A 
ATOM      9  C   UNL     1       4.629  30.356  78.177  0.00  0.00    +0.000 A 
ATOM     10  C   UNL     1       4.306  31.288  75.991  0.00  0.00    +0.000 A 
ATOM     11  C   UNL     1       6.021  30.568  78.057  0.00  0.00    +0.000 A 
ATOM     12  C   UNL     1       5.686  31.375  75.834  0.00  0.00    +0.000 A 
ATOM     13  C   UNL     1       6.555  31.146  76.894  0.00  0.00    +0.000 A 
BRANCH   8  15
ATOM     14  F   UNL     1       1.568  31.748  77.234  0.00  0.00    +0.000 F 
ATOM     15  C   UNL     1       2.258  30.579  77.208  0.00  0.00    +0.000 C 
ATOM     16  F   UNL     1       1.870  29.892  78.324  0.00  0.00    +0.000 F 
ATOM     17  F   UNL     1       1.767  29.866  76.155  0.00  0.00    +0.000 F 
ENDBRANCH   8  15
ENDBRANCH   1  13
BRANCH   5  18
ATOM     18  C   UNL     1       6.728  34.043  78.277  0.00  0.00    +0.000 A 
ATOM     19  C   UNL     1       7.121  33.720  79.580  0.00  0.00    +0.000 A 
ATOM     20  C   UNL     1       5.366  34.317  78.035  0.00  0.00    +0.000 A 
ATOM     21  C   UNL     1       6.169  33.636  80.600  0.00  0.00    +0.000 A 
ATOM     22  C   UNL     1       4.419  34.225  79.050  0.00  0.00    +0.000 A 
ATOM     23  C   UNL     1       4.822  33.883  80.334  0.00  0.00    +0.000 A 
ENDBRANCH   5  18
BRANCH   4  24
ATOM     24  C   UNL     1      11.099  32.388  77.176  0.00  0.00    +0.000 C 
ATOM     25  O   UNL     1      12.138  32.168  76.560  0.00  0.00    +0.000 OA
ATOM     26  O   UNL     1      11.006  32.100  78.500  0.00  0.00    +0.000 OA
ENDBRANCH   4  24
BRANCH   7  27
ATOM     27  C   UNL     1       8.167  36.465  77.704  0.00  0.00    +0.000 C 
ATOM     28  O   UNL     1       7.316  37.191  77.206  0.00  0.00    +0.000 OA
ATOM     29  O   UNL     1       8.720  36.763  78.887  0.00  0.00    +0.000 OA
ENDBRANCH   7  27
BRANCH   4  30
ATOM     30  C   UNL     1      10.069  33.314  75.054  0.00  0.00    +0.000 C 
BRANCH  30  31
ATOM     31  C   UNL     1      11.176  34.275  74.610  0.00  0.00    +0.000 C 
BRANCH  31  32
ATOM     32  C   UNL     1      11.951  33.728  73.437  0.00  0.00    +0.000 C 
ATOM     33  O   UNL     1      12.255  32.560  73.281  0.00  0.00    +0.000 OA
ATOM     34  O   UNL     1      12.316  34.701  72.569  0.00  0.00    +0.000 OA
ENDBRANCH  31  32
ENDBRANCH  30  31
ENDBRANCH   4  30
TORSDOF 8
ENDMDL
MODEL 8
REMARK VINA RESULT:      -7.0      2.236      5.053
REMARK  Name = 
REMARK  8 active torsions:
REMARK  status: ('A' for Active; 'I' for Inactive)
REMARK    1  A    between atoms: C_2  and  C_5
REMARK    2  A    between atoms: C_10  and  C_11
REMARK    3  A    between atoms: C_14  and  C_16
REMARK    4  A    between atoms: C_14  and  C_18
REMARK    5  A    between atoms: C_15  and  C_19
REMARK    6  A    between atoms: C_18  and  C_23
REMARK    7  A    between atoms: C_20  and  C_26
REMARK    8  A    between atoms: C_23  and  C_27
REMARK                            x       y       z     vdW  Elec       q    Type
REMARK                         _______ _______ _______ _____ _____    ______ ____
ROOT
ATOM      1  C   UNL     1       6.372  34.056  76.837  0.00  0.00    +0.000 C 
ATOM      2  O   UNL     1       5.857  34.773  75.985  0.00  0.00    +0.000 OA
ATOM      3  N   UNL     1       5.638  33.706  77.990  0.00  0.00    +0.000 N 
ATOM      4  C   UNL     1       4.144  33.827  78.027  0.00  0.00    +0.000 C 
ATOM      5  C   UNL     1       6.087  32.808  79.096  0.00  0.00    +0.000 C 
ATOM      6  C   UNL     1       3.907  33.665  79.571  0.00  0.00    +0.000 C 
ATOM      7  C   UNL     1       4.852  32.543  79.970  0.00  0.00    +0.000 C 
ENDROOT
BRANCH   1  13
ATOM      8  C   UNL     1      10.507  33.000  76.044  0.00  0.00    +0.000 A 
ATOM      9  C   UNL     1       9.502  32.024  75.996  0.00  0.00    +0.000 A 
ATOM     10  C   UNL     1      10.155  34.286  76.447  0.00  0.00    +0.000 A 
ATOM     11  C   UNL     1       8.160  32.358  76.282  0.00  0.00    +0.000 A 
ATOM     12  C   UNL     1       8.854  34.573  76.848  0.00  0.00    +0.000 A 
ATOM     13  C   UNL     1       7.816  33.668  76.652  0.00  0.00    +0.000 A 
BRANCH   8  15
ATOM     14  F   UNL     1      12.826  33.254  76.638  0.00  0.00    +0.000 F 
ATOM     15  C   UNL     1      11.960  32.734  75.732  0.00  0.00    +0.000 C 
ATOM     16  F   UNL     1      12.320  33.264  74.525  0.00  0.00    +0.000 F 
ATOM     17  F   UNL     1      12.246  31.404  75.645  0.00  0.00    +0.000 F 
ENDBRANCH   8  15
ENDBRANCH   1  13
BRANCH   5  18
ATOM     18  C   UNL     1       7.336  33.285  79.809  0.00  0.00    +0.000 A 
ATOM     19  C   UNL     1       7.512  34.599  80.256  0.00  0.00    +0.000 A 
ATOM     20  C   UNL     1       8.401  32.374  79.966  0.00  0.00    +0.000 A 
ATOM     21  C   UNL     1       8.733  34.995  80.809  0.00  0.00    +0.000 A 
ATOM     22  C   UNL     1       9.618  32.772  80.510  0.00  0.00    +0.000 A 
ATOM     23  C   UNL     1       9.783  34.085  80.931  0.00  0.00    +0.000 A 
ENDBRANCH   5  18
BRANCH   4  24
ATOM     24  C   UNL     1       3.464  35.171  77.685  0.00  0.00    +0.000 C 
ATOM     25  O   UNL     1       3.010  35.448  76.579  0.00  0.00    +0.000 OA
ATOM     26  O   UNL     1       3.231  35.981  78.751  0.00  0.00    +0.000 OA
ENDBRANCH   4  24
BRANCH   7  27
ATOM     27  C   UNL     1       5.193  32.226  81.405  0.00  0.00    +0.000 C 
ATOM     28  O   UNL     1       5.519  31.097  81.750  0.00  0.00    +0.000 OA
ATOM     29  O   UNL     1       5.099  33.219  82.299  0.00  0.00    +0.000 OA
ENDBRANCH   7  27
BRANCH   4  30
ATOM     30  C   UNL     1       3.445  32.676  77.245  0.00  0.00    +0.000 C 
BRANCH  30  31
ATOM     31  C   UNL     1       2.226  32.067  77.943  0.00  0.00    +0.000 C 
BRANCH  31  32
ATOM     32  C   UNL     1       2.150  30.575  77.732  0.00  0.00    +0.000 C 
ATOM     33  O   UNL     1       2.808  29.748  78.334  0.00  0.00    +0.000 OA
ATOM     34  O   UNL     1       1.275  30.243  76.753  0.00  0.00    +0.000 OA
ENDBRANCH  31  32
ENDBRANCH  30  31
ENDBRANCH   4  30
TORSDOF 8
ENDMDL
MODEL 9
REMARK VINA RESULT:      -6.9      4.460      6.912
REMARK  Name = 
REMARK  8 active torsions:
REMARK  status: ('A' for Active; 'I' for Inactive)
REMARK    1  A    between atoms: C_2  and  C_5
REMARK    2  A    between atoms: C_10  and  C_11
REMARK    3  A    between atoms: C_14  and  C_16
REMARK    4  A    between atoms: C_14  and  C_18
REMARK    5  A    between atoms: C_15  and  C_19
REMARK    6  A    between atoms: C_18  and  C_23
REMARK    7  A    between atoms: C_20  and  C_26
REMARK    8  A    between atoms: C_23  and  C_27
REMARK                            x       y       z     vdW  Elec       q    Type
REMARK                         _______ _______ _______ _____ _____    ______ ____
ROOT
ATOM      1  C   UNL     1       5.002  35.688  79.513  0.00  0.00    +0.000 C 
ATOM      2  O   UNL     1       4.399  36.693  79.873  0.00  0.00    +0.000 OA
ATOM      3  N   UNL     1       6.338  35.795  79.073  0.00  0.00    +0.000 N 
ATOM      4  C   UNL     1       7.173  36.994  79.408  0.00  0.00    +0.000 C 
ATOM      5  C   UNL     1       7.232  34.675  78.650  0.00  0.00    +0.000 C 
ATOM      6  C   UNL     1       8.370  36.764  78.418  0.00  0.00    +0.000 C 
ATOM      7  C   UNL     1       8.641  35.271  78.514  0.00  0.00    +0.000 C 
ENDROOT
BRANCH   1  13
ATOM      8  C   UNL     1       2.997  31.849  79.209  0.00  0.00    +0.000 A 
ATOM      9  C   UNL     1       2.684  32.887  78.320  0.00  0.00    +0.000 A 
ATOM     10  C   UNL     1       3.891  32.117  80.244  0.00  0.00    +0.000 A 
ATOM     11  C   UNL     1       3.313  34.147  78.435  0.00  0.00    +0.000 A 
ATOM     12  C   UNL     1       4.407  33.397  80.422  0.00  0.00    +0.000 A 
ATOM     13  C   UNL     1       4.238  34.389  79.462  0.00  0.00    +0.000 A 
BRANCH   8  15
ATOM     14  F   UNL     1       3.177  29.543  78.542  0.00  0.00    +0.000 F 
ATOM     15  C   UNL     1       2.389  30.469  79.145  0.00  0.00    +0.000 C 
ATOM     16  F   UNL     1       1.213  30.470  78.448  0.00  0.00    +0.000 F 
ATOM     17  F   UNL     1       2.080  29.970  80.376  0.00  0.00    +0.000 F 
ENDBRANCH   8  15
ENDBRANCH   1  13
BRANCH   5  18
ATOM     18  C   UNL     1       6.710  33.883  77.469  0.00  0.00    +0.000 A 
ATOM     19  C   UNL     1       6.274  34.474  76.278  0.00  0.00    +0.000 A 
ATOM     20  C   UNL     1       6.596  32.484  77.605  0.00  0.00    +0.000 A 
ATOM     21  C   UNL     1       5.705  33.689  75.272  0.00  0.00    +0.000 A 
ATOM     22  C   UNL     1       6.022  31.705  76.605  0.00  0.00    +0.000 A 
ATOM     23  C   UNL     1       5.576  32.310  75.438  0.00  0.00    +0.000 A 
ENDBRANCH   5  18
BRANCH   4  24
ATOM     24  C   UNL     1       6.670  38.413  79.060  0.00  0.00    +0.000 C 
ATOM     25  O   UNL     1       6.857  39.399  79.768  0.00  0.00    +0.000 OA
ATOM     26  O   UNL     1       6.153  38.546  77.812  0.00  0.00    +0.000 OA
ENDBRANCH   4  24
BRANCH   7  27
ATOM     27  C   UNL     1       9.511  34.529  77.529  0.00  0.00    +0.000 C 
ATOM     28  O   UNL     1       9.721  34.968  76.406  0.00  0.00    +0.000 OA
ATOM     29  O   UNL     1      10.024  33.354  77.917  0.00  0.00    +0.000 OA
ENDBRANCH   7  27
BRANCH   4  30
ATOM     30  C   UNL     1       7.671  36.965  80.883  0.00  0.00    +0.000 C 
BRANCH  30  31
ATOM     31  C   UNL     1       9.112  37.443  81.088  0.00  0.00    +0.000 C 
BRANCH  31  32
ATOM     32  C   UNL     1       9.907  36.474  81.927  0.00  0.00    +0.000 C 
ATOM     33  O   UNL     1      10.964  36.725  82.475  0.00  0.00    +0.000 OA
ATOM     34  O   UNL     1       9.327  35.251  81.980  0.00  0.00    +0.000 OA
ENDBRANCH  31  32
ENDBRANCH  30  31
ENDBRANCH   4  30
TORSDOF 8
ENDMDL
