MODEL 1
REMARK VINA RESULT:      -7.3      0.000      0.000
REMARK  Name = 
REMARK  9 active torsions:
REMARK  status: ('A' for Active; 'I' for Inactive)
REMARK    1  A    between atoms: C_2  and  C_5
REMARK    2  A    between atoms: C_10  and  C_11
REMARK    3  A    between atoms: C_14  and  C_16
REMARK    4  A    between atoms: C_14  and  C_18
REMARK    5  A    between atoms: C_15  and  C_19
REMARK    6  A    between atoms: C_18  and  C_23
REMARK    7  A    between atoms: C_20  and  C_26
REMARK    8  A    between atoms: C_23  and  C_27
REMARK    9  A    between atoms: C_23  and  C_28
REMARK                            x       y       z     vdW  Elec       q    Type
REMARK                         _______ _______ _______ _____ _____    ______ ____
ROOT
ATOM      1  C   UNL     1       7.522  30.565  78.977  0.00  0.00    +0.000 C 
ATOM      2  O   UNL     1       7.683  29.362  79.162  0.00  0.00    +0.000 OA
ATOM      3  N   UNL     1       6.331  31.169  79.394  0.00  0.00    +0.000 N 
ATOM      4  C   UNL     1       5.415  30.511  80.384  0.00  0.00    +0.000 C 
ATOM      5  C   UNL     1       5.870  32.557  79.112  0.00  0.00    +0.000 C 
ATOM      6  C   UNL     1       4.079  31.210  79.962  0.00  0.00    +0.000 C 
ATOM      7  C   UNL     1       4.468  32.669  79.733  0.00  0.00    +0.000 C 
ENDROOT
BRANCH   1  13
ATOM      8  C   UNL     1      10.217  32.809  76.467  0.00  0.00    +0.000 A 
ATOM      9  C   UNL     1       9.465  31.747  75.948  0.00  0.00    +0.000 A 
ATOM     10  C   UNL     1      10.164  33.053  77.847  0.00  0.00    +0.000 A 
ATOM     11  C   UNL     1       8.630  30.993  76.784  0.00  0.00    +0.000 A 
ATOM     12  C   UNL     1       9.401  32.246  78.689  0.00  0.00    +0.000 A 
ATOM     13  C   UNL     1       8.551  31.275  78.157  0.00  0.00    +0.000 A 
BRANCH   8  15
ATOM     14  F   UNL     1      11.448  33.122  74.425  0.00  0.00    +0.000 F 
ATOM     15  C   UNL     1      11.082  33.693  75.605  0.00  0.00    +0.000 C 
ATOM     16  F   UNL     1      12.245  34.034  76.230  0.00  0.00    +0.000 F 
ATOM     17  F   UNL     1      10.477  34.870  75.286  0.00  0.00    +0.000 F 
ENDBRANCH   8  15
ENDBRANCH   1  13
BRANCH   5  18
ATOM     18  C   UNL     1       5.975  33.008  77.671  0.00  0.00    +0.000 A 
ATOM     19  C   UNL     1       5.444  32.271  76.605  0.00  0.00    +0.000 A 
ATOM     20  C   UNL     1       6.688  34.189  77.384  0.00  0.00    +0.000 A 
ATOM     21  C   UNL     1       5.667  32.673  75.287  0.00  0.00    +0.000 A 
ATOM     22  C   UNL     1       6.896  34.597  76.068  0.00  0.00    +0.000 A 
ATOM     23  C   UNL     1       6.391  33.834  75.020  0.00  0.00    +0.000 A 
ENDBRANCH   5  18
BRANCH   4  24
ATOM     24  C   UNL     1       5.038  28.998  80.292  0.00  0.00    +0.000 C 
ATOM     25  O   UNL     1       5.177  28.218  81.230  0.00  0.00    +0.000 OA
ATOM     26  O   UNL     1       4.382  28.632  79.175  0.00  0.00    +0.000 OA
ENDBRANCH   4  24
BRANCH   7  27
ATOM     27  C   UNL     1       3.458  33.441  78.924  0.00  0.00    +0.000 C 
ATOM     28  O   UNL     1       3.443  34.657  78.804  0.00  0.00    +0.000 OA
ATOM     29  O   UNL     1       2.543  32.649  78.307  0.00  0.00    +0.000 OA
ENDBRANCH   7  27
BRANCH   4  30
ATOM     30  C   UNL     1       5.701  30.908  81.878  0.00  0.00    +0.000 C 
BRANCH  30  31
ATOM     31  C   UNL     1       7.134  30.873  82.452  0.00  0.00    +0.000 C 
ATOM     32  C   UNL     1       7.830  32.230  82.464  0.00  0.00    +0.000 C 
ATOM     33  C   UNL     1       7.076  30.395  83.917  0.00  0.00    +0.000 C 
ENDBRANCH  30  31
ENDBRANCH   4  30
TORSDOF 7
ENDMDL
MODEL 2
REMARK VINA RESULT:      -6.8      2.982      4.437
REMARK  Name = 
REMARK  9 active torsions:
REMARK  status: ('A' for Active; 'I' for Inactive)
REMARK    1  A    between atoms: C_2  and  C_5
REMARK    2  A    between atoms: C_10  and  C_11
REMARK    3  A    between atoms: C_14  and  C_16
REMARK    4  A    between atoms: C_14  and  C_18
REMARK    5  A    between atoms: C_15  and  C_19
REMARK    6  A    between atoms: C_18  and  C_23
REMARK    7  A    between atoms: C_20  and  C_26
REMARK    8  A    between atoms: C_23  and  C_27
REMARK    9  A    between atoms: C_23  and  C_28
REMARK                            x       y       z     vdW  Elec       q    Type
REMARK                         _______ _______ _______ _____ _____    ______ ____
ROOT
ATOM      1  C   UNL     1       8.389  34.355  79.198  0.00  0.00    +0.000 C 
ATOM      2  O   UNL     1       8.919  34.217  80.297  0.00  0.00    +0.000 OA
ATOM      3  N   UNL     1       7.159  35.015  79.108  0.00  0.00    +0.000 N 
ATOM      4  C   UNL     1       6.647  35.887  80.216  0.00  0.00    +0.000 C 
ATOM      5  C   UNL     1       6.277  35.133  77.913  0.00  0.00    +0.000 C 
ATOM      6  C   UNL     1       5.116  35.776  79.908  0.00  0.00    +0.000 C 
ATOM      7  C   UNL     1       5.024  35.887  78.387  0.00  0.00    +0.000 C 
ENDROOT
BRANCH   1  13
ATOM      8  C   UNL     1      10.532  32.376  76.021  0.00  0.00    +0.000 A 
ATOM      9  C   UNL     1      10.481  33.774  76.093  0.00  0.00    +0.000 A 
ATOM     10  C   UNL     1       9.775  31.632  76.936  0.00  0.00    +0.000 A 
ATOM     11  C   UNL     1       9.740  34.406  77.101  0.00  0.00    +0.000 A 
ATOM     12  C   UNL     1       8.970  32.264  77.882  0.00  0.00    +0.000 A 
ATOM     13  C   UNL     1       9.021  33.650  78.040  0.00  0.00    +0.000 A 
BRANCH   8  15
ATOM     14  F   UNL     1      11.477  32.298  73.811  0.00  0.00    +0.000 F 
ATOM     15  C   UNL     1      11.363  31.643  74.998  0.00  0.00    +0.000 C 
ATOM     16  F   UNL     1      10.840  30.419  74.700  0.00  0.00    +0.000 F 
ATOM     17  F   UNL     1      12.633  31.407  75.425  0.00  0.00    +0.000 F 
ENDBRANCH   8  15
ENDBRANCH   1  13
BRANCH   5  18
ATOM     18  C   UNL     1       6.012  33.847  77.159  0.00  0.00    +0.000 A 
ATOM     19  C   UNL     1       6.183  33.732  75.774  0.00  0.00    +0.000 A 
ATOM     20  C   UNL     1       5.518  32.737  77.873  0.00  0.00    +0.000 A 
ATOM     21  C   UNL     1       5.816  32.558  75.113  0.00  0.00    +0.000 A 
ATOM     22  C   UNL     1       5.167  31.562  77.212  0.00  0.00    +0.000 A 
ATOM     23  C   UNL     1       5.310  31.476  75.831  0.00  0.00    +0.000 A 
ENDBRANCH   5  18
BRANCH   4  24
ATOM     24  C   UNL     1       6.713  35.454  81.715  0.00  0.00    +0.000 C 
ATOM     25  O   UNL     1       7.259  36.131  82.581  0.00  0.00    +0.000 OA
ATOM     26  O   UNL     1       5.978  34.373  82.037  0.00  0.00    +0.000 OA
ENDBRANCH   4  24
BRANCH   7  27
ATOM     27  C   UNL     1       3.717  35.392  77.826  0.00  0.00    +0.000 C 
ATOM     28  O   UNL     1       3.361  35.526  76.664  0.00  0.00    +0.000 OA
ATOM     29  O   UNL     1       2.946  34.750  78.742  0.00  0.00    +0.000 OA
ENDBRANCH   7  27
BRANCH   4  30
ATOM     30  C   UNL     1       7.047  37.401  80.072  0.00  0.00    +0.000 C 
BRANCH  30  31
ATOM     31  C   UNL     1       8.506  37.818  79.788  0.00  0.00    +0.000 C 
ATOM     32  C   UNL     1       8.859  37.867  78.305  0.00  0.00    +0.000 C 
ATOM     33  C   UNL     1       8.741  39.236  80.345  0.00  0.00    +0.000 C 
ENDBRANCH  30  31
ENDBRANCH   4  30
TORSDOF 7
ENDMDL
MODEL 3
REMARK VINA RESULT:      -6.8      3.867      6.016
REMARK  Name = 
REMARK  9 active torsions:
REMARK  status: ('A' for Active; 'I' for Inactive)
REMARK    1  A    between atoms: C_2  and  C_5
REMARK    2  A    between atoms: C_10  and  C_11
REMARK    3  A    between atoms: C_14  and  C_16
REMARK    4  A    between atoms: C_14  and  C_18
REMARK    5  A    between atoms: C_15  and  C_19
REMARK    6  A    between atoms: C_18  and  C_23
REMARK    7  A    between atoms: C_20  and  C_26
REMARK    8  A    between atoms: C_23  and  C_27
REMARK    9  A    between atoms: C_23  and  C_28
REMARK                            x       y       z     vdW  Elec       q    Type
REMARK                         _______ _______ _______ _____ _____    ______ ____
ROOT
ATOM      1  C   UNL     1       4.688  33.376  80.036  0.00  0.00    +0.000 C 
ATOM      2  O   UNL     1       3.640  33.809  80.507  0.00  0.00    +0.000 OA
ATOM      3  N   UNL     1       5.338  34.100  79.031  0.00  0.00    +0.000 N 
ATOM      4  C   UNL     1       5.030  35.545  78.773  0.00  0.00    +0.000 C 
ATOM      5  C   UNL     1       6.508  33.670  78.214  0.00  0.00    +0.000 C 
ATOM      6  C   UNL     1       5.462  35.608  77.269  0.00  0.00    +0.000 C 
ATOM      7  C   UNL     1       6.762  34.808  77.211  0.00  0.00    +0.000 C 
ENDROOT
BRANCH   1  13
ATOM      8  C   UNL     1       6.021  29.366  80.898  0.00  0.00    +0.000 A 
ATOM      9  C   UNL     1       4.800  29.596  80.250  0.00  0.00    +0.000 A 
ATOM     10  C   UNL     1       6.746  30.470  81.366  0.00  0.00    +0.000 A 
ATOM     11  C   UNL     1       4.353  30.904  80.020  0.00  0.00    +0.000 A 
ATOM     12  C   UNL     1       6.257  31.767  81.214  0.00  0.00    +0.000 A 
ATOM     13  C   UNL     1       5.111  32.004  80.454  0.00  0.00    +0.000 A 
BRANCH   8  15
ATOM     14  F   UNL     1       5.660  26.990  80.979  0.00  0.00    +0.000 F 
ATOM     15  C   UNL     1       6.580  27.983  81.116  0.00  0.00    +0.000 C 
ATOM     16  F   UNL     1       7.104  27.836  82.367  0.00  0.00    +0.000 F 
ATOM     17  F   UNL     1       7.592  27.685  80.256  0.00  0.00    +0.000 F 
ENDBRANCH   8  15
ENDBRANCH   1  13
BRANCH   5  18
ATOM     18  C   UNL     1       6.419  32.285  77.611  0.00  0.00    +0.000 A 
ATOM     19  C   UNL     1       5.310  31.849  76.876  0.00  0.00    +0.000 A 
ATOM     20  C   UNL     1       7.472  31.378  77.847  0.00  0.00    +0.000 A 
ATOM     21  C   UNL     1       5.230  30.525  76.438  0.00  0.00    +0.000 A 
ATOM     22  C   UNL     1       7.395  30.062  77.395  0.00  0.00    +0.000 A 
ATOM     23  C   UNL     1       6.271  29.635  76.697  0.00  0.00    +0.000 A 
ENDBRANCH   5  18
BRANCH   4  24
ATOM     24  C   UNL     1       3.567  36.089  78.718  0.00  0.00    +0.000 C 
ATOM     25  O   UNL     1       3.143  36.942  79.492  0.00  0.00    +0.000 OA
ATOM     26  O   UNL     1       2.844  35.695  77.653  0.00  0.00    +0.000 OA
ENDBRANCH   4  24
BRANCH   7  27
ATOM     27  C   UNL     1       7.140  34.375  75.820  0.00  0.00    +0.000 C 
ATOM     28  O   UNL     1       6.379  34.357  74.863  0.00  0.00    +0.000 OA
ATOM     29  O   UNL     1       8.443  34.006  75.705  0.00  0.00    +0.000 OA
ENDBRANCH   7  27
BRANCH   4  30
ATOM     30  C   UNL     1       5.949  36.544  79.567  0.00  0.00    +0.000 C 
BRANCH  30  31
ATOM     31  C   UNL     1       6.361  36.259  81.028  0.00  0.00    +0.000 C 
ATOM     32  C   UNL     1       7.752  35.651  81.172  0.00  0.00    +0.000 C 
ATOM     33  C   UNL     1       6.376  37.586  81.813  0.00  0.00    +0.000 C 
ENDBRANCH  30  31
ENDBRANCH   4  30
TORSDOF 7
ENDMDL
MODEL 4
REMARK VINA RESULT:      -6.6      2.685      4.047
REMARK  Name = 
REMARK  9 active torsions:
REMARK  status: ('A' for Active; 'I' for Inactive)
REMARK    1  A    between atoms: C_2  and  C_5
REMARK    2  A    between atoms: C_10  and  C_11
REMARK    3  A    between atoms: C_14  and  C_16
REMARK    4  A    between atoms: C_14  and  C_18
REMARK    5  A    between atoms: C_15  and  C_19
REMARK    6  A    between atoms: C_18  and  C_23
REMARK    7  A    between atoms: C_20  and  C_26
REMARK    8  A    between atoms: C_23  and  C_27
REMARK    9  A    between atoms: C_23  and  C_28
REMARK                            x       y       z     vdW  Elec       q    Type
REMARK                         _______ _______ _______ _____ _____    ______ ____
ROOT
ATOM      1  C   UNL     1       6.889  32.392  80.611  0.00  0.00    +0.000 C 
ATOM      2  O   UNL     1       7.299  31.879  81.648  0.00  0.00    +0.000 OA
ATOM      3  N   UNL     1       6.215  31.600  79.674  0.00  0.00    +0.000 N 
ATOM      4  C   UNL     1       5.639  30.264  80.038  0.00  0.00    +0.000 C 
ATOM      5  C   UNL     1       5.798  31.981  78.295  0.00  0.00    +0.000 C 
ATOM      6  C   UNL     1       5.656  29.611  78.614  0.00  0.00    +0.000 C 
ATOM      7  C   UNL     1       5.173  30.718  77.680  0.00  0.00    +0.000 C 
ENDROOT
BRANCH   1  13
ATOM      8  C   UNL     1       8.093  36.376  79.481  0.00  0.00    +0.000 A 
ATOM      9  C   UNL     1       9.041  35.359  79.656  0.00  0.00    +0.000 A 
ATOM     10  C   UNL     1       6.755  36.102  79.795  0.00  0.00    +0.000 A 
ATOM     11  C   UNL     1       8.643  34.081  80.072  0.00  0.00    +0.000 A 
ATOM     12  C   UNL     1       6.375  34.856  80.292  0.00  0.00    +0.000 A 
ATOM     13  C   UNL     1       7.292  33.806  80.340  0.00  0.00    +0.000 A 
BRANCH   8  15
ATOM     14  F   UNL     1       9.229  38.465  79.836  0.00  0.00    +0.000 F 
ATOM     15  C   UNL     1       8.455  37.749  78.975  0.00  0.00    +0.000 C 
ATOM     16  F   UNL     1       7.350  38.515  78.743  0.00  0.00    +0.000 F 
ATOM     17  F   UNL     1       9.133  37.712  77.795  0.00  0.00    +0.000 F 
ENDBRANCH   8  15
ENDBRANCH   1  13
BRANCH   5  18
ATOM     18  C   UNL     1       6.855  32.657  77.449  0.00  0.00    +0.000 A 
ATOM     19  C   UNL     1       8.142  32.129  77.281  0.00  0.00    +0.000 A 
ATOM     20  C   UNL     1       6.551  33.896  76.852  0.00  0.00    +0.000 A 
ATOM     21  C   UNL     1       9.114  32.849  76.583  0.00  0.00    +0.000 A 
ATOM     22  C   UNL     1       7.519  34.605  76.143  0.00  0.00    +0.000 A 
ATOM     23  C   UNL     1       8.802  34.083  76.015  0.00  0.00    +0.000 A 
ENDBRANCH   5  18
BRANCH   4  24
ATOM     24  C   UNL     1       6.429  29.219  80.888  0.00  0.00    +0.000 C 
ATOM     25  O   UNL     1       7.496  28.732  80.524  0.00  0.00    +0.000 OA
ATOM     26  O   UNL     1       5.960  29.013  82.133  0.00  0.00    +0.000 OA
ENDBRANCH   4  24
BRANCH   7  27
ATOM     27  C   UNL     1       5.503  30.470  76.232  0.00  0.00    +0.000 C 
ATOM     28  O   UNL     1       4.967  31.033  75.288  0.00  0.00    +0.000 OA
ATOM     29  O   UNL     1       6.485  29.549  76.053  0.00  0.00    +0.000 OA
ENDBRANCH   7  27
BRANCH   4  30
ATOM     30  C   UNL     1       4.140  30.322  80.509  0.00  0.00    +0.000 C 
BRANCH  30  31
ATOM     31  C   UNL     1       3.384  31.666  80.599  0.00  0.00    +0.000 C 
ATOM     32  C   UNL     1       1.897  31.563  80.280  0.00  0.00    +0.000 C 
ATOM     33  C   UNL     1       3.490  32.205  82.040  0.00  0.00    +0.000 C 
ENDBRANCH  30  31
ENDBRANCH   4  30
TORSDOF 7
ENDMDL
MODEL 5
REMARK VINA RESULT:      -6.6      4.293      6.520
REMARK  Name = 
REMARK  9 active torsions:
REMARK  status: ('A' for Active; 'I' for Inactive)
REMARK    1  A    between atoms: C_2  and  C_5
REMARK    2  A    between atoms: C_10  and  C_11
REMARK    3  A    between atoms: C_14  and  C_16
REMARK    4  A    between atoms: C_14  and  C_18
REMARK    5  A    between atoms: C_15  and  C_19
REMARK    6  A    between atoms: C_18  and  C_23
REMARK    7  A    between atoms: C_20  and  C_26
REMARK    8  A    between atoms: C_23  and  C_27
REMARK    9  A    between atoms: C_23  and  C_28
REMARK                            x       y       z     vdW  Elec       q    Type
REMARK                         _______ _______ _______ _____ _____    ______ ____
ROOT
ATOM      1  C   UNL     1       6.114  36.004  78.286  0.00  0.00    +0.000 C 
ATOM      2  O   UNL     1       5.998  37.092  77.730  0.00  0.00    +0.000 OA
ATOM      3  N   UNL     1       6.775  35.930  79.517  0.00  0.00    +0.000 N 
ATOM      4  C   UNL     1       7.009  37.147  80.363  0.00  0.00    +0.000 C 
ATOM      5  C   UNL     1       7.171  34.702  80.263  0.00  0.00    +0.000 C 
ATOM      6  C   UNL     1       8.263  36.641  81.152  0.00  0.00    +0.000 C 
ATOM      7  C   UNL     1       7.934  35.192  81.505  0.00  0.00    +0.000 C 
ENDROOT
BRANCH   1  13
ATOM      8  C   UNL     1       5.166  32.342  76.214  0.00  0.00    +0.000 A 
ATOM      9  C   UNL     1       6.162  33.203  75.736  0.00  0.00    +0.000 A 
ATOM     10  C   UNL     1       4.403  32.751  77.316  0.00  0.00    +0.000 A 
ATOM     11  C   UNL     1       6.427  34.415  76.389  0.00  0.00    +0.000 A 
ATOM     12  C   UNL     1       4.609  33.995  77.910  0.00  0.00    +0.000 A 
ATOM     13  C   UNL     1       5.685  34.794  77.519  0.00  0.00    +0.000 A 
BRANCH   8  15
ATOM     14  F   UNL     1       4.604  31.059  74.260  0.00  0.00    +0.000 F 
ATOM     15  C   UNL     1       4.882  30.999  75.590  0.00  0.00    +0.000 C 
ATOM     16  F   UNL     1       3.808  30.387  76.167  0.00  0.00    +0.000 F 
ATOM     17  F   UNL     1       5.918  30.128  75.724  0.00  0.00    +0.000 F 
ENDBRANCH   8  15
ENDBRANCH   1  13
BRANCH   5  18
ATOM     18  C   UNL     1       7.875  33.636  79.452  0.00  0.00    +0.000 A 
ATOM     19  C   UNL     1       8.984  33.908  78.642  0.00  0.00    +0.000 A 
ATOM     20  C   UNL     1       7.358  32.325  79.469  0.00  0.00    +0.000 A 
ATOM     21  C   UNL     1       9.525  32.912  77.828  0.00  0.00    +0.000 A 
ATOM     22  C   UNL     1       7.910  31.328  78.666  0.00  0.00    +0.000 A 
ATOM     23  C   UNL     1       8.989  31.625  77.841  0.00  0.00    +0.000 A 
ENDBRANCH   5  18
BRANCH   4  24
ATOM     24  C   UNL     1       7.520  38.494  79.761  0.00  0.00    +0.000 C 
ATOM     25  O   UNL     1       6.828  39.508  79.713  0.00  0.00    +0.000 OA
ATOM     26  O   UNL     1       8.831  38.531  79.456  0.00  0.00    +0.000 OA
ENDBRANCH   4  24
BRANCH   7  27
ATOM     27  C   UNL     1       9.141  34.378  81.890  0.00  0.00    +0.000 C 
ATOM     28  O   UNL     1      10.298  34.689  81.649  0.00  0.00    +0.000 OA
ATOM     29  O   UNL     1       8.830  33.238  82.560  0.00  0.00    +0.000 OA
ENDBRANCH   7  27
BRANCH   4  30
ATOM     30  C   UNL     1       5.872  37.421  81.414  0.00  0.00    +0.000 C 
BRANCH  30  31
ATOM     31  C   UNL     1       6.181  38.105  82.763  0.00  0.00    +0.000 C 
ATOM     32  C   UNL     1       5.439  39.420  82.977  0.00  0.00    +0.000 C 
ATOM     33  C   UNL     1       5.756  37.167  83.911  0.00  0.00    +0.000 C 
ENDBRANCH  30  31
ENDBRANCH   4  30
TORSDOF 7
ENDMDL
MODEL 6
REMARK VINA RESULT:      -6.5      1.962      2.438
REMARK  Name = 
REMARK  9 active torsions:
REMARK  status: ('A' for Active; 'I' for Inactive)
REMARK    1  A    between atoms: C_2  and  C_5
REMARK    2  A    between atoms: C_10  and  C_11
REMARK    3  A    between atoms: C_14  and  C_16
REMARK    4  A    between atoms: C_14  and  C_18
REMARK    5  A    between atoms: C_15  and  C_19
REMARK    6  A    between atoms: C_18  and  C_23
REMARK    7  A    between atoms: C_20  and  C_26
REMARK    8  A    between atoms: C_23  and  C_27
REMARK    9  A    between atoms: C_23  and  C_28
REMARK                            x       y       z     vdW  Elec       q    Type
REMARK                         _______ _______ _______ _____ _____    ______ ____
ROOT
ATOM      1  C   UNL     1       6.908  32.052  80.176  0.00  0.00    +0.000 C 
ATOM      2  O   UNL     1       6.697  31.078  80.893  0.00  0.00    +0.000 OA
ATOM      3  N   UNL     1       6.060  33.161  80.259  0.00  0.00    +0.000 N 
ATOM      4  C   UNL     1       5.150  33.374  81.433  0.00  0.00    +0.000 C 
ATOM      5  C   UNL     1       6.036  34.355  79.368  0.00  0.00    +0.000 C 
ATOM      6  C   UNL     1       4.064  34.254  80.726  0.00  0.00    +0.000 C 
ATOM      7  C   UNL     1       4.864  35.222  79.856  0.00  0.00    +0.000 C 
ENDROOT
BRANCH   1  13
ATOM      8  C   UNL     1       9.756  31.862  76.943  0.00  0.00    +0.000 A 
ATOM      9  C   UNL     1       8.609  31.057  76.941  0.00  0.00    +0.000 A 
ATOM     10  C   UNL     1      10.019  32.647  78.075  0.00  0.00    +0.000 A 
ATOM     11  C   UNL     1       7.717  31.090  78.021  0.00  0.00    +0.000 A 
ATOM     12  C   UNL     1       9.175  32.612  79.184  0.00  0.00    +0.000 A 
ATOM     13  C   UNL     1       7.968  31.914  79.130  0.00  0.00    +0.000 A 
BRANCH   8  15
ATOM     14  F   UNL     1      10.693  30.802  74.999  0.00  0.00    +0.000 F 
ATOM     15  C   UNL     1      10.717  31.914  75.783  0.00  0.00    +0.000 C 
ATOM     16  F   UNL     1      12.009  32.050  76.197  0.00  0.00    +0.000 F 
ATOM     17  F   UNL     1      10.483  32.969  74.954  0.00  0.00    +0.000 F 
ENDBRANCH   8  15
ENDBRANCH   1  13
BRANCH   5  18
ATOM     18  C   UNL     1       6.052  34.069  77.882  0.00  0.00    +0.000 A 
ATOM     19  C   UNL     1       5.154  33.185  77.270  0.00  0.00    +0.000 A 
ATOM     20  C   UNL     1       7.048  34.674  77.089  0.00  0.00    +0.000 A 
ATOM     21  C   UNL     1       5.285  32.871  75.916  0.00  0.00    +0.000 A 
ATOM     22  C   UNL     1       7.166  34.370  75.734  0.00  0.00    +0.000 A 
ATOM     23  C   UNL     1       6.287  33.463  75.151  0.00  0.00    +0.000 A 
ENDBRANCH   5  18
BRANCH   4  24
ATOM     24  C   UNL     1       4.292  32.220  82.042  0.00  0.00    +0.000 C 
ATOM     25  O   UNL     1       3.539  31.522  81.369  0.00  0.00    +0.000 OA
ATOM     26  O   UNL     1       4.560  31.916  83.326  0.00  0.00    +0.000 OA
ENDBRANCH   4  24
BRANCH   7  27
ATOM     27  C   UNL     1       4.045  35.877  78.775  0.00  0.00    +0.000 C 
ATOM     28  O   UNL     1       4.388  36.865  78.142  0.00  0.00    +0.000 OA
ATOM     29  O   UNL     1       2.862  35.252  78.543  0.00  0.00    +0.000 OA
ENDBRANCH   7  27
BRANCH   4  30
ATOM     30  C   UNL     1       5.782  34.242  82.581  0.00  0.00    +0.000 C 
BRANCH  30  31
ATOM     31  C   UNL     1       7.312  34.418  82.697  0.00  0.00    +0.000 C 
ATOM     32  C   UNL     1       7.738  35.731  83.346  0.00  0.00    +0.000 C 
ATOM     33  C   UNL     1       7.882  33.286  83.577  0.00  0.00    +0.000 C 
ENDBRANCH  30  31
ENDBRANCH   4  30
TORSDOF 7
ENDMDL
MODEL 7
REMARK VINA RESULT:      -6.4      4.467      6.962
REMARK  Name = 
REMARK  9 active torsions:
REMARK  status: ('A' for Active; 'I' for Inactive)
REMARK    1  A    between atoms: C_2  and  C_5
REMARK    2  A    between atoms: C_10  and  C_11
REMARK    3  A    between atoms: C_14  and  C_16
REMARK    4  A    between atoms: C_14  and  C_18
REMARK    5  A    between atoms: C_15  and  C_19
REMARK    6  A    between atoms: C_18  and  C_23
REMARK    7  A    between atoms: C_20  and  C_26
REMARK    8  A    between atoms: C_23  and  C_27
REMARK    9  A    between atoms: C_23  and  C_28
REMARK                            x       y       z     vdW  Elec       q    Type
REMARK                         _______ _______ _______ _____ _____    ______ ____
ROOT
ATOM      1  C   UNL     1       5.034  35.624  79.707  0.00  0.00    +0.000 C 
ATOM      2  O   UNL     1       4.444  36.665  79.981  0.00  0.00    +0.000 OA
ATOM      3  N   UNL     1       6.409  35.663  79.454  0.00  0.00    +0.000 N 
ATOM      4  C   UNL     1       7.257  36.828  79.872  0.00  0.00    +0.000 C 
ATOM      5  C   UNL     1       7.269  34.560  78.940  0.00  0.00    +0.000 C 
ATOM      6  C   UNL     1       8.405  36.666  78.819  0.00  0.00    +0.000 C 
ATOM      7  C   UNL     1       8.674  35.164  78.774  0.00  0.00    +0.000 C 
ENDROOT
BRANCH   1  13
ATOM      8  C   UNL     1       2.858  32.010  78.813  0.00  0.00    +0.000 A 
ATOM      9  C   UNL     1       2.690  33.163  78.035  0.00  0.00    +0.000 A 
ATOM     10  C   UNL     1       3.660  32.089  79.960  0.00  0.00    +0.000 A 
ATOM     11  C   UNL     1       3.364  34.346  78.365  0.00  0.00    +0.000 A 
ATOM     12  C   UNL     1       4.259  33.291  80.334  0.00  0.00    +0.000 A 
ATOM     13  C   UNL     1       4.201  34.402  79.491  0.00  0.00    +0.000 A 
BRANCH   8  15
ATOM     14  F   UNL     1       1.555  30.698  77.275  0.00  0.00    +0.000 F 
ATOM     15  C   UNL     1       2.209  30.693  78.469  0.00  0.00    +0.000 C 
ATOM     16  F   UNL     1       1.282  30.324  79.399  0.00  0.00    +0.000 F 
ATOM     17  F   UNL     1       3.101  29.667  78.410  0.00  0.00    +0.000 F 
ENDBRANCH   8  15
ENDBRANCH   1  13
BRANCH   5  18
ATOM     18  C   UNL     1       6.738  33.817  77.733  0.00  0.00    +0.000 A 
ATOM     19  C   UNL     1       6.303  34.470  76.573  0.00  0.00    +0.000 A 
ATOM     20  C   UNL     1       6.624  32.414  77.800  0.00  0.00    +0.000 A 
ATOM     21  C   UNL     1       5.717  33.746  75.533  0.00  0.00    +0.000 A 
ATOM     22  C   UNL     1       6.053  31.692  76.754  0.00  0.00    +0.000 A 
ATOM     23  C   UNL     1       5.594  32.361  75.624  0.00  0.00    +0.000 A 
ENDBRANCH   5  18
BRANCH   4  24
ATOM     24  C   UNL     1       6.810  38.307  79.647  0.00  0.00    +0.000 C 
ATOM     25  O   UNL     1       6.515  38.754  78.542  0.00  0.00    +0.000 OA
ATOM     26  O   UNL     1       6.594  39.022  80.767  0.00  0.00    +0.000 OA
ENDBRANCH   4  24
BRANCH   7  27
ATOM     27  C   UNL     1       9.429  34.724  77.547  0.00  0.00    +0.000 C 
ATOM     28  O   UNL     1       9.538  35.382  76.522  0.00  0.00    +0.000 OA
ATOM     29  O   UNL     1      10.010  33.504  77.680  0.00  0.00    +0.000 OA
ENDBRANCH   7  27
BRANCH   4  30
ATOM     30  C   UNL     1       7.903  36.668  81.297  0.00  0.00    +0.000 C 
BRANCH  30  31
ATOM     31  C   UNL     1       9.369  37.075  81.559  0.00  0.00    +0.000 C 
ATOM     32  C   UNL     1       9.526  38.235  82.536  0.00  0.00    +0.000 C 
ATOM     33  C   UNL     1      10.121  35.876  82.172  0.00  0.00    +0.000 C 
ENDBRANCH  30  31
ENDBRANCH   4  30
TORSDOF 7
ENDMDL
MODEL 8
REMARK VINA RESULT:      -6.4      1.591      2.347
REMARK  Name = 
REMARK  9 active torsions:
REMARK  status: ('A' for Active; 'I' for Inactive)
REMARK    1  A    between atoms: C_2  and  C_5
REMARK    2  A    between atoms: C_10  and  C_11
REMARK    3  A    between atoms: C_14  and  C_16
REMARK    4  A    between atoms: C_14  and  C_18
REMARK    5  A    between atoms: C_15  and  C_19
REMARK    6  A    between atoms: C_18  and  C_23
REMARK    7  A    between atoms: C_20  and  C_26
REMARK    8  A    between atoms: C_23  and  C_27
REMARK    9  A    between atoms: C_23  and  C_28
REMARK                            x       y       z     vdW  Elec       q    Type
REMARK                         _______ _______ _______ _____ _____    ______ ____
ROOT
ATOM      1  C   UNL     1       6.699  31.153  77.607  0.00  0.00    +0.000 C 
ATOM      2  O   UNL     1       6.298  30.242  76.888  0.00  0.00    +0.000 OA
ATOM      3  N   UNL     1       5.853  31.670  78.594  0.00  0.00    +0.000 N 
ATOM      4  C   UNL     1       4.640  30.924  79.067  0.00  0.00    +0.000 C 
ATOM      5  C   UNL     1       6.077  32.875  79.442  0.00  0.00    +0.000 C 
ATOM      6  C   UNL     1       3.798  32.145  79.567  0.00  0.00    +0.000 C 
ATOM      7  C   UNL     1       4.806  33.033  80.293  0.00  0.00    +0.000 C 
ENDROOT
BRANCH   1  13
ATOM      8  C   UNL     1      10.620  32.592  76.533  0.00  0.00    +0.000 A 
ATOM      9  C   UNL     1      10.385  32.008  77.784  0.00  0.00    +0.000 A 
ATOM     10  C   UNL     1       9.527  32.806  75.680  0.00  0.00    +0.000 A 
ATOM     11  C   UNL     1       9.096  31.590  78.142  0.00  0.00    +0.000 A 
ATOM     12  C   UNL     1       8.233  32.469  76.074  0.00  0.00    +0.000 A 
ATOM     13  C   UNL     1       8.017  31.768  77.261  0.00  0.00    +0.000 A 
BRANCH   8  15
ATOM     14  F   UNL     1      12.774  31.962  75.671  0.00  0.00    +0.000 F 
ATOM     15  C   UNL     1      11.995  33.003  76.071  0.00  0.00    +0.000 C 
ATOM     16  F   UNL     1      12.695  33.636  77.055  0.00  0.00    +0.000 F 
ATOM     17  F   UNL     1      11.959  33.874  75.026  0.00  0.00    +0.000 F 
ENDBRANCH   8  15
ENDBRANCH   1  13
BRANCH   5  18
ATOM     18  C   UNL     1       6.525  34.122  78.712  0.00  0.00    +0.000 A 
ATOM     19  C   UNL     1       5.853  34.626  77.591  0.00  0.00    +0.000 A 
ATOM     20  C   UNL     1       7.699  34.771  79.143  0.00  0.00    +0.000 A 
ATOM     21  C   UNL     1       6.372  35.714  76.888  0.00  0.00    +0.000 A 
ATOM     22  C   UNL     1       8.207  35.867  78.447  0.00  0.00    +0.000 A 
ATOM     23  C   UNL     1       7.545  36.333  77.315  0.00  0.00    +0.000 A 
ENDBRANCH   5  18
BRANCH   4  24
ATOM     24  C   UNL     1       3.654  30.226  78.078  0.00  0.00    +0.000 C 
ATOM     25  O   UNL     1       3.029  30.839  77.216  0.00  0.00    +0.000 OA
ATOM     26  O   UNL     1       3.659  28.880  78.108  0.00  0.00    +0.000 OA
ENDBRANCH   4  24
BRANCH   7  27
ATOM     27  C   UNL     1       4.329  34.447  80.492  0.00  0.00    +0.000 C 
ATOM     28  O   UNL     1       4.861  35.266  81.227  0.00  0.00    +0.000 OA
ATOM     29  O   UNL     1       3.232  34.755  79.752  0.00  0.00    +0.000 OA
ENDBRANCH   7  27
BRANCH   4  30
ATOM     30  C   UNL     1       4.906  29.997  80.309  0.00  0.00    +0.000 C 
BRANCH  30  31
ATOM     31  C   UNL     1       6.344  29.623  80.732  0.00  0.00    +0.000 C 
ATOM     32  C   UNL     1       6.812  30.308  82.012  0.00  0.00    +0.000 C 
ATOM     33  C   UNL     1       6.411  28.105  80.994  0.00  0.00    +0.000 C 
ENDBRANCH  30  31
ENDBRANCH   4  30
TORSDOF 7
ENDMDL
MODEL 9
REMARK VINA RESULT:      -6.3      3.833      6.382
REMARK  Name = 
REMARK  9 active torsions:
REMARK  status: ('A' for Active; 'I' for Inactive)
REMARK    1  A    between atoms: C_2  and  C_5
REMARK    2  A    between atoms: C_10  and  C_11
REMARK    3  A    between atoms: C_14  and  C_16
REMARK    4  A    between atoms: C_14  and  C_18
REMARK    5  A    between atoms: C_15  and  C_19
REMARK    6  A    between atoms: C_18  and  C_23
REMARK    7  A    between atoms: C_20  and  C_26
REMARK    8  A    between atoms: C_23  and  C_27
REMARK    9  A    between atoms: C_23  and  C_28
REMARK                            x       y       z     vdW  Elec       q    Type
REMARK                         _______ _______ _______ _____ _____    ______ ____
ROOT
ATOM      1  C   UNL     1       6.797  35.314  77.403  0.00  0.00    +0.000 C 
ATOM      2  O   UNL     1       5.968  35.485  76.514  0.00  0.00    +0.000 OA
ATOM      3  N   UNL     1       7.179  34.012  77.743  0.00  0.00    +0.000 N 
ATOM      4  C   UNL     1       6.919  32.849  76.832  0.00  0.00    +0.000 C 
ATOM      5  C   UNL     1       8.025  33.584  78.893  0.00  0.00    +0.000 C 
ATOM      6  C   UNL     1       6.898  31.712  77.909  0.00  0.00    +0.000 C 
ATOM      7  C   UNL     1       8.060  32.048  78.842  0.00  0.00    +0.000 C 
ENDROOT
BRANCH   1  13
ATOM      8  C   UNL     1       8.026  38.566  79.955  0.00  0.00    +0.000 A 
ATOM      9  C   UNL     1       6.695  38.128  79.936  0.00  0.00    +0.000 A 
ATOM     10  C   UNL     1       8.927  38.003  79.041  0.00  0.00    +0.000 A 
ATOM     11  C   UNL     1       6.297  37.104  79.066  0.00  0.00    +0.000 A 
ATOM     12  C   UNL     1       8.508  37.047  78.117  0.00  0.00    +0.000 A 
ATOM     13  C   UNL     1       7.219  36.516  78.186  0.00  0.00    +0.000 A 
BRANCH   8  15
ATOM     14  F   UNL     1       8.583  40.867  80.375  0.00  0.00    +0.000 F 
ATOM     15  C   UNL     1       8.524  39.619  80.913  0.00  0.00    +0.000 C 
ATOM     16  F   UNL     1       9.783  39.345  81.361  0.00  0.00    +0.000 F 
ATOM     17  F   UNL     1       7.750  39.721  82.028  0.00  0.00    +0.000 F 
ENDBRANCH   8  15
ENDBRANCH   1  13
BRANCH   5  18
ATOM     18  C   UNL     1       7.660  34.177  80.237  0.00  0.00    +0.000 A 
ATOM     19  C   UNL     1       6.357  34.146  80.751  0.00  0.00    +0.000 A 
ATOM     20  C   UNL     1       8.660  34.838  80.977  0.00  0.00    +0.000 A 
ATOM     21  C   UNL     1       6.052  34.806  81.942  0.00  0.00    +0.000 A 
ATOM     22  C   UNL     1       8.356  35.484  82.174  0.00  0.00    +0.000 A 
ATOM     23  C   UNL     1       7.050  35.472  82.652  0.00  0.00    +0.000 A 
ENDBRANCH   5  18
BRANCH   4  24
ATOM     24  C   UNL     1       5.549  32.644  76.111  0.00  0.00    +0.000 C 
ATOM     25  O   UNL     1       4.502  32.437  76.717  0.00  0.00    +0.000 OA
ATOM     26  O   UNL     1       5.551  32.885  74.786  0.00  0.00    +0.000 OA
ENDBRANCH   4  24
BRANCH   7  27
ATOM     27  C   UNL     1       7.983  31.351  80.175  0.00  0.00    +0.000 C 
ATOM     28  O   UNL     1       6.975  30.833  80.633  0.00  0.00    +0.000 OA
ATOM     29  O   UNL     1       9.166  31.332  80.842  0.00  0.00    +0.000 OA
ENDBRANCH   7  27
BRANCH   4  30
ATOM     30  C   UNL     1       8.102  32.536  75.844  0.00  0.00    +0.000 C 
BRANCH  30  31
ATOM     31  C   UNL     1       9.571  32.765  76.261  0.00  0.00    +0.000 C 
ATOM     32  C   UNL     1      10.542  31.725  75.711  0.00  0.00    +0.000 C 
ATOM     33  C   UNL     1      10.039  34.133  75.723  0.00  0.00    +0.000 C 
ENDBRANCH  30  31
ENDBRANCH   4  30
TORSDOF 7
ENDMDL
