MODEL 1
REMARK VINA RESULT:      -7.8      0.000      0.000
REMARK  Name = 
REMARK  6 active torsions:
REMARK  status: ('A' for Active; 'I' for Inactive)
REMARK    1  A    between atoms: C_2  and  C_5
REMARK    2  A    between atoms: C_10  and  C_11
REMARK    3  A    between atoms: C_14  and  C_16
REMARK    4  A    between atoms: C_14  and  C_18
REMARK    5  A    between atoms: C_15  and  C_19
REMARK    6  A    between atoms: C_20  and  C_25
REMARK                            x       y       z     vdW  Elec       q    Type
REMARK                         _______ _______ _______ _____ _____    ______ ____
ROOT
ATOM      1  C   UNL     1       7.125  32.495  76.220  0.00  0.00    +0.000 C 
ATOM      2  O   UNL     1       6.430  32.862  75.279  0.00  0.00    +0.000 OA
ATOM      3  N   UNL     1       6.577  31.997  77.408  0.00  0.00    +0.000 N 
ATOM      4  C   UNL     1       5.113  31.681  77.596  0.00  0.00    +0.000 C 
ATOM      5  C   UNL     1       7.390  31.332  78.457  0.00  0.00    +0.000 C 
ATOM      6  C   UNL     1       5.111  30.651  78.765  0.00  0.00    +0.000 C 
ATOM      7  C   UNL     1       4.421  31.099  76.354  0.00  0.00    +0.000 C 
ATOM      8  C   UNL     1       6.538  30.121  78.828  0.00  0.00    +0.000 C 
ENDROOT
BRANCH   1  14
ATOM      9  C   UNL     1      11.374  32.855  75.630  0.00  0.00    +0.000 A 
ATOM     10  C   UNL     1      10.746  31.603  75.615  0.00  0.00    +0.000 A 
ATOM     11  C   UNL     1      10.606  33.989  75.956  0.00  0.00    +0.000 A 
ATOM     12  C   UNL     1       9.380  31.489  75.877  0.00  0.00    +0.000 A 
ATOM     13  C   UNL     1       9.225  33.878  76.185  0.00  0.00    +0.000 A 
ATOM     14  C   UNL     1       8.603  32.627  76.094  0.00  0.00    +0.000 A 
BRANCH   9  16
ATOM     15  F   UNL     1      13.519  33.809  76.144  0.00  0.00    +0.000 F 
ATOM     16  C   UNL     1      12.844  32.979  75.300  0.00  0.00    +0.000 C 
ATOM     17  F   UNL     1      13.064  33.462  74.047  0.00  0.00    +0.000 F 
ATOM     18  F   UNL     1      13.494  31.783  75.363  0.00  0.00    +0.000 F 
ENDBRANCH   9  16
ENDBRANCH   1  14
BRANCH   5  19
ATOM     19  C   UNL     1       7.782  32.283  79.596  0.00  0.00    +0.000 A 
ATOM     20  C   UNL     1       6.860  32.985  80.384  0.00  0.00    +0.000 A 
ATOM     21  C   UNL     1       9.145  32.532  79.832  0.00  0.00    +0.000 A 
ATOM     22  C   UNL     1       7.271  33.948  81.313  0.00  0.00    +0.000 A 
ATOM     23  C   UNL     1       9.561  33.482  80.772  0.00  0.00    +0.000 A 
ATOM     24  C   UNL     1       8.622  34.202  81.501  0.00  0.00    +0.000 A 
ENDBRANCH   5  19
BRANCH   4  25
ATOM     25  C   UNL     1       4.214  32.874  78.019  0.00  0.00    +0.000 C 
ATOM     26  O   UNL     1       4.110  33.906  77.376  0.00  0.00    +0.000 OA
ATOM     27  O   UNL     1       3.572  32.698  79.199  0.00  0.00    +0.000 OA
ENDBRANCH   4  25
BRANCH   8  28
ATOM     28  C   UNL     1       7.047  29.418  80.052  0.00  0.00    +0.000 C 
ATOM     29  O   UNL     1       6.440  29.450  81.122  0.00  0.00    +0.000 OA
ATOM     30  O   UNL     1       8.230  28.783  79.950  0.00  0.00    +0.000 OA
ENDBRANCH   8  28
TORSDOF 5
ENDMDL
MODEL 2
REMARK VINA RESULT:      -7.7      1.712      4.399
REMARK  Name = 
REMARK  6 active torsions:
REMARK  status: ('A' for Active; 'I' for Inactive)
REMARK    1  A    between atoms: C_2  and  C_5
REMARK    2  A    between atoms: C_10  and  C_11
REMARK    3  A    between atoms: C_14  and  C_16
REMARK    4  A    between atoms: C_14  and  C_18
REMARK    5  A    between atoms: C_15  and  C_19
REMARK    6  A    between atoms: C_20  and  C_25
REMARK                            x       y       z     vdW  Elec       q    Type
REMARK                         _______ _______ _______ _____ _____    ______ ____
ROOT
ATOM      1  C   UNL     1       9.276  31.662  79.058  0.00  0.00    +0.000 C 
ATOM      2  O   UNL     1       9.971  30.989  79.812  0.00  0.00    +0.000 OA
ATOM      3  N   UNL     1       7.949  31.994  79.357  0.00  0.00    +0.000 N 
ATOM      4  C   UNL     1       7.294  31.732  80.691  0.00  0.00    +0.000 C 
ATOM      5  C   UNL     1       7.173  32.994  78.584  0.00  0.00    +0.000 C 
ATOM      6  C   UNL     1       6.125  32.762  80.729  0.00  0.00    +0.000 C 
ATOM      7  C   UNL     1       8.218  31.911  81.904  0.00  0.00    +0.000 C 
ATOM      8  C   UNL     1       6.483  33.805  79.677  0.00  0.00    +0.000 C 
ENDROOT
BRANCH   1  14
ATOM      9  C   UNL     1      11.184  32.845  75.386  0.00  0.00    +0.000 A 
ATOM     10  C   UNL     1      11.358  33.587  76.562  0.00  0.00    +0.000 A 
ATOM     11  C   UNL     1      10.280  31.767  75.397  0.00  0.00    +0.000 A 
ATOM     12  C   UNL     1      10.680  33.237  77.730  0.00  0.00    +0.000 A 
ATOM     13  C   UNL     1       9.625  31.394  76.582  0.00  0.00    +0.000 A 
ATOM     14  C   UNL     1       9.868  32.103  77.765  0.00  0.00    +0.000 A 
BRANCH   9  16
ATOM     15  F   UNL     1      11.609  34.410  73.611  0.00  0.00    +0.000 F 
ATOM     16  C   UNL     1      11.956  33.201  74.134  0.00  0.00    +0.000 C 
ATOM     17  F   UNL     1      11.781  32.296  73.133  0.00  0.00    +0.000 F 
ATOM     18  F   UNL     1      13.299  33.266  74.353  0.00  0.00    +0.000 F 
ENDBRANCH   9  16
ENDBRANCH   1  14
BRANCH   5  19
ATOM     19  C   UNL     1       6.271  32.353  77.520  0.00  0.00    +0.000 A 
ATOM     20  C   UNL     1       5.577  31.150  77.701  0.00  0.00    +0.000 A 
ATOM     21  C   UNL     1       6.181  32.958  76.254  0.00  0.00    +0.000 A 
ATOM     22  C   UNL     1       4.886  30.535  76.651  0.00  0.00    +0.000 A 
ATOM     23  C   UNL     1       5.477  32.356  75.205  0.00  0.00    +0.000 A 
ATOM     24  C   UNL     1       4.843  31.134  75.401  0.00  0.00    +0.000 A 
ENDBRANCH   5  19
BRANCH   4  25
ATOM     25  C   UNL     1       6.679  30.318  80.876  0.00  0.00    +0.000 C 
ATOM     26  O   UNL     1       7.291  29.282  80.673  0.00  0.00    +0.000 OA
ATOM     27  O   UNL     1       5.376  30.320  81.245  0.00  0.00    +0.000 OA
ENDBRANCH   4  25
BRANCH   8  28
ATOM     28  C   UNL     1       5.442  34.736  79.128  0.00  0.00    +0.000 C 
ATOM     29  O   UNL     1       4.238  34.534  79.286  0.00  0.00    +0.000 OA
ATOM     30  O   UNL     1       5.875  35.787  78.407  0.00  0.00    +0.000 OA
ENDBRANCH   8  28
TORSDOF 5
ENDMDL
MODEL 3
REMARK VINA RESULT:      -7.6      1.169      1.395
REMARK  Name = 
REMARK  6 active torsions:
REMARK  status: ('A' for Active; 'I' for Inactive)
REMARK    1  A    between atoms: C_2  and  C_5
REMARK    2  A    between atoms: C_10  and  C_11
REMARK    3  A    between atoms: C_14  and  C_16
REMARK    4  A    between atoms: C_14  and  C_18
REMARK    5  A    between atoms: C_15  and  C_19
REMARK    6  A    between atoms: C_20  and  C_25
REMARK                            x       y       z     vdW  Elec       q    Type
REMARK                         _______ _______ _______ _____ _____    ______ ____
ROOT
ATOM      1  C   UNL     1       7.233  33.024  76.223  0.00  0.00    +0.000 C 
ATOM      2  O   UNL     1       6.576  33.217  75.206  0.00  0.00    +0.000 OA
ATOM      3  N   UNL     1       6.641  32.920  77.488  0.00  0.00    +0.000 N 
ATOM      4  C   UNL     1       5.153  32.845  77.721  0.00  0.00    +0.000 C 
ATOM      5  C   UNL     1       7.379  32.455  78.689  0.00  0.00    +0.000 C 
ATOM      6  C   UNL     1       5.037  32.161  79.116  0.00  0.00    +0.000 C 
ATOM      7  C   UNL     1       4.378  32.051  76.658  0.00  0.00    +0.000 C 
ATOM      8  C   UNL     1       6.389  31.495  79.343  0.00  0.00    +0.000 C 
ENDROOT
BRANCH   1  14
ATOM      9  C   UNL     1      11.488  32.752  75.634  0.00  0.00    +0.000 A 
ATOM     10  C   UNL     1      10.683  31.604  75.629  0.00  0.00    +0.000 A 
ATOM     11  C   UNL     1      10.895  33.988  75.950  0.00  0.00    +0.000 A 
ATOM     12  C   UNL     1       9.315  31.694  75.891  0.00  0.00    +0.000 A 
ATOM     13  C   UNL     1       9.513  34.083  76.179  0.00  0.00    +0.000 A 
ATOM     14  C   UNL     1       8.713  32.936  76.097  0.00  0.00    +0.000 A 
BRANCH   9  16
ATOM     15  F   UNL     1      13.426  31.375  75.278  0.00  0.00    +0.000 F 
ATOM     16  C   UNL     1      12.961  32.656  75.304  0.00  0.00    +0.000 C 
ATOM     17  F   UNL     1      13.745  33.320  76.196  0.00  0.00    +0.000 F 
ATOM     18  F   UNL     1      13.255  33.178  74.081  0.00  0.00    +0.000 F 
ENDBRANCH   9  16
ENDBRANCH   1  14
BRANCH   5  19
ATOM     19  C   UNL     1       7.899  33.612  79.552  0.00  0.00    +0.000 A 
ATOM     20  C   UNL     1       7.175  34.782  79.815  0.00  0.00    +0.000 A 
ATOM     21  C   UNL     1       9.208  33.543  80.061  0.00  0.00    +0.000 A 
ATOM     22  C   UNL     1       7.749  35.867  80.487  0.00  0.00    +0.000 A 
ATOM     23  C   UNL     1       9.782  34.619  80.748  0.00  0.00    +0.000 A 
ATOM     24  C   UNL     1       9.056  35.788  80.946  0.00  0.00    +0.000 A 
ENDBRANCH   5  19
BRANCH   4  25
ATOM     25  C   UNL     1       4.412  34.208  77.805  0.00  0.00    +0.000 C 
ATOM     26  O   UNL     1       4.396  35.026  76.899  0.00  0.00    +0.000 OA
ATOM     27  O   UNL     1       3.810  34.444  78.995  0.00  0.00    +0.000 OA
ENDBRANCH   4  25
BRANCH   8  28
ATOM     28  C   UNL     1       6.822  31.075  80.717  0.00  0.00    +0.000 C 
ATOM     29  O   UNL     1       6.244  31.466  81.730  0.00  0.00    +0.000 OA
ATOM     30  O   UNL     1       7.907  30.284  80.805  0.00  0.00    +0.000 OA
ENDBRANCH   8  28
TORSDOF 5
ENDMDL
MODEL 4
REMARK VINA RESULT:      -7.5      2.123      4.737
REMARK  Name = 
REMARK  6 active torsions:
REMARK  status: ('A' for Active; 'I' for Inactive)
REMARK    1  A    between atoms: C_2  and  C_5
REMARK    2  A    between atoms: C_10  and  C_11
REMARK    3  A    between atoms: C_14  and  C_16
REMARK    4  A    between atoms: C_14  and  C_18
REMARK    5  A    between atoms: C_15  and  C_19
REMARK    6  A    between atoms: C_20  and  C_25
REMARK                            x       y       z     vdW  Elec       q    Type
REMARK                         _______ _______ _______ _____ _____    ______ ____
ROOT
ATOM      1  C   UNL     1       9.287  32.632  78.859  0.00  0.00    +0.000 C 
ATOM      2  O   UNL     1       9.745  32.047  79.834  0.00  0.00    +0.000 OA
ATOM      3  N   UNL     1       8.113  33.391  78.924  0.00  0.00    +0.000 N 
ATOM      4  C   UNL     1       7.395  33.729  80.208  0.00  0.00    +0.000 C 
ATOM      5  C   UNL     1       7.672  34.293  77.830  0.00  0.00    +0.000 C 
ATOM      6  C   UNL     1       6.581  35.006  79.844  0.00  0.00    +0.000 C 
ATOM      7  C   UNL     1       8.320  33.995  81.406  0.00  0.00    +0.000 C 
ATOM      8  C   UNL     1       7.240  35.549  78.582  0.00  0.00    +0.000 C 
ENDROOT
BRANCH   1  14
ATOM      9  C   UNL     1      11.490  32.089  75.201  0.00  0.00    +0.000 A 
ATOM     10  C   UNL     1      11.892  33.036  76.153  0.00  0.00    +0.000 A 
ATOM     11  C   UNL     1      10.284  31.395  75.410  0.00  0.00    +0.000 A 
ATOM     12  C   UNL     1      11.132  33.255  77.303  0.00  0.00    +0.000 A 
ATOM     13  C   UNL     1       9.539  31.590  76.584  0.00  0.00    +0.000 A 
ATOM     14  C   UNL     1       9.995  32.488  77.557  0.00  0.00    +0.000 A 
BRANCH   9  16
ATOM     15  F   UNL     1      13.053  32.910  73.569  0.00  0.00    +0.000 F 
ATOM     16  C   UNL     1      12.341  31.823  73.979  0.00  0.00    +0.000 C 
ATOM     17  F   UNL     1      11.607  31.429  72.903  0.00  0.00    +0.000 F 
ATOM     18  F   UNL     1      13.260  30.839  74.189  0.00  0.00    +0.000 F 
ENDBRANCH   9  16
ENDBRANCH   1  14
BRANCH   5  19
ATOM     19  C   UNL     1       6.633  33.642  76.907  0.00  0.00    +0.000 A 
ATOM     20  C   UNL     1       5.757  32.623  77.306  0.00  0.00    +0.000 A 
ATOM     21  C   UNL     1       6.590  34.029  75.556  0.00  0.00    +0.000 A 
ATOM     22  C   UNL     1       4.930  31.965  76.389  0.00  0.00    +0.000 A 
ATOM     23  C   UNL     1       5.752  33.385  74.639  0.00  0.00    +0.000 A 
ATOM     24  C   UNL     1       4.934  32.341  75.054  0.00  0.00    +0.000 A 
ENDBRANCH   5  19
BRANCH   4  25
ATOM     25  C   UNL     1       6.391  32.662  80.721  0.00  0.00    +0.000 C 
ATOM     26  O   UNL     1       5.179  32.785  80.653  0.00  0.00    +0.000 OA
ATOM     27  O   UNL     1       6.970  31.583  81.300  0.00  0.00    +0.000 OA
ENDBRANCH   4  25
BRANCH   8  28
ATOM     28  C   UNL     1       6.523  36.526  77.696  0.00  0.00    +0.000 C 
ATOM     29  O   UNL     1       7.129  37.317  76.975  0.00  0.00    +0.000 OA
ATOM     30  O   UNL     1       5.178  36.539  77.755  0.00  0.00    +0.000 OA
ENDBRANCH   8  28
TORSDOF 5
ENDMDL
MODEL 5
REMARK VINA RESULT:      -7.5      2.440      3.939
REMARK  Name = 
REMARK  6 active torsions:
REMARK  status: ('A' for Active; 'I' for Inactive)
REMARK    1  A    between atoms: C_2  and  C_5
REMARK    2  A    between atoms: C_10  and  C_11
REMARK    3  A    between atoms: C_14  and  C_16
REMARK    4  A    between atoms: C_14  and  C_18
REMARK    5  A    between atoms: C_15  and  C_19
REMARK    6  A    between atoms: C_20  and  C_25
REMARK                            x       y       z     vdW  Elec       q    Type
REMARK                         _______ _______ _______ _____ _____    ______ ____
ROOT
ATOM      1  C   UNL     1       9.283  35.435  77.032  0.00  0.00    +0.000 C 
ATOM      2  O   UNL     1       9.698  36.557  77.301  0.00  0.00    +0.000 OA
ATOM      3  N   UNL     1       7.978  35.025  77.331  0.00  0.00    +0.000 N 
ATOM      4  C   UNL     1       6.898  35.950  77.834  0.00  0.00    +0.000 C 
ATOM      5  C   UNL     1       7.385  33.769  76.808  0.00  0.00    +0.000 C 
ATOM      6  C   UNL     1       5.580  35.215  77.444  0.00  0.00    +0.000 C 
ATOM      7  C   UNL     1       6.933  37.363  77.230  0.00  0.00    +0.000 C 
ATOM      8  C   UNL     1       5.990  34.210  76.375  0.00  0.00    +0.000 C 
ENDROOT
BRANCH   1  14
ATOM      9  C   UNL     1      11.832  32.515  75.159  0.00  0.00    +0.000 A 
ATOM     10  C   UNL     1      11.416  32.364  76.489  0.00  0.00    +0.000 A 
ATOM     11  C   UNL     1      11.495  33.699  74.479  0.00  0.00    +0.000 A 
ATOM     12  C   UNL     1      10.648  33.350  77.110  0.00  0.00    +0.000 A 
ATOM     13  C   UNL     1      10.693  34.675  75.092  0.00  0.00    +0.000 A 
ATOM     14  C   UNL     1      10.226  34.472  76.397  0.00  0.00    +0.000 A 
BRANCH   9  16
ATOM     15  F   UNL     1      13.691  30.991  75.207  0.00  0.00    +0.000 F 
ATOM     16  C   UNL     1      12.625  31.423  74.476  0.00  0.00    +0.000 C 
ATOM     17  F   UNL     1      13.129  31.812  73.273  0.00  0.00    +0.000 F 
ATOM     18  F   UNL     1      11.875  30.312  74.229  0.00  0.00    +0.000 F 
ENDBRANCH   9  16
ENDBRANCH   1  14
BRANCH   5  19
ATOM     19  C   UNL     1       7.469  32.610  77.810  0.00  0.00    +0.000 A 
ATOM     20  C   UNL     1       7.436  32.772  79.202  0.00  0.00    +0.000 A 
ATOM     21  C   UNL     1       7.663  31.306  77.322  0.00  0.00    +0.000 A 
ATOM     22  C   UNL     1       7.661  31.699  80.071  0.00  0.00    +0.000 A 
ATOM     23  C   UNL     1       7.872  30.227  78.189  0.00  0.00    +0.000 A 
ATOM     24  C   UNL     1       7.887  30.428  79.564  0.00  0.00    +0.000 A 
ENDBRANCH   5  19
BRANCH   4  25
ATOM     25  C   UNL     1       6.868  36.185  79.368  0.00  0.00    +0.000 C 
ATOM     26  O   UNL     1       7.805  36.646  80.001  0.00  0.00    +0.000 OA
ATOM     27  O   UNL     1       5.721  35.793  79.971  0.00  0.00    +0.000 OA
ENDBRANCH   4  25
BRANCH   8  28
ATOM     28  C   UNL     1       5.105  33.048  76.029  0.00  0.00    +0.000 C 
ATOM     29  O   UNL     1       5.225  32.430  74.971  0.00  0.00    +0.000 OA
ATOM     30  O   UNL     1       4.135  32.731  76.906  0.00  0.00    +0.000 OA
ENDBRANCH   8  28
TORSDOF 5
ENDMDL
MODEL 6
REMARK VINA RESULT:      -7.4      1.700      2.041
REMARK  Name = 
REMARK  6 active torsions:
REMARK  status: ('A' for Active; 'I' for Inactive)
REMARK    1  A    between atoms: C_2  and  C_5
REMARK    2  A    between atoms: C_10  and  C_11
REMARK    3  A    between atoms: C_14  and  C_16
REMARK    4  A    between atoms: C_14  and  C_18
REMARK    5  A    between atoms: C_15  and  C_19
REMARK    6  A    between atoms: C_20  and  C_25
REMARK                            x       y       z     vdW  Elec       q    Type
REMARK                         _______ _______ _______ _____ _____    ______ ____
ROOT
ATOM      1  C   UNL     1       6.087  31.264  76.713  0.00  0.00    +0.000 C 
ATOM      2  O   UNL     1       5.490  30.822  75.737  0.00  0.00    +0.000 OA
ATOM      3  N   UNL     1       5.559  31.199  78.008  0.00  0.00    +0.000 N 
ATOM      4  C   UNL     1       4.315  30.429  78.374  0.00  0.00    +0.000 C 
ATOM      5  C   UNL     1       6.356  31.508  79.221  0.00  0.00    +0.000 C 
ATOM      6  C   UNL     1       4.486  30.167  79.901  0.00  0.00    +0.000 C 
ATOM      7  C   UNL     1       4.133  29.107  77.612  0.00  0.00    +0.000 C 
ATOM      8  C   UNL     1       5.970  30.379  80.174  0.00  0.00    +0.000 C 
ENDROOT
BRANCH   1  14
ATOM      9  C   UNL     1       9.885  33.101  75.856  0.00  0.00    +0.000 A 
ATOM     10  C   UNL     1       9.791  31.730  76.133  0.00  0.00    +0.000 A 
ATOM     11  C   UNL     1       8.728  33.892  75.974  0.00  0.00    +0.000 A 
ATOM     12  C   UNL     1       8.567  31.157  76.479  0.00  0.00    +0.000 A 
ATOM     13  C   UNL     1       7.489  33.308  76.288  0.00  0.00    +0.000 A 
ATOM     14  C   UNL     1       7.403  31.925  76.490  0.00  0.00    +0.000 A 
BRANCH   9  16
ATOM     15  F   UNL     1      11.687  34.620  76.328  0.00  0.00    +0.000 F 
ATOM     16  C   UNL     1      11.205  33.709  75.436  0.00  0.00    +0.000 C 
ATOM     17  F   UNL     1      11.130  34.358  74.243  0.00  0.00    +0.000 F 
ATOM     18  F   UNL     1      12.187  32.775  75.297  0.00  0.00    +0.000 F 
ENDBRANCH   9  16
ENDBRANCH   1  14
BRANCH   5  19
ATOM     19  C   UNL     1       6.145  32.943  79.721  0.00  0.00    +0.000 A 
ATOM     20  C   UNL     1       4.889  33.502  79.995  0.00  0.00    +0.000 A 
ATOM     21  C   UNL     1       7.262  33.787  79.851  0.00  0.00    +0.000 A 
ATOM     22  C   UNL     1       4.741  34.858  80.309  0.00  0.00    +0.000 A 
ATOM     23  C   UNL     1       7.120  35.139  80.181  0.00  0.00    +0.000 A 
ATOM     24  C   UNL     1       5.857  35.678  80.394  0.00  0.00    +0.000 A 
ENDBRANCH   5  19
BRANCH   4  25
ATOM     25  C   UNL     1       2.971  31.181  78.175  0.00  0.00    +0.000 C 
ATOM     26  O   UNL     1       2.872  32.247  77.589  0.00  0.00    +0.000 OA
ATOM     27  O   UNL     1       1.903  30.575  78.746  0.00  0.00    +0.000 OA
ENDBRANCH   4  25
BRANCH   8  28
ATOM     28  C   UNL     1       6.473  30.613  81.569  0.00  0.00    +0.000 C 
ATOM     29  O   UNL     1       5.710  30.842  82.506  0.00  0.00    +0.000 OA
ATOM     30  O   UNL     1       7.806  30.608  81.751  0.00  0.00    +0.000 OA
ENDBRANCH   8  28
TORSDOF 5
ENDMDL
MODEL 7
REMARK VINA RESULT:      -7.3      4.117      5.693
REMARK  Name = 
REMARK  6 active torsions:
REMARK  status: ('A' for Active; 'I' for Inactive)
REMARK    1  A    between atoms: C_2  and  C_5
REMARK    2  A    between atoms: C_10  and  C_11
REMARK    3  A    between atoms: C_14  and  C_16
REMARK    4  A    between atoms: C_14  and  C_18
REMARK    5  A    between atoms: C_15  and  C_19
REMARK    6  A    between atoms: C_20  and  C_25
REMARK                            x       y       z     vdW  Elec       q    Type
REMARK                         _______ _______ _______ _____ _____    ______ ____
ROOT
ATOM      1  C   UNL     1       5.597  35.063  77.279  0.00  0.00    +0.000 C 
ATOM      2  O   UNL     1       4.527  35.146  76.687  0.00  0.00    +0.000 OA
ATOM      3  N   UNL     1       6.447  33.959  77.139  0.00  0.00    +0.000 N 
ATOM      4  C   UNL     1       6.243  32.860  76.126  0.00  0.00    +0.000 C 
ATOM      5  C   UNL     1       7.840  33.942  77.652  0.00  0.00    +0.000 C 
ATOM      6  C   UNL     1       7.669  32.254  75.955  0.00  0.00    +0.000 C 
ATOM      7  C   UNL     1       5.686  33.331  74.774  0.00  0.00    +0.000 C 
ATOM      8  C   UNL     1       8.617  33.318  76.496  0.00  0.00    +0.000 C 
ENDROOT
BRANCH   1  14
ATOM      9  C   UNL     1       6.856  38.120  80.035  0.00  0.00    +0.000 A 
ATOM     10  C   UNL     1       6.062  37.047  80.460  0.00  0.00    +0.000 A 
ATOM     11  C   UNL     1       7.142  38.244  78.663  0.00  0.00    +0.000 A 
ATOM     12  C   UNL     1       5.600  36.099  79.546  0.00  0.00    +0.000 A 
ATOM     13  C   UNL     1       6.706  37.270  77.749  0.00  0.00    +0.000 A 
ATOM     14  C   UNL     1       5.975  36.166  78.204  0.00  0.00    +0.000 A 
BRANCH   9  16
ATOM     15  F   UNL     1       8.547  39.722  80.630  0.00  0.00    +0.000 F 
ATOM     16  C   UNL     1       7.393  39.120  81.035  0.00  0.00    +0.000 C 
ATOM     17  F   UNL     1       7.668  38.560  82.244  0.00  0.00    +0.000 F 
ATOM     18  F   UNL     1       6.516  40.133  81.279  0.00  0.00    +0.000 F 
ENDBRANCH   9  16
ENDBRANCH   1  14
BRANCH   5  19
ATOM     19  C   UNL     1       7.960  33.258  79.020  0.00  0.00    +0.000 A 
ATOM     20  C   UNL     1       7.495  31.966  79.296  0.00  0.00    +0.000 A 
ATOM     21  C   UNL     1       8.504  33.985  80.095  0.00  0.00    +0.000 A 
ATOM     22  C   UNL     1       7.499  31.445  80.595  0.00  0.00    +0.000 A 
ATOM     23  C   UNL     1       8.525  33.461  81.393  0.00  0.00    +0.000 A 
ATOM     24  C   UNL     1       8.007  32.196  81.644  0.00  0.00    +0.000 A 
ENDBRANCH   5  19
BRANCH   4  25
ATOM     25  C   UNL     1       5.294  31.710  76.559  0.00  0.00    +0.000 C 
ATOM     26  O   UNL     1       4.537  31.780  77.513  0.00  0.00    +0.000 OA
ATOM     27  O   UNL     1       5.401  30.586  75.810  0.00  0.00    +0.000 OA
ENDBRANCH   4  25
BRANCH   8  28
ATOM     28  C   UNL     1      10.028  32.973  76.876  0.00  0.00    +0.000 C 
ATOM     29  O   UNL     1      10.409  31.807  76.978  0.00  0.00    +0.000 OA
ATOM     30  O   UNL     1      10.859  33.996  77.151  0.00  0.00    +0.000 OA
ENDBRANCH   8  28
TORSDOF 5
ENDMDL
MODEL 8
REMARK VINA RESULT:      -7.3      3.622      4.836
REMARK  Name = 
REMARK  6 active torsions:
REMARK  status: ('A' for Active; 'I' for Inactive)
REMARK    1  A    between atoms: C_2  and  C_5
REMARK    2  A    between atoms: C_10  and  C_11
REMARK    3  A    between atoms: C_14  and  C_16
REMARK    4  A    between atoms: C_14  and  C_18
REMARK    5  A    between atoms: C_15  and  C_19
REMARK    6  A    between atoms: C_20  and  C_25
REMARK                            x       y       z     vdW  Elec       q    Type
REMARK                         _______ _______ _______ _____ _____    ______ ____
ROOT
ATOM      1  C   UNL     1       7.053  33.046  76.870  0.00  0.00    +0.000 C 
ATOM      2  O   UNL     1       7.460  32.789  75.742  0.00  0.00    +0.000 OA
ATOM      3  N   UNL     1       6.277  32.146  77.610  0.00  0.00    +0.000 N 
ATOM      4  C   UNL     1       6.016  30.718  77.198  0.00  0.00    +0.000 C 
ATOM      5  C   UNL     1       5.977  32.333  79.052  0.00  0.00    +0.000 C 
ATOM      6  C   UNL     1       5.665  30.010  78.541  0.00  0.00    +0.000 C 
ATOM      7  C   UNL     1       7.201  30.024  76.509  0.00  0.00    +0.000 C 
ATOM      8  C   UNL     1       6.198  30.937  79.627  0.00  0.00    +0.000 C 
ENDROOT
BRANCH   1  14
ATOM      9  C   UNL     1       7.807  36.881  78.675  0.00  0.00    +0.000 A 
ATOM     10  C   UNL     1       6.788  36.716  77.727  0.00  0.00    +0.000 A 
ATOM     11  C   UNL     1       8.657  35.793  78.944  0.00  0.00    +0.000 A 
ATOM     12  C   UNL     1       6.596  35.486  77.095  0.00  0.00    +0.000 A 
ATOM     13  C   UNL     1       8.442  34.546  78.334  0.00  0.00    +0.000 A 
ATOM     14  C   UNL     1       7.373  34.382  77.444  0.00  0.00    +0.000 A 
BRANCH   9  16
ATOM     15  F   UNL     1       7.941  38.090  80.748  0.00  0.00    +0.000 F 
ATOM     16  C   UNL     1       7.981  38.201  79.390  0.00  0.00    +0.000 C 
ATOM     17  F   UNL     1       7.022  39.109  79.062  0.00  0.00    +0.000 F 
ATOM     18  F   UNL     1       9.175  38.793  79.106  0.00  0.00    +0.000 F 
ENDBRANCH   9  16
ENDBRANCH   1  14
BRANCH   5  19
ATOM     19  C   UNL     1       4.605  32.976  79.294  0.00  0.00    +0.000 A 
ATOM     20  C   UNL     1       3.394  32.437  78.840  0.00  0.00    +0.000 A 
ATOM     21  C   UNL     1       4.545  34.219  79.949  0.00  0.00    +0.000 A 
ATOM     22  C   UNL     1       2.187  33.135  78.961  0.00  0.00    +0.000 A 
ATOM     23  C   UNL     1       3.338  34.914  80.088  0.00  0.00    +0.000 A 
ATOM     24  C   UNL     1       2.161  34.377  79.579  0.00  0.00    +0.000 A 
ENDBRANCH   5  19
BRANCH   4  25
ATOM     25  C   UNL     1       4.823  30.503  76.228  0.00  0.00    +0.000 C 
ATOM     26  O   UNL     1       4.735  31.035  75.134  0.00  0.00    +0.000 OA
ATOM     27  O   UNL     1       3.847  29.697  76.713  0.00  0.00    +0.000 OA
ENDBRANCH   4  25
BRANCH   8  28
ATOM     28  C   UNL     1       5.719  30.820  81.044  0.00  0.00    +0.000 C 
ATOM     29  O   UNL     1       6.309  31.361  81.979  0.00  0.00    +0.000 OA
ATOM     30  O   UNL     1       4.634  30.055  81.266  0.00  0.00    +0.000 OA
ENDBRANCH   8  28
TORSDOF 5
ENDMDL
MODEL 9
REMARK VINA RESULT:      -7.3      1.720      2.412
REMARK  Name = 
REMARK  6 active torsions:
REMARK  status: ('A' for Active; 'I' for Inactive)
REMARK    1  A    between atoms: C_2  and  C_5
REMARK    2  A    between atoms: C_10  and  C_11
REMARK    3  A    between atoms: C_14  and  C_16
REMARK    4  A    between atoms: C_14  and  C_18
REMARK    5  A    between atoms: C_15  and  C_19
REMARK    6  A    between atoms: C_20  and  C_25
REMARK                            x       y       z     vdW  Elec       q    Type
REMARK                         _______ _______ _______ _____ _____    ______ ____
ROOT
ATOM      1  C   UNL     1       5.417  31.600  77.579  0.00  0.00    +0.000 C 
ATOM      2  O   UNL     1       4.488  31.947  76.859  0.00  0.00    +0.000 OA
ATOM      3  N   UNL     1       5.215  30.930  78.792  0.00  0.00    +0.000 N 
ATOM      4  C   UNL     1       3.880  30.400  79.252  0.00  0.00    +0.000 C 
ATOM      5  C   UNL     1       6.317  30.295  79.557  0.00  0.00    +0.000 C 
ATOM      6  C   UNL     1       4.262  29.282  80.267  0.00  0.00    +0.000 C 
ATOM      7  C   UNL     1       2.993  29.838  78.130  0.00  0.00    +0.000 C 
ATOM      8  C   UNL     1       5.717  28.950  79.960  0.00  0.00    +0.000 C 
ENDROOT
BRANCH   1  14
ATOM      9  C   UNL     1       9.484  32.579  76.566  0.00  0.00    +0.000 A 
ATOM     10  C   UNL     1       8.618  33.547  77.090  0.00  0.00    +0.000 A 
ATOM     11  C   UNL     1       8.969  31.304  76.268  0.00  0.00    +0.000 A 
ATOM     12  C   UNL     1       7.281  33.239  77.350  0.00  0.00    +0.000 A 
ATOM     13  C   UNL     1       7.633  30.985  76.562  0.00  0.00    +0.000 A 
ATOM     14  C   UNL     1       6.802  31.944  77.154  0.00  0.00    +0.000 A 
BRANCH   9  16
ATOM     15  F   UNL     1      11.152  33.676  75.226  0.00  0.00    +0.000 F 
ATOM     16  C   UNL     1      10.943  32.903  76.329  0.00  0.00    +0.000 C 
ATOM     17  F   UNL     1      11.708  31.792  76.157  0.00  0.00    +0.000 F 
ATOM     18  F   UNL     1      11.498  33.587  77.368  0.00  0.00    +0.000 F 
ENDBRANCH   9  16
ENDBRANCH   1  14
BRANCH   5  19
ATOM     19  C   UNL     1       6.847  31.187  80.687  0.00  0.00    +0.000 A 
ATOM     20  C   UNL     1       6.056  31.678  81.736  0.00  0.00    +0.000 A 
ATOM     21  C   UNL     1       8.188  31.608  80.647  0.00  0.00    +0.000 A 
ATOM     22  C   UNL     1       6.554  32.604  82.659  0.00  0.00    +0.000 A 
ATOM     23  C   UNL     1       8.694  32.521  81.579  0.00  0.00    +0.000 A 
ATOM     24  C   UNL     1       7.871  33.032  82.575  0.00  0.00    +0.000 A 
ENDBRANCH   5  19
BRANCH   4  25
ATOM     25  C   UNL     1       2.969  31.416  79.994  0.00  0.00    +0.000 C 
ATOM     26  O   UNL     1       2.600  32.473  79.509  0.00  0.00    +0.000 OA
ATOM     27  O   UNL     1       2.643  31.054  81.258  0.00  0.00    +0.000 OA
ENDBRANCH   4  25
BRANCH   8  28
ATOM     28  C   UNL     1       6.570  28.220  80.957  0.00  0.00    +0.000 C 
ATOM     29  O   UNL     1       6.187  28.002  82.105  0.00  0.00    +0.000 OA
ATOM     30  O   UNL     1       7.801  27.850  80.559  0.00  0.00    +0.000 OA
ENDBRANCH   8  28
TORSDOF 5
ENDMDL
