MODEL 1
REMARK VINA RESULT:      -7.6      0.000      0.000
REMARK  Name = 
REMARK  8 active torsions:
REMARK  status: ('A' for Active; 'I' for Inactive)
REMARK    1  A    between atoms: C_2  and  C_5
REMARK    2  A    between atoms: C_10  and  C_11
REMARK    3  A    between atoms: C_14  and  C_16
REMARK    4  A    between atoms: C_14  and  C_18
REMARK    5  A    between atoms: C_15  and  C_19
REMARK    6  A    between atoms: C_18  and  C_23
REMARK    7  A    between atoms: C_20  and  C_26
REMARK    8  A    between atoms: C_23  and  C_27
REMARK                            x       y       z     vdW  Elec       q    Type
REMARK                         _______ _______ _______ _____ _____    ______ ____
ROOT
ATOM      1  C   UNL     1       7.383  30.442  78.994  0.00  0.00    +0.000 C 
ATOM      2  O   UNL     1       7.590  29.283  79.348  0.00  0.00    +0.000 OA
ATOM      3  N   UNL     1       6.125  31.025  79.240  0.00  0.00    +0.000 N 
ATOM      4  C   UNL     1       5.075  30.365  80.102  0.00  0.00    +0.000 C 
ATOM      5  C   UNL     1       5.734  32.438  78.975  0.00  0.00    +0.000 C 
ATOM      6  C   UNL     1       3.822  31.219  79.724  0.00  0.00    +0.000 C 
ATOM      7  C   UNL     1       4.352  32.640  79.609  0.00  0.00    +0.000 C 
ENDROOT
BRANCH   1  13
ATOM      8  C   UNL     1      10.234  32.617  76.552  0.00  0.00    +0.000 A 
ATOM      9  C   UNL     1       9.469  31.578  76.001  0.00  0.00    +0.000 A 
ATOM     10  C   UNL     1      10.157  32.831  77.928  0.00  0.00    +0.000 A 
ATOM     11  C   UNL     1       8.572  30.848  76.807  0.00  0.00    +0.000 A 
ATOM     12  C   UNL     1       9.351  32.029  78.736  0.00  0.00    +0.000 A 
ATOM     13  C   UNL     1       8.456  31.118  78.183  0.00  0.00    +0.000 A 
BRANCH   8  15
ATOM     14  F   UNL     1      11.728  32.881  74.679  0.00  0.00    +0.000 F 
ATOM     15  C   UNL     1      11.146  33.505  75.737  0.00  0.00    +0.000 C 
ATOM     16  F   UNL     1      12.171  34.005  76.486  0.00  0.00    +0.000 F 
ATOM     17  F   UNL     1      10.501  34.594  75.231  0.00  0.00    +0.000 F 
ENDBRANCH   8  15
ENDBRANCH   1  13
BRANCH   5  18
ATOM     18  C   UNL     1       5.860  32.916  77.544  0.00  0.00    +0.000 A 
ATOM     19  C   UNL     1       5.290  32.241  76.460  0.00  0.00    +0.000 A 
ATOM     20  C   UNL     1       6.619  34.078  77.292  0.00  0.00    +0.000 A 
ATOM     21  C   UNL     1       5.515  32.693  75.156  0.00  0.00    +0.000 A 
ATOM     22  C   UNL     1       6.845  34.524  75.993  0.00  0.00    +0.000 A 
ATOM     23  C   UNL     1       6.296  33.826  74.923  0.00  0.00    +0.000 A 
ENDBRANCH   5  18
BRANCH   4  24
ATOM     24  C   UNL     1       4.587  28.902  79.888  0.00  0.00    +0.000 C 
ATOM     25  O   UNL     1       4.711  28.035  80.748  0.00  0.00    +0.000 OA
ATOM     26  O   UNL     1       4.104  28.588  78.671  0.00  0.00    +0.000 OA
ENDBRANCH   4  24
BRANCH   7  27
ATOM     27  C   UNL     1       3.428  33.586  78.890  0.00  0.00    +0.000 C 
ATOM     28  O   UNL     1       3.546  34.808  78.891  0.00  0.00    +0.000 OA
ATOM     29  O   UNL     1       2.448  32.956  78.194  0.00  0.00    +0.000 OA
ENDBRANCH   7  27
BRANCH   4  30
ATOM     30  C   UNL     1       5.330  30.575  81.626  0.00  0.00    +0.000 C 
BRANCH  30  31
ATOM     31  C   UNL     1       6.676  31.151  82.061  0.00  0.00    +0.000 C 
BRANCH  31  32
ATOM     32  C   UNL     1       7.245  30.280  83.166  0.00  0.00    +0.000 C 
ATOM     33  O   UNL     1       8.064  30.663  83.987  0.00  0.00    +0.000 OA
ATOM     34  O   UNL     1       6.808  29.004  83.129  0.00  0.00    +0.000 OA
ENDBRANCH  31  32
ENDBRANCH  30  31
ENDBRANCH   4  30
TORSDOF 8
ENDMDL
MODEL 2
REMARK VINA RESULT:      -7.5      1.116      1.795
REMARK  Name = 
REMARK  8 active torsions:
REMARK  status: ('A' for Active; 'I' for Inactive)
REMARK    1  A    between atoms: C_2  and  C_5
REMARK    2  A    between atoms: C_10  and  C_11
REMARK    3  A    between atoms: C_14  and  C_16
REMARK    4  A    between atoms: C_14  and  C_18
REMARK    5  A    between atoms: C_15  and  C_19
REMARK    6  A    between atoms: C_18  and  C_23
REMARK    7  A    between atoms: C_20  and  C_26
REMARK    8  A    between atoms: C_23  and  C_27
REMARK                            x       y       z     vdW  Elec       q    Type
REMARK                         _______ _______ _______ _____ _____    ______ ____
ROOT
ATOM      1  C   UNL     1       8.397  30.857  79.069  0.00  0.00    +0.000 C 
ATOM      2  O   UNL     1       8.941  29.839  79.494  0.00  0.00    +0.000 OA
ATOM      3  N   UNL     1       7.100  31.181  79.510  0.00  0.00    +0.000 N 
ATOM      4  C   UNL     1       6.415  30.447  80.639  0.00  0.00    +0.000 C 
ATOM      5  C   UNL     1       6.334  32.417  79.185  0.00  0.00    +0.000 C 
ATOM      6  C   UNL     1       4.944  30.938  80.443  0.00  0.00    +0.000 C 
ATOM      7  C   UNL     1       5.081  32.407  80.069  0.00  0.00    +0.000 C 
ENDROOT
BRANCH   1  13
ATOM      8  C   UNL     1      10.741  32.892  76.038  0.00  0.00    +0.000 A 
ATOM      9  C   UNL     1      10.642  33.416  77.334  0.00  0.00    +0.000 A 
ATOM     10  C   UNL     1       9.954  31.785  75.715  0.00  0.00    +0.000 A 
ATOM     11  C   UNL     1       9.848  32.773  78.306  0.00  0.00    +0.000 A 
ATOM     12  C   UNL     1       9.085  31.224  76.651  0.00  0.00    +0.000 A 
ATOM     13  C   UNL     1       9.109  31.620  77.985  0.00  0.00    +0.000 A 
BRANCH   8  15
ATOM     14  F   UNL     1      11.749  32.693  73.858  0.00  0.00    +0.000 F 
ATOM     15  C   UNL     1      11.642  33.467  74.970  0.00  0.00    +0.000 C 
ATOM     16  F   UNL     1      12.916  33.647  75.424  0.00  0.00    +0.000 F 
ATOM     17  F   UNL     1      11.231  34.694  74.543  0.00  0.00    +0.000 F 
ENDBRANCH   8  15
ENDBRANCH   1  13
BRANCH   5  18
ATOM     18  C   UNL     1       6.081  32.687  77.717  0.00  0.00    +0.000 A 
ATOM     19  C   UNL     1       5.511  31.745  76.853  0.00  0.00    +0.000 A 
ATOM     20  C   UNL     1       6.473  33.936  77.189  0.00  0.00    +0.000 A 
ATOM     21  C   UNL     1       5.382  32.032  75.491  0.00  0.00    +0.000 A 
ATOM     22  C   UNL     1       6.347  34.217  75.832  0.00  0.00    +0.000 A 
ATOM     23  C   UNL     1       5.806  33.260  74.981  0.00  0.00    +0.000 A 
ENDBRANCH   5  18
BRANCH   4  24
ATOM     24  C   UNL     1       6.269  28.897  80.688  0.00  0.00    +0.000 C 
ATOM     25  O   UNL     1       5.376  28.301  80.094  0.00  0.00    +0.000 OA
ATOM     26  O   UNL     1       7.111  28.227  81.497  0.00  0.00    +0.000 OA
ENDBRANCH   4  24
BRANCH   7  27
ATOM     27  C   UNL     1       3.840  33.006  79.463  0.00  0.00    +0.000 C 
ATOM     28  O   UNL     1       2.912  32.355  78.992  0.00  0.00    +0.000 OA
ATOM     29  O   UNL     1       3.818  34.362  79.514  0.00  0.00    +0.000 OA
ENDBRANCH   7  27
BRANCH   4  30
ATOM     30  C   UNL     1       6.879  30.937  82.044  0.00  0.00    +0.000 C 
BRANCH  30  31
ATOM     31  C   UNL     1       8.001  31.971  82.115  0.00  0.00    +0.000 C 
BRANCH  31  32
ATOM     32  C   UNL     1       8.582  31.963  83.517  0.00  0.00    +0.000 C 
ATOM     33  O   UNL     1       8.894  30.949  84.124  0.00  0.00    +0.000 OA
ATOM     34  O   UNL     1       8.672  33.189  84.073  0.00  0.00    +0.000 OA
ENDBRANCH  31  32
ENDBRANCH  30  31
ENDBRANCH   4  30
TORSDOF 8
ENDMDL
MODEL 3
REMARK VINA RESULT:      -7.3      4.034      6.529
REMARK  Name = 
REMARK  8 active torsions:
REMARK  status: ('A' for Active; 'I' for Inactive)
REMARK    1  A    between atoms: C_2  and  C_5
REMARK    2  A    between atoms: C_10  and  C_11
REMARK    3  A    between atoms: C_14  and  C_16
REMARK    4  A    between atoms: C_14  and  C_18
REMARK    5  A    between atoms: C_15  and  C_19
REMARK    6  A    between atoms: C_18  and  C_23
REMARK    7  A    between atoms: C_20  and  C_26
REMARK    8  A    between atoms: C_23  and  C_27
REMARK                            x       y       z     vdW  Elec       q    Type
REMARK                         _______ _______ _______ _____ _____    ______ ____
ROOT
ATOM      1  C   UNL     1       4.983  33.466  79.878  0.00  0.00    +0.000 C 
ATOM      2  O   UNL     1       4.014  34.039  80.372  0.00  0.00    +0.000 OA
ATOM      3  N   UNL     1       5.671  34.071  78.809  0.00  0.00    +0.000 N 
ATOM      4  C   UNL     1       5.403  35.490  78.365  0.00  0.00    +0.000 C 
ATOM      5  C   UNL     1       6.918  33.576  78.161  0.00  0.00    +0.000 C 
ATOM      6  C   UNL     1       6.125  35.495  76.980  0.00  0.00    +0.000 C 
ATOM      7  C   UNL     1       7.391  34.682  77.210  0.00  0.00    +0.000 C 
ENDROOT
BRANCH   1  13
ATOM      8  C   UNL     1       6.019  29.400  80.979  0.00  0.00    +0.000 A 
ATOM      9  C   UNL     1       4.858  29.664  80.239  0.00  0.00    +0.000 A 
ATOM     10  C   UNL     1       6.747  30.484  81.469  0.00  0.00    +0.000 A 
ATOM     11  C   UNL     1       4.503  30.991  79.917  0.00  0.00    +0.000 A 
ATOM     12  C   UNL     1       6.327  31.794  81.241  0.00  0.00    +0.000 A 
ATOM     13  C   UNL     1       5.284  32.073  80.363  0.00  0.00    +0.000 A 
BRANCH   8  15
ATOM     14  F   UNL     1       6.960  27.841  82.557  0.00  0.00    +0.000 F 
ATOM     15  C   UNL     1       6.516  28.005  81.283  0.00  0.00    +0.000 C 
ATOM     16  F   UNL     1       7.557  27.649  80.475  0.00  0.00    +0.000 F 
ATOM     17  F   UNL     1       5.560  27.054  81.086  0.00  0.00    +0.000 F 
ENDBRANCH   8  15
ENDBRANCH   1  13
BRANCH   5  18
ATOM     18  C   UNL     1       6.858  32.190  77.555  0.00  0.00    +0.000 A 
ATOM     19  C   UNL     1       5.826  31.769  76.709  0.00  0.00    +0.000 A 
ATOM     20  C   UNL     1       7.874  31.270  77.889  0.00  0.00    +0.000 A 
ATOM     21  C   UNL     1       5.791  30.449  76.250  0.00  0.00    +0.000 A 
ATOM     22  C   UNL     1       7.833  29.955  77.434  0.00  0.00    +0.000 A 
ATOM     23  C   UNL     1       6.786  29.543  76.618  0.00  0.00    +0.000 A 
ENDBRANCH   5  18
BRANCH   4  24
ATOM     24  C   UNL     1       3.981  36.027  78.027  0.00  0.00    +0.000 C 
ATOM     25  O   UNL     1       3.388  36.820  78.753  0.00  0.00    +0.000 OA
ATOM     26  O   UNL     1       3.371  35.511  76.944  0.00  0.00    +0.000 OA
ENDBRANCH   4  24
BRANCH   7  27
ATOM     27  C   UNL     1       8.066  34.221  75.945  0.00  0.00    +0.000 C 
ATOM     28  O   UNL     1       9.263  33.968  75.849  0.00  0.00    +0.000 OA
ATOM     29  O   UNL     1       7.210  34.073  74.902  0.00  0.00    +0.000 OA
ENDBRANCH   7  27
BRANCH   4  30
ATOM     30  C   UNL     1       6.122  36.546  79.260  0.00  0.00    +0.000 C 
BRANCH  30  31
ATOM     31  C   UNL     1       6.689  37.795  78.590  0.00  0.00    +0.000 C 
BRANCH  31  32
ATOM     32  C   UNL     1       7.293  38.689  79.659  0.00  0.00    +0.000 C 
ATOM     33  O   UNL     1       6.650  39.475  80.338  0.00  0.00    +0.000 OA
ATOM     34  O   UNL     1       8.635  38.585  79.757  0.00  0.00    +0.000 OA
ENDBRANCH  31  32
ENDBRANCH  30  31
ENDBRANCH   4  30
TORSDOF 8
ENDMDL
MODEL 4
REMARK VINA RESULT:      -7.1      3.464      5.147
REMARK  Name = 
REMARK  8 active torsions:
REMARK  status: ('A' for Active; 'I' for Inactive)
REMARK    1  A    between atoms: C_2  and  C_5
REMARK    2  A    between atoms: C_10  and  C_11
REMARK    3  A    between atoms: C_14  and  C_16
REMARK    4  A    between atoms: C_14  and  C_18
REMARK    5  A    between atoms: C_15  and  C_19
REMARK    6  A    between atoms: C_18  and  C_23
REMARK    7  A    between atoms: C_20  and  C_26
REMARK    8  A    between atoms: C_23  and  C_27
REMARK                            x       y       z     vdW  Elec       q    Type
REMARK                         _______ _______ _______ _____ _____    ______ ____
ROOT
ATOM      1  C   UNL     1       8.618  35.013  78.990  0.00  0.00    +0.000 C 
ATOM      2  O   UNL     1       9.329  35.270  79.959  0.00  0.00    +0.000 OA
ATOM      3  N   UNL     1       7.264  35.400  79.006  0.00  0.00    +0.000 N 
ATOM      4  C   UNL     1       6.685  36.299  80.073  0.00  0.00    +0.000 C 
ATOM      5  C   UNL     1       6.288  35.265  77.887  0.00  0.00    +0.000 C 
ATOM      6  C   UNL     1       5.157  36.084  79.825  0.00  0.00    +0.000 C 
ATOM      7  C   UNL     1       5.024  36.022  78.310  0.00  0.00    +0.000 C 
ENDROOT
BRANCH   1  13
ATOM      8  C   UNL     1      10.654  32.660  75.967  0.00  0.00    +0.000 A 
ATOM      9  C   UNL     1      10.367  34.014  75.743  0.00  0.00    +0.000 A 
ATOM     10  C   UNL     1      10.142  32.062  77.118  0.00  0.00    +0.000 A 
ATOM     11  C   UNL     1       9.670  34.766  76.712  0.00  0.00    +0.000 A 
ATOM     12  C   UNL     1       9.357  32.786  78.016  0.00  0.00    +0.000 A 
ATOM     13  C   UNL     1       9.216  34.165  77.900  0.00  0.00    +0.000 A 
BRANCH   8  15
ATOM     14  F   UNL     1      11.636  32.358  73.787  0.00  0.00    +0.000 F 
ATOM     15  C   UNL     1      11.475  31.813  75.022  0.00  0.00    +0.000 C 
ATOM     16  F   UNL     1      10.913  30.587  74.820  0.00  0.00    +0.000 F 
ATOM     17  F   UNL     1      12.729  31.566  75.497  0.00  0.00    +0.000 F 
ENDBRANCH   8  15
ENDBRANCH   1  13
BRANCH   5  18
ATOM     18  C   UNL     1       6.053  33.864  77.364  0.00  0.00    +0.000 A 
ATOM     19  C   UNL     1       5.756  32.777  78.194  0.00  0.00    +0.000 A 
ATOM     20  C   UNL     1       6.175  33.640  75.976  0.00  0.00    +0.000 A 
ATOM     21  C   UNL     1       5.631  31.495  77.651  0.00  0.00    +0.000 A 
ATOM     22  C   UNL     1       6.055  32.361  75.439  0.00  0.00    +0.000 A 
ATOM     23  C   UNL     1       5.788  31.286  76.280  0.00  0.00    +0.000 A 
ENDBRANCH   5  18
BRANCH   4  24
ATOM     24  C   UNL     1       6.840  36.027  81.598  0.00  0.00    +0.000 C 
ATOM     25  O   UNL     1       7.170  36.903  82.392  0.00  0.00    +0.000 OA
ATOM     26  O   UNL     1       6.693  34.755  82.013  0.00  0.00    +0.000 OA
ENDBRANCH   4  24
BRANCH   7  27
ATOM     27  C   UNL     1       3.718  35.446  77.830  0.00  0.00    +0.000 C 
ATOM     28  O   UNL     1       3.319  35.500  76.670  0.00  0.00    +0.000 OA
ATOM     29  O   UNL     1       3.016  34.817  78.806  0.00  0.00    +0.000 OA
ENDBRANCH   7  27
BRANCH   4  30
ATOM     30  C   UNL     1       6.983  37.808  79.814  0.00  0.00    +0.000 C 
BRANCH  30  31
ATOM     31  C   UNL     1       8.378  38.196  79.329  0.00  0.00    +0.000 C 
BRANCH  31  32
ATOM     32  C   UNL     1       9.058  39.019  80.409  0.00  0.00    +0.000 C 
ATOM     33  O   UNL     1       9.964  38.606  81.116  0.00  0.00    +0.000 OA
ATOM     34  O   UNL     1       8.527  40.250  80.566  0.00  0.00    +0.000 OA
ENDBRANCH  31  32
ENDBRANCH  30  31
ENDBRANCH   4  30
TORSDOF 8
ENDMDL
MODEL 5
REMARK VINA RESULT:      -7.0      1.922      2.785
REMARK  Name = 
REMARK  8 active torsions:
REMARK  status: ('A' for Active; 'I' for Inactive)
REMARK    1  A    between atoms: C_2  and  C_5
REMARK    2  A    between atoms: C_10  and  C_11
REMARK    3  A    between atoms: C_14  and  C_16
REMARK    4  A    between atoms: C_14  and  C_18
REMARK    5  A    between atoms: C_15  and  C_19
REMARK    6  A    between atoms: C_18  and  C_23
REMARK    7  A    between atoms: C_20  and  C_26
REMARK    8  A    between atoms: C_23  and  C_27
REMARK                            x       y       z     vdW  Elec       q    Type
REMARK                         _______ _______ _______ _____ _____    ______ ____
ROOT
ATOM      1  C   UNL     1       7.515  31.322  76.939  0.00  0.00    +0.000 C 
ATOM      2  O   UNL     1       7.204  30.360  76.239  0.00  0.00    +0.000 OA
ATOM      3  N   UNL     1       6.719  31.650  78.053  0.00  0.00    +0.000 N 
ATOM      4  C   UNL     1       5.611  30.755  78.556  0.00  0.00    +0.000 C 
ATOM      5  C   UNL     1       7.000  32.708  79.064  0.00  0.00    +0.000 C 
ATOM      6  C   UNL     1       4.862  31.742  79.509  0.00  0.00    +0.000 C 
ATOM      7  C   UNL     1       5.972  32.530  80.188  0.00  0.00    +0.000 C 
ENDROOT
BRANCH   1  13
ATOM      8  C   UNL     1      10.724  34.020  75.824  0.00  0.00    +0.000 A 
ATOM      9  C   UNL     1       9.441  34.174  75.279  0.00  0.00    +0.000 A 
ATOM     10  C   UNL     1      10.971  32.897  76.614  0.00  0.00    +0.000 A 
ATOM     11  C   UNL     1       8.410  33.272  75.614  0.00  0.00    +0.000 A 
ATOM     12  C   UNL     1       9.975  31.949  76.847  0.00  0.00    +0.000 A 
ATOM     13  C   UNL     1       8.657  32.179  76.465  0.00  0.00    +0.000 A 
BRANCH   8  15
ATOM     14  F   UNL     1      11.505  36.299  75.757  0.00  0.00    +0.000 F 
ATOM     15  C   UNL     1      11.854  34.996  75.589  0.00  0.00    +0.000 C 
ATOM     16  F   UNL     1      12.351  34.902  74.322  0.00  0.00    +0.000 F 
ATOM     17  F   UNL     1      12.916  34.775  76.414  0.00  0.00    +0.000 F 
ENDBRANCH   8  15
ENDBRANCH   1  13
BRANCH   5  18
ATOM     18  C   UNL     1       7.138  34.121  78.539  0.00  0.00    +0.000 A 
ATOM     19  C   UNL     1       6.186  34.727  77.712  0.00  0.00    +0.000 A 
ATOM     20  C   UNL     1       8.301  34.848  78.872  0.00  0.00    +0.000 A 
ATOM     21  C   UNL     1       6.417  36.006  77.197  0.00  0.00    +0.000 A 
ATOM     22  C   UNL     1       8.530  36.119  78.354  0.00  0.00    +0.000 A 
ATOM     23  C   UNL     1       7.589  36.696  77.510  0.00  0.00    +0.000 A 
ENDBRANCH   5  18
BRANCH   4  24
ATOM     24  C   UNL     1       4.474  30.206  77.645  0.00  0.00    +0.000 C 
ATOM     25  O   UNL     1       4.491  29.068  77.185  0.00  0.00    +0.000 OA
ATOM     26  O   UNL     1       3.501  31.068  77.293  0.00  0.00    +0.000 OA
ENDBRANCH   4  24
BRANCH   7  27
ATOM     27  C   UNL     1       5.507  33.792  80.864  0.00  0.00    +0.000 C 
ATOM     28  O   UNL     1       4.437  34.349  80.635  0.00  0.00    +0.000 OA
ATOM     29  O   UNL     1       6.377  34.256  81.797  0.00  0.00    +0.000 OA
ENDBRANCH   7  27
BRANCH   4  30
ATOM     30  C   UNL     1       6.139  29.581  79.436  0.00  0.00    +0.000 C 
BRANCH  30  31
ATOM     31  C   UNL     1       5.261  29.087  80.584  0.00  0.00    +0.000 C 
BRANCH  31  32
ATOM     32  C   UNL     1       6.010  28.001  81.337  0.00  0.00    +0.000 C 
ATOM     33  O   UNL     1       7.159  28.112  81.737  0.00  0.00    +0.000 OA
ATOM     34  O   UNL     1       5.308  26.857  81.477  0.00  0.00    +0.000 OA
ENDBRANCH  31  32
ENDBRANCH  30  31
ENDBRANCH   4  30
TORSDOF 8
ENDMDL
MODEL 6
REMARK VINA RESULT:      -6.9      4.411      6.961
REMARK  Name = 
REMARK  8 active torsions:
REMARK  status: ('A' for Active; 'I' for Inactive)
REMARK    1  A    between atoms: C_2  and  C_5
REMARK    2  A    between atoms: C_10  and  C_11
REMARK    3  A    between atoms: C_14  and  C_16
REMARK    4  A    between atoms: C_14  and  C_18
REMARK    5  A    between atoms: C_15  and  C_19
REMARK    6  A    between atoms: C_18  and  C_23
REMARK    7  A    between atoms: C_20  and  C_26
REMARK    8  A    between atoms: C_23  and  C_27
REMARK                            x       y       z     vdW  Elec       q    Type
REMARK                         _______ _______ _______ _____ _____    ______ ____
ROOT
ATOM      1  C   UNL     1       5.938  36.019  78.392  0.00  0.00    +0.000 C 
ATOM      2  O   UNL     1       5.571  37.114  77.970  0.00  0.00    +0.000 OA
ATOM      3  N   UNL     1       6.794  35.963  79.509  0.00  0.00    +0.000 N 
ATOM      4  C   UNL     1       7.124  37.176  80.346  0.00  0.00    +0.000 C 
ATOM      5  C   UNL     1       7.253  34.733  80.214  0.00  0.00    +0.000 C 
ATOM      6  C   UNL     1       8.347  36.636  81.156  0.00  0.00    +0.000 C 
ATOM      7  C   UNL     1       7.978  35.196  81.483  0.00  0.00    +0.000 C 
ENDROOT
BRANCH   1  13
ATOM      8  C   UNL     1       5.108  32.355  76.222  0.00  0.00    +0.000 A 
ATOM      9  C   UNL     1       6.015  33.296  75.713  0.00  0.00    +0.000 A 
ATOM     10  C   UNL     1       4.380  32.696  77.363  0.00  0.00    +0.000 A 
ATOM     11  C   UNL     1       6.253  34.503  76.402  0.00  0.00    +0.000 A 
ATOM     12  C   UNL     1       4.539  33.940  77.973  0.00  0.00    +0.000 A 
ATOM     13  C   UNL     1       5.558  34.806  77.587  0.00  0.00    +0.000 A 
BRANCH   8  15
ATOM     14  F   UNL     1       4.590  31.047  74.266  0.00  0.00    +0.000 F 
ATOM     15  C   UNL     1       4.868  31.001  75.595  0.00  0.00    +0.000 C 
ATOM     16  F   UNL     1       3.818  30.352  76.175  0.00  0.00    +0.000 F 
ATOM     17  F   UNL     1       5.935  30.164  75.734  0.00  0.00    +0.000 F 
ENDBRANCH   8  15
ENDBRANCH   1  13
BRANCH   5  18
ATOM     18  C   UNL     1       8.004  33.718  79.380  0.00  0.00    +0.000 A 
ATOM     19  C   UNL     1       9.093  34.051  78.566  0.00  0.00    +0.000 A 
ATOM     20  C   UNL     1       7.561  32.378  79.397  0.00  0.00    +0.000 A 
ATOM     21  C   UNL     1       9.688  33.078  77.759  0.00  0.00    +0.000 A 
ATOM     22  C   UNL     1       8.154  31.412  78.589  0.00  0.00    +0.000 A 
ATOM     23  C   UNL     1       9.215  31.765  77.764  0.00  0.00    +0.000 A 
ENDBRANCH   5  18
BRANCH   4  24
ATOM     24  C   UNL     1       7.657  38.511  79.745  0.00  0.00    +0.000 C 
ATOM     25  O   UNL     1       8.849  38.705  79.528  0.00  0.00    +0.000 OA
ATOM     26  O   UNL     1       6.762  39.500  79.560  0.00  0.00    +0.000 OA
ENDBRANCH   4  24
BRANCH   7  27
ATOM     27  C   UNL     1       9.141  34.348  81.926  0.00  0.00    +0.000 C 
ATOM     28  O   UNL     1      10.320  34.626  81.725  0.00  0.00    +0.000 OA
ATOM     29  O   UNL     1       8.768  33.240  82.614  0.00  0.00    +0.000 OA
ENDBRANCH   7  27
BRANCH   4  30
ATOM     30  C   UNL     1       6.006  37.518  81.377  0.00  0.00    +0.000 C 
BRANCH  30  31
ATOM     31  C   UNL     1       6.411  38.200  82.682  0.00  0.00    +0.000 C 
BRANCH  31  32
ATOM     32  C   UNL     1       5.537  39.426  82.883  0.00  0.00    +0.000 C 
ATOM     33  O   UNL     1       5.881  40.564  82.604  0.00  0.00    +0.000 OA
ATOM     34  O   UNL     1       4.349  39.155  83.461  0.00  0.00    +0.000 OA
ENDBRANCH  31  32
ENDBRANCH  30  31
ENDBRANCH   4  30
TORSDOF 8
ENDMDL
MODEL 7
REMARK VINA RESULT:      -6.8      2.748      4.359
REMARK  Name = 
REMARK  8 active torsions:
REMARK  status: ('A' for Active; 'I' for Inactive)
REMARK    1  A    between atoms: C_2  and  C_5
REMARK    2  A    between atoms: C_10  and  C_11
REMARK    3  A    between atoms: C_14  and  C_16
REMARK    4  A    between atoms: C_14  and  C_18
REMARK    5  A    between atoms: C_15  and  C_19
REMARK    6  A    between atoms: C_18  and  C_23
REMARK    7  A    between atoms: C_20  and  C_26
REMARK    8  A    between atoms: C_23  and  C_27
REMARK                            x       y       z     vdW  Elec       q    Type
REMARK                         _______ _______ _______ _____ _____    ______ ____
ROOT
ATOM      1  C   UNL     1       6.574  32.506  80.739  0.00  0.00    +0.000 C 
ATOM      2  O   UNL     1       6.689  32.101  81.894  0.00  0.00    +0.000 OA
ATOM      3  N   UNL     1       6.138  31.618  79.736  0.00  0.00    +0.000 N 
ATOM      4  C   UNL     1       5.606  30.238  80.044  0.00  0.00    +0.000 C 
ATOM      5  C   UNL     1       5.845  31.958  78.315  0.00  0.00    +0.000 C 
ATOM      6  C   UNL     1       5.642  29.598  78.619  0.00  0.00    +0.000 C 
ATOM      7  C   UNL     1       5.198  30.718  77.689  0.00  0.00    +0.000 C 
ENDROOT
BRANCH   1  13
ATOM      8  C   UNL     1       7.985  36.437  79.565  0.00  0.00    +0.000 A 
ATOM      9  C   UNL     1       8.893  35.432  79.927  0.00  0.00    +0.000 A 
ATOM     10  C   UNL     1       6.623  36.183  79.732  0.00  0.00    +0.000 A 
ATOM     11  C   UNL     1       8.429  34.168  80.345  0.00  0.00    +0.000 A 
ATOM     12  C   UNL     1       6.177  34.968  80.254  0.00  0.00    +0.000 A 
ATOM     13  C   UNL     1       7.051  33.903  80.447  0.00  0.00    +0.000 A 
BRANCH   8  15
ATOM     14  F   UNL     1       9.062  37.718  77.831  0.00  0.00    +0.000 F 
ATOM     15  C   UNL     1       8.402  37.783  79.018  0.00  0.00    +0.000 C 
ATOM     16  F   UNL     1       9.235  38.443  79.874  0.00  0.00    +0.000 F 
ATOM     17  F   UNL     1       7.344  38.619  78.822  0.00  0.00    +0.000 F 
ENDBRANCH   8  15
ENDBRANCH   1  13
BRANCH   5  18
ATOM     18  C   UNL     1       6.982  32.561  77.518  0.00  0.00    +0.000 A 
ATOM     19  C   UNL     1       8.264  32.003  77.472  0.00  0.00    +0.000 A 
ATOM     20  C   UNL     1       6.744  33.763  76.819  0.00  0.00    +0.000 A 
ATOM     21  C   UNL     1       9.289  32.657  76.782  0.00  0.00    +0.000 A 
ATOM     22  C   UNL     1       7.767  34.415  76.136  0.00  0.00    +0.000 A 
ATOM     23  C   UNL     1       9.043  33.863  76.123  0.00  0.00    +0.000 A 
ENDBRANCH   5  18
BRANCH   4  24
ATOM     24  C   UNL     1       6.371  29.202  80.919  0.00  0.00    +0.000 C 
ATOM     25  O   UNL     1       5.989  28.880  82.041  0.00  0.00    +0.000 OA
ATOM     26  O   UNL     1       7.537  28.733  80.438  0.00  0.00    +0.000 OA
ENDBRANCH   4  24
BRANCH   7  27
ATOM     27  C   UNL     1       5.510  30.472  76.236  0.00  0.00    +0.000 C 
ATOM     28  O   UNL     1       4.968  31.054  75.301  0.00  0.00    +0.000 OA
ATOM     29  O   UNL     1       6.491  29.554  76.044  0.00  0.00    +0.000 OA
ENDBRANCH   7  27
BRANCH   4  30
ATOM     30  C   UNL     1       4.116  30.256  80.501  0.00  0.00    +0.000 C 
BRANCH  30  31
ATOM     31  C   UNL     1       3.450  31.609  80.741  0.00  0.00    +0.000 C 
BRANCH  31  32
ATOM     32  C   UNL     1       2.266  31.744  79.799  0.00  0.00    +0.000 C 
ATOM     33  O   UNL     1       1.595  32.758  79.683  0.00  0.00    +0.000 OA
ATOM     34  O   UNL     1       1.973  30.609  79.132  0.00  0.00    +0.000 OA
ENDBRANCH  31  32
ENDBRANCH  30  31
ENDBRANCH   4  30
TORSDOF 8
ENDMDL
MODEL 8
REMARK VINA RESULT:      -6.8      3.961      5.302
REMARK  Name = 
REMARK  8 active torsions:
REMARK  status: ('A' for Active; 'I' for Inactive)
REMARK    1  A    between atoms: C_2  and  C_5
REMARK    2  A    between atoms: C_10  and  C_11
REMARK    3  A    between atoms: C_14  and  C_16
REMARK    4  A    between atoms: C_14  and  C_18
REMARK    5  A    between atoms: C_15  and  C_19
REMARK    6  A    between atoms: C_18  and  C_23
REMARK    7  A    between atoms: C_20  and  C_26
REMARK    8  A    between atoms: C_23  and  C_27
REMARK                            x       y       z     vdW  Elec       q    Type
REMARK                         _______ _______ _______ _____ _____    ______ ____
ROOT
ATOM      1  C   UNL     1       7.397  33.608  80.888  0.00  0.00    +0.000 C 
ATOM      2  O   UNL     1       7.779  32.845  81.773  0.00  0.00    +0.000 OA
ATOM      3  N   UNL     1       6.975  33.077  79.654  0.00  0.00    +0.000 N 
ATOM      4  C   UNL     1       6.775  31.597  79.428  0.00  0.00    +0.000 C 
ATOM      5  C   UNL     1       6.387  33.837  78.514  0.00  0.00    +0.000 C 
ATOM      6  C   UNL     1       6.691  31.558  77.868  0.00  0.00    +0.000 C 
ATOM      7  C   UNL     1       5.892  32.800  77.500  0.00  0.00    +0.000 C 
ENDROOT
BRANCH   1  13
ATOM      8  C   UNL     1       7.811  37.910  81.266  0.00  0.00    +0.000 A 
ATOM      9  C   UNL     1       8.941  37.096  81.104  0.00  0.00    +0.000 A 
ATOM     10  C   UNL     1       6.574  37.289  81.446  0.00  0.00    +0.000 A 
ATOM     11  C   UNL     1       8.806  35.695  81.021  0.00  0.00    +0.000 A 
ATOM     12  C   UNL     1       6.466  35.898  81.475  0.00  0.00    +0.000 A 
ATOM     13  C   UNL     1       7.544  35.085  81.138  0.00  0.00    +0.000 A 
BRANCH   8  15
ATOM     14  F   UNL     1       8.075  39.965  82.497  0.00  0.00    +0.000 F 
ATOM     15  C   UNL     1       7.862  39.421  81.270  0.00  0.00    +0.000 C 
ATOM     16  F   UNL     1       6.699  39.970  80.814  0.00  0.00    +0.000 F 
ATOM     17  F   UNL     1       8.840  39.913  80.458  0.00  0.00    +0.000 F 
ENDBRANCH   8  15
ENDBRANCH   1  13
BRANCH   5  18
ATOM     18  C   UNL     1       7.238  34.946  77.934  0.00  0.00    +0.000 A 
ATOM     19  C   UNL     1       8.563  34.760  77.524  0.00  0.00    +0.000 A 
ATOM     20  C   UNL     1       6.677  36.238  77.836  0.00  0.00    +0.000 A 
ATOM     21  C   UNL     1       9.317  35.848  77.074  0.00  0.00    +0.000 A 
ATOM     22  C   UNL     1       7.431  37.320  77.390  0.00  0.00    +0.000 A 
ATOM     23  C   UNL     1       8.755  37.124  77.015  0.00  0.00    +0.000 A 
ENDBRANCH   5  18
BRANCH   4  24
ATOM     24  C   UNL     1       7.858  30.527  79.754  0.00  0.00    +0.000 C 
ATOM     25  O   UNL     1       8.861  30.375  79.062  0.00  0.00    +0.000 OA
ATOM     26  O   UNL     1       7.609  29.694  80.781  0.00  0.00    +0.000 OA
ENDBRANCH   4  24
BRANCH   7  27
ATOM     27  C   UNL     1       5.996  33.191  76.050  0.00  0.00    +0.000 C 
ATOM     28  O   UNL     1       5.239  33.977  75.486  0.00  0.00    +0.000 OA
ATOM     29  O   UNL     1       7.044  32.614  75.410  0.00  0.00    +0.000 OA
ENDBRANCH   7  27
BRANCH   4  30
ATOM     30  C   UNL     1       5.407  31.085  79.973  0.00  0.00    +0.000 C 
BRANCH  30  31
ATOM     31  C   UNL     1       4.689  29.979  79.202  0.00  0.00    +0.000 C 
BRANCH  31  32
ATOM     32  C   UNL     1       4.172  28.951  80.193  0.00  0.00    +0.000 C 
ATOM     33  O   UNL     1       4.626  27.823  80.308  0.00  0.00    +0.000 OA
ATOM     34  O   UNL     1       3.110  29.375  80.908  0.00  0.00    +0.000 OA
ENDBRANCH  31  32
ENDBRANCH  30  31
ENDBRANCH   4  30
TORSDOF 8
ENDMDL
MODEL 9
REMARK VINA RESULT:      -6.6      4.071      5.900
REMARK  Name = 
REMARK  8 active torsions:
REMARK  status: ('A' for Active; 'I' for Inactive)
REMARK    1  A    between atoms: C_2  and  C_5
REMARK    2  A    between atoms: C_10  and  C_11
REMARK    3  A    between atoms: C_14  and  C_16
REMARK    4  A    between atoms: C_14  and  C_18
REMARK    5  A    between atoms: C_15  and  C_19
REMARK    6  A    between atoms: C_18  and  C_23
REMARK    7  A    between atoms: C_20  and  C_26
REMARK    8  A    between atoms: C_23  and  C_27
REMARK                            x       y       z     vdW  Elec       q    Type
REMARK                         _______ _______ _______ _____ _____    ______ ____
ROOT
ATOM      1  C   UNL     1       6.745  32.421  80.715  0.00  0.00    +0.000 C 
ATOM      2  O   UNL     1       7.836  32.378  81.282  0.00  0.00    +0.000 OA
ATOM      3  N   UNL     1       6.518  31.598  79.595  0.00  0.00    +0.000 N 
ATOM      4  C   UNL     1       7.478  30.511  79.172  0.00  0.00    +0.000 C 
ATOM      5  C   UNL     1       5.234  31.443  78.854  0.00  0.00    +0.000 C 
ATOM      6  C   UNL     1       6.945  30.208  77.735  0.00  0.00    +0.000 C 
ATOM      7  C   UNL     1       5.430  30.286  77.867  0.00  0.00    +0.000 C 
ENDROOT
BRANCH   1  13
ATOM      8  C   UNL     1       3.774  35.411  81.738  0.00  0.00    +0.000 A 
ATOM      9  C   UNL     1       4.963  35.779  81.093  0.00  0.00    +0.000 A 
ATOM     10  C   UNL     1       3.640  34.090  82.166  0.00  0.00    +0.000 A 
ATOM     11  C   UNL     1       5.944  34.810  80.798  0.00  0.00    +0.000 A 
ATOM     12  C   UNL     1       4.664  33.163  81.969  0.00  0.00    +0.000 A 
ATOM     13  C   UNL     1       5.768  33.467  81.177  0.00  0.00    +0.000 A 
BRANCH   8  15
ATOM     14  F   UNL     1       3.037  37.609  82.394  0.00  0.00    +0.000 F 
ATOM     15  C   UNL     1       2.637  36.370  82.004  0.00  0.00    +0.000 C 
ATOM     16  F   UNL     1       1.810  35.917  82.990  0.00  0.00    +0.000 F 
ATOM     17  F   UNL     1       1.838  36.552  80.915  0.00  0.00    +0.000 F 
ENDBRANCH   8  15
ENDBRANCH   1  13
BRANCH   5  18
ATOM     18  C   UNL     1       4.645  32.703  78.256  0.00  0.00    +0.000 A 
ATOM     19  C   UNL     1       5.374  33.577  77.442  0.00  0.00    +0.000 A 
ATOM     20  C   UNL     1       3.307  33.028  78.566  0.00  0.00    +0.000 A 
ATOM     21  C   UNL     1       4.791  34.765  76.990  0.00  0.00    +0.000 A 
ATOM     22  C   UNL     1       2.731  34.213  78.118  0.00  0.00    +0.000 A 
ATOM     23  C   UNL     1       3.477  35.085  77.334  0.00  0.00    +0.000 A 
ENDBRANCH   5  18
BRANCH   4  24
ATOM     24  C   UNL     1       8.999  30.754  78.944  0.00  0.00    +0.000 C 
ATOM     25  O   UNL     1       9.433  31.304  77.936  0.00  0.00    +0.000 OA
ATOM     26  O   UNL     1       9.845  30.245  79.859  0.00  0.00    +0.000 OA
ENDBRANCH   4  24
BRANCH   7  27
ATOM     27  C   UNL     1       4.703  30.406  76.555  0.00  0.00    +0.000 C 
ATOM     28  O   UNL     1       5.223  30.763  75.502  0.00  0.00    +0.000 OA
ATOM     29  O   UNL     1       3.397  30.043  76.629  0.00  0.00    +0.000 OA
ENDBRANCH   7  27
BRANCH   4  30
ATOM     30  C   UNL     1       7.313  29.205  80.007  0.00  0.00    +0.000 C 
BRANCH  30  31
ATOM     31  C   UNL     1       6.341  29.218  81.185  0.00  0.00    +0.000 C 
BRANCH  31  32
ATOM     32  C   UNL     1       5.384  28.048  81.040  0.00  0.00    +0.000 C 
ATOM     33  O   UNL     1       4.508  27.982  80.190  0.00  0.00    +0.000 OA
ATOM     34  O   UNL     1       5.544  27.097  81.983  0.00  0.00    +0.000 OA
ENDBRANCH  31  32
ENDBRANCH  30  31
ENDBRANCH   4  30
TORSDOF 8
ENDMDL
