MODEL 1
REMARK VINA RESULT:      -7.2      0.000      0.000
REMARK  Name = 
REMARK  9 active torsions:
REMARK  status: ('A' for Active; 'I' for Inactive)
REMARK    1  A    between atoms: C_2  and  C_5
REMARK    2  A    between atoms: C_10  and  C_11
REMARK    3  A    between atoms: C_14  and  C_16
REMARK    4  A    between atoms: C_14  and  C_18
REMARK    5  A    between atoms: C_15  and  C_19
REMARK    6  A    between atoms: C_18  and  C_23
REMARK    7  A    between atoms: C_20  and  C_26
REMARK    8  A    between atoms: C_23  and  C_27
REMARK    9  A    between atoms: C_27  and  C_32
REMARK                            x       y       z     vdW  Elec       q    Type
REMARK                         _______ _______ _______ _____ _____    ______ ____
ROOT
ATOM      1  C   UNL     1       8.362  30.852  79.076  0.00  0.00    +0.000 C 
ATOM      2  O   UNL     1       8.840  29.752  79.381  0.00  0.00    +0.000 OA
ATOM      3  N   UNL     1       7.111  31.225  79.607  0.00  0.00    +0.000 N 
ATOM      4  C   UNL     1       6.549  30.543  80.812  0.00  0.00    +0.000 C 
ATOM      5  C   UNL     1       6.363  32.487  79.341  0.00  0.00    +0.000 C 
ATOM      6  C   UNL     1       5.059  30.996  80.696  0.00  0.00    +0.000 C 
ATOM      7  C   UNL     1       5.148  32.457  80.287  0.00  0.00    +0.000 C 
ENDROOT
BRANCH   1  13
ATOM      8  C   UNL     1      10.678  32.911  76.089  0.00  0.00    +0.000 A 
ATOM      9  C   UNL     1      10.582  33.416  77.392  0.00  0.00    +0.000 A 
ATOM     10  C   UNL     1       9.888  31.811  75.734  0.00  0.00    +0.000 A 
ATOM     11  C   UNL     1       9.771  32.769  78.338  0.00  0.00    +0.000 A 
ATOM     12  C   UNL     1       9.027  31.215  76.661  0.00  0.00    +0.000 A 
ATOM     13  C   UNL     1       9.041  31.623  77.996  0.00  0.00    +0.000 A 
BRANCH   8  15
ATOM     14  F   UNL     1      11.235  34.719  74.599  0.00  0.00    +0.000 F 
ATOM     15  C   UNL     1      11.617  33.496  75.060  0.00  0.00    +0.000 C 
ATOM     16  F   UNL     1      11.734  32.701  73.959  0.00  0.00    +0.000 F 
ATOM     17  F   UNL     1      12.883  33.654  75.537  0.00  0.00    +0.000 F 
ENDBRANCH   8  15
ENDBRANCH   1  13
BRANCH   5  18
ATOM     18  C   UNL     1       6.079  32.746  77.876  0.00  0.00    +0.000 A 
ATOM     19  C   UNL     1       5.508  31.794  77.023  0.00  0.00    +0.000 A 
ATOM     20  C   UNL     1       6.512  33.969  77.326  0.00  0.00    +0.000 A 
ATOM     21  C   UNL     1       5.447  32.031  75.648  0.00  0.00    +0.000 A 
ATOM     22  C   UNL     1       6.443  34.206  75.956  0.00  0.00    +0.000 A 
ATOM     23  C   UNL     1       5.922  33.230  75.115  0.00  0.00    +0.000 A 
ENDBRANCH   5  18
BRANCH   4  24
ATOM     24  C   UNL     1       6.431  28.992  80.868  0.00  0.00    +0.000 C 
ATOM     25  O   UNL     1       7.067  28.299  81.655  0.00  0.00    +0.000 OA
ATOM     26  O   UNL     1       5.445  28.469  80.112  0.00  0.00    +0.000 OA
ENDBRANCH   4  24
BRANCH   7  27
ATOM     27  C   UNL     1       3.931  33.190  79.774  0.00  0.00    +0.000 C 
ATOM     28  O   UNL     1       3.863  34.413  79.805  0.00  0.00    +0.000 OA
ATOM     29  O   UNL     1       2.907  32.446  79.329  0.00  0.00    +0.000 OA
ENDBRANCH   7  27
BRANCH   4  30
ATOM     30  C   UNL     1       7.172  31.076  82.141  0.00  0.00    +0.000 C 
BRANCH  30  31
ATOM     31  C   UNL     1       8.395  31.973  81.951  0.00  0.00    +0.000 C 
BRANCH  31  32
ATOM     32  C   UNL     1       8.177  33.385  82.497  0.00  0.00    +0.000 C 
ATOM     33  C   UNL     1       8.684  34.417  81.500  0.00  0.00    +0.000 C 
ENDBRANCH  31  32
ENDBRANCH  30  31
ENDBRANCH   4  30
TORSDOF 8
ENDMDL
MODEL 2
REMARK VINA RESULT:      -7.1      2.871      4.206
REMARK  Name = 
REMARK  9 active torsions:
REMARK  status: ('A' for Active; 'I' for Inactive)
REMARK    1  A    between atoms: C_2  and  C_5
REMARK    2  A    between atoms: C_10  and  C_11
REMARK    3  A    between atoms: C_14  and  C_16
REMARK    4  A    between atoms: C_14  and  C_18
REMARK    5  A    between atoms: C_15  and  C_19
REMARK    6  A    between atoms: C_18  and  C_23
REMARK    7  A    between atoms: C_20  and  C_26
REMARK    8  A    between atoms: C_23  and  C_27
REMARK    9  A    between atoms: C_27  and  C_32
REMARK                            x       y       z     vdW  Elec       q    Type
REMARK                         _______ _______ _______ _____ _____    ______ ____
ROOT
ATOM      1  C   UNL     1       8.535  34.972  79.027  0.00  0.00    +0.000 C 
ATOM      2  O   UNL     1       9.226  35.176  80.032  0.00  0.00    +0.000 OA
ATOM      3  N   UNL     1       7.182  35.368  79.035  0.00  0.00    +0.000 N 
ATOM      4  C   UNL     1       6.676  36.368  80.023  0.00  0.00    +0.000 C 
ATOM      5  C   UNL     1       6.187  35.187  77.939  0.00  0.00    +0.000 C 
ATOM      6  C   UNL     1       5.142  36.111  79.892  0.00  0.00    +0.000 C 
ATOM      7  C   UNL     1       4.923  35.936  78.398  0.00  0.00    +0.000 C 
ENDROOT
BRANCH   1  13
ATOM      8  C   UNL     1      10.593  32.669  76.030  0.00  0.00    +0.000 A 
ATOM      9  C   UNL     1      10.270  34.013  75.801  0.00  0.00    +0.000 A 
ATOM     10  C   UNL     1      10.103  32.046  77.184  0.00  0.00    +0.000 A 
ATOM     11  C   UNL     1       9.542  34.733  76.761  0.00  0.00    +0.000 A 
ATOM     12  C   UNL     1       9.317  32.750  78.101  0.00  0.00    +0.000 A 
ATOM     13  C   UNL     1       9.119  34.123  77.950  0.00  0.00    +0.000 A 
BRANCH   8  15
ATOM     14  F   UNL     1      11.629  32.455  73.866  0.00  0.00    +0.000 F 
ATOM     15  C   UNL     1      11.467  31.874  75.087  0.00  0.00    +0.000 C 
ATOM     16  F   UNL     1      10.964  30.630  74.846  0.00  0.00    +0.000 F 
ATOM     17  F   UNL     1      12.722  31.676  75.578  0.00  0.00    +0.000 F 
ENDBRANCH   8  15
ENDBRANCH   1  13
BRANCH   5  18
ATOM     18  C   UNL     1       6.004  33.750  77.496  0.00  0.00    +0.000 A 
ATOM     19  C   UNL     1       5.771  32.694  78.386  0.00  0.00    +0.000 A 
ATOM     20  C   UNL     1       6.185  33.453  76.131  0.00  0.00    +0.000 A 
ATOM     21  C   UNL     1       5.800  31.374  77.929  0.00  0.00    +0.000 A 
ATOM     22  C   UNL     1       6.203  32.136  75.677  0.00  0.00    +0.000 A 
ATOM     23  C   UNL     1       6.024  31.095  76.580  0.00  0.00    +0.000 A 
ENDBRANCH   5  18
BRANCH   4  24
ATOM     24  C   UNL     1       6.926  36.180  81.547  0.00  0.00    +0.000 C 
ATOM     25  O   UNL     1       7.287  37.090  82.286  0.00  0.00    +0.000 OA
ATOM     26  O   UNL     1       6.545  34.984  82.042  0.00  0.00    +0.000 OA
ENDBRANCH   4  24
BRANCH   7  27
ATOM     27  C   UNL     1       3.627  35.369  77.869  0.00  0.00    +0.000 C 
ATOM     28  O   UNL     1       3.291  35.524  76.701  0.00  0.00    +0.000 OA
ATOM     29  O   UNL     1       2.833  34.730  78.743  0.00  0.00    +0.000 OA
ENDBRANCH   7  27
BRANCH   4  30
ATOM     30  C   UNL     1       7.013  37.836  79.608  0.00  0.00    +0.000 C 
BRANCH  30  31
ATOM     31  C   UNL     1       8.436  38.035  79.087  0.00  0.00    +0.000 C 
BRANCH  31  32
ATOM     32  C   UNL     1       9.275  38.929  80.001  0.00  0.00    +0.000 C 
ATOM     33  C   UNL     1       8.397  39.992  80.645  0.00  0.00    +0.000 C 
ENDBRANCH  31  32
ENDBRANCH  30  31
ENDBRANCH   4  30
TORSDOF 8
ENDMDL
MODEL 3
REMARK VINA RESULT:      -7.1      4.025      6.507
REMARK  Name = 
REMARK  9 active torsions:
REMARK  status: ('A' for Active; 'I' for Inactive)
REMARK    1  A    between atoms: C_2  and  C_5
REMARK    2  A    between atoms: C_10  and  C_11
REMARK    3  A    between atoms: C_14  and  C_16
REMARK    4  A    between atoms: C_14  and  C_18
REMARK    5  A    between atoms: C_15  and  C_19
REMARK    6  A    between atoms: C_18  and  C_23
REMARK    7  A    between atoms: C_20  and  C_26
REMARK    8  A    between atoms: C_23  and  C_27
REMARK    9  A    between atoms: C_27  and  C_32
REMARK                            x       y       z     vdW  Elec       q    Type
REMARK                         _______ _______ _______ _____ _____    ______ ____
ROOT
ATOM      1  C   UNL     1       4.816  33.445  79.750  0.00  0.00    +0.000 C 
ATOM      2  O   UNL     1       3.664  33.878  79.870  0.00  0.00    +0.000 OA
ATOM      3  N   UNL     1       5.735  34.156  78.952  0.00  0.00    +0.000 N 
ATOM      4  C   UNL     1       5.500  35.587  78.593  0.00  0.00    +0.000 C 
ATOM      5  C   UNL     1       7.150  33.785  78.665  0.00  0.00    +0.000 C 
ATOM      6  C   UNL     1       6.511  35.729  77.412  0.00  0.00    +0.000 C 
ATOM      7  C   UNL     1       7.742  34.974  77.886  0.00  0.00    +0.000 C 
ENDROOT
BRANCH   1  13
ATOM      8  C   UNL     1       5.900  29.463  80.972  0.00  0.00    +0.000 A 
ATOM      9  C   UNL     1       4.947  29.666  79.965  0.00  0.00    +0.000 A 
ATOM     10  C   UNL     1       6.381  30.572  81.678  0.00  0.00    +0.000 A 
ATOM     11  C   UNL     1       4.556  30.971  79.622  0.00  0.00    +0.000 A 
ATOM     12  C   UNL     1       5.933  31.862  81.380  0.00  0.00    +0.000 A 
ATOM     13  C   UNL     1       5.098  32.081  80.283  0.00  0.00    +0.000 A 
BRANCH   8  15
ATOM     14  F   UNL     1       5.521  27.095  81.198  0.00  0.00    +0.000 F 
ATOM     15  C   UNL     1       6.441  28.093  81.309  0.00  0.00    +0.000 C 
ATOM     16  F   UNL     1       6.912  28.026  82.587  0.00  0.00    +0.000 F 
ATOM     17  F   UNL     1       7.485  27.732  80.512  0.00  0.00    +0.000 F 
ENDBRANCH   8  15
ENDBRANCH   1  13
BRANCH   5  18
ATOM     18  C   UNL     1       7.320  32.412  78.047  0.00  0.00    +0.000 A 
ATOM     19  C   UNL     1       6.564  31.959  76.960  0.00  0.00    +0.000 A 
ATOM     20  C   UNL     1       8.211  31.515  78.669  0.00  0.00    +0.000 A 
ATOM     21  C   UNL     1       6.641  30.622  76.561  0.00  0.00    +0.000 A 
ATOM     22  C   UNL     1       8.291  30.185  78.264  0.00  0.00    +0.000 A 
ATOM     23  C   UNL     1       7.495  29.735  77.218  0.00  0.00    +0.000 A 
ENDBRANCH   5  18
BRANCH   4  24
ATOM     24  C   UNL     1       4.156  36.038  77.950  0.00  0.00    +0.000 C 
ATOM     25  O   UNL     1       3.706  35.545  76.921  0.00  0.00    +0.000 OA
ATOM     26  O   UNL     1       3.424  36.887  78.700  0.00  0.00    +0.000 OA
ENDBRANCH   4  24
BRANCH   7  27
ATOM     27  C   UNL     1       8.843  34.609  76.919  0.00  0.00    +0.000 C 
ATOM     28  O   UNL     1       8.619  34.455  75.724  0.00  0.00    +0.000 OA
ATOM     29  O   UNL     1      10.069  34.410  77.429  0.00  0.00    +0.000 OA
ENDBRANCH   7  27
BRANCH   4  30
ATOM     30  C   UNL     1       5.886  36.561  79.752  0.00  0.00    +0.000 C 
BRANCH  30  31
ATOM     31  C   UNL     1       6.662  37.800  79.305  0.00  0.00    +0.000 C 
BRANCH  31  32
ATOM     32  C   UNL     1       7.751  38.201  80.300  0.00  0.00    +0.000 C 
ATOM     33  C   UNL     1       9.042  38.523  79.563  0.00  0.00    +0.000 C 
ENDBRANCH  31  32
ENDBRANCH  30  31
ENDBRANCH   4  30
TORSDOF 8
ENDMDL
MODEL 4
REMARK VINA RESULT:      -7.0      2.073      3.180
REMARK  Name = 
REMARK  9 active torsions:
REMARK  status: ('A' for Active; 'I' for Inactive)
REMARK    1  A    between atoms: C_2  and  C_5
REMARK    2  A    between atoms: C_10  and  C_11
REMARK    3  A    between atoms: C_14  and  C_16
REMARK    4  A    between atoms: C_14  and  C_18
REMARK    5  A    between atoms: C_15  and  C_19
REMARK    6  A    between atoms: C_18  and  C_23
REMARK    7  A    between atoms: C_20  and  C_26
REMARK    8  A    between atoms: C_23  and  C_27
REMARK    9  A    between atoms: C_27  and  C_32
REMARK                            x       y       z     vdW  Elec       q    Type
REMARK                         _______ _______ _______ _____ _____    ______ ____
ROOT
ATOM      1  C   UNL     1       5.619  31.046  79.227  0.00  0.00    +0.000 C 
ATOM      2  O   UNL     1       5.196  29.926  79.538  0.00  0.00    +0.000 OA
ATOM      3  N   UNL     1       4.769  32.162  79.369  0.00  0.00    +0.000 N 
ATOM      4  C   UNL     1       3.559  32.104  80.243  0.00  0.00    +0.000 C 
ATOM      5  C   UNL     1       5.083  33.579  79.027  0.00  0.00    +0.000 C 
ATOM      6  C   UNL     1       2.794  33.357  79.712  0.00  0.00    +0.000 C 
ATOM      7  C   UNL     1       3.881  34.403  79.525  0.00  0.00    +0.000 C 
ENDROOT
BRANCH   1  13
ATOM      8  C   UNL     1       9.241  31.568  76.962  0.00  0.00    +0.000 A 
ATOM      9  C   UNL     1       8.165  30.846  76.431  0.00  0.00    +0.000 A 
ATOM     10  C   UNL     1       9.178  31.986  78.297  0.00  0.00    +0.000 A 
ATOM     11  C   UNL     1       7.014  30.629  77.206  0.00  0.00    +0.000 A 
ATOM     12  C   UNL     1       8.059  31.704  79.086  0.00  0.00    +0.000 A 
ATOM     13  C   UNL     1       6.928  31.116  78.517  0.00  0.00    +0.000 A 
BRANCH   8  15
ATOM     14  F   UNL     1      11.558  32.224  76.888  0.00  0.00    +0.000 F 
ATOM     15  C   UNL     1      10.458  31.929  76.142  0.00  0.00    +0.000 C 
ATOM     16  F   UNL     1      10.240  33.017  75.351  0.00  0.00    +0.000 F 
ATOM     17  F   UNL     1      10.835  30.929  75.298  0.00  0.00    +0.000 F 
ENDBRANCH   8  15
ENDBRANCH   1  13
BRANCH   5  18
ATOM     18  C   UNL     1       5.507  33.792  77.588  0.00  0.00    +0.000 A 
ATOM     19  C   UNL     1       4.829  33.236  76.496  0.00  0.00    +0.000 A 
ATOM     20  C   UNL     1       6.703  34.498  77.351  0.00  0.00    +0.000 A 
ATOM     21  C   UNL     1       5.380  33.317  75.215  0.00  0.00    +0.000 A 
ATOM     22  C   UNL     1       7.244  34.585  76.071  0.00  0.00    +0.000 A 
ATOM     23  C   UNL     1       6.589  33.982  75.004  0.00  0.00    +0.000 A 
ENDBRANCH   5  18
BRANCH   4  24
ATOM     24  C   UNL     1       2.510  30.967  80.079  0.00  0.00    +0.000 C 
ATOM     25  O   UNL     1       1.904  30.759  79.033  0.00  0.00    +0.000 OA
ATOM     26  O   UNL     1       2.439  30.105  81.113  0.00  0.00    +0.000 OA
ENDBRANCH   4  24
BRANCH   7  27
ATOM     27  C   UNL     1       3.612  35.664  78.739  0.00  0.00    +0.000 C 
ATOM     28  O   UNL     1       4.229  36.699  78.961  0.00  0.00    +0.000 OA
ATOM     29  O   UNL     1       2.635  35.619  77.819  0.00  0.00    +0.000 OA
ENDBRANCH   7  27
BRANCH   4  30
ATOM     30  C   UNL     1       3.909  32.289  81.754  0.00  0.00    +0.000 C 
BRANCH  30  31
ATOM     31  C   UNL     1       2.857  33.051  82.559  0.00  0.00    +0.000 C 
BRANCH  31  32
ATOM     32  C   UNL     1       3.446  34.246  83.311  0.00  0.00    +0.000 C 
ATOM     33  C   UNL     1       4.946  34.330  83.068  0.00  0.00    +0.000 C 
ENDBRANCH  31  32
ENDBRANCH  30  31
ENDBRANCH   4  30
TORSDOF 8
ENDMDL
MODEL 5
REMARK VINA RESULT:      -6.9      3.978      6.430
REMARK  Name = 
REMARK  9 active torsions:
REMARK  status: ('A' for Active; 'I' for Inactive)
REMARK    1  A    between atoms: C_2  and  C_5
REMARK    2  A    between atoms: C_10  and  C_11
REMARK    3  A    between atoms: C_14  and  C_16
REMARK    4  A    between atoms: C_14  and  C_18
REMARK    5  A    between atoms: C_15  and  C_19
REMARK    6  A    between atoms: C_18  and  C_23
REMARK    7  A    between atoms: C_20  and  C_26
REMARK    8  A    between atoms: C_23  and  C_27
REMARK    9  A    between atoms: C_27  and  C_32
REMARK                            x       y       z     vdW  Elec       q    Type
REMARK                         _______ _______ _______ _____ _____    ______ ____
ROOT
ATOM      1  C   UNL     1       5.936  36.022  78.348  0.00  0.00    +0.000 C 
ATOM      2  O   UNL     1       5.678  37.130  77.862  0.00  0.00    +0.000 OA
ATOM      3  N   UNL     1       6.770  35.950  79.482  0.00  0.00    +0.000 N 
ATOM      4  C   UNL     1       7.009  37.148  80.342  0.00  0.00    +0.000 C 
ATOM      5  C   UNL     1       7.216  34.716  80.192  0.00  0.00    +0.000 C 
ATOM      6  C   UNL     1       8.270  36.661  81.123  0.00  0.00    +0.000 C 
ATOM      7  C   UNL     1       7.968  35.206  81.443  0.00  0.00    +0.000 C 
ENDROOT
BRANCH   1  13
ATOM      8  C   UNL     1       5.092  32.355  76.257  0.00  0.00    +0.000 A 
ATOM      9  C   UNL     1       5.986  33.293  75.723  0.00  0.00    +0.000 A 
ATOM     10  C   UNL     1       4.365  32.697  77.404  0.00  0.00    +0.000 A 
ATOM     11  C   UNL     1       6.202  34.513  76.384  0.00  0.00    +0.000 A 
ATOM     12  C   UNL     1       4.532  33.942  78.016  0.00  0.00    +0.000 A 
ATOM     13  C   UNL     1       5.526  34.816  77.573  0.00  0.00    +0.000 A 
BRANCH   8  15
ATOM     14  F   UNL     1       3.898  30.264  76.227  0.00  0.00    +0.000 F 
ATOM     15  C   UNL     1       4.901  30.983  75.653  0.00  0.00    +0.000 C 
ATOM     16  F   UNL     1       6.021  30.214  75.760  0.00  0.00    +0.000 F 
ATOM     17  F   UNL     1       4.614  31.033  74.323  0.00  0.00    +0.000 F 
ENDBRANCH   8  15
ENDBRANCH   1  13
BRANCH   5  18
ATOM     18  C   UNL     1       7.938  33.718  79.310  0.00  0.00    +0.000 A 
ATOM     19  C   UNL     1       8.960  34.073  78.423  0.00  0.00    +0.000 A 
ATOM     20  C   UNL     1       7.479  32.385  79.312  0.00  0.00    +0.000 A 
ATOM     21  C   UNL     1       9.451  33.137  77.509  0.00  0.00    +0.000 A 
ATOM     22  C   UNL     1       7.977  31.453  78.406  0.00  0.00    +0.000 A 
ATOM     23  C   UNL     1       8.954  31.834  77.494  0.00  0.00    +0.000 A 
ENDBRANCH   5  18
BRANCH   4  24
ATOM     24  C   UNL     1       7.488  38.492  79.722  0.00  0.00    +0.000 C 
ATOM     25  O   UNL     1       6.761  39.473  79.601  0.00  0.00    +0.000 OA
ATOM     26  O   UNL     1       8.814  38.569  79.487  0.00  0.00    +0.000 OA
ENDBRANCH   4  24
BRANCH   7  27
ATOM     27  C   UNL     1       9.058  34.280  81.926  0.00  0.00    +0.000 C 
ATOM     28  O   UNL     1       8.799  33.263  82.558  0.00  0.00    +0.000 OA
ATOM     29  O   UNL     1      10.328  34.641  81.678  0.00  0.00    +0.000 OA
ENDBRANCH   7  27
BRANCH   4  30
ATOM     30  C   UNL     1       5.831  37.411  81.333  0.00  0.00    +0.000 C 
BRANCH  30  31
ATOM     31  C   UNL     1       6.250  38.044  82.660  0.00  0.00    +0.000 C 
BRANCH  31  32
ATOM     32  C   UNL     1       5.551  39.379  82.921  0.00  0.00    +0.000 C 
ATOM     33  C   UNL     1       6.574  40.503  82.984  0.00  0.00    +0.000 C 
ENDBRANCH  31  32
ENDBRANCH  30  31
ENDBRANCH   4  30
TORSDOF 8
ENDMDL
MODEL 6
REMARK VINA RESULT:      -6.9      4.292      6.532
REMARK  Name = 
REMARK  9 active torsions:
REMARK  status: ('A' for Active; 'I' for Inactive)
REMARK    1  A    between atoms: C_2  and  C_5
REMARK    2  A    between atoms: C_10  and  C_11
REMARK    3  A    between atoms: C_14  and  C_16
REMARK    4  A    between atoms: C_14  and  C_18
REMARK    5  A    between atoms: C_15  and  C_19
REMARK    6  A    between atoms: C_18  and  C_23
REMARK    7  A    between atoms: C_20  and  C_26
REMARK    8  A    between atoms: C_23  and  C_27
REMARK    9  A    between atoms: C_27  and  C_32
REMARK                            x       y       z     vdW  Elec       q    Type
REMARK                         _______ _______ _______ _____ _____    ______ ____
ROOT
ATOM      1  C   UNL     1       7.671  31.365  76.900  0.00  0.00    +0.000 C 
ATOM      2  O   UNL     1       8.516  30.464  76.954  0.00  0.00    +0.000 OA
ATOM      3  N   UNL     1       8.085  32.703  77.065  0.00  0.00    +0.000 N 
ATOM      4  C   UNL     1       9.517  33.094  76.892  0.00  0.00    +0.000 C 
ATOM      5  C   UNL     1       7.221  33.917  77.059  0.00  0.00    +0.000 C 
ATOM      6  C   UNL     1       9.491  34.492  77.587  0.00  0.00    +0.000 C 
ATOM      7  C   UNL     1       8.187  35.115  77.115  0.00  0.00    +0.000 C 
ENDROOT
BRANCH   1  13
ATOM      8  C   UNL     1       3.449  30.549  77.070  0.00  0.00    +0.000 A 
ATOM      9  C   UNL     1       4.287  30.196  78.135  0.00  0.00    +0.000 A 
ATOM     10  C   UNL     1       4.026  31.032  75.889  0.00  0.00    +0.000 A 
ATOM     11  C   UNL     1       5.672  30.409  78.038  0.00  0.00    +0.000 A 
ATOM     12  C   UNL     1       5.412  31.174  75.774  0.00  0.00    +0.000 A 
ATOM     13  C   UNL     1       6.235  30.964  76.881  0.00  0.00    +0.000 A 
BRANCH   8  15
ATOM     14  F   UNL     1       1.391  29.639  76.209  0.00  0.00    +0.000 F 
ATOM     15  C   UNL     1       1.943  30.446  77.156  0.00  0.00    +0.000 C 
ATOM     16  F   UNL     1       1.336  31.658  77.015  0.00  0.00    +0.000 F 
ATOM     17  F   UNL     1       1.520  29.960  78.356  0.00  0.00    +0.000 F 
ENDBRANCH   8  15
ENDBRANCH   1  13
BRANCH   5  18
ATOM     18  C   UNL     1       6.107  33.893  78.085  0.00  0.00    +0.000 A 
ATOM     19  C   UNL     1       6.300  33.526  79.422  0.00  0.00    +0.000 A 
ATOM     20  C   UNL     1       4.795  34.150  77.640  0.00  0.00    +0.000 A 
ATOM     21  C   UNL     1       5.200  33.345  80.265  0.00  0.00    +0.000 A 
ATOM     22  C   UNL     1       3.702  33.977  78.484  0.00  0.00    +0.000 A 
ATOM     23  C   UNL     1       3.904  33.561  79.795  0.00  0.00    +0.000 A 
ENDBRANCH   5  18
BRANCH   4  24
ATOM     24  C   UNL     1      10.646  32.349  77.662  0.00  0.00    +0.000 C 
ATOM     25  O   UNL     1      11.739  32.093  77.167  0.00  0.00    +0.000 OA
ATOM     26  O   UNL     1      10.409  32.161  78.976  0.00  0.00    +0.000 OA
ENDBRANCH   4  24
BRANCH   7  27
ATOM     27  C   UNL     1       7.630  36.344  77.793  0.00  0.00    +0.000 C 
ATOM     28  O   UNL     1       6.848  37.092  77.217  0.00  0.00    +0.000 OA
ATOM     29  O   UNL     1       8.063  36.612  79.035  0.00  0.00    +0.000 OA
ENDBRANCH   7  27
BRANCH   4  30
ATOM     30  C   UNL     1       9.913  33.248  75.389  0.00  0.00    +0.000 C 
BRANCH  30  31
ATOM     31  C   UNL     1      10.905  34.377  75.108  0.00  0.00    +0.000 C 
BRANCH  31  32
ATOM     32  C   UNL     1      12.231  33.865  74.544  0.00  0.00    +0.000 C 
ATOM     33  C   UNL     1      12.210  33.919  73.024  0.00  0.00    +0.000 C 
ENDBRANCH  31  32
ENDBRANCH  30  31
ENDBRANCH   4  30
TORSDOF 8
ENDMDL
MODEL 7
REMARK VINA RESULT:      -6.8      2.129      3.244
REMARK  Name = 
REMARK  9 active torsions:
REMARK  status: ('A' for Active; 'I' for Inactive)
REMARK    1  A    between atoms: C_2  and  C_5
REMARK    2  A    between atoms: C_10  and  C_11
REMARK    3  A    between atoms: C_14  and  C_16
REMARK    4  A    between atoms: C_14  and  C_18
REMARK    5  A    between atoms: C_15  and  C_19
REMARK    6  A    between atoms: C_18  and  C_23
REMARK    7  A    between atoms: C_20  and  C_26
REMARK    8  A    between atoms: C_23  and  C_27
REMARK    9  A    between atoms: C_27  and  C_32
REMARK                            x       y       z     vdW  Elec       q    Type
REMARK                         _______ _______ _______ _____ _____    ______ ____
ROOT
ATOM      1  C   UNL     1       6.766  30.967  77.199  0.00  0.00    +0.000 C 
ATOM      2  O   UNL     1       6.327  30.124  76.407  0.00  0.00    +0.000 OA
ATOM      3  N   UNL     1       6.052  31.230  78.385  0.00  0.00    +0.000 N 
ATOM      4  C   UNL     1       5.037  30.264  78.905  0.00  0.00    +0.000 C 
ATOM      5  C   UNL     1       6.402  32.220  79.443  0.00  0.00    +0.000 C 
ATOM      6  C   UNL     1       4.283  31.193  79.908  0.00  0.00    +0.000 C 
ATOM      7  C   UNL     1       5.390  31.987  80.581  0.00  0.00    +0.000 C 
ENDROOT
BRANCH   1  13
ATOM      8  C   UNL     1       9.920  33.696  76.136  0.00  0.00    +0.000 A 
ATOM      9  C   UNL     1       8.671  33.768  75.505  0.00  0.00    +0.000 A 
ATOM     10  C   UNL     1      10.175  32.630  77.006  0.00  0.00    +0.000 A 
ATOM     11  C   UNL     1       7.673  32.830  75.816  0.00  0.00    +0.000 A 
ATOM     12  C   UNL     1       9.201  31.658  77.255  0.00  0.00    +0.000 A 
ATOM     13  C   UNL     1       7.911  31.809  76.745  0.00  0.00    +0.000 A 
BRANCH   8  15
ATOM     14  F   UNL     1      10.608  36.002  76.260  0.00  0.00    +0.000 F 
ATOM     15  C   UNL     1      10.994  34.739  75.926  0.00  0.00    +0.000 C 
ATOM     16  F   UNL     1      11.400  34.804  74.626  0.00  0.00    +0.000 F 
ATOM     17  F   UNL     1      12.118  34.486  76.651  0.00  0.00    +0.000 F 
ENDBRANCH   8  15
ENDBRANCH   1  13
BRANCH   5  18
ATOM     18  C   UNL     1       6.547  33.642  78.941  0.00  0.00    +0.000 A 
ATOM     19  C   UNL     1       5.614  34.260  78.101  0.00  0.00    +0.000 A 
ATOM     20  C   UNL     1       7.735  34.333  79.254  0.00  0.00    +0.000 A 
ATOM     21  C   UNL     1       5.902  35.501  77.526  0.00  0.00    +0.000 A 
ATOM     22  C   UNL     1       8.015  35.574  78.687  0.00  0.00    +0.000 A 
ATOM     23  C   UNL     1       7.103  36.152  77.812  0.00  0.00    +0.000 A 
ENDBRANCH   5  18
BRANCH   4  24
ATOM     24  C   UNL     1       3.891  29.742  77.992  0.00  0.00    +0.000 C 
ATOM     25  O   UNL     1       3.975  28.712  77.332  0.00  0.00    +0.000 OA
ATOM     26  O   UNL     1       2.722  30.405  78.111  0.00  0.00    +0.000 OA
ENDBRANCH   4  24
BRANCH   7  27
ATOM     27  C   UNL     1       5.070  33.214  81.401  0.00  0.00    +0.000 C 
ATOM     28  O   UNL     1       5.838  33.623  82.265  0.00  0.00    +0.000 OA
ATOM     29  O   UNL     1       3.888  33.811  81.180  0.00  0.00    +0.000 OA
ENDBRANCH   7  27
BRANCH   4  30
ATOM     30  C   UNL     1       5.693  29.069  79.668  0.00  0.00    +0.000 C 
BRANCH  30  31
ATOM     31  C   UNL     1       4.759  28.351  80.642  0.00  0.00    +0.000 C 
BRANCH  31  32
ATOM     32  C   UNL     1       5.451  27.207  81.384  0.00  0.00    +0.000 C 
ATOM     33  C   UNL     1       6.699  27.719  82.088  0.00  0.00    +0.000 C 
ENDBRANCH  31  32
ENDBRANCH  30  31
ENDBRANCH   4  30
TORSDOF 8
ENDMDL
MODEL 8
REMARK VINA RESULT:      -6.8      3.381      5.687
REMARK  Name = 
REMARK  9 active torsions:
REMARK  status: ('A' for Active; 'I' for Inactive)
REMARK    1  A    between atoms: C_2  and  C_5
REMARK    2  A    between atoms: C_10  and  C_11
REMARK    3  A    between atoms: C_14  and  C_16
REMARK    4  A    between atoms: C_14  and  C_18
REMARK    5  A    between atoms: C_15  and  C_19
REMARK    6  A    between atoms: C_18  and  C_23
REMARK    7  A    between atoms: C_20  and  C_26
REMARK    8  A    between atoms: C_23  and  C_27
REMARK    9  A    between atoms: C_27  and  C_32
REMARK                            x       y       z     vdW  Elec       q    Type
REMARK                         _______ _______ _______ _____ _____    ______ ____
ROOT
ATOM      1  C   UNL     1       6.354  34.057  77.162  0.00  0.00    +0.000 C 
ATOM      2  O   UNL     1       5.780  34.076  76.067  0.00  0.00    +0.000 OA
ATOM      3  N   UNL     1       6.355  32.864  77.913  0.00  0.00    +0.000 N 
ATOM      4  C   UNL     1       6.057  31.548  77.272  0.00  0.00    +0.000 C 
ATOM      5  C   UNL     1       6.966  32.650  79.256  0.00  0.00    +0.000 C 
ATOM      6  C   UNL     1       5.763  30.698  78.548  0.00  0.00    +0.000 C 
ATOM      7  C   UNL     1       6.823  31.143  79.541  0.00  0.00    +0.000 C 
ENDROOT
BRANCH   1  13
ATOM      8  C   UNL     1       7.619  37.663  79.142  0.00  0.00    +0.000 A 
ATOM      9  C   UNL     1       6.265  37.440  78.862  0.00  0.00    +0.000 A 
ATOM     10  C   UNL     1       8.568  36.768  78.634  0.00  0.00    +0.000 A 
ATOM     11  C   UNL     1       5.874  36.289  78.158  0.00  0.00    +0.000 A 
ATOM     12  C   UNL     1       8.177  35.663  77.872  0.00  0.00    +0.000 A 
ATOM     13  C   UNL     1       6.824  35.359  77.717  0.00  0.00    +0.000 A 
BRANCH   8  15
ATOM     14  F   UNL     1       9.327  39.283  79.655  0.00  0.00    +0.000 F 
ATOM     15  C   UNL     1       8.090  38.823  79.989  0.00  0.00    +0.000 C 
ATOM     16  F   UNL     1       8.156  38.499  81.312  0.00  0.00    +0.000 F 
ATOM     17  F   UNL     1       7.257  39.898  79.914  0.00  0.00    +0.000 F 
ENDBRANCH   8  15
ENDBRANCH   1  13
BRANCH   5  18
ATOM     18  C   UNL     1       6.464  33.596  80.327  0.00  0.00    +0.000 A 
ATOM     19  C   UNL     1       5.107  33.877  80.531  0.00  0.00    +0.000 A 
ATOM     20  C   UNL     1       7.419  34.307  81.080  0.00  0.00    +0.000 A 
ATOM     21  C   UNL     1       4.726  34.897  81.406  0.00  0.00    +0.000 A 
ATOM     22  C   UNL     1       7.036  35.317  81.958  0.00  0.00    +0.000 A 
ATOM     23  C   UNL     1       5.689  35.621  82.111  0.00  0.00    +0.000 A 
ENDBRANCH   5  18
BRANCH   4  24
ATOM     24  C   UNL     1       4.768  31.349  76.423  0.00  0.00    +0.000 C 
ATOM     25  O   UNL     1       4.784  30.957  75.261  0.00  0.00    +0.000 OA
ATOM     26  O   UNL     1       3.612  31.464  77.108  0.00  0.00    +0.000 OA
ENDBRANCH   4  24
BRANCH   7  27
ATOM     27  C   UNL     1       6.708  30.786  81.004  0.00  0.00    +0.000 C 
ATOM     28  O   UNL     1       7.692  30.759  81.734  0.00  0.00    +0.000 OA
ATOM     29  O   UNL     1       5.491  30.452  81.463  0.00  0.00    +0.000 OA
ENDBRANCH   7  27
BRANCH   4  30
ATOM     30  C   UNL     1       7.289  30.966  76.509  0.00  0.00    +0.000 C 
BRANCH  30  31
ATOM     31  C   UNL     1       8.315  32.012  76.073  0.00  0.00    +0.000 C 
BRANCH  31  32
ATOM     32  C   UNL     1       9.720  31.708  76.594  0.00  0.00    +0.000 C 
ATOM     33  C   UNL     1      10.698  31.601  75.432  0.00  0.00    +0.000 C 
ENDBRANCH  31  32
ENDBRANCH  30  31
ENDBRANCH   4  30
TORSDOF 8
ENDMDL
MODEL 9
REMARK VINA RESULT:      -6.7      4.281      6.869
REMARK  Name = 
REMARK  9 active torsions:
REMARK  status: ('A' for Active; 'I' for Inactive)
REMARK    1  A    between atoms: C_2  and  C_5
REMARK    2  A    between atoms: C_10  and  C_11
REMARK    3  A    between atoms: C_14  and  C_16
REMARK    4  A    between atoms: C_14  and  C_18
REMARK    5  A    between atoms: C_15  and  C_19
REMARK    6  A    between atoms: C_18  and  C_23
REMARK    7  A    between atoms: C_20  and  C_26
REMARK    8  A    between atoms: C_23  and  C_27
REMARK    9  A    between atoms: C_27  and  C_32
REMARK                            x       y       z     vdW  Elec       q    Type
REMARK                         _______ _______ _______ _____ _____    ______ ____
ROOT
ATOM      1  C   UNL     1       5.156  35.505  79.422  0.00  0.00    +0.000 C 
ATOM      2  O   UNL     1       4.532  36.517  79.764  0.00  0.00    +0.000 OA
ATOM      3  N   UNL     1       6.500  35.635  79.018  0.00  0.00    +0.000 N 
ATOM      4  C   UNL     1       7.299  36.847  79.371  0.00  0.00    +0.000 C 
ATOM      5  C   UNL     1       7.405  34.547  78.549  0.00  0.00    +0.000 C 
ATOM      6  C   UNL     1       8.478  36.685  78.361  0.00  0.00    +0.000 C 
ATOM      7  C   UNL     1       8.792  35.198  78.393  0.00  0.00    +0.000 C 
ENDROOT
BRANCH   1  13
ATOM      8  C   UNL     1       3.181  31.766  78.618  0.00  0.00    +0.000 A 
ATOM      9  C   UNL     1       2.883  32.908  77.863  0.00  0.00    +0.000 A 
ATOM     10  C   UNL     1       4.017  31.897  79.735  0.00  0.00    +0.000 A 
ATOM     11  C   UNL     1       3.487  34.136  78.178  0.00  0.00    +0.000 A 
ATOM     12  C   UNL     1       4.557  33.137  80.086  0.00  0.00    +0.000 A 
ATOM     13  C   UNL     1       4.382  34.242  79.252  0.00  0.00    +0.000 A 
BRANCH   8  15
ATOM     14  F   UNL     1       1.326  30.232  78.534  0.00  0.00    +0.000 F 
ATOM     15  C   UNL     1       2.650  30.397  78.261  0.00  0.00    +0.000 C 
ATOM     16  F   UNL     1       3.297  29.403  78.932  0.00  0.00    +0.000 F 
ATOM     17  F   UNL     1       2.799  30.107  76.939  0.00  0.00    +0.000 F 
ENDBRANCH   8  15
ENDBRANCH   1  13
BRANCH   5  18
ATOM     18  C   UNL     1       6.880  33.769  77.360  0.00  0.00    +0.000 A 
ATOM     19  C   UNL     1       6.364  34.378  76.210  0.00  0.00    +0.000 A 
ATOM     20  C   UNL     1       6.813  32.366  77.467  0.00  0.00    +0.000 A 
ATOM     21  C   UNL     1       5.726  33.607  75.234  0.00  0.00    +0.000 A 
ATOM     22  C   UNL     1       6.185  31.599  76.489  0.00  0.00    +0.000 A 
ATOM     23  C   UNL     1       5.629  32.223  75.378  0.00  0.00    +0.000 A 
ENDBRANCH   5  18
BRANCH   4  24
ATOM     24  C   UNL     1       6.767  38.274  79.052  0.00  0.00    +0.000 C 
ATOM     25  O   UNL     1       6.254  38.574  77.979  0.00  0.00    +0.000 OA
ATOM     26  O   UNL     1       6.743  39.120  80.102  0.00  0.00    +0.000 OA
ENDBRANCH   4  24
BRANCH   7  27
ATOM     27  C   UNL     1       9.668  34.571  77.335  0.00  0.00    +0.000 C 
ATOM     28  O   UNL     1       9.813  35.091  76.235  0.00  0.00    +0.000 OA
ATOM     29  O   UNL     1      10.243  33.394  77.630  0.00  0.00    +0.000 OA
ENDBRANCH   7  27
BRANCH   4  30
ATOM     30  C   UNL     1       7.836  36.797  80.837  0.00  0.00    +0.000 C 
BRANCH  30  31
ATOM     31  C   UNL     1       9.190  37.478  81.039  0.00  0.00    +0.000 C 
BRANCH  31  32
ATOM     32  C   UNL     1      10.041  36.786  82.105  0.00  0.00    +0.000 C 
ATOM     33  C   UNL     1      10.078  35.286  81.853  0.00  0.00    +0.000 C 
ENDBRANCH  31  32
ENDBRANCH  30  31
ENDBRANCH   4  30
TORSDOF 8
ENDMDL
