MODEL 1
REMARK VINA RESULT:      -7.8      0.000      0.000
REMARK  Name = 
REMARK  6 active torsions:
REMARK  status: ('A' for Active; 'I' for Inactive)
REMARK    1  A    between atoms: C_2  and  C_5
REMARK    2  A    between atoms: C_10  and  C_11
REMARK    3  A    between atoms: C_14  and  C_16
REMARK    4  A    between atoms: C_14  and  C_18
REMARK    5  A    between atoms: C_15  and  C_19
REMARK    6  A    between atoms: C_20  and  C_25
REMARK                            x       y       z     vdW  Elec       q    Type
REMARK                         _______ _______ _______ _____ _____    ______ ____
ROOT
ATOM      1  C   UNL     1       7.144  32.476  76.177  0.00  0.00    +0.000 C 
ATOM      2  O   UNL     1       6.428  32.873  75.264  0.00  0.00    +0.000 OA
ATOM      3  N   UNL     1       6.609  31.940  77.353  0.00  0.00    +0.000 N 
ATOM      4  C   UNL     1       5.148  31.632  77.569  0.00  0.00    +0.000 C 
ATOM      5  C   UNL     1       7.438  31.305  78.401  0.00  0.00    +0.000 C 
ATOM      6  C   UNL     1       5.156  30.544  78.685  0.00  0.00    +0.000 C 
ATOM      7  C   UNL     1       4.394  31.131  76.333  0.00  0.00    +0.000 C 
ATOM      8  C   UNL     1       6.608  30.092  78.787  0.00  0.00    +0.000 C 
ENDROOT
BRANCH   1  14
ATOM      9  C   UNL     1      11.407  32.816  75.580  0.00  0.00    +0.000 A 
ATOM     10  C   UNL     1      10.766  31.570  75.564  0.00  0.00    +0.000 A 
ATOM     11  C   UNL     1      10.645  33.956  75.889  0.00  0.00    +0.000 A 
ATOM     12  C   UNL     1       9.400  31.469  75.827  0.00  0.00    +0.000 A 
ATOM     13  C   UNL     1       9.258  33.858  76.112  0.00  0.00    +0.000 A 
ATOM     14  C   UNL     1       8.625  32.611  76.037  0.00  0.00    +0.000 A 
BRANCH   9  16
ATOM     15  F   UNL     1      13.554  33.751  76.130  0.00  0.00    +0.000 F 
ATOM     16  C   UNL     1      12.888  32.915  75.283  0.00  0.00    +0.000 C 
ATOM     17  F   UNL     1      13.142  33.379  74.029  0.00  0.00    +0.000 F 
ATOM     18  F   UNL     1      13.523  31.714  75.378  0.00  0.00    +0.000 F 
ENDBRANCH   9  16
ENDBRANCH   1  14
BRANCH   5  19
ATOM     19  C   UNL     1       7.832  32.263  79.527  0.00  0.00    +0.000 A 
ATOM     20  C   UNL     1       6.911  32.961  80.324  0.00  0.00    +0.000 A 
ATOM     21  C   UNL     1       9.198  32.528  79.743  0.00  0.00    +0.000 A 
ATOM     22  C   UNL     1       7.324  33.912  81.260  0.00  0.00    +0.000 A 
ATOM     23  C   UNL     1       9.613  33.483  80.679  0.00  0.00    +0.000 A 
ATOM     24  C   UNL     1       8.675  34.181  81.431  0.00  0.00    +0.000 A 
ENDBRANCH   5  19
BRANCH   4  25
ATOM     25  C   UNL     1       4.314  32.846  78.068  0.00  0.00    +0.000 C 
ATOM     26  O   UNL     1       4.327  33.946  77.544  0.00  0.00    +0.000 OA
ATOM     27  O   UNL     1       3.586  32.602  79.176  0.00  0.00    +0.000 OA
ENDBRANCH   4  25
BRANCH   8  28
ATOM     28  C   UNL     1       7.077  29.416  80.049  0.00  0.00    +0.000 C 
ATOM     29  O   UNL     1       6.409  29.435  81.075  0.00  0.00    +0.000 OA
ATOM     30  O   UNL     1       8.236  28.738  79.976  0.00  0.00    +0.000 OA
ENDBRANCH   8  28
TORSDOF 5
ENDMDL
MODEL 2
REMARK VINA RESULT:      -7.6      1.750      4.339
REMARK  Name = 
REMARK  6 active torsions:
REMARK  status: ('A' for Active; 'I' for Inactive)
REMARK    1  A    between atoms: C_2  and  C_5
REMARK    2  A    between atoms: C_10  and  C_11
REMARK    3  A    between atoms: C_14  and  C_16
REMARK    4  A    between atoms: C_14  and  C_18
REMARK    5  A    between atoms: C_15  and  C_19
REMARK    6  A    between atoms: C_20  and  C_25
REMARK                            x       y       z     vdW  Elec       q    Type
REMARK                         _______ _______ _______ _____ _____    ______ ____
ROOT
ATOM      1  C   UNL     1       8.965  31.500  79.043  0.00  0.00    +0.000 C 
ATOM      2  O   UNL     1       9.564  30.731  79.788  0.00  0.00    +0.000 OA
ATOM      3  N   UNL     1       7.650  31.899  79.300  0.00  0.00    +0.000 N 
ATOM      4  C   UNL     1       6.889  31.587  80.565  0.00  0.00    +0.000 C 
ATOM      5  C   UNL     1       6.956  32.946  78.518  0.00  0.00    +0.000 C 
ATOM      6  C   UNL     1       5.805  32.703  80.636  0.00  0.00    +0.000 C 
ATOM      7  C   UNL     1       7.729  31.570  81.847  0.00  0.00    +0.000 C 
ATOM      8  C   UNL     1       6.229  33.733  79.595  0.00  0.00    +0.000 C 
ENDROOT
BRANCH   1  14
ATOM      9  C   UNL     1      11.130  32.844  75.557  0.00  0.00    +0.000 A 
ATOM     10  C   UNL     1      11.241  33.509  76.785  0.00  0.00    +0.000 A 
ATOM     11  C   UNL     1      10.222  31.776  75.454  0.00  0.00    +0.000 A 
ATOM     12  C   UNL     1      10.483  33.107  77.884  0.00  0.00    +0.000 A 
ATOM     13  C   UNL     1       9.488  31.342  76.577  0.00  0.00    +0.000 A 
ATOM     14  C   UNL     1       9.654  31.985  77.810  0.00  0.00    +0.000 A 
BRANCH   9  16
ATOM     15  F   UNL     1      13.304  33.300  74.633  0.00  0.00    +0.000 F 
ATOM     16  C   UNL     1      11.964  33.284  74.374  0.00  0.00    +0.000 C 
ATOM     17  F   UNL     1      11.654  34.540  73.950  0.00  0.00    +0.000 F 
ATOM     18  F   UNL     1      11.809  32.471  73.292  0.00  0.00    +0.000 F 
ENDBRANCH   9  16
ENDBRANCH   1  14
BRANCH   5  19
ATOM     19  C   UNL     1       6.108  32.387  77.375  0.00  0.00    +0.000 A 
ATOM     20  C   UNL     1       5.356  31.205  77.458  0.00  0.00    +0.000 A 
ATOM     21  C   UNL     1       6.127  33.048  76.131  0.00  0.00    +0.000 A 
ATOM     22  C   UNL     1       4.692  30.677  76.348  0.00  0.00    +0.000 A 
ATOM     23  C   UNL     1       5.465  32.519  75.017  0.00  0.00    +0.000 A 
ATOM     24  C   UNL     1       4.755  31.328  75.124  0.00  0.00    +0.000 A 
ENDBRANCH   5  19
BRANCH   4  25
ATOM     25  C   UNL     1       6.177  30.205  80.549  0.00  0.00    +0.000 C 
ATOM     26  O   UNL     1       6.648  29.198  80.049  0.00  0.00    +0.000 OA
ATOM     27  O   UNL     1       4.948  30.206  81.105  0.00  0.00    +0.000 OA
ENDBRANCH   4  25
BRANCH   8  28
ATOM     28  C   UNL     1       5.202  34.692  79.052  0.00  0.00    +0.000 C 
ATOM     29  O   UNL     1       4.001  34.504  79.208  0.00  0.00    +0.000 OA
ATOM     30  O   UNL     1       5.667  35.795  78.442  0.00  0.00    +0.000 OA
ENDBRANCH   8  28
TORSDOF 5
ENDMDL
MODEL 3
REMARK VINA RESULT:      -7.5      1.818      2.414
REMARK  Name = 
REMARK  6 active torsions:
REMARK  status: ('A' for Active; 'I' for Inactive)
REMARK    1  A    between atoms: C_2  and  C_5
REMARK    2  A    between atoms: C_10  and  C_11
REMARK    3  A    between atoms: C_14  and  C_16
REMARK    4  A    between atoms: C_14  and  C_18
REMARK    5  A    between atoms: C_15  and  C_19
REMARK    6  A    between atoms: C_20  and  C_25
REMARK                            x       y       z     vdW  Elec       q    Type
REMARK                         _______ _______ _______ _____ _____    ______ ____
ROOT
ATOM      1  C   UNL     1       5.963  31.240  76.680  0.00  0.00    +0.000 C 
ATOM      2  O   UNL     1       5.324  30.786  75.736  0.00  0.00    +0.000 OA
ATOM      3  N   UNL     1       5.498  31.149  77.995  0.00  0.00    +0.000 N 
ATOM      4  C   UNL     1       4.287  30.359  78.425  0.00  0.00    +0.000 C 
ATOM      5  C   UNL     1       6.313  31.537  79.168  0.00  0.00    +0.000 C 
ATOM      6  C   UNL     1       4.547  30.066  79.933  0.00  0.00    +0.000 C 
ATOM      7  C   UNL     1       4.047  29.056  77.656  0.00  0.00    +0.000 C 
ATOM      8  C   UNL     1       6.010  30.427  80.161  0.00  0.00    +0.000 C 
ENDROOT
BRANCH   1  14
ATOM      9  C   UNL     1       9.662  33.376  76.040  0.00  0.00    +0.000 A 
ATOM     10  C   UNL     1       8.421  34.017  75.929  0.00  0.00    +0.000 A 
ATOM     11  C   UNL     1       9.679  31.990  76.276  0.00  0.00    +0.000 A 
ATOM     12  C   UNL     1       7.233  33.300  76.069  0.00  0.00    +0.000 A 
ATOM     13  C   UNL     1       8.479  31.274  76.460  0.00  0.00    +0.000 A 
ATOM     14  C   UNL     1       7.251  31.944  76.400  0.00  0.00    +0.000 A 
BRANCH   9  16
ATOM     15  F   UNL     1      10.765  35.513  76.011  0.00  0.00    +0.000 F 
ATOM     16  C   UNL     1      10.944  34.166  75.896  0.00  0.00    +0.000 C 
ATOM     17  F   UNL     1      11.546  33.974  74.690  0.00  0.00    +0.000 F 
ATOM     18  F   UNL     1      11.871  33.837  76.837  0.00  0.00    +0.000 F 
ENDBRANCH   9  16
ENDBRANCH   1  14
BRANCH   5  19
ATOM     19  C   UNL     1       6.060  32.971  79.634  0.00  0.00    +0.000 A 
ATOM     20  C   UNL     1       4.801  33.469  80.001  0.00  0.00    +0.000 A 
ATOM     21  C   UNL     1       7.134  33.883  79.632  0.00  0.00    +0.000 A 
ATOM     22  C   UNL     1       4.605  34.819  80.307  0.00  0.00    +0.000 A 
ATOM     23  C   UNL     1       6.940  35.235  79.936  0.00  0.00    +0.000 A 
ATOM     24  C   UNL     1       5.673  35.704  80.264  0.00  0.00    +0.000 A 
ENDBRANCH   5  19
BRANCH   4  25
ATOM     25  C   UNL     1       2.947  31.138  78.297  0.00  0.00    +0.000 C 
ATOM     26  O   UNL     1       2.802  32.143  77.622  0.00  0.00    +0.000 OA
ATOM     27  O   UNL     1       1.939  30.636  79.037  0.00  0.00    +0.000 OA
ENDBRANCH   4  25
BRANCH   8  28
ATOM     28  C   UNL     1       6.483  30.722  81.560  0.00  0.00    +0.000 C 
ATOM     29  O   UNL     1       5.697  30.853  82.490  0.00  0.00    +0.000 OA
ATOM     30  O   UNL     1       7.813  30.774  81.751  0.00  0.00    +0.000 OA
ENDBRANCH   8  28
TORSDOF 5
ENDMDL
MODEL 4
REMARK VINA RESULT:      -7.3      1.352      1.852
REMARK  Name = 
REMARK  6 active torsions:
REMARK  status: ('A' for Active; 'I' for Inactive)
REMARK    1  A    between atoms: C_2  and  C_5
REMARK    2  A    between atoms: C_10  and  C_11
REMARK    3  A    between atoms: C_14  and  C_16
REMARK    4  A    between atoms: C_14  and  C_18
REMARK    5  A    between atoms: C_15  and  C_19
REMARK    6  A    between atoms: C_20  and  C_25
REMARK                            x       y       z     vdW  Elec       q    Type
REMARK                         _______ _______ _______ _____ _____    ______ ____
ROOT
ATOM      1  C   UNL     1       7.304  33.255  76.291  0.00  0.00    +0.000 C 
ATOM      2  O   UNL     1       6.601  33.493  75.314  0.00  0.00    +0.000 OA
ATOM      3  N   UNL     1       6.771  33.189  77.582  0.00  0.00    +0.000 N 
ATOM      4  C   UNL     1       5.299  33.228  77.907  0.00  0.00    +0.000 C 
ATOM      5  C   UNL     1       7.555  32.746  78.757  0.00  0.00    +0.000 C 
ATOM      6  C   UNL     1       5.203  32.527  79.296  0.00  0.00    +0.000 C 
ATOM      7  C   UNL     1       4.385  32.535  76.890  0.00  0.00    +0.000 C 
ATOM      8  C   UNL     1       6.562  31.869  79.502  0.00  0.00    +0.000 C 
ENDROOT
BRANCH   1  14
ATOM      9  C   UNL     1      11.513  32.676  75.521  0.00  0.00    +0.000 A 
ATOM     10  C   UNL     1      10.627  31.592  75.581  0.00  0.00    +0.000 A 
ATOM     11  C   UNL     1      11.019  33.960  75.809  0.00  0.00    +0.000 A 
ATOM     12  C   UNL     1       9.283  31.787  75.900  0.00  0.00    +0.000 A 
ATOM     13  C   UNL     1       9.653  34.162  76.088  0.00  0.00    +0.000 A 
ATOM     14  C   UNL     1       8.772  33.073  76.089  0.00  0.00    +0.000 A 
BRANCH   9  16
ATOM     15  F   UNL     1      13.288  32.880  73.910  0.00  0.00    +0.000 F 
ATOM     16  C   UNL     1      12.967  32.453  75.165  0.00  0.00    +0.000 C 
ATOM     17  F   UNL     1      13.324  31.141  75.212  0.00  0.00    +0.000 F 
ATOM     18  F   UNL     1      13.817  33.106  76.004  0.00  0.00    +0.000 F 
ENDBRANCH   9  16
ENDBRANCH   1  14
BRANCH   5  19
ATOM     19  C   UNL     1       8.182  33.901  79.538  0.00  0.00    +0.000 A 
ATOM     20  C   UNL     1       9.387  33.806  80.252  0.00  0.00    +0.000 A 
ATOM     21  C   UNL     1       7.486  35.123  79.617  0.00  0.00    +0.000 A 
ATOM     22  C   UNL     1       9.856  34.856  81.045  0.00  0.00    +0.000 A 
ATOM     23  C   UNL     1       7.953  36.175  80.412  0.00  0.00    +0.000 A 
ATOM     24  C   UNL     1       9.134  36.038  81.134  0.00  0.00    +0.000 A 
ENDBRANCH   5  19
BRANCH   4  25
ATOM     25  C   UNL     1       4.717  34.664  78.036  0.00  0.00    +0.000 C 
ATOM     26  O   UNL     1       4.824  35.524  77.180  0.00  0.00    +0.000 OA
ATOM     27  O   UNL     1       4.107  34.913  79.212  0.00  0.00    +0.000 OA
ENDBRANCH   4  25
BRANCH   8  28
ATOM     28  C   UNL     1       7.000  31.514  80.898  0.00  0.00    +0.000 C 
ATOM     29  O   UNL     1       6.433  31.968  81.885  0.00  0.00    +0.000 OA
ATOM     30  O   UNL     1       8.003  30.627  81.011  0.00  0.00    +0.000 OA
ENDBRANCH   8  28
TORSDOF 5
ENDMDL
MODEL 5
REMARK VINA RESULT:      -7.3      4.151      5.736
REMARK  Name = 
REMARK  6 active torsions:
REMARK  status: ('A' for Active; 'I' for Inactive)
REMARK    1  A    between atoms: C_2  and  C_5
REMARK    2  A    between atoms: C_10  and  C_11
REMARK    3  A    between atoms: C_14  and  C_16
REMARK    4  A    between atoms: C_14  and  C_18
REMARK    5  A    between atoms: C_15  and  C_19
REMARK    6  A    between atoms: C_20  and  C_25
REMARK                            x       y       z     vdW  Elec       q    Type
REMARK                         _______ _______ _______ _____ _____    ______ ____
ROOT
ATOM      1  C   UNL     1       5.675  34.970  77.222  0.00  0.00    +0.000 C 
ATOM      2  O   UNL     1       4.596  35.013  76.640  0.00  0.00    +0.000 OA
ATOM      3  N   UNL     1       6.564  33.905  77.046  0.00  0.00    +0.000 N 
ATOM      4  C   UNL     1       6.396  32.804  76.028  0.00  0.00    +0.000 C 
ATOM      5  C   UNL     1       7.935  33.897  77.602  0.00  0.00    +0.000 C 
ATOM      6  C   UNL     1       7.844  32.275  75.805  0.00  0.00    +0.000 C 
ATOM      7  C   UNL     1       5.768  33.234  74.697  0.00  0.00    +0.000 C 
ATOM      8  C   UNL     1       8.750  33.312  76.461  0.00  0.00    +0.000 C 
ENDROOT
BRANCH   1  14
ATOM      9  C   UNL     1       6.800  38.022  80.061  0.00  0.00    +0.000 A 
ATOM     10  C   UNL     1       6.044  36.909  80.450  0.00  0.00    +0.000 A 
ATOM     11  C   UNL     1       7.110  38.178  78.699  0.00  0.00    +0.000 A 
ATOM     12  C   UNL     1       5.629  35.966  79.510  0.00  0.00    +0.000 A 
ATOM     13  C   UNL     1       6.727  37.203  77.756  0.00  0.00    +0.000 A 
ATOM     14  C   UNL     1       6.021  36.068  78.173  0.00  0.00    +0.000 A 
BRANCH   9  16
ATOM     15  F   UNL     1       8.238  39.861  80.640  0.00  0.00    +0.000 F 
ATOM     16  C   UNL     1       7.253  39.033  81.092  0.00  0.00    +0.000 C 
ATOM     17  F   UNL     1       7.747  38.450  82.218  0.00  0.00    +0.000 F 
ATOM     18  F   UNL     1       6.245  39.852  81.502  0.00  0.00    +0.000 F 
ENDBRANCH   9  16
ENDBRANCH   1  14
BRANCH   5  19
ATOM     19  C   UNL     1       8.037  33.196  78.957  0.00  0.00    +0.000 A 
ATOM     20  C   UNL     1       7.482  31.938  79.236  0.00  0.00    +0.000 A 
ATOM     21  C   UNL     1       8.661  33.872  80.024  0.00  0.00    +0.000 A 
ATOM     22  C   UNL     1       7.503  31.394  80.523  0.00  0.00    +0.000 A 
ATOM     23  C   UNL     1       8.680  33.330  81.314  0.00  0.00    +0.000 A 
ATOM     24  C   UNL     1       8.093  32.096  81.565  0.00  0.00    +0.000 A 
ENDBRANCH   5  19
BRANCH   4  25
ATOM     25  C   UNL     1       5.507  31.624  76.513  0.00  0.00    +0.000 C 
ATOM     26  O   UNL     1       4.484  31.760  77.161  0.00  0.00    +0.000 OA
ATOM     27  O   UNL     1       5.983  30.403  76.196  0.00  0.00    +0.000 OA
ENDBRANCH   4  25
BRANCH   8  28
ATOM     28  C   UNL     1      10.148  32.917  76.857  0.00  0.00    +0.000 C 
ATOM     29  O   UNL     1      10.492  31.743  76.915  0.00  0.00    +0.000 OA
ATOM     30  O   UNL     1      11.017  33.916  77.084  0.00  0.00    +0.000 OA
ENDBRANCH   8  28
TORSDOF 5
ENDMDL
MODEL 6
REMARK VINA RESULT:      -7.2      3.437      4.365
REMARK  Name = 
REMARK  6 active torsions:
REMARK  status: ('A' for Active; 'I' for Inactive)
REMARK    1  A    between atoms: C_2  and  C_5
REMARK    2  A    between atoms: C_10  and  C_11
REMARK    3  A    between atoms: C_14  and  C_16
REMARK    4  A    between atoms: C_14  and  C_18
REMARK    5  A    between atoms: C_15  and  C_19
REMARK    6  A    between atoms: C_20  and  C_25
REMARK                            x       y       z     vdW  Elec       q    Type
REMARK                         _______ _______ _______ _____ _____    ______ ____
ROOT
ATOM      1  C   UNL     1       5.641  33.920  77.007  0.00  0.00    +0.000 C 
ATOM      2  O   UNL     1       4.847  34.115  76.092  0.00  0.00    +0.000 OA
ATOM      3  N   UNL     1       5.832  32.648  77.556  0.00  0.00    +0.000 N 
ATOM      4  C   UNL     1       5.242  31.375  77.002  0.00  0.00    +0.000 C 
ATOM      5  C   UNL     1       6.892  32.347  78.543  0.00  0.00    +0.000 C 
ATOM      6  C   UNL     1       6.194  30.260  77.529  0.00  0.00    +0.000 C 
ATOM      7  C   UNL     1       5.135  31.314  75.474  0.00  0.00    +0.000 C 
ATOM      8  C   UNL     1       7.413  31.001  78.066  0.00  0.00    +0.000 C 
ENDROOT
BRANCH   1  14
ATOM      9  C   UNL     1       7.821  37.187  78.800  0.00  0.00    +0.000 A 
ATOM     10  C   UNL     1       6.533  36.845  79.234  0.00  0.00    +0.000 A 
ATOM     11  C   UNL     1       8.360  36.501  77.698  0.00  0.00    +0.000 A 
ATOM     12  C   UNL     1       5.813  35.833  78.600  0.00  0.00    +0.000 A 
ATOM     13  C   UNL     1       7.649  35.449  77.085  0.00  0.00    +0.000 A 
ATOM     14  C   UNL     1       6.386  35.085  77.569  0.00  0.00    +0.000 A 
BRANCH   9  16
ATOM     15  F   UNL     1       9.153  37.877  80.681  0.00  0.00    +0.000 F 
ATOM     16  C   UNL     1       8.596  38.280  79.502  0.00  0.00    +0.000 C 
ATOM     17  F   UNL     1       7.824  39.359  79.807  0.00  0.00    +0.000 F 
ATOM     18  F   UNL     1       9.629  38.755  78.752  0.00  0.00    +0.000 F 
ENDBRANCH   9  16
ENDBRANCH   1  14
BRANCH   5  19
ATOM     19  C   UNL     1       6.412  32.429  79.993  0.00  0.00    +0.000 A 
ATOM     20  C   UNL     1       5.270  31.777  80.483  0.00  0.00    +0.000 A 
ATOM     21  C   UNL     1       7.107  33.265  80.889  0.00  0.00    +0.000 A 
ATOM     22  C   UNL     1       4.811  31.980  81.786  0.00  0.00    +0.000 A 
ATOM     23  C   UNL     1       6.647  33.471  82.195  0.00  0.00    +0.000 A 
ATOM     24  C   UNL     1       5.493  32.836  82.640  0.00  0.00    +0.000 A 
ENDBRANCH   5  19
BRANCH   4  25
ATOM     25  C   UNL     1       3.802  31.075  77.505  0.00  0.00    +0.000 C 
ATOM     26  O   UNL     1       2.983  31.933  77.787  0.00  0.00    +0.000 OA
ATOM     27  O   UNL     1       3.526  29.763  77.652  0.00  0.00    +0.000 OA
ENDBRANCH   4  25
BRANCH   8  28
ATOM     28  C   UNL     1       8.310  30.313  79.061  0.00  0.00    +0.000 C 
ATOM     29  O   UNL     1       7.952  29.306  79.660  0.00  0.00    +0.000 OA
ATOM     30  O   UNL     1       9.544  30.821  79.216  0.00  0.00    +0.000 OA
ENDBRANCH   8  28
TORSDOF 5
ENDMDL
MODEL 7
REMARK VINA RESULT:      -7.1      1.727      2.232
REMARK  Name = 
REMARK  6 active torsions:
REMARK  status: ('A' for Active; 'I' for Inactive)
REMARK    1  A    between atoms: C_2  and  C_5
REMARK    2  A    between atoms: C_10  and  C_11
REMARK    3  A    between atoms: C_14  and  C_16
REMARK    4  A    between atoms: C_14  and  C_18
REMARK    5  A    between atoms: C_15  and  C_19
REMARK    6  A    between atoms: C_20  and  C_25
REMARK                            x       y       z     vdW  Elec       q    Type
REMARK                         _______ _______ _______ _____ _____    ______ ____
ROOT
ATOM      1  C   UNL     1       5.558  31.524  77.234  0.00  0.00    +0.000 C 
ATOM      2  O   UNL     1       4.725  31.798  76.376  0.00  0.00    +0.000 OA
ATOM      3  N   UNL     1       5.220  30.805  78.384  0.00  0.00    +0.000 N 
ATOM      4  C   UNL     1       3.882  30.150  78.626  0.00  0.00    +0.000 C 
ATOM      5  C   UNL     1       6.224  30.318  79.356  0.00  0.00    +0.000 C 
ATOM      6  C   UNL     1       4.196  29.027  79.659  0.00  0.00    +0.000 C 
ATOM      7  C   UNL     1       3.205  29.565  77.382  0.00  0.00    +0.000 C 
ATOM      8  C   UNL     1       5.717  28.922  79.681  0.00  0.00    +0.000 C 
ENDROOT
BRANCH   1  14
ATOM      9  C   UNL     1       9.577  32.932  76.520  0.00  0.00    +0.000 A 
ATOM     10  C   UNL     1       9.190  31.630  76.179  0.00  0.00    +0.000 A 
ATOM     11  C   UNL     1       8.651  33.752  77.189  0.00  0.00    +0.000 A 
ATOM     12  C   UNL     1       7.909  31.165  76.479  0.00  0.00    +0.000 A 
ATOM     13  C   UNL     1       7.344  33.297  77.453  0.00  0.00    +0.000 A 
ATOM     14  C   UNL     1       6.959  32.011  77.055  0.00  0.00    +0.000 A 
BRANCH   9  16
ATOM     15  F   UNL     1      11.069  34.788  76.176  0.00  0.00    +0.000 F 
ATOM     16  C   UNL     1      10.966  33.428  76.181  0.00  0.00    +0.000 C 
ATOM     17  F   UNL     1      11.383  33.021  74.951  0.00  0.00    +0.000 F 
ATOM     18  F   UNL     1      11.908  32.992  77.063  0.00  0.00    +0.000 F 
ENDBRANCH   9  16
ENDBRANCH   1  14
BRANCH   5  19
ATOM     19  C   UNL     1       6.439  31.268  80.534  0.00  0.00    +0.000 A 
ATOM     20  C   UNL     1       5.407  31.760  81.348  0.00  0.00    +0.000 A 
ATOM     21  C   UNL     1       7.739  31.748  80.788  0.00  0.00    +0.000 A 
ATOM     22  C   UNL     1       5.644  32.717  82.338  0.00  0.00    +0.000 A 
ATOM     23  C   UNL     1       7.978  32.709  81.777  0.00  0.00    +0.000 A 
ATOM     24  C   UNL     1       6.929  33.200  82.546  0.00  0.00    +0.000 A 
ENDBRANCH   5  19
BRANCH   4  25
ATOM     25  C   UNL     1       2.815  31.101  79.238  0.00  0.00    +0.000 C 
ATOM     26  O   UNL     1       2.572  32.218  78.816  0.00  0.00    +0.000 OA
ATOM     27  O   UNL     1       2.189  30.607  80.326  0.00  0.00    +0.000 OA
ENDBRANCH   4  25
BRANCH   8  28
ATOM     28  C   UNL     1       6.391  28.297  80.874  0.00  0.00    +0.000 C 
ATOM     29  O   UNL     1       7.558  27.926  80.831  0.00  0.00    +0.000 OA
ATOM     30  O   UNL     1       5.670  28.221  82.005  0.00  0.00    +0.000 OA
ENDBRANCH   8  28
TORSDOF 5
ENDMDL
MODEL 8
REMARK VINA RESULT:      -7.1      3.422      5.964
REMARK  Name = 
REMARK  6 active torsions:
REMARK  status: ('A' for Active; 'I' for Inactive)
REMARK    1  A    between atoms: C_2  and  C_5
REMARK    2  A    between atoms: C_10  and  C_11
REMARK    3  A    between atoms: C_14  and  C_16
REMARK    4  A    between atoms: C_14  and  C_18
REMARK    5  A    between atoms: C_15  and  C_19
REMARK    6  A    between atoms: C_20  and  C_25
REMARK                            x       y       z     vdW  Elec       q    Type
REMARK                         _______ _______ _______ _____ _____    ______ ____
ROOT
ATOM      1  C   UNL     1       7.404  32.923  80.623  0.00  0.00    +0.000 C 
ATOM      2  O   UNL     1       7.580  32.519  81.768  0.00  0.00    +0.000 OA
ATOM      3  N   UNL     1       7.192  32.044  79.557  0.00  0.00    +0.000 N 
ATOM      4  C   UNL     1       6.985  30.556  79.699  0.00  0.00    +0.000 C 
ATOM      5  C   UNL     1       6.817  32.497  78.199  0.00  0.00    +0.000 C 
ATOM      6  C   UNL     1       6.209  30.161  78.407  0.00  0.00    +0.000 C 
ATOM      7  C   UNL     1       6.211  30.118  80.947  0.00  0.00    +0.000 C 
ATOM      8  C   UNL     1       5.760  31.483  77.794  0.00  0.00    +0.000 C 
ENDROOT
BRANCH   1  14
ATOM      9  C   UNL     1       7.508  37.204  80.063  0.00  0.00    +0.000 A 
ATOM     10  C   UNL     1       6.294  36.512  80.173  0.00  0.00    +0.000 A 
ATOM     11  C   UNL     1       8.702  36.461  80.046  0.00  0.00    +0.000 A 
ATOM     12  C   UNL     1       6.274  35.122  80.284  0.00  0.00    +0.000 A 
ATOM     13  C   UNL     1       8.682  35.061  80.201  0.00  0.00    +0.000 A 
ATOM     14  C   UNL     1       7.463  34.393  80.366  0.00  0.00    +0.000 A 
BRANCH   9  16
ATOM     15  F   UNL     1       8.770  39.236  79.812  0.00  0.00    +0.000 F 
ATOM     16  C   UNL     1       7.518  38.713  79.953  0.00  0.00    +0.000 C 
ATOM     17  F   UNL     1       6.983  39.322  81.046  0.00  0.00    +0.000 F 
ATOM     18  F   UNL     1       6.808  39.165  78.883  0.00  0.00    +0.000 F 
ENDBRANCH   9  16
ENDBRANCH   1  14
BRANCH   5  19
ATOM     19  C   UNL     1       8.014  32.662  77.263  0.00  0.00    +0.000 A 
ATOM     20  C   UNL     1       8.838  31.606  76.845  0.00  0.00    +0.000 A 
ATOM     21  C   UNL     1       8.371  33.958  76.841  0.00  0.00    +0.000 A 
ATOM     22  C   UNL     1       9.988  31.828  76.083  0.00  0.00    +0.000 A 
ATOM     23  C   UNL     1       9.524  34.183  76.080  0.00  0.00    +0.000 A 
ATOM     24  C   UNL     1      10.337  33.118  75.709  0.00  0.00    +0.000 A 
ENDBRANCH   5  19
BRANCH   4  25
ATOM     25  C   UNL     1       8.305  29.737  79.753  0.00  0.00    +0.000 C 
ATOM     26  O   UNL     1       9.417  30.225  79.651  0.00  0.00    +0.000 OA
ATOM     27  O   UNL     1       8.129  28.406  79.882  0.00  0.00    +0.000 OA
ENDBRANCH   4  25
BRANCH   8  28
ATOM     28  C   UNL     1       5.407  31.531  76.331  0.00  0.00    +0.000 C 
ATOM     29  O   UNL     1       5.428  30.525  75.632  0.00  0.00    +0.000 OA
ATOM     30  O   UNL     1       5.009  32.718  75.843  0.00  0.00    +0.000 OA
ENDBRANCH   8  28
TORSDOF 5
ENDMDL
MODEL 9
REMARK VINA RESULT:      -6.9      3.755      4.823
REMARK  Name = 
REMARK  6 active torsions:
REMARK  status: ('A' for Active; 'I' for Inactive)
REMARK    1  A    between atoms: C_2  and  C_5
REMARK    2  A    between atoms: C_10  and  C_11
REMARK    3  A    between atoms: C_14  and  C_16
REMARK    4  A    between atoms: C_14  and  C_18
REMARK    5  A    between atoms: C_15  and  C_19
REMARK    6  A    between atoms: C_20  and  C_25
REMARK                            x       y       z     vdW  Elec       q    Type
REMARK                         _______ _______ _______ _____ _____    ______ ____
ROOT
ATOM      1  C   UNL     1       3.975  32.561  78.184  0.00  0.00    +0.000 C 
ATOM      2  O   UNL     1       2.822  32.420  77.788  0.00  0.00    +0.000 OA
ATOM      3  N   UNL     1       4.683  31.511  78.775  0.00  0.00    +0.000 N 
ATOM      4  C   UNL     1       4.204  30.081  78.840  0.00  0.00    +0.000 C 
ATOM      5  C   UNL     1       6.121  31.596  79.113  0.00  0.00    +0.000 C 
ATOM      6  C   UNL     1       5.515  29.253  78.995  0.00  0.00    +0.000 C 
ATOM      7  C   UNL     1       3.404  29.602  77.624  0.00  0.00    +0.000 C 
ATOM      8  C   UNL     1       6.641  30.234  78.687  0.00  0.00    +0.000 C 
ENDROOT
BRANCH   1  14
ATOM      9  C   UNL     1       5.932  36.406  77.997  0.00  0.00    +0.000 A 
ATOM     10  C   UNL     1       5.019  36.102  79.015  0.00  0.00    +0.000 A 
ATOM     11  C   UNL     1       6.134  35.461  76.975  0.00  0.00    +0.000 A 
ATOM     12  C   UNL     1       4.341  34.882  79.024  0.00  0.00    +0.000 A 
ATOM     13  C   UNL     1       5.482  34.213  77.008  0.00  0.00    +0.000 A 
ATOM     14  C   UNL     1       4.615  33.905  78.064  0.00  0.00    +0.000 A 
BRANCH   9  16
ATOM     15  F   UNL     1       5.975  38.735  77.400  0.00  0.00    +0.000 F 
ATOM     16  C   UNL     1       6.668  37.728  78.004  0.00  0.00    +0.000 C 
ATOM     17  F   UNL     1       7.866  37.665  77.360  0.00  0.00    +0.000 F 
ATOM     18  F   UNL     1       6.938  38.171  79.263  0.00  0.00    +0.000 F 
ENDBRANCH   9  16
ENDBRANCH   1  14
BRANCH   5  19
ATOM     19  C   UNL     1       6.379  32.014  80.562  0.00  0.00    +0.000 A 
ATOM     20  C   UNL     1       5.893  31.320  81.680  0.00  0.00    +0.000 A 
ATOM     21  C   UNL     1       7.086  33.208  80.806  0.00  0.00    +0.000 A 
ATOM     22  C   UNL     1       6.059  31.809  82.978  0.00  0.00    +0.000 A 
ATOM     23  C   UNL     1       7.251  33.701  82.105  0.00  0.00    +0.000 A 
ATOM     24  C   UNL     1       6.729  33.006  83.191  0.00  0.00    +0.000 A 
ENDBRANCH   5  19
BRANCH   4  25
ATOM     25  C   UNL     1       3.282  29.779  80.056  0.00  0.00    +0.000 C 
ATOM     26  O   UNL     1       2.286  30.423  80.334  0.00  0.00    +0.000 OA
ATOM     27  O   UNL     1       3.696  28.753  80.826  0.00  0.00    +0.000 OA
ENDBRANCH   4  25
BRANCH   8  28
ATOM     28  C   UNL     1       8.030  29.934  79.186  0.00  0.00    +0.000 C 
ATOM     29  O   UNL     1       8.990  30.628  78.872  0.00  0.00    +0.000 OA
ATOM     30  O   UNL     1       8.157  28.905  80.041  0.00  0.00    +0.000 OA
ENDBRANCH   8  28
TORSDOF 5
ENDMDL
