MODEL 1
REMARK VINA RESULT:      -7.9      0.000      0.000
REMARK  Name = 
REMARK  9 active torsions:
REMARK  status: ('A' for Active; 'I' for Inactive)
REMARK    1  A    between atoms: C_2  and  C_5
REMARK    2  A    between atoms: C_10  and  C_11
REMARK    3  A    between atoms: C_14  and  C_16
REMARK    4  A    between atoms: C_14  and  C_18
REMARK    5  A    between atoms: C_15  and  C_19
REMARK    6  A    between atoms: C_18  and  C_23
REMARK    7  A    between atoms: C_20  and  C_26
REMARK    8  A    between atoms: C_23  and  C_27
REMARK    9  A    between atoms: C_27  and  N_32
REMARK                            x       y       z     vdW  Elec       q    Type
REMARK                         _______ _______ _______ _____ _____    ______ ____
ROOT
ATOM      1  C   UNL     1       7.248  32.283  76.942  0.00  0.00    +0.000 C 
ATOM      2  O   UNL     1       6.280  32.534  76.224  0.00  0.00    +0.000 OA
ATOM      3  N   UNL     1       7.067  31.961  78.327  0.00  0.00    +0.000 N 
ATOM      4  C   UNL     1       8.071  32.045  79.447  0.00  0.00    +0.000 C 
ATOM      5  C   UNL     1       5.703  32.213  78.903  0.00  0.00    +0.000 C 
ATOM      6  C   UNL     1       7.226  31.499  80.633  0.00  0.00    +0.000 C 
ATOM      7  C   UNL     1       5.833  32.073  80.443  0.00  0.00    +0.000 C 
ENDROOT
BRANCH   1  13
ATOM      8  C   UNL     1      11.319  32.865  75.531  0.00  0.00    +0.000 A 
ATOM      9  C   UNL     1      10.456  33.958  75.715  0.00  0.00    +0.000 A 
ATOM     10  C   UNL     1      10.787  31.585  75.651  0.00  0.00    +0.000 A 
ATOM     11  C   UNL     1       9.118  33.753  76.104  0.00  0.00    +0.000 A 
ATOM     12  C   UNL     1       9.430  31.403  75.925  0.00  0.00    +0.000 A 
ATOM     13  C   UNL     1       8.598  32.456  76.278  0.00  0.00    +0.000 A 
BRANCH   8  15
ATOM     14  F   UNL     1      13.015  33.453  73.926  0.00  0.00    +0.000 F 
ATOM     15  C   UNL     1      12.784  33.004  75.188  0.00  0.00    +0.000 C 
ATOM     16  F   UNL     1      13.448  31.818  75.294  0.00  0.00    +0.000 F 
ATOM     17  F   UNL     1      13.432  33.865  76.021  0.00  0.00    +0.000 F 
ENDBRANCH   8  15
ENDBRANCH   1  13
BRANCH   5  18
ATOM     18  C   UNL     1       4.540  31.417  78.351  0.00  0.00    +0.000 A 
ATOM     19  C   UNL     1       3.290  31.991  78.085  0.00  0.00    +0.000 A 
ATOM     20  C   UNL     1       4.759  30.065  78.001  0.00  0.00    +0.000 A 
ATOM     21  C   UNL     1       2.308  31.245  77.449  0.00  0.00    +0.000 A 
ATOM     22  C   UNL     1       3.773  29.333  77.346  0.00  0.00    +0.000 A 
ATOM     23  C   UNL     1       2.548  29.927  77.064  0.00  0.00    +0.000 A 
ENDBRANCH   5  18
BRANCH   4  24
ATOM     24  C   UNL     1       9.208  31.002  79.494  0.00  0.00    +0.000 C 
ATOM     25  O   UNL     1      10.402  31.262  79.450  0.00  0.00    +0.000 OA
ATOM     26  O   UNL     1       8.761  29.733  79.721  0.00  0.00    +0.000 OA
ENDBRANCH   4  24
BRANCH   7  27
ATOM     27  C   UNL     1       4.831  31.173  81.152  0.00  0.00    +0.000 C 
ATOM     28  O   UNL     1       3.705  31.516  81.489  0.00  0.00    +0.000 OA
ATOM     29  O   UNL     1       5.270  29.911  81.338  0.00  0.00    +0.000 OA
ENDBRANCH   7  27
BRANCH   4  30
ATOM     30  C   UNL     1       8.523  33.512  79.800  0.00  0.00    +0.000 C 
BRANCH  30  31
ATOM     31  C   UNL     1       8.925  33.742  81.257  0.00  0.00    +0.000 C 
BRANCH  31  32
ATOM     32  C   UNL     1       9.327  35.141  81.701  0.00  0.00    +0.000 C 
BRANCH  32  33
ATOM     33  N   UNL     1      10.567  35.123  82.469  0.00  0.00    +0.000 N 
ATOM     34  H   UNL     1      10.894  34.161  82.562  0.00  0.00    +0.000 HD
ATOM     35  H   UNL     1      10.401  35.517  83.394  0.00  0.00    +0.000 HD
ATOM     36  H   UNL     1      11.274  35.677  81.985  0.00  0.00    +0.000 HD
ENDBRANCH  32  33
ENDBRANCH  31  32
ENDBRANCH  30  31
ENDBRANCH   4  30
TORSDOF 9
ENDMDL
MODEL 2
REMARK VINA RESULT:      -7.4      2.787      5.520
REMARK  Name = 
REMARK  9 active torsions:
REMARK  status: ('A' for Active; 'I' for Inactive)
REMARK    1  A    between atoms: C_2  and  C_5
REMARK    2  A    between atoms: C_10  and  C_11
REMARK    3  A    between atoms: C_14  and  C_16
REMARK    4  A    between atoms: C_14  and  C_18
REMARK    5  A    between atoms: C_15  and  C_19
REMARK    6  A    between atoms: C_18  and  C_23
REMARK    7  A    between atoms: C_20  and  C_26
REMARK    8  A    between atoms: C_23  and  C_27
REMARK    9  A    between atoms: C_27  and  N_32
REMARK                            x       y       z     vdW  Elec       q    Type
REMARK                         _______ _______ _______ _____ _____    ______ ____
ROOT
ATOM      1  C   UNL     1       8.701  34.512  78.112  0.00  0.00    +0.000 C 
ATOM      2  O   UNL     1       9.430  35.007  78.972  0.00  0.00    +0.000 OA
ATOM      3  N   UNL     1       7.275  34.603  78.220  0.00  0.00    +0.000 N 
ATOM      4  C   UNL     1       6.230  33.743  77.561  0.00  0.00    +0.000 C 
ATOM      5  C   UNL     1       6.731  35.072  79.540  0.00  0.00    +0.000 C 
ATOM      6  C   UNL     1       4.930  34.431  78.067  0.00  0.00    +0.000 C 
ATOM      7  C   UNL     1       5.201  34.809  79.513  0.00  0.00    +0.000 C 
ENDROOT
BRANCH   1  13
ATOM      8  C   UNL     1      11.229  32.366  75.299  0.00  0.00    +0.000 A 
ATOM      9  C   UNL     1      11.037  33.753  75.184  0.00  0.00    +0.000 A 
ATOM     10  C   UNL     1      10.460  31.675  76.231  0.00  0.00    +0.000 A 
ATOM     11  C   UNL     1      10.160  34.427  76.056  0.00  0.00    +0.000 A 
ATOM     12  C   UNL     1       9.512  32.346  77.007  0.00  0.00    +0.000 A 
ATOM     13  C   UNL     1       9.425  33.731  77.035  0.00  0.00    +0.000 A 
BRANCH   8  15
ATOM     14  F   UNL     1      13.369  31.284  75.090  0.00  0.00    +0.000 F 
ATOM     15  C   UNL     1      12.206  31.583  74.453  0.00  0.00    +0.000 C 
ATOM     16  F   UNL     1      12.558  32.258  73.323  0.00  0.00    +0.000 F 
ATOM     17  F   UNL     1      11.690  30.396  74.029  0.00  0.00    +0.000 F 
ENDBRANCH   8  15
ENDBRANCH   1  13
BRANCH   5  18
ATOM     18  C   UNL     1       7.063  36.480  79.987  0.00  0.00    +0.000 A 
ATOM     19  C   UNL     1       7.038  37.575  79.114  0.00  0.00    +0.000 A 
ATOM     20  C   UNL     1       7.311  36.706  81.360  0.00  0.00    +0.000 A 
ATOM     21  C   UNL     1       7.213  38.859  79.611  0.00  0.00    +0.000 A 
ATOM     22  C   UNL     1       7.466  37.999  81.850  0.00  0.00    +0.000 A 
ATOM     23  C   UNL     1       7.410  39.078  80.973  0.00  0.00    +0.000 A 
ENDBRANCH   5  18
BRANCH   4  24
ATOM     24  C   UNL     1       5.987  33.914  76.046  0.00  0.00    +0.000 C 
ATOM     25  O   UNL     1       6.737  33.515  75.166  0.00  0.00    +0.000 OA
ATOM     26  O   UNL     1       4.769  34.452  75.756  0.00  0.00    +0.000 OA
ENDBRANCH   4  24
BRANCH   7  27
ATOM     27  C   UNL     1       4.285  35.962  79.899  0.00  0.00    +0.000 C 
ATOM     28  O   UNL     1       3.988  36.259  81.049  0.00  0.00    +0.000 OA
ATOM     29  O   UNL     1       3.855  36.690  78.848  0.00  0.00    +0.000 OA
ENDBRANCH   7  27
BRANCH   4  30
ATOM     30  C   UNL     1       6.218  32.248  78.055  0.00  0.00    +0.000 C 
BRANCH  30  31
ATOM     31  C   UNL     1       5.078  31.385  77.512  0.00  0.00    +0.000 C 
BRANCH  31  32
ATOM     32  C   UNL     1       5.358  30.430  76.360  0.00  0.00    +0.000 C 
BRANCH  32  33
ATOM     33  N   UNL     1       6.468  29.536  76.665  0.00  0.00    +0.000 N 
ATOM     34  H   UNL     1       6.245  28.595  76.340  0.00  0.00    +0.000 HD
ATOM     35  H   UNL     1       6.626  29.520  77.672  0.00  0.00    +0.000 HD
ATOM     36  H   UNL     1       7.310  29.867  76.194  0.00  0.00    +0.000 HD
ENDBRANCH  32  33
ENDBRANCH  31  32
ENDBRANCH  30  31
ENDBRANCH   4  30
TORSDOF 9
ENDMDL
MODEL 3
REMARK VINA RESULT:      -7.2      3.351      5.333
REMARK  Name = 
REMARK  9 active torsions:
REMARK  status: ('A' for Active; 'I' for Inactive)
REMARK    1  A    between atoms: C_2  and  C_5
REMARK    2  A    between atoms: C_10  and  C_11
REMARK    3  A    between atoms: C_14  and  C_16
REMARK    4  A    between atoms: C_14  and  C_18
REMARK    5  A    between atoms: C_15  and  C_19
REMARK    6  A    between atoms: C_18  and  C_23
REMARK    7  A    between atoms: C_20  and  C_26
REMARK    8  A    between atoms: C_23  and  C_27
REMARK    9  A    between atoms: C_27  and  N_32
REMARK                            x       y       z     vdW  Elec       q    Type
REMARK                         _______ _______ _______ _____ _____    ______ ____
ROOT
ATOM      1  C   UNL     1       5.751  33.985  79.711  0.00  0.00    +0.000 C 
ATOM      2  O   UNL     1       5.043  33.607  80.644  0.00  0.00    +0.000 OA
ATOM      3  N   UNL     1       5.910  33.176  78.539  0.00  0.00    +0.000 N 
ATOM      4  C   UNL     1       7.011  33.220  77.513  0.00  0.00    +0.000 C 
ATOM      5  C   UNL     1       5.408  31.762  78.626  0.00  0.00    +0.000 C 
ATOM      6  C   UNL     1       6.519  32.131  76.516  0.00  0.00    +0.000 C 
ATOM      7  C   UNL     1       5.946  31.018  77.374  0.00  0.00    +0.000 C 
ENDROOT
BRANCH   1  13
ATOM      8  C   UNL     1       8.240  37.535  80.039  0.00  0.00    +0.000 A 
ATOM      9  C   UNL     1       8.550  36.368  80.757  0.00  0.00    +0.000 A 
ATOM     10  C   UNL     1       7.028  37.580  79.355  0.00  0.00    +0.000 A 
ATOM     11  C   UNL     1       7.698  35.248  80.698  0.00  0.00    +0.000 A 
ATOM     12  C   UNL     1       6.145  36.500  79.405  0.00  0.00    +0.000 A 
ATOM     13  C   UNL     1       6.500  35.278  79.960  0.00  0.00    +0.000 A 
BRANCH   8  15
ATOM     14  F   UNL     1       8.488  39.924  80.207  0.00  0.00    +0.000 F 
ATOM     15  C   UNL     1       9.137  38.750  79.989  0.00  0.00    +0.000 C 
ATOM     16  F   UNL     1       9.754  38.879  78.780  0.00  0.00    +0.000 F 
ATOM     17  F   UNL     1      10.139  38.694  80.910  0.00  0.00    +0.000 F 
ENDBRANCH   8  15
ENDBRANCH   1  13
BRANCH   5  18
ATOM     18  C   UNL     1       3.924  31.545  78.829  0.00  0.00    +0.000 A 
ATOM     19  C   UNL     1       2.953  32.185  78.048  0.00  0.00    +0.000 A 
ATOM     20  C   UNL     1       3.511  30.584  79.780  0.00  0.00    +0.000 A 
ATOM     21  C   UNL     1       1.616  31.839  78.186  0.00  0.00    +0.000 A 
ATOM     22  C   UNL     1       2.170  30.231  79.896  0.00  0.00    +0.000 A 
ATOM     23  C   UNL     1       1.222  30.856  79.093  0.00  0.00    +0.000 A 
ENDBRANCH   5  18
BRANCH   4  24
ATOM     24  C   UNL     1       7.051  34.410  76.529  0.00  0.00    +0.000 C 
ATOM     25  O   UNL     1       6.167  34.690  75.731  0.00  0.00    +0.000 OA
ATOM     26  O   UNL     1       8.130  35.222  76.715  0.00  0.00    +0.000 OA
ENDBRANCH   4  24
BRANCH   7  27
ATOM     27  C   UNL     1       4.943  30.226  76.546  0.00  0.00    +0.000 C 
ATOM     28  O   UNL     1       4.499  29.128  76.854  0.00  0.00    +0.000 OA
ATOM     29  O   UNL     1       4.525  30.871  75.437  0.00  0.00    +0.000 OA
ENDBRANCH   7  27
BRANCH   4  30
ATOM     30  C   UNL     1       8.421  32.784  78.060  0.00  0.00    +0.000 C 
BRANCH  30  31
ATOM     31  C   UNL     1       9.260  31.929  77.109  0.00  0.00    +0.000 C 
BRANCH  31  32
ATOM     32  C   UNL     1      10.542  32.509  76.530  0.00  0.00    +0.000 C 
BRANCH  32  33
ATOM     33  N   UNL     1      11.629  32.479  77.501  0.00  0.00    +0.000 N 
ATOM     34  H   UNL     1      11.248  32.592  78.441  0.00  0.00    +0.000 HD
ATOM     35  H   UNL     1      12.282  33.238  77.306  0.00  0.00    +0.000 HD
ATOM     36  H   UNL     1      12.118  31.586  77.437  0.00  0.00    +0.000 HD
ENDBRANCH  32  33
ENDBRANCH  31  32
ENDBRANCH  30  31
ENDBRANCH   4  30
TORSDOF 9
ENDMDL
MODEL 4
REMARK VINA RESULT:      -6.8      2.171      2.785
REMARK  Name = 
REMARK  9 active torsions:
REMARK  status: ('A' for Active; 'I' for Inactive)
REMARK    1  A    between atoms: C_2  and  C_5
REMARK    2  A    between atoms: C_10  and  C_11
REMARK    3  A    between atoms: C_14  and  C_16
REMARK    4  A    between atoms: C_14  and  C_18
REMARK    5  A    between atoms: C_15  and  C_19
REMARK    6  A    between atoms: C_18  and  C_23
REMARK    7  A    between atoms: C_20  and  C_26
REMARK    8  A    between atoms: C_23  and  C_27
REMARK    9  A    between atoms: C_27  and  N_32
REMARK                            x       y       z     vdW  Elec       q    Type
REMARK                         _______ _______ _______ _____ _____    ______ ____
ROOT
ATOM      1  C   UNL     1       7.253  32.752  76.916  0.00  0.00    +0.000 C 
ATOM      2  O   UNL     1       6.443  32.235  76.146  0.00  0.00    +0.000 OA
ATOM      3  N   UNL     1       6.810  33.402  78.114  0.00  0.00    +0.000 N 
ATOM      4  C   UNL     1       7.532  34.433  78.941  0.00  0.00    +0.000 C 
ATOM      5  C   UNL     1       5.334  33.655  78.235  0.00  0.00    +0.000 C 
ATOM      6  C   UNL     1       6.511  34.641  80.097  0.00  0.00    +0.000 C 
ATOM      7  C   UNL     1       5.140  34.608  79.445  0.00  0.00    +0.000 C 
ENDROOT
BRANCH   1  13
ATOM      8  C   UNL     1      11.179  32.577  75.056  0.00  0.00    +0.000 A 
ATOM      9  C   UNL     1      10.584  31.425  75.595  0.00  0.00    +0.000 A 
ATOM     10  C   UNL     1      10.555  33.801  75.281  0.00  0.00    +0.000 A 
ATOM     11  C   UNL     1       9.344  31.506  76.258  0.00  0.00    +0.000 A 
ATOM     12  C   UNL     1       9.386  33.873  76.040  0.00  0.00    +0.000 A 
ATOM     13  C   UNL     1       8.689  32.740  76.436  0.00  0.00    +0.000 A 
BRANCH   8  15
ATOM     14  F   UNL     1      13.457  33.317  74.813  0.00  0.00    +0.000 F 
ATOM     15  C   UNL     1      12.467  32.563  74.266  0.00  0.00    +0.000 C 
ATOM     16  F   UNL     1      12.294  33.032  72.998  0.00  0.00    +0.000 F 
ATOM     17  F   UNL     1      12.978  31.308  74.129  0.00  0.00    +0.000 F 
ENDBRANCH   8  15
ENDBRANCH   1  13
BRANCH   5  18
ATOM     18  C   UNL     1       4.409  32.458  78.294  0.00  0.00    +0.000 A 
ATOM     19  C   UNL     1       3.172  32.426  77.639  0.00  0.00    +0.000 A 
ATOM     20  C   UNL     1       4.861  31.294  78.958  0.00  0.00    +0.000 A 
ATOM     21  C   UNL     1       2.433  31.251  77.612  0.00  0.00    +0.000 A 
ATOM     22  C   UNL     1       4.121  30.117  78.909  0.00  0.00    +0.000 A 
ATOM     23  C   UNL     1       2.908  30.095  78.229  0.00  0.00    +0.000 A 
ENDBRANCH   5  18
BRANCH   4  24
ATOM     24  C   UNL     1       8.734  33.978  79.796  0.00  0.00    +0.000 C 
ATOM     25  O   UNL     1       9.909  34.113  79.483  0.00  0.00    +0.000 OA
ATOM     26  O   UNL     1       8.372  33.512  81.025  0.00  0.00    +0.000 OA
ENDBRANCH   4  24
BRANCH   7  27
ATOM     27  C   UNL     1       4.108  34.211  80.491  0.00  0.00    +0.000 C 
ATOM     28  O   UNL     1       4.344  33.522  81.474  0.00  0.00    +0.000 OA
ATOM     29  O   UNL     1       2.885  34.739  80.275  0.00  0.00    +0.000 OA
ENDBRANCH   7  27
BRANCH   4  30
ATOM     30  C   UNL     1       7.738  35.814  78.215  0.00  0.00    +0.000 C 
BRANCH  30  31
ATOM     31  C   UNL     1       7.976  37.012  79.135  0.00  0.00    +0.000 C 
BRANCH  31  32
ATOM     32  C   UNL     1       7.093  38.244  78.989  0.00  0.00    +0.000 C 
BRANCH  32  33
ATOM     33  N   UNL     1       5.975  37.996  78.086  0.00  0.00    +0.000 N 
ATOM     34  H   UNL     1       5.980  38.693  77.342  0.00  0.00    +0.000 HD
ATOM     35  H   UNL     1       5.099  38.057  78.604  0.00  0.00    +0.000 HD
ATOM     36  H   UNL     1       6.066  37.064  77.681  0.00  0.00    +0.000 HD
ENDBRANCH  32  33
ENDBRANCH  31  32
ENDBRANCH  30  31
ENDBRANCH   4  30
TORSDOF 9
ENDMDL
MODEL 5
REMARK VINA RESULT:      -6.8      4.354      7.554
REMARK  Name = 
REMARK  9 active torsions:
REMARK  status: ('A' for Active; 'I' for Inactive)
REMARK    1  A    between atoms: C_2  and  C_5
REMARK    2  A    between atoms: C_10  and  C_11
REMARK    3  A    between atoms: C_14  and  C_16
REMARK    4  A    between atoms: C_14  and  C_18
REMARK    5  A    between atoms: C_15  and  C_19
REMARK    6  A    between atoms: C_18  and  C_23
REMARK    7  A    between atoms: C_20  and  C_26
REMARK    8  A    between atoms: C_23  and  C_27
REMARK    9  A    between atoms: C_27  and  N_32
REMARK                            x       y       z     vdW  Elec       q    Type
REMARK                         _______ _______ _______ _____ _____    ______ ____
ROOT
ATOM      1  C   UNL     1       8.333  31.597  77.205  0.00  0.00    +0.000 C 
ATOM      2  O   UNL     1       9.102  30.640  77.303  0.00  0.00    +0.000 OA
ATOM      3  N   UNL     1       8.817  32.887  76.813  0.00  0.00    +0.000 N 
ATOM      4  C   UNL     1       8.181  34.234  77.039  0.00  0.00    +0.000 C 
ATOM      5  C   UNL     1      10.308  33.070  76.801  0.00  0.00    +0.000 C 
ATOM      6  C   UNL     1       9.201  35.158  76.314  0.00  0.00    +0.000 C 
ATOM      7  C   UNL     1      10.572  34.591  76.638  0.00  0.00    +0.000 C 
ENDROOT
BRANCH   1  13
ATOM      8  C   UNL     1       4.180  31.328  78.465  0.00  0.00    +0.000 A 
ATOM      9  C   UNL     1       5.215  31.430  79.409  0.00  0.00    +0.000 A 
ATOM     10  C   UNL     1       4.528  31.148  77.130  0.00  0.00    +0.000 A 
ATOM     11  C   UNL     1       6.561  31.445  78.993  0.00  0.00    +0.000 A 
ATOM     12  C   UNL     1       5.869  31.049  76.753  0.00  0.00    +0.000 A 
ATOM     13  C   UNL     1       6.907  31.317  77.634  0.00  0.00    +0.000 A 
BRANCH   8  15
ATOM     14  F   UNL     1       1.960  32.108  77.955  0.00  0.00    +0.000 F 
ATOM     15  C   UNL     1       2.713  31.382  78.823  0.00  0.00    +0.000 C 
ATOM     16  F   UNL     1       2.507  31.933  80.053  0.00  0.00    +0.000 F 
ATOM     17  F   UNL     1       2.146  30.145  78.873  0.00  0.00    +0.000 F 
ENDBRANCH   8  15
ENDBRANCH   1  13
BRANCH   5  18
ATOM     18  C   UNL     1      11.119  32.240  75.829  0.00  0.00    +0.000 A 
ATOM     19  C   UNL     1      10.592  31.759  74.624  0.00  0.00    +0.000 A 
ATOM     20  C   UNL     1      12.489  32.029  76.109  0.00  0.00    +0.000 A 
ATOM     21  C   UNL     1      11.423  31.126  73.710  0.00  0.00    +0.000 A 
ATOM     22  C   UNL     1      13.316  31.410  75.177  0.00  0.00    +0.000 A 
ATOM     23  C   UNL     1      12.783  30.963  73.973  0.00  0.00    +0.000 A 
ENDBRANCH   5  18
BRANCH   4  24
ATOM     24  C   UNL     1       6.931  34.603  76.211  0.00  0.00    +0.000 C 
ATOM     25  O   UNL     1       6.115  35.462  76.518  0.00  0.00    +0.000 OA
ATOM     26  O   UNL     1       6.874  33.962  75.010  0.00  0.00    +0.000 OA
ENDBRANCH   4  24
BRANCH   7  27
ATOM     27  C   UNL     1      11.550  35.020  75.553  0.00  0.00    +0.000 C 
ATOM     28  O   UNL     1      11.281  35.087  74.361  0.00  0.00    +0.000 OA
ATOM     29  O   UNL     1      12.759  35.387  76.026  0.00  0.00    +0.000 OA
ENDBRANCH   7  27
BRANCH   4  30
ATOM     30  C   UNL     1       8.110  34.669  78.550  0.00  0.00    +0.000 C 
BRANCH  30  31
ATOM     31  C   UNL     1       8.469  36.129  78.831  0.00  0.00    +0.000 C 
BRANCH  31  32
ATOM     32  C   UNL     1       7.392  37.067  79.358  0.00  0.00    +0.000 C 
BRANCH  32  33
ATOM     33  N   UNL     1       6.776  37.832  78.281  0.00  0.00    +0.000 N 
ATOM     34  H   UNL     1       7.387  37.822  77.464  0.00  0.00    +0.000 HD
ATOM     35  H   UNL     1       6.632  38.795  78.586  0.00  0.00    +0.000 HD
ATOM     36  H   UNL     1       5.877  37.415  78.039  0.00  0.00    +0.000 HD
ENDBRANCH  32  33
ENDBRANCH  31  32
ENDBRANCH  30  31
ENDBRANCH   4  30
TORSDOF 9
ENDMDL
MODEL 6
REMARK VINA RESULT:      -6.7      3.935      6.081
REMARK  Name = 
REMARK  9 active torsions:
REMARK  status: ('A' for Active; 'I' for Inactive)
REMARK    1  A    between atoms: C_2  and  C_5
REMARK    2  A    between atoms: C_10  and  C_11
REMARK    3  A    between atoms: C_14  and  C_16
REMARK    4  A    between atoms: C_14  and  C_18
REMARK    5  A    between atoms: C_15  and  C_19
REMARK    6  A    between atoms: C_18  and  C_23
REMARK    7  A    between atoms: C_20  and  C_26
REMARK    8  A    between atoms: C_23  and  C_27
REMARK    9  A    between atoms: C_27  and  N_32
REMARK                            x       y       z     vdW  Elec       q    Type
REMARK                         _______ _______ _______ _____ _____    ______ ____
ROOT
ATOM      1  C   UNL     1       7.389  33.967  79.477  0.00  0.00    +0.000 C 
ATOM      2  O   UNL     1       7.775  33.327  80.456  0.00  0.00    +0.000 OA
ATOM      3  N   UNL     1       7.050  33.300  78.255  0.00  0.00    +0.000 N 
ATOM      4  C   UNL     1       6.981  33.873  76.864  0.00  0.00    +0.000 C 
ATOM      5  C   UNL     1       7.446  31.855  78.146  0.00  0.00    +0.000 C 
ATOM      6  C   UNL     1       6.505  32.628  76.063  0.00  0.00    +0.000 C 
ATOM      7  C   UNL     1       7.246  31.446  76.662  0.00  0.00    +0.000 C 
ENDROOT
BRANCH   1  13
ATOM      8  C   UNL     1       7.580  38.193  80.481  0.00  0.00    +0.000 A 
ATOM      9  C   UNL     1       6.384  37.470  80.626  0.00  0.00    +0.000 A 
ATOM     10  C   UNL     1       8.652  37.565  79.854  0.00  0.00    +0.000 A 
ATOM     11  C   UNL     1       6.315  36.120  80.231  0.00  0.00    +0.000 A 
ATOM     12  C   UNL     1       8.525  36.263  79.366  0.00  0.00    +0.000 A 
ATOM     13  C   UNL     1       7.419  35.472  79.646  0.00  0.00    +0.000 A 
BRANCH   8  15
ATOM     14  F   UNL     1       6.721  40.437  80.631  0.00  0.00    +0.000 F 
ATOM     15  C   UNL     1       7.758  39.618  80.949  0.00  0.00    +0.000 C 
ATOM     16  F   UNL     1       8.872  40.196  80.416  0.00  0.00    +0.000 F 
ATOM     17  F   UNL     1       7.909  39.706  82.300  0.00  0.00    +0.000 F 
ENDBRANCH   8  15
ENDBRANCH   1  13
BRANCH   5  18
ATOM     18  C   UNL     1       6.812  30.869  79.103  0.00  0.00    +0.000 A 
ATOM     19  C   UNL     1       5.459  30.928  79.462  0.00  0.00    +0.000 A 
ATOM     20  C   UNL     1       7.596  29.791  79.573  0.00  0.00    +0.000 A 
ATOM     21  C   UNL     1       4.902  29.915  80.230  0.00  0.00    +0.000 A 
ATOM     22  C   UNL     1       7.023  28.771  80.327  0.00  0.00    +0.000 A 
ATOM     23  C   UNL     1       5.672  28.831  80.650  0.00  0.00    +0.000 A 
ENDBRANCH   5  18
BRANCH   4  24
ATOM     24  C   UNL     1       5.808  34.814  76.515  0.00  0.00    +0.000 C 
ATOM     25  O   UNL     1       5.777  36.014  76.751  0.00  0.00    +0.000 OA
ATOM     26  O   UNL     1       4.830  34.204  75.788  0.00  0.00    +0.000 OA
ENDBRANCH   4  24
BRANCH   7  27
ATOM     27  C   UNL     1       6.452  30.177  76.386  0.00  0.00    +0.000 C 
ATOM     28  O   UNL     1       5.231  30.119  76.327  0.00  0.00    +0.000 OA
ATOM     29  O   UNL     1       7.222  29.094  76.149  0.00  0.00    +0.000 OA
ENDBRANCH   7  27
BRANCH   4  30
ATOM     30  C   UNL     1       8.372  34.328  76.283  0.00  0.00    +0.000 C 
BRANCH  30  31
ATOM     31  C   UNL     1       9.598  33.852  77.064  0.00  0.00    +0.000 C 
BRANCH  31  32
ATOM     32  C   UNL     1      10.599  32.932  76.381  0.00  0.00    +0.000 C 
BRANCH  32  33
ATOM     33  N   UNL     1      11.589  32.425  77.324  0.00  0.00    +0.000 N 
ATOM     34  H   UNL     1      11.297  32.647  78.276  0.00  0.00    +0.000 HD
ATOM     35  H   UNL     1      12.492  32.858  77.136  0.00  0.00    +0.000 HD
ATOM     36  H   UNL     1      11.669  31.413  77.220  0.00  0.00    +0.000 HD
ENDBRANCH  32  33
ENDBRANCH  31  32
ENDBRANCH  30  31
ENDBRANCH   4  30
TORSDOF 9
ENDMDL
MODEL 7
REMARK VINA RESULT:      -6.6      1.864      4.571
REMARK  Name = 
REMARK  9 active torsions:
REMARK  status: ('A' for Active; 'I' for Inactive)
REMARK    1  A    between atoms: C_2  and  C_5
REMARK    2  A    between atoms: C_10  and  C_11
REMARK    3  A    between atoms: C_14  and  C_16
REMARK    4  A    between atoms: C_14  and  C_18
REMARK    5  A    between atoms: C_15  and  C_19
REMARK    6  A    between atoms: C_18  and  C_23
REMARK    7  A    between atoms: C_20  and  C_26
REMARK    8  A    between atoms: C_23  and  C_27
REMARK    9  A    between atoms: C_27  and  N_32
REMARK                            x       y       z     vdW  Elec       q    Type
REMARK                         _______ _______ _______ _____ _____    ______ ____
ROOT
ATOM      1  C   UNL     1       8.761  31.558  78.783  0.00  0.00    +0.000 C 
ATOM      2  O   UNL     1       9.306  30.748  79.533  0.00  0.00    +0.000 OA
ATOM      3  N   UNL     1       7.411  31.980  79.018  0.00  0.00    +0.000 N 
ATOM      4  C   UNL     1       6.438  32.588  78.043  0.00  0.00    +0.000 C 
ATOM      5  C   UNL     1       6.629  31.194  80.031  0.00  0.00    +0.000 C 
ATOM      6  C   UNL     1       5.219  32.843  78.976  0.00  0.00    +0.000 C 
ATOM      7  C   UNL     1       5.147  31.638  79.897  0.00  0.00    +0.000 C 
ENDROOT
BRANCH   1  13
ATOM      8  C   UNL     1      11.514  32.430  75.533  0.00  0.00    +0.000 A 
ATOM      9  C   UNL     1      11.477  33.236  76.683  0.00  0.00    +0.000 A 
ATOM     10  C   UNL     1      10.536  31.451  75.389  0.00  0.00    +0.000 A 
ATOM     11  C   UNL     1      10.533  32.987  77.698  0.00  0.00    +0.000 A 
ATOM     12  C   UNL     1       9.538  31.297  76.354  0.00  0.00    +0.000 A 
ATOM     13  C   UNL     1       9.579  31.959  77.573  0.00  0.00    +0.000 A 
BRANCH   8  15
ATOM     14  F   UNL     1      12.269  33.587  73.561  0.00  0.00    +0.000 F 
ATOM     15  C   UNL     1      12.542  32.583  74.436  0.00  0.00    +0.000 C 
ATOM     16  F   UNL     1      12.662  31.452  73.686  0.00  0.00    +0.000 F 
ATOM     17  F   UNL     1      13.788  32.836  74.925  0.00  0.00    +0.000 F 
ENDBRANCH   8  15
ENDBRANCH   1  13
BRANCH   5  18
ATOM     18  C   UNL     1       7.105  31.212  81.468  0.00  0.00    +0.000 A 
ATOM     19  C   UNL     1       7.691  32.340  82.055  0.00  0.00    +0.000 A 
ATOM     20  C   UNL     1       6.856  30.075  82.271  0.00  0.00    +0.000 A 
ATOM     21  C   UNL     1       7.977  32.343  83.414  0.00  0.00    +0.000 A 
ATOM     22  C   UNL     1       7.130  30.096  83.635  0.00  0.00    +0.000 A 
ATOM     23  C   UNL     1       7.686  31.235  84.208  0.00  0.00    +0.000 A 
ENDBRANCH   5  18
BRANCH   4  24
ATOM     24  C   UNL     1       6.668  34.046  77.589  0.00  0.00    +0.000 C 
ATOM     25  O   UNL     1       6.528  35.033  78.298  0.00  0.00    +0.000 OA
ATOM     26  O   UNL     1       7.178  34.139  76.327  0.00  0.00    +0.000 OA
ENDBRANCH   4  24
BRANCH   7  27
ATOM     27  C   UNL     1       4.417  32.037  81.172  0.00  0.00    +0.000 C 
ATOM     28  O   UNL     1       3.818  31.259  81.902  0.00  0.00    +0.000 OA
ATOM     29  O   UNL     1       4.531  33.346  81.476  0.00  0.00    +0.000 OA
ENDBRANCH   7  27
BRANCH   4  30
ATOM     30  C   UNL     1       5.982  31.615  76.893  0.00  0.00    +0.000 C 
BRANCH  30  31
ATOM     31  C   UNL     1       4.522  31.752  76.456  0.00  0.00    +0.000 C 
BRANCH  31  32
ATOM     32  C   UNL     1       3.648  30.508  76.397  0.00  0.00    +0.000 C 
BRANCH  32  33
ATOM     33  N   UNL     1       2.839  30.365  77.601  0.00  0.00    +0.000 N 
ATOM     34  H   UNL     1       1.984  30.914  77.503  0.00  0.00    +0.000 HD
ATOM     35  H   UNL     1       3.366  30.697  78.408  0.00  0.00    +0.000 HD
ATOM     36  H   UNL     1       2.598  29.382  77.734  0.00  0.00    +0.000 HD
ENDBRANCH  32  33
ENDBRANCH  31  32
ENDBRANCH  30  31
ENDBRANCH   4  30
TORSDOF 9
ENDMDL
MODEL 8
REMARK VINA RESULT:      -6.6      2.509      3.362
REMARK  Name = 
REMARK  9 active torsions:
REMARK  status: ('A' for Active; 'I' for Inactive)
REMARK    1  A    between atoms: C_2  and  C_5
REMARK    2  A    between atoms: C_10  and  C_11
REMARK    3  A    between atoms: C_14  and  C_16
REMARK    4  A    between atoms: C_14  and  C_18
REMARK    5  A    between atoms: C_15  and  C_19
REMARK    6  A    between atoms: C_18  and  C_23
REMARK    7  A    between atoms: C_20  and  C_26
REMARK    8  A    between atoms: C_23  and  C_27
REMARK    9  A    between atoms: C_27  and  N_32
REMARK                            x       y       z     vdW  Elec       q    Type
REMARK                         _______ _______ _______ _____ _____    ______ ____
ROOT
ATOM      1  C   UNL     1       7.578  31.441  78.115  0.00  0.00    +0.000 C 
ATOM      2  O   UNL     1       7.347  30.290  77.742  0.00  0.00    +0.000 OA
ATOM      3  N   UNL     1       6.778  32.053  79.134  0.00  0.00    +0.000 N 
ATOM      4  C   UNL     1       6.597  33.519  79.428  0.00  0.00    +0.000 C 
ATOM      5  C   UNL     1       5.509  31.340  79.511  0.00  0.00    +0.000 C 
ATOM      6  C   UNL     1       5.665  33.449  80.673  0.00  0.00    +0.000 C 
ATOM      7  C   UNL     1       4.690  32.320  80.393  0.00  0.00    +0.000 C 
ENDROOT
BRANCH   1  13
ATOM      8  C   UNL     1      10.525  33.949  76.133  0.00  0.00    +0.000 A 
ATOM      9  C   UNL     1       9.245  33.767  75.583  0.00  0.00    +0.000 A 
ATOM     10  C   UNL     1      10.878  33.177  77.236  0.00  0.00    +0.000 A 
ATOM     11  C   UNL     1       8.323  32.897  76.195  0.00  0.00    +0.000 A 
ATOM     12  C   UNL     1       9.989  32.235  77.757  0.00  0.00    +0.000 A 
ATOM     13  C   UNL     1       8.666  32.157  77.343  0.00  0.00    +0.000 A 
BRANCH   8  15
ATOM     14  F   UNL     1      11.805  34.751  74.258  0.00  0.00    +0.000 F 
ATOM     15  C   UNL     1      11.542  34.920  75.582  0.00  0.00    +0.000 C 
ATOM     16  F   UNL     1      12.743  34.819  76.219  0.00  0.00    +0.000 F 
ATOM     17  F   UNL     1      11.155  36.217  75.728  0.00  0.00    +0.000 F 
ENDBRANCH   8  15
ENDBRANCH   1  13
BRANCH   5  18
ATOM     18  C   UNL     1       5.624  29.966  80.134  0.00  0.00    +0.000 A 
ATOM     19  C   UNL     1       6.647  29.624  81.028  0.00  0.00    +0.000 A 
ATOM     20  C   UNL     1       4.600  29.025  79.875  0.00  0.00    +0.000 A 
ATOM     21  C   UNL     1       6.618  28.396  81.675  0.00  0.00    +0.000 A 
ATOM     22  C   UNL     1       4.572  27.805  80.544  0.00  0.00    +0.000 A 
ATOM     23  C   UNL     1       5.580  27.493  81.450  0.00  0.00    +0.000 A 
ENDBRANCH   5  18
BRANCH   4  24
ATOM     24  C   UNL     1       7.767  34.287  80.079  0.00  0.00    +0.000 C 
ATOM     25  O   UNL     1       8.138  34.151  81.236  0.00  0.00    +0.000 OA
ATOM     26  O   UNL     1       8.456  35.063  79.194  0.00  0.00    +0.000 OA
ENDBRANCH   4  24
BRANCH   7  27
ATOM     27  C   UNL     1       4.158  31.791  81.719  0.00  0.00    +0.000 C 
ATOM     28  O   UNL     1       4.784  31.795  82.770  0.00  0.00    +0.000 OA
ATOM     29  O   UNL     1       2.883  31.354  81.657  0.00  0.00    +0.000 OA
ENDBRANCH   7  27
BRANCH   4  30
ATOM     30  C   UNL     1       5.846  34.316  78.297  0.00  0.00    +0.000 C 
BRANCH  30  31
ATOM     31  C   UNL     1       5.124  35.584  78.756  0.00  0.00    +0.000 C 
BRANCH  31  32
ATOM     32  C   UNL     1       5.468  36.911  78.096  0.00  0.00    +0.000 C 
BRANCH  32  33
ATOM     33  N   UNL     1       6.157  37.804  79.019  0.00  0.00    +0.000 N 
ATOM     34  H   UNL     1       6.981  37.335  79.394  0.00  0.00    +0.000 HD
ATOM     35  H   UNL     1       5.530  38.054  79.783  0.00  0.00    +0.000 HD
ATOM     36  H   UNL     1       6.443  38.650  78.524  0.00  0.00    +0.000 HD
ENDBRANCH  32  33
ENDBRANCH  31  32
ENDBRANCH  30  31
ENDBRANCH   4  30
TORSDOF 9
ENDMDL
MODEL 9
REMARK VINA RESULT:      -6.5      3.399      5.398
REMARK  Name = 
REMARK  9 active torsions:
REMARK  status: ('A' for Active; 'I' for Inactive)
REMARK    1  A    between atoms: C_2  and  C_5
REMARK    2  A    between atoms: C_10  and  C_11
REMARK    3  A    between atoms: C_14  and  C_16
REMARK    4  A    between atoms: C_14  and  C_18
REMARK    5  A    between atoms: C_15  and  C_19
REMARK    6  A    between atoms: C_18  and  C_23
REMARK    7  A    between atoms: C_20  and  C_26
REMARK    8  A    between atoms: C_23  and  C_27
REMARK    9  A    between atoms: C_27  and  N_32
REMARK                            x       y       z     vdW  Elec       q    Type
REMARK                         _______ _______ _______ _____ _____    ______ ____
ROOT
ATOM      1  C   UNL     1       7.037  33.139  80.045  0.00  0.00    +0.000 C 
ATOM      2  O   UNL     1       6.451  32.614  80.993  0.00  0.00    +0.000 OA
ATOM      3  N   UNL     1       6.925  32.593  78.725  0.00  0.00    +0.000 N 
ATOM      4  C   UNL     1       7.849  32.786  77.551  0.00  0.00    +0.000 C 
ATOM      5  C   UNL     1       6.303  31.230  78.611  0.00  0.00    +0.000 C 
ATOM      6  C   UNL     1       7.098  31.973  76.457  0.00  0.00    +0.000 C 
ATOM      7  C   UNL     1       6.558  30.741  77.160  0.00  0.00    +0.000 C 
ENDROOT
BRANCH   1  13
ATOM      8  C   UNL     1       9.387  36.458  81.583  0.00  0.00    +0.000 A 
ATOM      9  C   UNL     1       8.143  36.678  80.968  0.00  0.00    +0.000 A 
ATOM     10  C   UNL     1       9.920  35.174  81.537  0.00  0.00    +0.000 A 
ATOM     11  C   UNL     1       7.423  35.604  80.410  0.00  0.00    +0.000 A 
ATOM     12  C   UNL     1       9.243  34.146  80.877  0.00  0.00    +0.000 A 
ATOM     13  C   UNL     1       7.942  34.295  80.415  0.00  0.00    +0.000 A 
BRANCH   8  15
ATOM     14  F   UNL     1      10.595  38.535  81.438  0.00  0.00    +0.000 F 
ATOM     15  C   UNL     1      10.184  37.542  82.270  0.00  0.00    +0.000 C 
ATOM     16  F   UNL     1      11.312  37.052  82.858  0.00  0.00    +0.000 F 
ATOM     17  F   UNL     1       9.482  38.150  83.267  0.00  0.00    +0.000 F 
ENDBRANCH   8  15
ENDBRANCH   1  13
BRANCH   5  18
ATOM     18  C   UNL     1       4.856  31.072  79.024  0.00  0.00    +0.000 A 
ATOM     19  C   UNL     1       4.414  30.026  79.845  0.00  0.00    +0.000 A 
ATOM     20  C   UNL     1       3.936  32.076  78.644  0.00  0.00    +0.000 A 
ATOM     21  C   UNL     1       3.104  30.013  80.304  0.00  0.00    +0.000 A 
ATOM     22  C   UNL     1       2.631  32.063  79.127  0.00  0.00    +0.000 A 
ATOM     23  C   UNL     1       2.217  31.033  79.964  0.00  0.00    +0.000 A 
ENDBRANCH   5  18
BRANCH   4  24
ATOM     24  C   UNL     1       7.853  34.155  76.837  0.00  0.00    +0.000 C 
ATOM     25  O   UNL     1       8.630  35.069  77.075  0.00  0.00    +0.000 OA
ATOM     26  O   UNL     1       6.971  34.220  75.799  0.00  0.00    +0.000 OA
ENDBRANCH   4  24
BRANCH   7  27
ATOM     27  C   UNL     1       5.362  30.214  76.379  0.00  0.00    +0.000 C 
ATOM     28  O   UNL     1       4.794  29.154  76.607  0.00  0.00    +0.000 OA
ATOM     29  O   UNL     1       4.926  31.057  75.420  0.00  0.00    +0.000 OA
ENDBRANCH   7  27
BRANCH   4  30
ATOM     30  C   UNL     1       9.276  32.151  77.742  0.00  0.00    +0.000 C 
BRANCH  30  31
ATOM     31  C   UNL     1      10.070  31.919  76.455  0.00  0.00    +0.000 C 
BRANCH  31  32
ATOM     32  C   UNL     1      11.467  32.511  76.331  0.00  0.00    +0.000 C 
BRANCH  32  33
ATOM     33  N   UNL     1      11.448  33.961  76.478  0.00  0.00    +0.000 N 
ATOM     34  H   UNL     1      11.751  34.395  75.606  0.00  0.00    +0.000 HD
ATOM     35  H   UNL     1      12.077  34.236  77.232  0.00  0.00    +0.000 HD
ATOM     36  H   UNL     1      10.500  34.268  76.699  0.00  0.00    +0.000 HD
ENDBRANCH  32  33
ENDBRANCH  31  32
ENDBRANCH  30  31
ENDBRANCH   4  30
TORSDOF 9
ENDMDL
