MODEL 1
REMARK VINA RESULT:      -7.5      0.000      0.000
REMARK  Name = 
REMARK  9 active torsions:
REMARK  status: ('A' for Active; 'I' for Inactive)
REMARK    1  A    between atoms: C_2  and  C_5
REMARK    2  A    between atoms: C_10  and  C_11
REMARK    3  A    between atoms: C_14  and  C_16
REMARK    4  A    between atoms: C_14  and  C_18
REMARK    5  A    between atoms: C_15  and  C_19
REMARK    6  A    between atoms: C_18  and  C_23
REMARK    7  A    between atoms: C_20  and  C_26
REMARK    8  A    between atoms: C_23  and  C_27
REMARK    9  A    between atoms: C_27  and  N_32
REMARK                            x       y       z     vdW  Elec       q    Type
REMARK                         _______ _______ _______ _____ _____    ______ ____
ROOT
ATOM      1  C   UNL     1       8.485  30.935  78.853  0.00  0.00    +0.000 C 
ATOM      2  O   UNL     1       8.953  29.858  79.233  0.00  0.00    +0.000 OA
ATOM      3  N   UNL     1       7.219  31.328  79.318  0.00  0.00    +0.000 N 
ATOM      4  C   UNL     1       6.602  30.722  80.548  0.00  0.00    +0.000 C 
ATOM      5  C   UNL     1       6.479  32.561  78.947  0.00  0.00    +0.000 C 
ATOM      6  C   UNL     1       5.130  31.212  80.400  0.00  0.00    +0.000 C 
ATOM      7  C   UNL     1       5.237  32.625  79.843  0.00  0.00    +0.000 C 
ENDROOT
BRANCH   1  13
ATOM      8  C   UNL     1      11.027  32.819  75.919  0.00  0.00    +0.000 A 
ATOM      9  C   UNL     1      10.903  33.354  77.208  0.00  0.00    +0.000 A 
ATOM     10  C   UNL     1      10.183  31.771  75.553  0.00  0.00    +0.000 A 
ATOM     11  C   UNL     1      10.032  32.767  78.138  0.00  0.00    +0.000 A 
ATOM     12  C   UNL     1       9.231  31.279  76.445  0.00  0.00    +0.000 A 
ATOM     13  C   UNL     1       9.238  31.663  77.781  0.00  0.00    +0.000 A 
BRANCH   8  15
ATOM     14  F   UNL     1      11.893  34.643  74.627  0.00  0.00    +0.000 F 
ATOM     15  C   UNL     1      12.023  33.322  74.904  0.00  0.00    +0.000 C 
ATOM     16  F   UNL     1      11.908  32.671  73.711  0.00  0.00    +0.000 F 
ATOM     17  F   UNL     1      13.313  33.141  75.301  0.00  0.00    +0.000 F 
ENDBRANCH   8  15
ENDBRANCH   1  13
BRANCH   5  18
ATOM     18  C   UNL     1       6.227  32.762  77.468  0.00  0.00    +0.000 A 
ATOM     19  C   UNL     1       6.584  33.933  76.787  0.00  0.00    +0.000 A 
ATOM     20  C   UNL     1       5.567  31.741  76.751  0.00  0.00    +0.000 A 
ATOM     21  C   UNL     1       6.251  34.089  75.440  0.00  0.00    +0.000 A 
ATOM     22  C   UNL     1       5.243  31.898  75.406  0.00  0.00    +0.000 A 
ATOM     23  C   UNL     1       5.582  33.076  74.753  0.00  0.00    +0.000 A 
ENDBRANCH   5  18
BRANCH   4  24
ATOM     24  C   UNL     1       6.432  29.183  80.741  0.00  0.00    +0.000 C 
ATOM     25  O   UNL     1       7.134  28.535  81.500  0.00  0.00    +0.000 OA
ATOM     26  O   UNL     1       5.444  28.598  80.042  0.00  0.00    +0.000 OA
ENDBRANCH   4  24
BRANCH   7  27
ATOM     27  C   UNL     1       3.985  33.113  79.150  0.00  0.00    +0.000 C 
ATOM     28  O   UNL     1       3.775  34.269  78.818  0.00  0.00    +0.000 OA
ATOM     29  O   UNL     1       3.087  32.125  78.914  0.00  0.00    +0.000 OA
ENDBRANCH   7  27
BRANCH   4  30
ATOM     30  C   UNL     1       7.224  31.324  81.847  0.00  0.00    +0.000 C 
BRANCH  30  31
ATOM     31  C   UNL     1       6.251  31.469  83.026  0.00  0.00    +0.000 C 
BRANCH  31  32
ATOM     32  C   UNL     1       6.832  30.978  84.353  0.00  0.00    +0.000 C 
BRANCH  32  33
ATOM     33  N   UNL     1       7.151  29.553  84.294  0.00  0.00    +0.000 N 
ATOM     34  H   UNL     1       6.297  29.019  84.130  0.00  0.00    +0.000 HD
ATOM     35  H   UNL     1       7.568  29.261  85.178  0.00  0.00    +0.000 HD
ATOM     36  H   UNL     1       7.809  29.382  83.534  0.00  0.00    +0.000 HD
ENDBRANCH  32  33
ENDBRANCH  31  32
ENDBRANCH  30  31
ENDBRANCH   4  30
TORSDOF 9
ENDMDL
MODEL 2
REMARK VINA RESULT:      -7.4      3.456      4.699
REMARK  Name = 
REMARK  9 active torsions:
REMARK  status: ('A' for Active; 'I' for Inactive)
REMARK    1  A    between atoms: C_2  and  C_5
REMARK    2  A    between atoms: C_10  and  C_11
REMARK    3  A    between atoms: C_14  and  C_16
REMARK    4  A    between atoms: C_14  and  C_18
REMARK    5  A    between atoms: C_15  and  C_19
REMARK    6  A    between atoms: C_18  and  C_23
REMARK    7  A    between atoms: C_20  and  C_26
REMARK    8  A    between atoms: C_23  and  C_27
REMARK    9  A    between atoms: C_27  and  N_32
REMARK                            x       y       z     vdW  Elec       q    Type
REMARK                         _______ _______ _______ _____ _____    ______ ____
ROOT
ATOM      1  C   UNL     1       9.012  34.741  78.742  0.00  0.00    +0.000 C 
ATOM      2  O   UNL     1       9.749  34.818  79.729  0.00  0.00    +0.000 OA
ATOM      3  N   UNL     1       7.732  35.318  78.803  0.00  0.00    +0.000 N 
ATOM      4  C   UNL     1       7.379  36.360  79.828  0.00  0.00    +0.000 C 
ATOM      5  C   UNL     1       6.696  35.296  77.739  0.00  0.00    +0.000 C 
ATOM      6  C   UNL     1       5.826  36.374  79.697  0.00  0.00    +0.000 C 
ATOM      7  C   UNL     1       5.552  36.202  78.209  0.00  0.00    +0.000 C 
ENDROOT
BRANCH   1  13
ATOM      8  C   UNL     1      10.788  32.337  75.630  0.00  0.00    +0.000 A 
ATOM      9  C   UNL     1      10.693  33.728  75.494  0.00  0.00    +0.000 A 
ATOM     10  C   UNL     1      10.144  31.732  76.709  0.00  0.00    +0.000 A 
ATOM     11  C   UNL     1      10.064  34.496  76.486  0.00  0.00    +0.000 A 
ATOM     12  C   UNL     1       9.413  32.494  77.621  0.00  0.00    +0.000 A 
ATOM     13  C   UNL     1       9.481  33.882  77.607  0.00  0.00    +0.000 A 
BRANCH   8  15
ATOM     14  F   UNL     1      11.615  31.965  73.412  0.00  0.00    +0.000 F 
ATOM     15  C   UNL     1      11.547  31.458  74.668  0.00  0.00    +0.000 C 
ATOM     16  F   UNL     1      10.979  30.224  74.547  0.00  0.00    +0.000 F 
ATOM     17  F   UNL     1      12.832  31.237  75.059  0.00  0.00    +0.000 F 
ENDBRANCH   8  15
ENDBRANCH   1  13
BRANCH   5  18
ATOM     18  C   UNL     1       6.281  33.926  77.246  0.00  0.00    +0.000 A 
ATOM     19  C   UNL     1       5.899  32.891  78.108  0.00  0.00    +0.000 A 
ATOM     20  C   UNL     1       6.321  33.668  75.859  0.00  0.00    +0.000 A 
ATOM     21  C   UNL     1       5.605  31.625  77.595  0.00  0.00    +0.000 A 
ATOM     22  C   UNL     1       6.021  32.407  75.351  0.00  0.00    +0.000 A 
ATOM     23  C   UNL     1       5.668  31.384  76.223  0.00  0.00    +0.000 A 
ENDBRANCH   5  18
BRANCH   4  24
ATOM     24  C   UNL     1       7.590  36.147  81.360  0.00  0.00    +0.000 C 
ATOM     25  O   UNL     1       8.499  36.679  81.976  0.00  0.00    +0.000 OA
ATOM     26  O   UNL     1       6.696  35.362  81.984  0.00  0.00    +0.000 OA
ENDBRANCH   4  24
BRANCH   7  27
ATOM     27  C   UNL     1       4.167  35.685  77.890  0.00  0.00    +0.000 C 
ATOM     28  O   UNL     1       3.676  35.644  76.773  0.00  0.00    +0.000 OA
ATOM     29  O   UNL     1       3.496  35.251  78.984  0.00  0.00    +0.000 OA
ENDBRANCH   7  27
BRANCH   4  30
ATOM     30  C   UNL     1       7.948  37.758  79.432  0.00  0.00    +0.000 C 
BRANCH  30  31
ATOM     31  C   UNL     1       7.205  38.957  80.040  0.00  0.00    +0.000 C 
BRANCH  31  32
ATOM     32  C   UNL     1       8.138  39.980  80.689  0.00  0.00    +0.000 C 
BRANCH  32  33
ATOM     33  N   UNL     1       9.465  39.412  80.922  0.00  0.00    +0.000 N 
ATOM     34  H   UNL     1       9.524  38.495  80.479  0.00  0.00    +0.000 HD
ATOM     35  H   UNL     1       9.622  39.315  81.925  0.00  0.00    +0.000 HD
ATOM     36  H   UNL     1      10.173  40.028  80.524  0.00  0.00    +0.000 HD
ENDBRANCH  32  33
ENDBRANCH  31  32
ENDBRANCH  30  31
ENDBRANCH   4  30
TORSDOF 9
ENDMDL
MODEL 3
REMARK VINA RESULT:      -7.2      1.070      1.781
REMARK  Name = 
REMARK  9 active torsions:
REMARK  status: ('A' for Active; 'I' for Inactive)
REMARK    1  A    between atoms: C_2  and  C_5
REMARK    2  A    between atoms: C_10  and  C_11
REMARK    3  A    between atoms: C_14  and  C_16
REMARK    4  A    between atoms: C_14  and  C_18
REMARK    5  A    between atoms: C_15  and  C_19
REMARK    6  A    between atoms: C_18  and  C_23
REMARK    7  A    between atoms: C_20  and  C_26
REMARK    8  A    between atoms: C_23  and  C_27
REMARK    9  A    between atoms: C_27  and  N_32
REMARK                            x       y       z     vdW  Elec       q    Type
REMARK                         _______ _______ _______ _____ _____    ______ ____
ROOT
ATOM      1  C   UNL     1       8.485  31.011  78.981  0.00  0.00    +0.000 C 
ATOM      2  O   UNL     1       8.937  29.928  79.363  0.00  0.00    +0.000 OA
ATOM      3  N   UNL     1       7.255  31.454  79.495  0.00  0.00    +0.000 N 
ATOM      4  C   UNL     1       6.678  30.894  80.766  0.00  0.00    +0.000 C 
ATOM      5  C   UNL     1       6.537  32.702  79.132  0.00  0.00    +0.000 C 
ATOM      6  C   UNL     1       5.217  31.428  80.676  0.00  0.00    +0.000 C 
ATOM      7  C   UNL     1       5.341  32.824  80.082  0.00  0.00    +0.000 C 
ENDROOT
BRANCH   1  13
ATOM      8  C   UNL     1      10.947  32.764  75.901  0.00  0.00    +0.000 A 
ATOM      9  C   UNL     1      10.865  33.350  77.171  0.00  0.00    +0.000 A 
ATOM     10  C   UNL     1      10.087  31.708  75.602  0.00  0.00    +0.000 A 
ATOM     11  C   UNL     1      10.019  32.804  78.149  0.00  0.00    +0.000 A 
ATOM     12  C   UNL     1       9.160  31.256  76.541  0.00  0.00    +0.000 A 
ATOM     13  C   UNL     1       9.209  31.693  77.859  0.00  0.00    +0.000 A 
BRANCH   8  15
ATOM     14  F   UNL     1      12.137  32.293  73.875  0.00  0.00    +0.000 F 
ATOM     15  C   UNL     1      11.915  33.221  74.838  0.00  0.00    +0.000 C 
ATOM     16  F   UNL     1      13.138  33.525  75.360  0.00  0.00    +0.000 F 
ATOM     17  F   UNL     1      11.497  34.346  74.195  0.00  0.00    +0.000 F 
ENDBRANCH   8  15
ENDBRANCH   1  13
BRANCH   5  18
ATOM     18  C   UNL     1       6.222  32.881  77.661  0.00  0.00    +0.000 A 
ATOM     19  C   UNL     1       5.563  31.907  76.901  0.00  0.00    +0.000 A 
ATOM     20  C   UNL     1       6.647  34.064  77.020  0.00  0.00    +0.000 A 
ATOM     21  C   UNL     1       5.374  32.099  75.530  0.00  0.00    +0.000 A 
ATOM     22  C   UNL     1       6.450  34.254  75.655  0.00  0.00    +0.000 A 
ATOM     23  C   UNL     1       5.817  33.267  74.909  0.00  0.00    +0.000 A 
ENDBRANCH   5  18
BRANCH   4  24
ATOM     24  C   UNL     1       6.470  29.365  81.000  0.00  0.00    +0.000 C 
ATOM     25  O   UNL     1       7.013  28.761  81.910  0.00  0.00    +0.000 OA
ATOM     26  O   UNL     1       5.629  28.740  80.158  0.00  0.00    +0.000 OA
ENDBRANCH   4  24
BRANCH   7  27
ATOM     27  C   UNL     1       4.073  33.338  79.437  0.00  0.00    +0.000 C 
ATOM     28  O   UNL     1       3.868  34.501  79.128  0.00  0.00    +0.000 OA
ATOM     29  O   UNL     1       3.156  32.365  79.218  0.00  0.00    +0.000 OA
ENDBRANCH   7  27
BRANCH   4  30
ATOM     30  C   UNL     1       7.378  31.503  82.021  0.00  0.00    +0.000 C 
BRANCH  30  31
ATOM     31  C   UNL     1       8.713  32.210  81.740  0.00  0.00    +0.000 C 
BRANCH  31  32
ATOM     32  C   UNL     1       8.669  33.714  82.014  0.00  0.00    +0.000 C 
BRANCH  32  33
ATOM     33  N   UNL     1       9.940  34.350  81.668  0.00  0.00    +0.000 N 
ATOM     34  H   UNL     1      10.620  34.173  82.408  0.00  0.00    +0.000 HD
ATOM     35  H   UNL     1       9.801  35.355  81.569  0.00  0.00    +0.000 HD
ATOM     36  H   UNL     1      10.285  33.965  80.790  0.00  0.00    +0.000 HD
ENDBRANCH  32  33
ENDBRANCH  31  32
ENDBRANCH  30  31
ENDBRANCH   4  30
TORSDOF 9
ENDMDL
MODEL 4
REMARK VINA RESULT:      -6.9      2.068      2.897
REMARK  Name = 
REMARK  9 active torsions:
REMARK  status: ('A' for Active; 'I' for Inactive)
REMARK    1  A    between atoms: C_2  and  C_5
REMARK    2  A    between atoms: C_10  and  C_11
REMARK    3  A    between atoms: C_14  and  C_16
REMARK    4  A    between atoms: C_14  and  C_18
REMARK    5  A    between atoms: C_15  and  C_19
REMARK    6  A    between atoms: C_18  and  C_23
REMARK    7  A    between atoms: C_20  and  C_26
REMARK    8  A    between atoms: C_23  and  C_27
REMARK    9  A    between atoms: C_27  and  N_32
REMARK                            x       y       z     vdW  Elec       q    Type
REMARK                         _______ _______ _______ _____ _____    ______ ____
ROOT
ATOM      1  C   UNL     1       7.828  31.287  77.604  0.00  0.00    +0.000 C 
ATOM      2  O   UNL     1       7.457  30.280  76.996  0.00  0.00    +0.000 OA
ATOM      3  N   UNL     1       7.131  31.678  78.759  0.00  0.00    +0.000 N 
ATOM      4  C   UNL     1       6.241  30.726  79.510  0.00  0.00    +0.000 C 
ATOM      5  C   UNL     1       7.401  32.873  79.599  0.00  0.00    +0.000 C 
ATOM      6  C   UNL     1       5.467  31.721  80.427  0.00  0.00    +0.000 C 
ATOM      7  C   UNL     1       6.494  32.769  80.831  0.00  0.00    +0.000 C 
ENDROOT
BRANCH   1  13
ATOM      8  C   UNL     1      10.723  34.034  75.965  0.00  0.00    +0.000 A 
ATOM      9  C   UNL     1       9.472  33.866  75.357  0.00  0.00    +0.000 A 
ATOM     10  C   UNL     1      11.076  33.173  77.003  0.00  0.00    +0.000 A 
ATOM     11  C   UNL     1       8.558  32.930  75.865  0.00  0.00    +0.000 A 
ATOM     12  C   UNL     1      10.209  32.161  77.415  0.00  0.00    +0.000 A 
ATOM     13  C   UNL     1       8.897  32.116  76.959  0.00  0.00    +0.000 A 
BRANCH   8  15
ATOM     14  F   UNL     1      12.033  35.051  74.234  0.00  0.00    +0.000 F 
ATOM     15  C   UNL     1      11.711  35.096  75.550  0.00  0.00    +0.000 C 
ATOM     16  F   UNL     1      12.888  34.992  76.232  0.00  0.00    +0.000 F 
ATOM     17  F   UNL     1      11.256  36.357  75.788  0.00  0.00    +0.000 F 
ENDBRANCH   8  15
ENDBRANCH   1  13
BRANCH   5  18
ATOM     18  C   UNL     1       7.377  34.206  78.882  0.00  0.00    +0.000 A 
ATOM     19  C   UNL     1       6.324  34.603  78.048  0.00  0.00    +0.000 A 
ATOM     20  C   UNL     1       8.483  35.071  79.028  0.00  0.00    +0.000 A 
ATOM     21  C   UNL     1       6.400  35.811  77.352  0.00  0.00    +0.000 A 
ATOM     22  C   UNL     1       8.551  36.277  78.337  0.00  0.00    +0.000 A 
ATOM     23  C   UNL     1       7.509  36.644  77.494  0.00  0.00    +0.000 A 
ENDBRANCH   5  18
BRANCH   4  24
ATOM     24  C   UNL     1       5.090  29.924  78.828  0.00  0.00    +0.000 C 
ATOM     25  O   UNL     1       4.844  28.762  79.108  0.00  0.00    +0.000 OA
ATOM     26  O   UNL     1       4.353  30.589  77.922  0.00  0.00    +0.000 OA
ENDBRANCH   4  24
BRANCH   7  27
ATOM     27  C   UNL     1       5.895  34.082  81.284  0.00  0.00    +0.000 C 
ATOM     28  O   UNL     1       6.493  34.946  81.906  0.00  0.00    +0.000 OA
ATOM     29  O   UNL     1       4.597  34.226  80.923  0.00  0.00    +0.000 OA
ENDBRANCH   7  27
BRANCH   4  30
ATOM     30  C   UNL     1       7.079  29.749  80.394  0.00  0.00    +0.000 C 
BRANCH  30  31
ATOM     31  C   UNL     1       6.435  29.374  81.736  0.00  0.00    +0.000 C 
BRANCH  31  32
ATOM     32  C   UNL     1       6.632  27.904  82.111  0.00  0.00    +0.000 C 
BRANCH  32  33
ATOM     33  N   UNL     1       5.551  27.075  81.581  0.00  0.00    +0.000 N 
ATOM     34  H   UNL     1       5.448  27.249  80.581  0.00  0.00    +0.000 HD
ATOM     35  H   UNL     1       4.679  27.307  82.057  0.00  0.00    +0.000 HD
ATOM     36  H   UNL     1       5.770  26.091  81.734  0.00  0.00    +0.000 HD
ENDBRANCH  32  33
ENDBRANCH  31  32
ENDBRANCH  30  31
ENDBRANCH   4  30
TORSDOF 9
ENDMDL
MODEL 5
REMARK VINA RESULT:      -6.8      2.118      3.586
REMARK  Name = 
REMARK  9 active torsions:
REMARK  status: ('A' for Active; 'I' for Inactive)
REMARK    1  A    between atoms: C_2  and  C_5
REMARK    2  A    between atoms: C_10  and  C_11
REMARK    3  A    between atoms: C_14  and  C_16
REMARK    4  A    between atoms: C_14  and  C_18
REMARK    5  A    between atoms: C_15  and  C_19
REMARK    6  A    between atoms: C_18  and  C_23
REMARK    7  A    between atoms: C_20  and  C_26
REMARK    8  A    between atoms: C_23  and  C_27
REMARK    9  A    between atoms: C_27  and  N_32
REMARK                            x       y       z     vdW  Elec       q    Type
REMARK                         _______ _______ _______ _____ _____    ______ ____
ROOT
ATOM      1  C   UNL     1       6.144  31.404  77.038  0.00  0.00    +0.000 C 
ATOM      2  O   UNL     1       5.290  31.107  76.198  0.00  0.00    +0.000 OA
ATOM      3  N   UNL     1       5.789  31.408  78.397  0.00  0.00    +0.000 N 
ATOM      4  C   UNL     1       4.572  30.681  78.901  0.00  0.00    +0.000 C 
ATOM      5  C   UNL     1       6.661  31.771  79.543  0.00  0.00    +0.000 C 
ATOM      6  C   UNL     1       4.446  31.293  80.329  0.00  0.00    +0.000 C 
ATOM      7  C   UNL     1       5.878  31.449  80.821  0.00  0.00    +0.000 C 
ENDROOT
BRANCH   1  13
ATOM      8  C   UNL     1       9.965  33.087  75.948  0.00  0.00    +0.000 A 
ATOM      9  C   UNL     1       8.781  33.804  75.735  0.00  0.00    +0.000 A 
ATOM     10  C   UNL     1       9.870  31.758  76.358  0.00  0.00    +0.000 A 
ATOM     11  C   UNL     1       7.538  33.227  76.041  0.00  0.00    +0.000 A 
ATOM     12  C   UNL     1       8.625  31.154  76.536  0.00  0.00    +0.000 A 
ATOM     13  C   UNL     1       7.458  31.909  76.523  0.00  0.00    +0.000 A 
BRANCH   8  15
ATOM     14  F   UNL     1      11.924  34.078  76.910  0.00  0.00    +0.000 F 
ATOM     15  C   UNL     1      11.339  33.678  75.754  0.00  0.00    +0.000 C 
ATOM     16  F   UNL     1      11.312  34.776  74.945  0.00  0.00    +0.000 F 
ATOM     17  F   UNL     1      12.207  32.809  75.168  0.00  0.00    +0.000 F 
ENDBRANCH   8  15
ENDBRANCH   1  13
BRANCH   5  18
ATOM     18  C   UNL     1       7.284  33.150  79.490  0.00  0.00    +0.000 A 
ATOM     19  C   UNL     1       6.542  34.312  79.249  0.00  0.00    +0.000 A 
ATOM     20  C   UNL     1       8.682  33.264  79.651  0.00  0.00    +0.000 A 
ATOM     21  C   UNL     1       7.189  35.544  79.132  0.00  0.00    +0.000 A 
ATOM     22  C   UNL     1       9.322  34.495  79.540  0.00  0.00    +0.000 A 
ATOM     23  C   UNL     1       8.573  35.635  79.275  0.00  0.00    +0.000 A 
ENDBRANCH   5  18
BRANCH   4  24
ATOM     24  C   UNL     1       3.146  30.903  78.307  0.00  0.00    +0.000 C 
ATOM     25  O   UNL     1       2.565  31.973  78.379  0.00  0.00    +0.000 OA
ATOM     26  O   UNL     1       2.590  29.853  77.678  0.00  0.00    +0.000 OA
ENDBRANCH   4  24
BRANCH   7  27
ATOM     27  C   UNL     1       6.044  32.461  81.933  0.00  0.00    +0.000 C 
ATOM     28  O   UNL     1       5.257  33.360  82.185  0.00  0.00    +0.000 OA
ATOM     29  O   UNL     1       7.177  32.277  82.655  0.00  0.00    +0.000 OA
ENDBRANCH   7  27
BRANCH   4  30
ATOM     30  C   UNL     1       4.836  29.147  79.013  0.00  0.00    +0.000 C 
BRANCH  30  31
ATOM     31  C   UNL     1       4.435  28.516  80.354  0.00  0.00    +0.000 C 
BRANCH  31  32
ATOM     32  C   UNL     1       5.592  27.803  81.057  0.00  0.00    +0.000 C 
BRANCH  32  33
ATOM     33  N   UNL     1       6.859  28.051  80.371  0.00  0.00    +0.000 N 
ATOM     34  H   UNL     1       7.580  27.443  80.759  0.00  0.00    +0.000 HD
ATOM     35  H   UNL     1       7.131  29.025  80.501  0.00  0.00    +0.000 HD
ATOM     36  H   UNL     1       6.751  27.857  79.376  0.00  0.00    +0.000 HD
ENDBRANCH  32  33
ENDBRANCH  31  32
ENDBRANCH  30  31
ENDBRANCH   4  30
TORSDOF 9
ENDMDL
MODEL 6
REMARK VINA RESULT:      -6.8      4.975      7.422
REMARK  Name = 
REMARK  9 active torsions:
REMARK  status: ('A' for Active; 'I' for Inactive)
REMARK    1  A    between atoms: C_2  and  C_5
REMARK    2  A    between atoms: C_10  and  C_11
REMARK    3  A    between atoms: C_14  and  C_16
REMARK    4  A    between atoms: C_14  and  C_18
REMARK    5  A    between atoms: C_15  and  C_19
REMARK    6  A    between atoms: C_18  and  C_23
REMARK    7  A    between atoms: C_20  and  C_26
REMARK    8  A    between atoms: C_23  and  C_27
REMARK    9  A    between atoms: C_27  and  N_32
REMARK                            x       y       z     vdW  Elec       q    Type
REMARK                         _______ _______ _______ _____ _____    ______ ____
ROOT
ATOM      1  C   UNL     1       4.872  35.675  79.566  0.00  0.00    +0.000 C 
ATOM      2  O   UNL     1       4.298  36.733  79.836  0.00  0.00    +0.000 OA
ATOM      3  N   UNL     1       6.226  35.714  79.192  0.00  0.00    +0.000 N 
ATOM      4  C   UNL     1       7.102  36.897  79.501  0.00  0.00    +0.000 C 
ATOM      5  C   UNL     1       7.073  34.559  78.797  0.00  0.00    +0.000 C 
ATOM      6  C   UNL     1       8.326  36.593  78.585  0.00  0.00    +0.000 C 
ATOM      7  C   UNL     1       8.506  35.083  78.653  0.00  0.00    +0.000 C 
ENDROOT
BRANCH   1  13
ATOM      8  C   UNL     1       2.737  31.962  79.047  0.00  0.00    +0.000 A 
ATOM      9  C   UNL     1       2.530  33.035  78.171  0.00  0.00    +0.000 A 
ATOM     10  C   UNL     1       3.514  32.177  80.185  0.00  0.00    +0.000 A 
ATOM     11  C   UNL     1       3.187  34.258  78.379  0.00  0.00    +0.000 A 
ATOM     12  C   UNL     1       4.058  33.433  80.449  0.00  0.00    +0.000 A 
ATOM     13  C   UNL     1       4.026  34.440  79.492  0.00  0.00    +0.000 A 
BRANCH   8  15
ATOM     14  F   UNL     1       1.394  30.495  77.710  0.00  0.00    +0.000 F 
ATOM     15  C   UNL     1       2.160  30.586  78.825  0.00  0.00    +0.000 C 
ATOM     16  F   UNL     1       1.366  30.193  79.863  0.00  0.00    +0.000 F 
ATOM     17  F   UNL     1       3.118  29.627  78.709  0.00  0.00    +0.000 F 
ENDBRANCH   8  15
ENDBRANCH   1  13
BRANCH   5  18
ATOM     18  C   UNL     1       6.562  33.729  77.638  0.00  0.00    +0.000 A 
ATOM     19  C   UNL     1       6.175  34.288  76.415  0.00  0.00    +0.000 A 
ATOM     20  C   UNL     1       6.434  32.334  77.813  0.00  0.00    +0.000 A 
ATOM     21  C   UNL     1       5.636  33.477  75.413  0.00  0.00    +0.000 A 
ATOM     22  C   UNL     1       5.903  31.528  76.809  0.00  0.00    +0.000 A 
ATOM     23  C   UNL     1       5.499  32.103  75.610  0.00  0.00    +0.000 A 
ENDBRANCH   5  18
BRANCH   4  24
ATOM     24  C   UNL     1       6.727  38.357  79.097  0.00  0.00    +0.000 C 
ATOM     25  O   UNL     1       6.931  39.312  79.827  0.00  0.00    +0.000 OA
ATOM     26  O   UNL     1       6.187  38.520  77.877  0.00  0.00    +0.000 OA
ENDBRANCH   4  24
BRANCH   7  27
ATOM     27  C   UNL     1       9.276  34.498  77.490  0.00  0.00    +0.000 C 
ATOM     28  O   UNL     1       9.726  33.364  77.449  0.00  0.00    +0.000 OA
ATOM     29  O   UNL     1       9.426  35.367  76.461  0.00  0.00    +0.000 OA
ENDBRANCH   7  27
BRANCH   4  30
ATOM     30  C   UNL     1       7.554  36.890  80.994  0.00  0.00    +0.000 C 
BRANCH  30  31
ATOM     31  C   UNL     1       9.072  36.969  81.213  0.00  0.00    +0.000 C 
BRANCH  31  32
ATOM     32  C   UNL     1       9.507  38.209  81.997  0.00  0.00    +0.000 C 
BRANCH  32  33
ATOM     33  N   UNL     1       9.692  39.355  81.110  0.00  0.00    +0.000 N 
ATOM     34  H   UNL     1      10.675  39.628  81.108  0.00  0.00    +0.000 HD
ATOM     35  H   UNL     1       9.125  40.136  81.440  0.00  0.00    +0.000 HD
ATOM     36  H   UNL     1       9.408  39.104  80.164  0.00  0.00    +0.000 HD
ENDBRANCH  32  33
ENDBRANCH  31  32
ENDBRANCH  30  31
ENDBRANCH   4  30
TORSDOF 9
ENDMDL
MODEL 7
REMARK VINA RESULT:      -6.7      2.368      4.912
REMARK  Name = 
REMARK  9 active torsions:
REMARK  status: ('A' for Active; 'I' for Inactive)
REMARK    1  A    between atoms: C_2  and  C_5
REMARK    2  A    between atoms: C_10  and  C_11
REMARK    3  A    between atoms: C_14  and  C_16
REMARK    4  A    between atoms: C_14  and  C_18
REMARK    5  A    between atoms: C_15  and  C_19
REMARK    6  A    between atoms: C_18  and  C_23
REMARK    7  A    between atoms: C_20  and  C_26
REMARK    8  A    between atoms: C_23  and  C_27
REMARK    9  A    between atoms: C_27  and  N_32
REMARK                            x       y       z     vdW  Elec       q    Type
REMARK                         _______ _______ _______ _____ _____    ______ ____
ROOT
ATOM      1  C   UNL     1       5.339  34.470  78.030  0.00  0.00    +0.000 C 
ATOM      2  O   UNL     1       4.652  35.494  78.086  0.00  0.00    +0.000 OA
ATOM      3  N   UNL     1       4.909  33.325  78.722  0.00  0.00    +0.000 N 
ATOM      4  C   UNL     1       3.483  33.156  79.169  0.00  0.00    +0.000 C 
ATOM      5  C   UNL     1       5.613  32.020  78.805  0.00  0.00    +0.000 C 
ATOM      6  C   UNL     1       3.633  31.960  80.157  0.00  0.00    +0.000 C 
ATOM      7  C   UNL     1       4.668  31.046  79.518  0.00  0.00    +0.000 C 
ENDROOT
BRANCH   1  13
ATOM      8  C   UNL     1       9.341  34.491  76.418  0.00  0.00    +0.000 A 
ATOM      9  C   UNL     1       9.006  35.300  77.512  0.00  0.00    +0.000 A 
ATOM     10  C   UNL     1       8.317  33.814  75.758  0.00  0.00    +0.000 A 
ATOM     11  C   UNL     1       7.688  35.329  77.995  0.00  0.00    +0.000 A 
ATOM     12  C   UNL     1       6.992  33.950  76.168  0.00  0.00    +0.000 A 
ATOM     13  C   UNL     1       6.677  34.584  77.365  0.00  0.00    +0.000 A 
BRANCH   8  15
ATOM     14  F   UNL     1      10.878  33.347  74.979  0.00  0.00    +0.000 F 
ATOM     15  C   UNL     1      10.753  34.319  75.916  0.00  0.00    +0.000 C 
ATOM     16  F   UNL     1      11.615  33.989  76.921  0.00  0.00    +0.000 F 
ATOM     17  F   UNL     1      11.254  35.454  75.357  0.00  0.00    +0.000 F 
ENDBRANCH   8  15
ENDBRANCH   1  13
BRANCH   5  18
ATOM     18  C   UNL     1       7.029  32.065  79.341  0.00  0.00    +0.000 A 
ATOM     19  C   UNL     1       7.378  32.748  80.512  0.00  0.00    +0.000 A 
ATOM     20  C   UNL     1       8.048  31.423  78.605  0.00  0.00    +0.000 A 
ATOM     21  C   UNL     1       8.715  32.818  80.909  0.00  0.00    +0.000 A 
ATOM     22  C   UNL     1       9.379  31.490  79.008  0.00  0.00    +0.000 A 
ATOM     23  C   UNL     1       9.712  32.193  80.159  0.00  0.00    +0.000 A 
ENDBRANCH   5  18
BRANCH   4  24
ATOM     24  C   UNL     1       2.733  34.220  80.030  0.00  0.00    +0.000 C 
ATOM     25  O   UNL     1       3.036  34.458  81.188  0.00  0.00    +0.000 OA
ATOM     26  O   UNL     1       1.742  34.893  79.421  0.00  0.00    +0.000 OA
ENDBRANCH   4  24
BRANCH   7  27
ATOM     27  C   UNL     1       5.348  30.106  80.488  0.00  0.00    +0.000 C 
ATOM     28  O   UNL     1       5.434  30.285  81.692  0.00  0.00    +0.000 OA
ATOM     29  O   UNL     1       5.866  29.006  79.888  0.00  0.00    +0.000 OA
ENDBRANCH   7  27
BRANCH   4  30
ATOM     30  C   UNL     1       2.564  32.737  77.979  0.00  0.00    +0.000 C 
BRANCH  30  31
ATOM     31  C   UNL     1       1.486  31.699  78.326  0.00  0.00    +0.000 C 
BRANCH  31  32
ATOM     32  C   UNL     1       1.335  30.607  77.266  0.00  0.00    +0.000 C 
BRANCH  32  33
ATOM     33  N   UNL     1       2.468  30.607  76.342  0.00  0.00    +0.000 N 
ATOM     34  H   UNL     1       3.101  31.371  76.581  0.00  0.00    +0.000 HD
ATOM     35  H   UNL     1       2.130  30.733  75.389  0.00  0.00    +0.000 HD
ATOM     36  H   UNL     1       2.965  29.719  76.413  0.00  0.00    +0.000 HD
ENDBRANCH  32  33
ENDBRANCH  31  32
ENDBRANCH  30  31
ENDBRANCH   4  30
TORSDOF 9
ENDMDL
MODEL 8
REMARK VINA RESULT:      -6.7      4.733      7.013
REMARK  Name = 
REMARK  9 active torsions:
REMARK  status: ('A' for Active; 'I' for Inactive)
REMARK    1  A    between atoms: C_2  and  C_5
REMARK    2  A    between atoms: C_10  and  C_11
REMARK    3  A    between atoms: C_14  and  C_16
REMARK    4  A    between atoms: C_14  and  C_18
REMARK    5  A    between atoms: C_15  and  C_19
REMARK    6  A    between atoms: C_18  and  C_23
REMARK    7  A    between atoms: C_20  and  C_26
REMARK    8  A    between atoms: C_23  and  C_27
REMARK    9  A    between atoms: C_27  and  N_32
REMARK                            x       y       z     vdW  Elec       q    Type
REMARK                         _______ _______ _______ _____ _____    ______ ____
ROOT
ATOM      1  C   UNL     1       5.406  35.082  78.561  0.00  0.00    +0.000 C 
ATOM      2  O   UNL     1       5.134  36.049  77.844  0.00  0.00    +0.000 OA
ATOM      3  N   UNL     1       6.376  35.233  79.565  0.00  0.00    +0.000 N 
ATOM      4  C   UNL     1       6.789  36.587  80.075  0.00  0.00    +0.000 C 
ATOM      5  C   UNL     1       6.862  34.183  80.497  0.00  0.00    +0.000 C 
ATOM      6  C   UNL     1       8.084  36.215  80.857  0.00  0.00    +0.000 C 
ATOM      7  C   UNL     1       7.782  34.874  81.511  0.00  0.00    +0.000 C 
ENDROOT
BRANCH   1  13
ATOM      8  C   UNL     1       4.033  31.095  77.645  0.00  0.00    +0.000 A 
ATOM      9  C   UNL     1       4.855  31.792  76.751  0.00  0.00    +0.000 A 
ATOM     10  C   UNL     1       3.529  31.779  78.751  0.00  0.00    +0.000 A 
ATOM     11  C   UNL     1       5.252  33.109  77.031  0.00  0.00    +0.000 A 
ATOM     12  C   UNL     1       3.827  33.127  78.952  0.00  0.00    +0.000 A 
ATOM     13  C   UNL     1       4.796  33.765  78.187  0.00  0.00    +0.000 A 
BRANCH   8  15
ATOM     14  F   UNL     1       2.556  29.457  76.706  0.00  0.00    +0.000 F 
ATOM     15  C   UNL     1       3.660  29.644  77.472  0.00  0.00    +0.000 C 
ATOM     16  F   UNL     1       3.399  29.038  78.666  0.00  0.00    +0.000 F 
ATOM     17  F   UNL     1       4.652  28.912  76.894  0.00  0.00    +0.000 F 
ENDBRANCH   8  15
ENDBRANCH   1  13
BRANCH   5  18
ATOM     18  C   UNL     1       7.426  32.934  79.851  0.00  0.00    +0.000 A 
ATOM     19  C   UNL     1       8.373  32.971  78.821  0.00  0.00    +0.000 A 
ATOM     20  C   UNL     1       6.945  31.678  80.280  0.00  0.00    +0.000 A 
ATOM     21  C   UNL     1       8.792  31.786  78.213  0.00  0.00    +0.000 A 
ATOM     22  C   UNL     1       7.372  30.499  79.676  0.00  0.00    +0.000 A 
ATOM     23  C   UNL     1       8.293  30.555  78.637  0.00  0.00    +0.000 A 
ENDBRANCH   5  18
BRANCH   4  24
ATOM     24  C   UNL     1       7.274  37.734  79.135  0.00  0.00    +0.000 C 
ATOM     25  O   UNL     1       6.612  38.737  78.928  0.00  0.00    +0.000 OA
ATOM     26  O   UNL     1       8.486  37.576  78.576  0.00  0.00    +0.000 OA
ENDBRANCH   4  24
BRANCH   7  27
ATOM     27  C   UNL     1       9.010  34.078  81.891  0.00  0.00    +0.000 C 
ATOM     28  O   UNL     1      10.123  34.239  81.415  0.00  0.00    +0.000 OA
ATOM     29  O   UNL     1       8.765  33.144  82.842  0.00  0.00    +0.000 OA
ENDBRANCH   7  27
BRANCH   4  30
ATOM     30  C   UNL     1       5.729  37.164  81.065  0.00  0.00    +0.000 C 
BRANCH  30  31
ATOM     31  C   UNL     1       6.311  37.895  82.284  0.00  0.00    +0.000 C 
BRANCH  31  32
ATOM     32  C   UNL     1       5.749  39.306  82.468  0.00  0.00    +0.000 C 
BRANCH  32  33
ATOM     33  N   UNL     1       6.364  40.245  81.531  0.00  0.00    +0.000 N 
ATOM     34  H   UNL     1       7.329  39.965  81.354  0.00  0.00    +0.000 HD
ATOM     35  H   UNL     1       6.352  41.182  81.932  0.00  0.00    +0.000 HD
ATOM     36  H   UNL     1       5.843  40.242  80.655  0.00  0.00    +0.000 HD
ENDBRANCH  32  33
ENDBRANCH  31  32
ENDBRANCH  30  31
ENDBRANCH   4  30
TORSDOF 9
ENDMDL
MODEL 9
REMARK VINA RESULT:      -6.6      4.363      5.875
REMARK  Name = 
REMARK  9 active torsions:
REMARK  status: ('A' for Active; 'I' for Inactive)
REMARK    1  A    between atoms: C_2  and  C_5
REMARK    2  A    between atoms: C_10  and  C_11
REMARK    3  A    between atoms: C_14  and  C_16
REMARK    4  A    between atoms: C_14  and  C_18
REMARK    5  A    between atoms: C_15  and  C_19
REMARK    6  A    between atoms: C_18  and  C_23
REMARK    7  A    between atoms: C_20  and  C_26
REMARK    8  A    between atoms: C_23  and  C_27
REMARK    9  A    between atoms: C_27  and  N_32
REMARK                            x       y       z     vdW  Elec       q    Type
REMARK                         _______ _______ _______ _____ _____    ______ ____
ROOT
ATOM      1  C   UNL     1       7.509  33.330  80.764  0.00  0.00    +0.000 C 
ATOM      2  O   UNL     1       8.176  32.588  81.490  0.00  0.00    +0.000 OA
ATOM      3  N   UNL     1       7.073  32.849  79.519  0.00  0.00    +0.000 N 
ATOM      4  C   UNL     1       7.018  31.378  79.210  0.00  0.00    +0.000 C 
ATOM      5  C   UNL     1       6.297  33.599  78.498  0.00  0.00    +0.000 C 
ATOM      6  C   UNL     1       6.837  31.417  77.663  0.00  0.00    +0.000 C 
ATOM      7  C   UNL     1       5.915  32.599  77.401  0.00  0.00    +0.000 C 
ENDROOT
BRANCH   1  13
ATOM      8  C   UNL     1       7.083  37.546  81.576  0.00  0.00    +0.000 A 
ATOM      9  C   UNL     1       8.346  36.987  81.343  0.00  0.00    +0.000 A 
ATOM     10  C   UNL     1       5.993  36.687  81.710  0.00  0.00    +0.000 A 
ATOM     11  C   UNL     1       8.481  35.605  81.135  0.00  0.00    +0.000 A 
ATOM     12  C   UNL     1       6.160  35.305  81.629  0.00  0.00    +0.000 A 
ATOM     13  C   UNL     1       7.363  34.757  81.200  0.00  0.00    +0.000 A 
BRANCH   8  15
ATOM     14  F   UNL     1       6.850  39.676  80.501  0.00  0.00    +0.000 F 
ATOM     15  C   UNL     1       6.843  39.030  81.693  0.00  0.00    +0.000 C 
ATOM     16  F   UNL     1       7.791  39.642  82.460  0.00  0.00    +0.000 F 
ATOM     17  F   UNL     1       5.649  39.325  82.279  0.00  0.00    +0.000 F 
ENDBRANCH   8  15
ENDBRANCH   1  13
BRANCH   5  18
ATOM     18  C   UNL     1       6.918  34.893  78.014  0.00  0.00    +0.000 A 
ATOM     19  C   UNL     1       8.254  34.990  77.607  0.00  0.00    +0.000 A 
ATOM     20  C   UNL     1       6.126  36.061  78.009  0.00  0.00    +0.000 A 
ATOM     21  C   UNL     1       8.788  36.229  77.248  0.00  0.00    +0.000 A 
ATOM     22  C   UNL     1       6.660  37.293  77.643  0.00  0.00    +0.000 A 
ATOM     23  C   UNL     1       7.995  37.376  77.267  0.00  0.00    +0.000 A 
ENDBRANCH   5  18
BRANCH   4  24
ATOM     24  C   UNL     1       8.244  30.429  79.388  0.00  0.00    +0.000 C 
ATOM     25  O   UNL     1       8.179  29.384  80.014  0.00  0.00    +0.000 OA
ATOM     26  O   UNL     1       9.385  30.807  78.786  0.00  0.00    +0.000 OA
ENDBRANCH   4  24
BRANCH   7  27
ATOM     27  C   UNL     1       5.994  33.148  75.994  0.00  0.00    +0.000 C 
ATOM     28  O   UNL     1       5.144  33.848  75.467  0.00  0.00    +0.000 OA
ATOM     29  O   UNL     1       7.129  32.788  75.346  0.00  0.00    +0.000 OA
ENDBRANCH   7  27
BRANCH   4  30
ATOM     30  C   UNL     1       5.768  30.710  79.863  0.00  0.00    +0.000 C 
BRANCH  30  31
ATOM     31  C   UNL     1       5.278  29.430  79.170  0.00  0.00    +0.000 C 
BRANCH  31  32
ATOM     32  C   UNL     1       3.824  29.513  78.705  0.00  0.00    +0.000 C 
BRANCH  32  33
ATOM     33  N   UNL     1       3.671  28.976  77.354  0.00  0.00    +0.000 N 
ATOM     34  H   UNL     1       4.357  29.409  76.736  0.00  0.00    +0.000 HD
ATOM     35  H   UNL     1       2.731  29.178  77.012  0.00  0.00    +0.000 HD
ATOM     36  H   UNL     1       3.818  27.967  77.369  0.00  0.00    +0.000 HD
ENDBRANCH  32  33
ENDBRANCH  31  32
ENDBRANCH  30  31
ENDBRANCH   4  30
TORSDOF 9
ENDMDL
