MODEL 1
REMARK VINA RESULT:      -7.7      0.000      0.000
REMARK  Name = 
REMARK  9 active torsions:
REMARK  status: ('A' for Active; 'I' for Inactive)
REMARK    1  A    between atoms: C_2  and  C_5
REMARK    2  A    between atoms: C_10  and  C_11
REMARK    3  A    between atoms: C_14  and  C_16
REMARK    4  A    between atoms: C_14  and  C_18
REMARK    5  A    between atoms: C_15  and  C_19
REMARK    6  A    between atoms: C_18  and  C_23
REMARK    7  A    between atoms: C_20  and  C_26
REMARK    8  A    between atoms: C_23  and  C_27
REMARK    9  A    between atoms: C_23  and  C_28
REMARK                            x       y       z     vdW  Elec       q    Type
REMARK                         _______ _______ _______ _____ _____    ______ ____
ROOT
ATOM      1  C   UNL     1       8.535  30.932  78.989  0.00  0.00    +0.000 C 
ATOM      2  O   UNL     1       9.010  29.845  79.340  0.00  0.00    +0.000 OA
ATOM      3  N   UNL     1       7.301  31.348  79.498  0.00  0.00    +0.000 N 
ATOM      4  C   UNL     1       6.650  30.683  80.681  0.00  0.00    +0.000 C 
ATOM      5  C   UNL     1       6.586  32.627  79.181  0.00  0.00    +0.000 C 
ATOM      6  C   UNL     1       5.185  31.219  80.495  0.00  0.00    +0.000 C 
ATOM      7  C   UNL     1       5.355  32.672  80.101  0.00  0.00    +0.000 C 
ENDROOT
BRANCH   1  13
ATOM      8  C   UNL     1      10.888  32.888  75.932  0.00  0.00    +0.000 A 
ATOM      9  C   UNL     1      10.851  33.396  77.237  0.00  0.00    +0.000 A 
ATOM     10  C   UNL     1      10.061  31.807  75.615  0.00  0.00    +0.000 A 
ATOM     11  C   UNL     1      10.056  32.779  78.219  0.00  0.00    +0.000 A 
ATOM     12  C   UNL     1       9.195  31.269  76.565  0.00  0.00    +0.000 A 
ATOM     13  C   UNL     1       9.260  31.665  77.898  0.00  0.00    +0.000 A 
BRANCH   8  15
ATOM     14  F   UNL     1      13.060  33.626  75.206  0.00  0.00    +0.000 F 
ATOM     15  C   UNL     1      11.759  33.467  74.842  0.00  0.00    +0.000 C 
ATOM     16  F   UNL     1      11.328  34.699  74.447  0.00  0.00    +0.000 F 
ATOM     17  F   UNL     1      11.770  32.702  73.716  0.00  0.00    +0.000 F 
ENDBRANCH   8  15
ENDBRANCH   1  13
BRANCH   5  18
ATOM     18  C   UNL     1       6.297  32.874  77.713  0.00  0.00    +0.000 A 
ATOM     19  C   UNL     1       5.640  31.962  76.889  0.00  0.00    +0.000 A 
ATOM     20  C   UNL     1       6.749  34.085  77.149  0.00  0.00    +0.000 A 
ATOM     21  C   UNL     1       5.469  32.243  75.524  0.00  0.00    +0.000 A 
ATOM     22  C   UNL     1       6.576  34.367  75.796  0.00  0.00    +0.000 A 
ATOM     23  C   UNL     1       5.942  33.440  74.982  0.00  0.00    +0.000 A 
ENDBRANCH   5  18
BRANCH   4  24
ATOM     24  C   UNL     1       6.396  29.148  80.782  0.00  0.00    +0.000 C 
ATOM     25  O   UNL     1       7.167  28.397  81.375  0.00  0.00    +0.000 OA
ATOM     26  O   UNL     1       5.302  28.665  80.174  0.00  0.00    +0.000 OA
ENDBRANCH   4  24
BRANCH   7  27
ATOM     27  C   UNL     1       4.179  33.459  79.573  0.00  0.00    +0.000 C 
ATOM     28  O   UNL     1       4.162  34.685  79.601  0.00  0.00    +0.000 OA
ATOM     29  O   UNL     1       3.126  32.762  79.117  0.00  0.00    +0.000 OA
ENDBRANCH   7  27
BRANCH   4  30
ATOM     30  C   UNL     1       7.236  31.198  82.048  0.00  0.00    +0.000 C 
BRANCH  30  31
ATOM     31  C   UNL     1       6.396  31.033  83.337  0.00  0.00    +0.000 C 
ATOM     32  C   UNL     1       7.149  30.157  84.354  0.00  0.00    +0.000 C 
ATOM     33  C   UNL     1       6.053  32.349  84.029  0.00  0.00    +0.000 C 
ENDBRANCH  30  31
ENDBRANCH   4  30
TORSDOF 7
ENDMDL
MODEL 2
REMARK VINA RESULT:      -7.5      1.088      2.044
REMARK  Name = 
REMARK  9 active torsions:
REMARK  status: ('A' for Active; 'I' for Inactive)
REMARK    1  A    between atoms: C_2  and  C_5
REMARK    2  A    between atoms: C_10  and  C_11
REMARK    3  A    between atoms: C_14  and  C_16
REMARK    4  A    between atoms: C_14  and  C_18
REMARK    5  A    between atoms: C_15  and  C_19
REMARK    6  A    between atoms: C_18  and  C_23
REMARK    7  A    between atoms: C_20  and  C_26
REMARK    8  A    between atoms: C_23  and  C_27
REMARK    9  A    between atoms: C_23  and  C_28
REMARK                            x       y       z     vdW  Elec       q    Type
REMARK                         _______ _______ _______ _____ _____    ______ ____
ROOT
ATOM      1  C   UNL     1       7.477  30.538  78.982  0.00  0.00    +0.000 C 
ATOM      2  O   UNL     1       7.681  29.364  79.312  0.00  0.00    +0.000 OA
ATOM      3  N   UNL     1       6.229  31.120  79.226  0.00  0.00    +0.000 N 
ATOM      4  C   UNL     1       5.209  30.493  80.139  0.00  0.00    +0.000 C 
ATOM      5  C   UNL     1       5.814  32.523  78.894  0.00  0.00    +0.000 C 
ATOM      6  C   UNL     1       3.935  31.283  79.672  0.00  0.00    +0.000 C 
ATOM      7  C   UNL     1       4.411  32.710  79.495  0.00  0.00    +0.000 C 
ENDROOT
BRANCH   1  13
ATOM      8  C   UNL     1      10.356  32.682  76.569  0.00  0.00    +0.000 A 
ATOM      9  C   UNL     1       9.604  31.635  76.020  0.00  0.00    +0.000 A 
ATOM     10  C   UNL     1      10.236  32.940  77.937  0.00  0.00    +0.000 A 
ATOM     11  C   UNL     1       8.695  30.916  76.817  0.00  0.00    +0.000 A 
ATOM     12  C   UNL     1       9.415  32.153  78.743  0.00  0.00    +0.000 A 
ATOM     13  C   UNL     1       8.554  31.214  78.184  0.00  0.00    +0.000 A 
BRANCH   8  15
ATOM     14  F   UNL     1      10.691  34.358  74.876  0.00  0.00    +0.000 F 
ATOM     15  C   UNL     1      11.309  33.530  75.761  0.00  0.00    +0.000 C 
ATOM     16  F   UNL     1      12.167  32.769  75.023  0.00  0.00    +0.000 F 
ATOM     17  F   UNL     1      12.096  34.323  76.539  0.00  0.00    +0.000 F 
ENDBRANCH   8  15
ENDBRANCH   1  13
BRANCH   5  18
ATOM     18  C   UNL     1       5.944  32.920  77.437  0.00  0.00    +0.000 A 
ATOM     19  C   UNL     1       6.617  34.059  77.001  0.00  0.00    +0.000 A 
ATOM     20  C   UNL     1       5.319  32.100  76.474  0.00  0.00    +0.000 A 
ATOM     21  C   UNL     1       6.635  34.389  75.636  0.00  0.00    +0.000 A 
ATOM     22  C   UNL     1       5.340  32.422  75.119  0.00  0.00    +0.000 A 
ATOM     23  C   UNL     1       5.992  33.572  74.702  0.00  0.00    +0.000 A 
ENDBRANCH   5  18
BRANCH   4  24
ATOM     24  C   UNL     1       4.715  29.020  80.003  0.00  0.00    +0.000 C 
ATOM     25  O   UNL     1       4.202  28.598  78.969  0.00  0.00    +0.000 OA
ATOM     26  O   UNL     1       4.852  28.224  81.073  0.00  0.00    +0.000 OA
ENDBRANCH   4  24
BRANCH   7  27
ATOM     27  C   UNL     1       3.536  33.722  78.794  0.00  0.00    +0.000 C 
ATOM     28  O   UNL     1       2.614  33.378  78.062  0.00  0.00    +0.000 OA
ATOM     29  O   UNL     1       3.840  35.020  78.962  0.00  0.00    +0.000 OA
ENDBRANCH   7  27
BRANCH   4  30
ATOM     30  C   UNL     1       5.501  30.800  81.655  0.00  0.00    +0.000 C 
BRANCH  30  31
ATOM     31  C   UNL     1       6.966  30.809  82.152  0.00  0.00    +0.000 C 
ATOM     32  C   UNL     1       7.479  32.256  82.268  0.00  0.00    +0.000 C 
ATOM     33  C   UNL     1       7.167  30.140  83.509  0.00  0.00    +0.000 C 
ENDBRANCH  30  31
ENDBRANCH   4  30
TORSDOF 7
ENDMDL
MODEL 3
REMARK VINA RESULT:      -7.4      4.071      6.658
REMARK  Name = 
REMARK  9 active torsions:
REMARK  status: ('A' for Active; 'I' for Inactive)
REMARK    1  A    between atoms: C_2  and  C_5
REMARK    2  A    between atoms: C_10  and  C_11
REMARK    3  A    between atoms: C_14  and  C_16
REMARK    4  A    between atoms: C_14  and  C_18
REMARK    5  A    between atoms: C_15  and  C_19
REMARK    6  A    between atoms: C_18  and  C_23
REMARK    7  A    between atoms: C_20  and  C_26
REMARK    8  A    between atoms: C_23  and  C_27
REMARK    9  A    between atoms: C_23  and  C_28
REMARK                            x       y       z     vdW  Elec       q    Type
REMARK                         _______ _______ _______ _____ _____    ______ ____
ROOT
ATOM      1  C   UNL     1       5.242  33.526  80.413  0.00  0.00    +0.000 C 
ATOM      2  O   UNL     1       4.417  34.102  81.133  0.00  0.00    +0.000 OA
ATOM      3  N   UNL     1       5.728  34.165  79.268  0.00  0.00    +0.000 N 
ATOM      4  C   UNL     1       5.531  35.636  79.017  0.00  0.00    +0.000 C 
ATOM      5  C   UNL     1       6.725  33.615  78.292  0.00  0.00    +0.000 C 
ATOM      6  C   UNL     1       5.840  35.671  77.478  0.00  0.00    +0.000 C 
ATOM      7  C   UNL     1       7.033  34.753  77.305  0.00  0.00    +0.000 C 
ENDROOT
BRANCH   1  13
ATOM      8  C   UNL     1       6.200  29.359  81.060  0.00  0.00    +0.000 A 
ATOM      9  C   UNL     1       4.943  29.733  80.569  0.00  0.00    +0.000 A 
ATOM     10  C   UNL     1       7.091  30.365  81.442  0.00  0.00    +0.000 A 
ATOM     11  C   UNL     1       4.621  31.091  80.394  0.00  0.00    +0.000 A 
ATOM     12  C   UNL     1       6.726  31.708  81.368  0.00  0.00    +0.000 A 
ATOM     13  C   UNL     1       5.544  32.094  80.743  0.00  0.00    +0.000 A 
BRANCH   8  15
ATOM     14  F   UNL     1       7.659  27.561  80.407  0.00  0.00    +0.000 F 
ATOM     15  C   UNL     1       6.631  27.920  81.222  0.00  0.00    +0.000 C 
ATOM     16  F   UNL     1       5.617  27.051  80.950  0.00  0.00    +0.000 F 
ATOM     17  F   UNL     1       7.033  27.632  82.490  0.00  0.00    +0.000 F 
ENDBRANCH   8  15
ENDBRANCH   1  13
BRANCH   5  18
ATOM     18  C   UNL     1       6.357  32.293  77.649  0.00  0.00    +0.000 A 
ATOM     19  C   UNL     1       5.125  32.038  77.052  0.00  0.00    +0.000 A 
ATOM     20  C   UNL     1       7.312  31.255  77.689  0.00  0.00    +0.000 A 
ATOM     21  C   UNL     1       4.842  30.763  76.535  0.00  0.00    +0.000 A 
ATOM     22  C   UNL     1       7.035  29.991  77.173  0.00  0.00    +0.000 A 
ATOM     23  C   UNL     1       5.796  29.743  76.603  0.00  0.00    +0.000 A 
ENDBRANCH   5  18
BRANCH   4  24
ATOM     24  C   UNL     1       4.142  36.343  79.059  0.00  0.00    +0.000 C 
ATOM     25  O   UNL     1       3.786  37.024  80.019  0.00  0.00    +0.000 OA
ATOM     26  O   UNL     1       3.330  36.166  78.007  0.00  0.00    +0.000 OA
ENDBRANCH   4  24
BRANCH   7  27
ATOM     27  C   UNL     1       7.461  34.315  75.924  0.00  0.00    +0.000 C 
ATOM     28  O   UNL     1       8.617  33.983  75.684  0.00  0.00    +0.000 OA
ATOM     29  O   UNL     1       6.535  34.352  74.951  0.00  0.00    +0.000 OA
ENDBRANCH   7  27
BRANCH   4  30
ATOM     30  C   UNL     1       6.580  36.516  79.792  0.00  0.00    +0.000 C 
BRANCH  30  31
ATOM     31  C   UNL     1       7.118  37.806  79.127  0.00  0.00    +0.000 C 
ATOM     32  C   UNL     1       6.974  38.999  80.089  0.00  0.00    +0.000 C 
ATOM     33  C   UNL     1       8.583  37.727  78.708  0.00  0.00    +0.000 C 
ENDBRANCH  30  31
ENDBRANCH   4  30
TORSDOF 7
ENDMDL
MODEL 4
REMARK VINA RESULT:      -7.2      4.214      6.524
REMARK  Name = 
REMARK  9 active torsions:
REMARK  status: ('A' for Active; 'I' for Inactive)
REMARK    1  A    between atoms: C_2  and  C_5
REMARK    2  A    between atoms: C_10  and  C_11
REMARK    3  A    between atoms: C_14  and  C_16
REMARK    4  A    between atoms: C_14  and  C_18
REMARK    5  A    between atoms: C_15  and  C_19
REMARK    6  A    between atoms: C_18  and  C_23
REMARK    7  A    between atoms: C_20  and  C_26
REMARK    8  A    between atoms: C_23  and  C_27
REMARK    9  A    between atoms: C_23  and  C_28
REMARK                            x       y       z     vdW  Elec       q    Type
REMARK                         _______ _______ _______ _____ _____    ______ ____
ROOT
ATOM      1  C   UNL     1       6.003  36.020  78.362  0.00  0.00    +0.000 C 
ATOM      2  O   UNL     1       5.688  37.115  77.878  0.00  0.00    +0.000 OA
ATOM      3  N   UNL     1       6.813  35.972  79.501  0.00  0.00    +0.000 N 
ATOM      4  C   UNL     1       7.083  37.184  80.352  0.00  0.00    +0.000 C 
ATOM      5  C   UNL     1       7.284  34.739  80.212  0.00  0.00    +0.000 C 
ATOM      6  C   UNL     1       8.342  36.664  81.135  0.00  0.00    +0.000 C 
ATOM      7  C   UNL     1       8.015  35.225  81.475  0.00  0.00    +0.000 C 
ENDROOT
BRANCH   1  13
ATOM      8  C   UNL     1       5.134  32.353  76.241  0.00  0.00    +0.000 A 
ATOM      9  C   UNL     1       6.053  33.275  75.723  0.00  0.00    +0.000 A 
ATOM     10  C   UNL     1       4.424  32.697  77.393  0.00  0.00    +0.000 A 
ATOM     11  C   UNL     1       6.305  34.484  76.397  0.00  0.00    +0.000 A 
ATOM     12  C   UNL     1       4.600  33.941  77.995  0.00  0.00    +0.000 A 
ATOM     13  C   UNL     1       5.615  34.799  77.580  0.00  0.00    +0.000 A 
BRANCH   8  15
ATOM     14  F   UNL     1       4.598  31.088  74.265  0.00  0.00    +0.000 F 
ATOM     15  C   UNL     1       4.853  31.014  75.599  0.00  0.00    +0.000 C 
ATOM     16  F   UNL     1       3.768  30.402  76.154  0.00  0.00    +0.000 F 
ATOM     17  F   UNL     1       5.884  30.137  75.742  0.00  0.00    +0.000 F 
ENDBRANCH   8  15
ENDBRANCH   1  13
BRANCH   5  18
ATOM     18  C   UNL     1       8.059  33.747  79.367  0.00  0.00    +0.000 A 
ATOM     19  C   UNL     1       9.155  34.089  78.579  0.00  0.00    +0.000 A 
ATOM     20  C   UNL     1       7.619  32.406  79.360  0.00  0.00    +0.000 A 
ATOM     21  C   UNL     1       9.777  33.120  77.777  0.00  0.00    +0.000 A 
ATOM     22  C   UNL     1       8.237  31.442  78.567  0.00  0.00    +0.000 A 
ATOM     23  C   UNL     1       9.312  31.802  77.769  0.00  0.00    +0.000 A 
ENDBRANCH   5  18
BRANCH   4  24
ATOM     24  C   UNL     1       7.619  38.535  79.789  0.00  0.00    +0.000 C 
ATOM     25  O   UNL     1       8.798  38.691  79.478  0.00  0.00    +0.000 OA
ATOM     26  O   UNL     1       6.742  39.543  79.671  0.00  0.00    +0.000 OA
ENDBRANCH   4  24
BRANCH   7  27
ATOM     27  C   UNL     1       9.092  34.302  81.996  0.00  0.00    +0.000 C 
ATOM     28  O   UNL     1       8.819  33.267  82.594  0.00  0.00    +0.000 OA
ATOM     29  O   UNL     1      10.368  34.686  81.823  0.00  0.00    +0.000 OA
ENDBRANCH   7  27
BRANCH   4  30
ATOM     30  C   UNL     1       5.911  37.474  81.361  0.00  0.00    +0.000 C 
BRANCH  30  31
ATOM     31  C   UNL     1       6.245  38.058  82.754  0.00  0.00    +0.000 C 
ATOM     32  C   UNL     1       5.515  39.398  82.957  0.00  0.00    +0.000 C 
ATOM     33  C   UNL     1       5.867  37.147  83.919  0.00  0.00    +0.000 C 
ENDBRANCH  30  31
ENDBRANCH   4  30
TORSDOF 7
ENDMDL
MODEL 5
REMARK VINA RESULT:      -7.1      1.748      2.847
REMARK  Name = 
REMARK  9 active torsions:
REMARK  status: ('A' for Active; 'I' for Inactive)
REMARK    1  A    between atoms: C_2  and  C_5
REMARK    2  A    between atoms: C_10  and  C_11
REMARK    3  A    between atoms: C_14  and  C_16
REMARK    4  A    between atoms: C_14  and  C_18
REMARK    5  A    between atoms: C_15  and  C_19
REMARK    6  A    between atoms: C_18  and  C_23
REMARK    7  A    between atoms: C_20  and  C_26
REMARK    8  A    between atoms: C_23  and  C_27
REMARK    9  A    between atoms: C_23  and  C_28
REMARK                            x       y       z     vdW  Elec       q    Type
REMARK                         _______ _______ _______ _____ _____    ______ ____
ROOT
ATOM      1  C   UNL     1       5.998  31.279  79.327  0.00  0.00    +0.000 C 
ATOM      2  O   UNL     1       5.716  30.198  79.860  0.00  0.00    +0.000 OA
ATOM      3  N   UNL     1       5.085  32.337  79.381  0.00  0.00    +0.000 N 
ATOM      4  C   UNL     1       3.899  32.335  80.308  0.00  0.00    +0.000 C 
ATOM      5  C   UNL     1       5.265  33.705  78.792  0.00  0.00    +0.000 C 
ATOM      6  C   UNL     1       3.046  33.464  79.625  0.00  0.00    +0.000 C 
ATOM      7  C   UNL     1       4.053  34.532  79.251  0.00  0.00    +0.000 C 
ENDROOT
BRANCH   1  13
ATOM      8  C   UNL     1       9.490  31.640  76.802  0.00  0.00    +0.000 A 
ATOM      9  C   UNL     1       8.398  30.858  76.402  0.00  0.00    +0.000 A 
ATOM     10  C   UNL     1       9.471  32.204  78.080  0.00  0.00    +0.000 A 
ATOM     11  C   UNL     1       7.280  30.713  77.241  0.00  0.00    +0.000 A 
ATOM     12  C   UNL     1       8.407  31.967  78.948  0.00  0.00    +0.000 A 
ATOM     13  C   UNL     1       7.255  31.321  78.509  0.00  0.00    +0.000 A 
BRANCH   8  15
ATOM     14  F   UNL     1      11.030  30.823  75.144  0.00  0.00    +0.000 F 
ATOM     15  C   UNL     1      10.699  31.883  75.930  0.00  0.00    +0.000 C 
ATOM     16  F   UNL     1      11.811  32.162  76.669  0.00  0.00    +0.000 F 
ATOM     17  F   UNL     1      10.538  32.942  75.091  0.00  0.00    +0.000 F 
ENDBRANCH   8  15
ENDBRANCH   1  13
BRANCH   5  18
ATOM     18  C   UNL     1       5.544  33.749  77.303  0.00  0.00    +0.000 A 
ATOM     19  C   UNL     1       4.789  33.067  76.352  0.00  0.00    +0.000 A 
ATOM     20  C   UNL     1       6.653  34.503  76.865  0.00  0.00    +0.000 A 
ATOM     21  C   UNL     1       5.154  33.111  74.997  0.00  0.00    +0.000 A 
ATOM     22  C   UNL     1       7.015  34.552  75.520  0.00  0.00    +0.000 A 
ATOM     23  C   UNL     1       6.268  33.848  74.588  0.00  0.00    +0.000 A 
ENDBRANCH   5  18
BRANCH   4  24
ATOM     24  C   UNL     1       2.859  31.177  80.381  0.00  0.00    +0.000 C 
ATOM     25  O   UNL     1       2.665  30.539  81.414  0.00  0.00    +0.000 OA
ATOM     26  O   UNL     1       2.185  30.884  79.259  0.00  0.00    +0.000 OA
ENDBRANCH   4  24
BRANCH   7  27
ATOM     27  C   UNL     1       3.655  35.662  78.330  0.00  0.00    +0.000 C 
ATOM     28  O   UNL     1       2.751  35.536  77.511  0.00  0.00    +0.000 OA
ATOM     29  O   UNL     1       4.366  36.799  78.408  0.00  0.00    +0.000 OA
ENDBRANCH   7  27
BRANCH   4  30
ATOM     30  C   UNL     1       4.288  32.772  81.769  0.00  0.00    +0.000 C 
BRANCH  30  31
ATOM     31  C   UNL     1       5.783  32.930  82.135  0.00  0.00    +0.000 C 
ATOM     32  C   UNL     1       6.029  34.304  82.783  0.00  0.00    +0.000 C 
ATOM     33  C   UNL     1       6.305  31.868  83.097  0.00  0.00    +0.000 C 
ENDBRANCH  30  31
ENDBRANCH   4  30
TORSDOF 7
ENDMDL
MODEL 6
REMARK VINA RESULT:      -7.1      2.969      4.348
REMARK  Name = 
REMARK  9 active torsions:
REMARK  status: ('A' for Active; 'I' for Inactive)
REMARK    1  A    between atoms: C_2  and  C_5
REMARK    2  A    between atoms: C_10  and  C_11
REMARK    3  A    between atoms: C_14  and  C_16
REMARK    4  A    between atoms: C_14  and  C_18
REMARK    5  A    between atoms: C_15  and  C_19
REMARK    6  A    between atoms: C_18  and  C_23
REMARK    7  A    between atoms: C_20  and  C_26
REMARK    8  A    between atoms: C_23  and  C_27
REMARK    9  A    between atoms: C_23  and  C_28
REMARK                            x       y       z     vdW  Elec       q    Type
REMARK                         _______ _______ _______ _____ _____    ______ ____
ROOT
ATOM      1  C   UNL     1       6.798  32.479  80.745  0.00  0.00    +0.000 C 
ATOM      2  O   UNL     1       6.983  32.105  81.910  0.00  0.00    +0.000 OA
ATOM      3  N   UNL     1       6.355  31.564  79.785  0.00  0.00    +0.000 N 
ATOM      4  C   UNL     1       5.803  30.212  80.151  0.00  0.00    +0.000 C 
ATOM      5  C   UNL     1       6.081  31.847  78.338  0.00  0.00    +0.000 C 
ATOM      6  C   UNL     1       5.921  29.507  78.752  0.00  0.00    +0.000 C 
ATOM      7  C   UNL     1       5.481  30.558  77.754  0.00  0.00    +0.000 C 
ENDROOT
BRANCH   1  13
ATOM      8  C   UNL     1       8.069  36.413  79.475  0.00  0.00    +0.000 A 
ATOM      9  C   UNL     1       9.012  35.441  79.835  0.00  0.00    +0.000 A 
ATOM     10  C   UNL     1       6.714  36.120  79.644  0.00  0.00    +0.000 A 
ATOM     11  C   UNL     1       8.594  34.175  80.283  0.00  0.00    +0.000 A 
ATOM     12  C   UNL     1       6.310  34.903  80.190  0.00  0.00    +0.000 A 
ATOM     13  C   UNL     1       7.226  33.878  80.409  0.00  0.00    +0.000 A 
BRANCH   8  15
ATOM     14  F   UNL     1       9.250  38.489  79.767  0.00  0.00    +0.000 F 
ATOM     15  C   UNL     1       8.446  37.772  78.935  0.00  0.00    +0.000 C 
ATOM     16  F   UNL     1       7.350  38.552  78.711  0.00  0.00    +0.000 F 
ATOM     17  F   UNL     1       9.099  37.702  77.743  0.00  0.00    +0.000 F 
ENDBRANCH   8  15
ENDBRANCH   1  13
BRANCH   5  18
ATOM     18  C   UNL     1       7.239  32.427  77.550  0.00  0.00    +0.000 A 
ATOM     19  C   UNL     1       8.517  31.874  77.529  0.00  0.00    +0.000 A 
ATOM     20  C   UNL     1       7.009  33.614  76.823  0.00  0.00    +0.000 A 
ATOM     21  C   UNL     1       9.550  32.511  76.823  0.00  0.00    +0.000 A 
ATOM     22  C   UNL     1       8.031  34.246  76.118  0.00  0.00    +0.000 A 
ATOM     23  C   UNL     1       9.305  33.697  76.125  0.00  0.00    +0.000 A 
ENDBRANCH   5  18
BRANCH   4  24
ATOM     24  C   UNL     1       6.547  29.191  81.064  0.00  0.00    +0.000 C 
ATOM     25  O   UNL     1       7.538  28.574  80.679  0.00  0.00    +0.000 OA
ATOM     26  O   UNL     1       6.052  28.992  82.295  0.00  0.00    +0.000 OA
ENDBRANCH   4  24
BRANCH   7  27
ATOM     27  C   UNL     1       5.712  30.347  76.276  0.00  0.00    +0.000 C 
ATOM     28  O   UNL     1       5.020  30.906  75.431  0.00  0.00    +0.000 OA
ATOM     29  O   UNL     1       6.674  29.479  75.920  0.00  0.00    +0.000 OA
ENDBRANCH   7  27
BRANCH   4  30
ATOM     30  C   UNL     1       4.292  30.286  80.585  0.00  0.00    +0.000 C 
BRANCH  30  31
ATOM     31  C   UNL     1       3.568  31.652  80.558  0.00  0.00    +0.000 C 
ATOM     32  C   UNL     1       2.248  31.539  79.775  0.00  0.00    +0.000 C 
ATOM     33  C   UNL     1       3.235  32.208  81.940  0.00  0.00    +0.000 C 
ENDBRANCH  30  31
ENDBRANCH   4  30
TORSDOF 7
ENDMDL
MODEL 7
REMARK VINA RESULT:      -7.0      4.717      7.308
REMARK  Name = 
REMARK  9 active torsions:
REMARK  status: ('A' for Active; 'I' for Inactive)
REMARK    1  A    between atoms: C_2  and  C_5
REMARK    2  A    between atoms: C_10  and  C_11
REMARK    3  A    between atoms: C_14  and  C_16
REMARK    4  A    between atoms: C_14  and  C_18
REMARK    5  A    between atoms: C_15  and  C_19
REMARK    6  A    between atoms: C_18  and  C_23
REMARK    7  A    between atoms: C_20  and  C_26
REMARK    8  A    between atoms: C_23  and  C_27
REMARK    9  A    between atoms: C_23  and  C_28
REMARK                            x       y       z     vdW  Elec       q    Type
REMARK                         _______ _______ _______ _____ _____    ______ ____
ROOT
ATOM      1  C   UNL     1       4.942  35.687  79.591  0.00  0.00    +0.000 C 
ATOM      2  O   UNL     1       4.332  36.708  79.932  0.00  0.00    +0.000 OA
ATOM      3  N   UNL     1       6.283  35.777  79.205  0.00  0.00    +0.000 N 
ATOM      4  C   UNL     1       7.118  37.003  79.464  0.00  0.00    +0.000 C 
ATOM      5  C   UNL     1       7.167  34.648  78.767  0.00  0.00    +0.000 C 
ATOM      6  C   UNL     1       8.291  36.725  78.457  0.00  0.00    +0.000 C 
ATOM      7  C   UNL     1       8.574  35.244  78.598  0.00  0.00    +0.000 C 
ENDROOT
BRANCH   1  13
ATOM      8  C   UNL     1       2.835  31.955  79.010  0.00  0.00    +0.000 A 
ATOM      9  C   UNL     1       2.630  33.033  78.139  0.00  0.00    +0.000 A 
ATOM     10  C   UNL     1       3.646  32.151  80.131  0.00  0.00    +0.000 A 
ATOM     11  C   UNL     1       3.288  34.257  78.353  0.00  0.00    +0.000 A 
ATOM     12  C   UNL     1       4.209  33.398  80.395  0.00  0.00    +0.000 A 
ATOM     13  C   UNL     1       4.135  34.428  79.461  0.00  0.00    +0.000 A 
BRANCH   8  15
ATOM     14  F   UNL     1       1.331  30.250  79.795  0.00  0.00    +0.000 F 
ATOM     15  C   UNL     1       2.204  30.597  78.812  0.00  0.00    +0.000 C 
ATOM     16  F   UNL     1       3.136  29.604  78.771  0.00  0.00    +0.000 F 
ATOM     17  F   UNL     1       1.515  30.504  77.641  0.00  0.00    +0.000 F 
ENDBRANCH   8  15
ENDBRANCH   1  13
BRANCH   5  18
ATOM     18  C   UNL     1       6.667  33.841  77.585  0.00  0.00    +0.000 A 
ATOM     19  C   UNL     1       6.279  34.404  76.371  0.00  0.00    +0.000 A 
ATOM     20  C   UNL     1       6.563  32.443  77.741  0.00  0.00    +0.000 A 
ATOM     21  C   UNL     1       5.767  33.590  75.348  0.00  0.00    +0.000 A 
ATOM     22  C   UNL     1       6.059  31.633  76.725  0.00  0.00    +0.000 A 
ATOM     23  C   UNL     1       5.654  32.209  75.531  0.00  0.00    +0.000 A 
ENDBRANCH   5  18
BRANCH   4  24
ATOM     24  C   UNL     1       6.696  38.443  79.042  0.00  0.00    +0.000 C 
ATOM     25  O   UNL     1       6.870  39.415  79.775  0.00  0.00    +0.000 OA
ATOM     26  O   UNL     1       6.114  38.587  77.843  0.00  0.00    +0.000 OA
ENDBRANCH   4  24
BRANCH   7  27
ATOM     27  C   UNL     1       9.459  34.541  77.596  0.00  0.00    +0.000 C 
ATOM     28  O   UNL     1       9.987  33.462  77.849  0.00  0.00    +0.000 OA
ATOM     29  O   UNL     1       9.689  35.167  76.430  0.00  0.00    +0.000 OA
ENDBRANCH   7  27
BRANCH   4  30
ATOM     30  C   UNL     1       7.677  37.041  80.935  0.00  0.00    +0.000 C 
BRANCH  30  31
ATOM     31  C   UNL     1       9.195  37.235  81.159  0.00  0.00    +0.000 C 
ATOM     32  C   UNL     1       9.461  38.573  81.870  0.00  0.00    +0.000 C 
ATOM     33  C   UNL     1       9.848  36.134  81.990  0.00  0.00    +0.000 C 
ENDBRANCH  30  31
ENDBRANCH   4  30
TORSDOF 7
ENDMDL
MODEL 8
REMARK VINA RESULT:      -6.9      2.031      4.723
REMARK  Name = 
REMARK  9 active torsions:
REMARK  status: ('A' for Active; 'I' for Inactive)
REMARK    1  A    between atoms: C_2  and  C_5
REMARK    2  A    between atoms: C_10  and  C_11
REMARK    3  A    between atoms: C_14  and  C_16
REMARK    4  A    between atoms: C_14  and  C_18
REMARK    5  A    between atoms: C_15  and  C_19
REMARK    6  A    between atoms: C_18  and  C_23
REMARK    7  A    between atoms: C_20  and  C_26
REMARK    8  A    between atoms: C_23  and  C_27
REMARK    9  A    between atoms: C_23  and  C_28
REMARK                            x       y       z     vdW  Elec       q    Type
REMARK                         _______ _______ _______ _____ _____    ______ ____
ROOT
ATOM      1  C   UNL     1       5.117  32.987  77.790  0.00  0.00    +0.000 C 
ATOM      2  O   UNL     1       4.152  33.574  77.284  0.00  0.00    +0.000 OA
ATOM      3  N   UNL     1       4.955  32.302  78.998  0.00  0.00    +0.000 N 
ATOM      4  C   UNL     1       3.600  31.985  79.573  0.00  0.00    +0.000 C 
ATOM      5  C   UNL     1       6.011  31.542  79.744  0.00  0.00    +0.000 C 
ATOM      6  C   UNL     1       4.024  31.668  81.052  0.00  0.00    +0.000 C 
ATOM      7  C   UNL     1       5.297  30.857  80.921  0.00  0.00    +0.000 C 
ENDROOT
BRANCH   1  13
ATOM      8  C   UNL     1       9.099  33.531  76.193  0.00  0.00    +0.000 A 
ATOM      9  C   UNL     1       8.417  34.600  76.789  0.00  0.00    +0.000 A 
ATOM     10  C   UNL     1       8.421  32.321  76.025  0.00  0.00    +0.000 A 
ATOM     11  C   UNL     1       7.109  34.429  77.274  0.00  0.00    +0.000 A 
ATOM     12  C   UNL     1       7.088  32.191  76.410  0.00  0.00    +0.000 A 
ATOM     13  C   UNL     1       6.452  33.194  77.137  0.00  0.00    +0.000 A 
BRANCH   8  15
ATOM     14  F   UNL     1      10.753  34.703  74.897  0.00  0.00    +0.000 F 
ATOM     15  C   UNL     1      10.523  33.628  75.700  0.00  0.00    +0.000 C 
ATOM     16  F   UNL     1      10.885  32.534  74.972  0.00  0.00    +0.000 F 
ATOM     17  F   UNL     1      11.427  33.711  76.715  0.00  0.00    +0.000 F 
ENDBRANCH   8  15
ENDBRANCH   1  13
BRANCH   5  18
ATOM     18  C   UNL     1       7.249  32.332  80.120  0.00  0.00    +0.000 A 
ATOM     19  C   UNL     1       7.216  33.552  80.790  0.00  0.00    +0.000 A 
ATOM     20  C   UNL     1       8.503  31.809  79.738  0.00  0.00    +0.000 A 
ATOM     21  C   UNL     1       8.408  34.250  81.044  0.00  0.00    +0.000 A 
ATOM     22  C   UNL     1       9.687  32.498  79.992  0.00  0.00    +0.000 A 
ATOM     23  C   UNL     1       9.637  33.723  80.639  0.00  0.00    +0.000 A 
ENDBRANCH   5  18
BRANCH   4  24
ATOM     24  C   UNL     1       2.486  33.051  79.803  0.00  0.00    +0.000 C 
ATOM     25  O   UNL     1       1.383  32.966  79.268  0.00  0.00    +0.000 OA
ATOM     26  O   UNL     1       2.782  34.087  80.602  0.00  0.00    +0.000 OA
ENDBRANCH   4  24
BRANCH   7  27
ATOM     27  C   UNL     1       6.156  30.590  82.134  0.00  0.00    +0.000 C 
ATOM     28  O   UNL     1       7.021  29.720  82.131  0.00  0.00    +0.000 OA
ATOM     29  O   UNL     1       5.903  31.310  83.240  0.00  0.00    +0.000 OA
ENDBRANCH   7  27
BRANCH   4  30
ATOM     30  C   UNL     1       2.961  30.706  78.915  0.00  0.00    +0.000 C 
BRANCH  30  31
ATOM     31  C   UNL     1       3.213  30.425  77.415  0.00  0.00    +0.000 C 
ATOM     32  C   UNL     1       4.162  29.224  77.251  0.00  0.00    +0.000 C 
ATOM     33  C   UNL     1       1.949  30.125  76.616  0.00  0.00    +0.000 C 
ENDBRANCH  30  31
ENDBRANCH   4  30
TORSDOF 7
ENDMDL
MODEL 9
REMARK VINA RESULT:      -6.9      4.070      6.628
REMARK  Name = 
REMARK  9 active torsions:
REMARK  status: ('A' for Active; 'I' for Inactive)
REMARK    1  A    between atoms: C_2  and  C_5
REMARK    2  A    between atoms: C_10  and  C_11
REMARK    3  A    between atoms: C_14  and  C_16
REMARK    4  A    between atoms: C_14  and  C_18
REMARK    5  A    between atoms: C_15  and  C_19
REMARK    6  A    between atoms: C_18  and  C_23
REMARK    7  A    between atoms: C_20  and  C_26
REMARK    8  A    between atoms: C_23  and  C_27
REMARK    9  A    between atoms: C_23  and  C_28
REMARK                            x       y       z     vdW  Elec       q    Type
REMARK                         _______ _______ _______ _____ _____    ______ ____
ROOT
ATOM      1  C   UNL     1       6.825  35.297  77.425  0.00  0.00    +0.000 C 
ATOM      2  O   UNL     1       6.141  35.506  76.415  0.00  0.00    +0.000 OA
ATOM      3  N   UNL     1       7.079  33.983  77.831  0.00  0.00    +0.000 N 
ATOM      4  C   UNL     1       6.815  32.797  76.943  0.00  0.00    +0.000 C 
ATOM      5  C   UNL     1       7.883  33.554  79.022  0.00  0.00    +0.000 C 
ATOM      6  C   UNL     1       6.829  31.662  78.029  0.00  0.00    +0.000 C 
ATOM      7  C   UNL     1       7.982  32.021  78.944  0.00  0.00    +0.000 C 
ENDROOT
BRANCH   1  13
ATOM      8  C   UNL     1       7.957  38.556  80.033  0.00  0.00    +0.000 A 
ATOM      9  C   UNL     1       6.628  38.118  79.975  0.00  0.00    +0.000 A 
ATOM     10  C   UNL     1       8.882  37.994  79.149  0.00  0.00    +0.000 A 
ATOM     11  C   UNL     1       6.256  37.082  79.098  0.00  0.00    +0.000 A 
ATOM     12  C   UNL     1       8.484  37.045  78.208  0.00  0.00    +0.000 A 
ATOM     13  C   UNL     1       7.206  36.496  78.243  0.00  0.00    +0.000 A 
BRANCH   8  15
ATOM     14  F   UNL     1       9.655  39.365  81.533  0.00  0.00    +0.000 F 
ATOM     15  C   UNL     1       8.437  39.624  80.987  0.00  0.00    +0.000 C 
ATOM     16  F   UNL     1       7.583  39.788  82.037  0.00  0.00    +0.000 F 
ATOM     17  F   UNL     1       8.537  40.848  80.398  0.00  0.00    +0.000 F 
ENDBRANCH   8  15
ENDBRANCH   1  13
BRANCH   5  18
ATOM     18  C   UNL     1       7.421  34.097  80.359  0.00  0.00    +0.000 A 
ATOM     19  C   UNL     1       6.114  33.993  80.829  0.00  0.00    +0.000 A 
ATOM     20  C   UNL     1       8.369  34.774  81.156  0.00  0.00    +0.000 A 
ATOM     21  C   UNL     1       5.755  34.582  82.052  0.00  0.00    +0.000 A 
ATOM     22  C   UNL     1       8.016  35.354  82.372  0.00  0.00    +0.000 A 
ATOM     23  C   UNL     1       6.706  35.264  82.816  0.00  0.00    +0.000 A 
ENDBRANCH   5  18
BRANCH   4  24
ATOM     24  C   UNL     1       5.448  32.525  76.244  0.00  0.00    +0.000 C 
ATOM     25  O   UNL     1       5.315  32.592  75.024  0.00  0.00    +0.000 OA
ATOM     26  O   UNL     1       4.403  32.228  77.031  0.00  0.00    +0.000 OA
ENDBRANCH   4  24
BRANCH   7  27
ATOM     27  C   UNL     1       8.150  31.315  80.268  0.00  0.00    +0.000 C 
ATOM     28  O   UNL     1       9.218  31.324  80.871  0.00  0.00    +0.000 OA
ATOM     29  O   UNL     1       7.096  30.628  80.739  0.00  0.00    +0.000 OA
ENDBRANCH   7  27
BRANCH   4  30
ATOM     30  C   UNL     1       7.978  32.560  75.909  0.00  0.00    +0.000 C 
BRANCH  30  31
ATOM     31  C   UNL     1       9.433  32.875  76.328  0.00  0.00    +0.000 C 
ATOM     32  C   UNL     1      10.381  31.770  75.830  0.00  0.00    +0.000 C 
ATOM     33  C   UNL     1       9.960  34.206  75.798  0.00  0.00    +0.000 C 
ENDBRANCH  30  31
ENDBRANCH   4  30
TORSDOF 7
ENDMDL
