MODEL 1
REMARK VINA RESULT:      -7.5      0.000      0.000
REMARK  Name = 
REMARK  8 active torsions:
REMARK  status: ('A' for Active; 'I' for Inactive)
REMARK    1  A    between atoms: C_2  and  C_5
REMARK    2  A    between atoms: C_10  and  C_11
REMARK    3  A    between atoms: C_14  and  C_16
REMARK    4  A    between atoms: C_14  and  C_18
REMARK    5  A    between atoms: C_15  and  C_19
REMARK    6  A    between atoms: C_18  and  C_23
REMARK    7  A    between atoms: C_20  and  C_26
REMARK    8  A    between atoms: C_23  and  C_27
REMARK                            x       y       z     vdW  Elec       q    Type
REMARK                         _______ _______ _______ _____ _____    ______ ____
ROOT
ATOM      1  C   UNL     1       7.338  30.479  78.991  0.00  0.00    +0.000 C 
ATOM      2  O   UNL     1       7.555  29.318  79.349  0.00  0.00    +0.000 OA
ATOM      3  N   UNL     1       6.067  31.044  79.215  0.00  0.00    +0.000 N 
ATOM      4  C   UNL     1       5.016  30.378  80.069  0.00  0.00    +0.000 C 
ATOM      5  C   UNL     1       5.661  32.456  78.940  0.00  0.00    +0.000 C 
ATOM      6  C   UNL     1       3.757  31.216  79.680  0.00  0.00    +0.000 C 
ATOM      7  C   UNL     1       4.268  32.645  79.558  0.00  0.00    +0.000 C 
ENDROOT
BRANCH   1  13
ATOM      8  C   UNL     1      10.182  32.704  76.576  0.00  0.00    +0.000 A 
ATOM      9  C   UNL     1       9.459  31.637  76.027  0.00  0.00    +0.000 A 
ATOM     10  C   UNL     1      10.071  32.936  77.947  0.00  0.00    +0.000 A 
ATOM     11  C   UNL     1       8.567  30.891  76.825  0.00  0.00    +0.000 A 
ATOM     12  C   UNL     1       9.273  32.119  78.752  0.00  0.00    +0.000 A 
ATOM     13  C   UNL     1       8.413  31.172  78.196  0.00  0.00    +0.000 A 
BRANCH   8  15
ATOM     14  F   UNL     1      10.567  34.846  75.540  0.00  0.00    +0.000 F 
ATOM     15  C   UNL     1      11.083  33.609  75.767  0.00  0.00    +0.000 C 
ATOM     16  F   UNL     1      11.358  33.086  74.538  0.00  0.00    +0.000 F 
ATOM     17  F   UNL     1      12.294  33.804  76.359  0.00  0.00    +0.000 F 
ENDBRANCH   8  15
ENDBRANCH   1  13
BRANCH   5  18
ATOM     18  C   UNL     1       5.798  32.925  77.509  0.00  0.00    +0.000 A 
ATOM     19  C   UNL     1       5.264  32.228  76.421  0.00  0.00    +0.000 A 
ATOM     20  C   UNL     1       6.528  34.108  77.260  0.00  0.00    +0.000 A 
ATOM     21  C   UNL     1       5.498  32.676  75.117  0.00  0.00    +0.000 A 
ATOM     22  C   UNL     1       6.764  34.549  75.961  0.00  0.00    +0.000 A 
ATOM     23  C   UNL     1       6.251  33.828  74.889  0.00  0.00    +0.000 A 
ENDBRANCH   5  18
BRANCH   4  24
ATOM     24  C   UNL     1       4.544  28.907  79.849  0.00  0.00    +0.000 C 
ATOM     25  O   UNL     1       4.628  28.054  80.721  0.00  0.00    +0.000 OA
ATOM     26  O   UNL     1       4.115  28.580  78.619  0.00  0.00    +0.000 OA
ENDBRANCH   4  24
BRANCH   7  27
ATOM     27  C   UNL     1       3.339  33.566  78.814  0.00  0.00    +0.000 C 
ATOM     28  O   UNL     1       3.418  34.785  78.822  0.00  0.00    +0.000 OA
ATOM     29  O   UNL     1       2.390  32.915  78.101  0.00  0.00    +0.000 OA
ENDBRANCH   7  27
BRANCH   4  30
ATOM     30  C   UNL     1       5.265  30.587  81.594  0.00  0.00    +0.000 C 
BRANCH  30  31
ATOM     31  C   UNL     1       6.617  31.139  82.034  0.00  0.00    +0.000 C 
BRANCH  31  32
ATOM     32  C   UNL     1       7.196  30.229  83.106  0.00  0.00    +0.000 C 
ATOM     33  O   UNL     1       7.981  30.595  83.967  0.00  0.00    +0.000 OA
ATOM     34  O   UNL     1       6.806  28.943  82.985  0.00  0.00    +0.000 OA
ENDBRANCH  31  32
ENDBRANCH  30  31
ENDBRANCH   4  30
TORSDOF 8
ENDMDL
MODEL 2
REMARK VINA RESULT:      -7.5      1.127      1.784
REMARK  Name = 
REMARK  8 active torsions:
REMARK  status: ('A' for Active; 'I' for Inactive)
REMARK    1  A    between atoms: C_2  and  C_5
REMARK    2  A    between atoms: C_10  and  C_11
REMARK    3  A    between atoms: C_14  and  C_16
REMARK    4  A    between atoms: C_14  and  C_18
REMARK    5  A    between atoms: C_15  and  C_19
REMARK    6  A    between atoms: C_18  and  C_23
REMARK    7  A    between atoms: C_20  and  C_26
REMARK    8  A    between atoms: C_23  and  C_27
REMARK                            x       y       z     vdW  Elec       q    Type
REMARK                         _______ _______ _______ _____ _____    ______ ____
ROOT
ATOM      1  C   UNL     1       8.366  30.813  79.062  0.00  0.00    +0.000 C 
ATOM      2  O   UNL     1       8.906  29.779  79.468  0.00  0.00    +0.000 OA
ATOM      3  N   UNL     1       7.064  31.128  79.500  0.00  0.00    +0.000 N 
ATOM      4  C   UNL     1       6.374  30.380  80.613  0.00  0.00    +0.000 C 
ATOM      5  C   UNL     1       6.301  32.375  79.192  0.00  0.00    +0.000 C 
ATOM      6  C   UNL     1       4.906  30.880  80.428  0.00  0.00    +0.000 C 
ATOM      7  C   UNL     1       5.044  32.354  80.071  0.00  0.00    +0.000 C 
ENDROOT
BRANCH   1  13
ATOM      8  C   UNL     1      10.742  32.908  76.089  0.00  0.00    +0.000 A 
ATOM      9  C   UNL     1      10.629  33.405  77.394  0.00  0.00    +0.000 A 
ATOM     10  C   UNL     1       9.957  31.809  75.735  0.00  0.00    +0.000 A 
ATOM     11  C   UNL     1       9.824  32.744  78.344  0.00  0.00    +0.000 A 
ATOM     12  C   UNL     1       9.076  31.231  76.651  0.00  0.00    +0.000 A 
ATOM     13  C   UNL     1       9.084  31.598  77.997  0.00  0.00    +0.000 A 
BRANCH   8  15
ATOM     14  F   UNL     1      12.924  33.727  75.477  0.00  0.00    +0.000 F 
ATOM     15  C   UNL     1      11.656  33.502  75.042  0.00  0.00    +0.000 C 
ATOM     16  F   UNL     1      11.196  34.704  74.589  0.00  0.00    +0.000 F 
ATOM     17  F   UNL     1      11.766  32.714  73.936  0.00  0.00    +0.000 F 
ENDBRANCH   8  15
ENDBRANCH   1  13
BRANCH   5  18
ATOM     18  C   UNL     1       6.056  32.666  77.728  0.00  0.00    +0.000 A 
ATOM     19  C   UNL     1       5.480  31.741  76.850  0.00  0.00    +0.000 A 
ATOM     20  C   UNL     1       6.458  33.920  77.218  0.00  0.00    +0.000 A 
ATOM     21  C   UNL     1       5.356  32.046  75.492  0.00  0.00    +0.000 A 
ATOM     22  C   UNL     1       6.339  34.219  75.864  0.00  0.00    +0.000 A 
ATOM     23  C   UNL     1       5.792  33.278  74.999  0.00  0.00    +0.000 A 
ENDBRANCH   5  18
BRANCH   4  24
ATOM     24  C   UNL     1       6.219  28.828  80.632  0.00  0.00    +0.000 C 
ATOM     25  O   UNL     1       5.277  28.256  80.101  0.00  0.00    +0.000 OA
ATOM     26  O   UNL     1       7.124  28.132  81.340  0.00  0.00    +0.000 OA
ENDBRANCH   4  24
BRANCH   7  27
ATOM     27  C   UNL     1       3.805  32.955  79.462  0.00  0.00    +0.000 C 
ATOM     28  O   UNL     1       3.617  34.153  79.314  0.00  0.00    +0.000 OA
ATOM     29  O   UNL     1       2.896  32.033  79.067  0.00  0.00    +0.000 OA
ENDBRANCH   7  27
BRANCH   4  30
ATOM     30  C   UNL     1       6.849  30.839  82.026  0.00  0.00    +0.000 C 
BRANCH  30  31
ATOM     31  C   UNL     1       8.006  31.831  82.108  0.00  0.00    +0.000 C 
BRANCH  31  32
ATOM     32  C   UNL     1       8.326  32.093  83.573  0.00  0.00    +0.000 C 
ATOM     33  O   UNL     1       8.002  33.104  84.175  0.00  0.00    +0.000 OA
ATOM     34  O   UNL     1       9.065  31.119  84.142  0.00  0.00    +0.000 OA
ENDBRANCH  31  32
ENDBRANCH  30  31
ENDBRANCH   4  30
TORSDOF 8
ENDMDL
MODEL 3
REMARK VINA RESULT:      -7.2      1.955      2.716
REMARK  Name = 
REMARK  8 active torsions:
REMARK  status: ('A' for Active; 'I' for Inactive)
REMARK    1  A    between atoms: C_2  and  C_5
REMARK    2  A    between atoms: C_10  and  C_11
REMARK    3  A    between atoms: C_14  and  C_16
REMARK    4  A    between atoms: C_14  and  C_18
REMARK    5  A    between atoms: C_15  and  C_19
REMARK    6  A    between atoms: C_18  and  C_23
REMARK    7  A    between atoms: C_20  and  C_26
REMARK    8  A    between atoms: C_23  and  C_27
REMARK                            x       y       z     vdW  Elec       q    Type
REMARK                         _______ _______ _______ _____ _____    ______ ____
ROOT
ATOM      1  C   UNL     1       7.478  31.240  76.999  0.00  0.00    +0.000 C 
ATOM      2  O   UNL     1       7.168  30.270  76.301  0.00  0.00    +0.000 OA
ATOM      3  N   UNL     1       6.684  31.568  78.115  0.00  0.00    +0.000 N 
ATOM      4  C   UNL     1       5.592  30.666  78.635  0.00  0.00    +0.000 C 
ATOM      5  C   UNL     1       6.962  32.639  79.120  0.00  0.00    +0.000 C 
ATOM      6  C   UNL     1       4.841  31.644  79.592  0.00  0.00    +0.000 C 
ATOM      7  C   UNL     1       5.945  32.456  80.255  0.00  0.00    +0.000 C 
ENDROOT
BRANCH   1  13
ATOM      8  C   UNL     1      10.643  33.987  75.856  0.00  0.00    +0.000 A 
ATOM      9  C   UNL     1       9.377  34.070  75.263  0.00  0.00    +0.000 A 
ATOM     10  C   UNL     1      10.900  32.913  76.709  0.00  0.00    +0.000 A 
ATOM     11  C   UNL     1       8.364  33.150  75.606  0.00  0.00    +0.000 A 
ATOM     12  C   UNL     1       9.926  31.942  76.955  0.00  0.00    +0.000 A 
ATOM     13  C   UNL     1       8.612  32.106  76.518  0.00  0.00    +0.000 A 
BRANCH   8  15
ATOM     14  F   UNL     1      11.404  36.273  75.890  0.00  0.00    +0.000 F 
ATOM     15  C   UNL     1      11.749  34.988  75.612  0.00  0.00    +0.000 C 
ATOM     16  F   UNL     1      12.162  34.984  74.312  0.00  0.00    +0.000 F 
ATOM     17  F   UNL     1      12.864  34.725  76.349  0.00  0.00    +0.000 F 
ENDBRANCH   8  15
ENDBRANCH   1  13
BRANCH   5  18
ATOM     18  C   UNL     1       7.078  34.048  78.582  0.00  0.00    +0.000 A 
ATOM     19  C   UNL     1       6.114  34.634  77.756  0.00  0.00    +0.000 A 
ATOM     20  C   UNL     1       8.233  34.794  78.905  0.00  0.00    +0.000 A 
ATOM     21  C   UNL     1       6.323  35.911  77.229  0.00  0.00    +0.000 A 
ATOM     22  C   UNL     1       8.442  36.064  78.375  0.00  0.00    +0.000 A 
ATOM     23  C   UNL     1       7.487  36.620  77.532  0.00  0.00    +0.000 A 
ENDBRANCH   5  18
BRANCH   4  24
ATOM     24  C   UNL     1       4.448  30.104  77.735  0.00  0.00    +0.000 C 
ATOM     25  O   UNL     1       4.549  29.048  77.127  0.00  0.00    +0.000 OA
ATOM     26  O   UNL     1       3.360  30.876  77.576  0.00  0.00    +0.000 OA
ENDBRANCH   4  24
BRANCH   7  27
ATOM     27  C   UNL     1       5.463  33.721  80.916  0.00  0.00    +0.000 C 
ATOM     28  O   UNL     1       4.396  34.263  80.678  0.00  0.00    +0.000 OA
ATOM     29  O   UNL     1       6.329  34.213  81.832  0.00  0.00    +0.000 OA
ENDBRANCH   7  27
BRANCH   4  30
ATOM     30  C   UNL     1       6.148  29.496  79.503  0.00  0.00    +0.000 C 
BRANCH  30  31
ATOM     31  C   UNL     1       5.182  28.768  80.433  0.00  0.00    +0.000 C 
BRANCH  31  32
ATOM     32  C   UNL     1       5.958  27.742  81.245  0.00  0.00    +0.000 C 
ATOM     33  O   UNL     1       5.446  26.949  82.019  0.00  0.00    +0.000 OA
ATOM     34  O   UNL     1       7.294  27.827  81.078  0.00  0.00    +0.000 OA
ENDBRANCH  31  32
ENDBRANCH  30  31
ENDBRANCH   4  30
TORSDOF 8
ENDMDL
MODEL 4
REMARK VINA RESULT:      -7.1      3.518      5.160
REMARK  Name = 
REMARK  8 active torsions:
REMARK  status: ('A' for Active; 'I' for Inactive)
REMARK    1  A    between atoms: C_2  and  C_5
REMARK    2  A    between atoms: C_10  and  C_11
REMARK    3  A    between atoms: C_14  and  C_16
REMARK    4  A    between atoms: C_14  and  C_18
REMARK    5  A    between atoms: C_15  and  C_19
REMARK    6  A    between atoms: C_18  and  C_23
REMARK    7  A    between atoms: C_20  and  C_26
REMARK    8  A    between atoms: C_23  and  C_27
REMARK                            x       y       z     vdW  Elec       q    Type
REMARK                         _______ _______ _______ _____ _____    ______ ____
ROOT
ATOM      1  C   UNL     1       8.598  35.055  78.972  0.00  0.00    +0.000 C 
ATOM      2  O   UNL     1       9.311  35.314  79.946  0.00  0.00    +0.000 OA
ATOM      3  N   UNL     1       7.245  35.445  78.985  0.00  0.00    +0.000 N 
ATOM      4  C   UNL     1       6.668  36.359  80.039  0.00  0.00    +0.000 C 
ATOM      5  C   UNL     1       6.268  35.304  77.863  0.00  0.00    +0.000 C 
ATOM      6  C   UNL     1       5.140  36.157  79.789  0.00  0.00    +0.000 C 
ATOM      7  C   UNL     1       5.005  36.073  78.275  0.00  0.00    +0.000 C 
ENDROOT
BRANCH   1  13
ATOM      8  C   UNL     1      10.639  32.671  75.968  0.00  0.00    +0.000 A 
ATOM      9  C   UNL     1      10.390  34.032  75.751  0.00  0.00    +0.000 A 
ATOM     10  C   UNL     1      10.088  32.075  77.103  0.00  0.00    +0.000 A 
ATOM     11  C   UNL     1       9.690  34.793  76.711  0.00  0.00    +0.000 A 
ATOM     12  C   UNL     1       9.300  32.811  77.990  0.00  0.00    +0.000 A 
ATOM     13  C   UNL     1       9.192  34.198  77.885  0.00  0.00    +0.000 A 
BRANCH   8  15
ATOM     14  F   UNL     1      11.619  32.338  73.792  0.00  0.00    +0.000 F 
ATOM     15  C   UNL     1      11.461  31.811  75.035  0.00  0.00    +0.000 C 
ATOM     16  F   UNL     1      10.900  30.581  74.852  0.00  0.00    +0.000 F 
ATOM     17  F   UNL     1      12.715  31.573  75.511  0.00  0.00    +0.000 F 
ENDBRANCH   8  15
ENDBRANCH   1  13
BRANCH   5  18
ATOM     18  C   UNL     1       6.028  33.900  77.357  0.00  0.00    +0.000 A 
ATOM     19  C   UNL     1       5.703  32.829  78.196  0.00  0.00    +0.000 A 
ATOM     20  C   UNL     1       6.171  33.653  75.974  0.00  0.00    +0.000 A 
ATOM     21  C   UNL     1       5.573  31.540  77.671  0.00  0.00    +0.000 A 
ATOM     22  C   UNL     1       6.048  32.367  75.454  0.00  0.00    +0.000 A 
ATOM     23  C   UNL     1       5.753  31.309  76.306  0.00  0.00    +0.000 A 
ENDBRANCH   5  18
BRANCH   4  24
ATOM     24  C   UNL     1       6.814  36.096  81.570  0.00  0.00    +0.000 C 
ATOM     25  O   UNL     1       7.116  36.978  82.361  0.00  0.00    +0.000 OA
ATOM     26  O   UNL     1       6.682  34.826  81.988  0.00  0.00    +0.000 OA
ENDBRANCH   4  24
BRANCH   7  27
ATOM     27  C   UNL     1       3.698  35.490  77.808  0.00  0.00    +0.000 C 
ATOM     28  O   UNL     1       3.302  35.515  76.653  0.00  0.00    +0.000 OA
ATOM     29  O   UNL     1       2.984  34.905  78.798  0.00  0.00    +0.000 OA
ENDBRANCH   7  27
BRANCH   4  30
ATOM     30  C   UNL     1       6.992  37.860  79.769  0.00  0.00    +0.000 C 
BRANCH  30  31
ATOM     31  C   UNL     1       8.400  38.221  79.304  0.00  0.00    +0.000 C 
BRANCH  31  32
ATOM     32  C   UNL     1       9.082  39.040  80.389  0.00  0.00    +0.000 C 
ATOM     33  O   UNL     1      10.003  38.633  81.080  0.00  0.00    +0.000 OA
ATOM     34  O   UNL     1       8.531  40.259  80.567  0.00  0.00    +0.000 OA
ENDBRANCH  31  32
ENDBRANCH  30  31
ENDBRANCH   4  30
TORSDOF 8
ENDMDL
MODEL 5
REMARK VINA RESULT:      -7.0      4.473      7.162
REMARK  Name = 
REMARK  8 active torsions:
REMARK  status: ('A' for Active; 'I' for Inactive)
REMARK    1  A    between atoms: C_2  and  C_5
REMARK    2  A    between atoms: C_10  and  C_11
REMARK    3  A    between atoms: C_14  and  C_16
REMARK    4  A    between atoms: C_14  and  C_18
REMARK    5  A    between atoms: C_15  and  C_19
REMARK    6  A    between atoms: C_18  and  C_23
REMARK    7  A    between atoms: C_20  and  C_26
REMARK    8  A    between atoms: C_23  and  C_27
REMARK                            x       y       z     vdW  Elec       q    Type
REMARK                         _______ _______ _______ _____ _____    ______ ____
ROOT
ATOM      1  C   UNL     1       7.870  31.394  76.620  0.00  0.00    +0.000 C 
ATOM      2  O   UNL     1       8.692  30.478  76.518  0.00  0.00    +0.000 OA
ATOM      3  N   UNL     1       8.327  32.717  76.772  0.00  0.00    +0.000 N 
ATOM      4  C   UNL     1       9.775  33.107  76.598  0.00  0.00    +0.000 C 
ATOM      5  C   UNL     1       7.484  33.950  76.811  0.00  0.00    +0.000 C 
ATOM      6  C   UNL     1       9.763  34.540  77.217  0.00  0.00    +0.000 C 
ATOM      7  C   UNL     1       8.444  35.146  76.759  0.00  0.00    +0.000 C 
ENDROOT
BRANCH   1  13
ATOM      8  C   UNL     1       3.624  30.611  77.095  0.00  0.00    +0.000 A 
ATOM      9  C   UNL     1       4.530  30.270  78.107  0.00  0.00    +0.000 A 
ATOM     10  C   UNL     1       4.136  31.071  75.882  0.00  0.00    +0.000 A 
ATOM     11  C   UNL     1       5.913  30.488  77.932  0.00  0.00    +0.000 A 
ATOM     12  C   UNL     1       5.514  31.176  75.677  0.00  0.00    +0.000 A 
ATOM     13  C   UNL     1       6.417  31.012  76.727  0.00  0.00    +0.000 A 
BRANCH   8  15
ATOM     14  F   UNL     1       1.721  29.967  78.426  0.00  0.00    +0.000 F 
ATOM     15  C   UNL     1       2.124  30.498  77.242  0.00  0.00    +0.000 C 
ATOM     16  F   UNL     1       1.577  29.709  76.273  0.00  0.00    +0.000 F 
ATOM     17  F   UNL     1       1.494  31.701  77.130  0.00  0.00    +0.000 F 
ENDBRANCH   8  15
ENDBRANCH   1  13
BRANCH   5  18
ATOM     18  C   UNL     1       6.439  34.012  77.902  0.00  0.00    +0.000 A 
ATOM     19  C   UNL     1       6.712  33.715  79.241  0.00  0.00    +0.000 A 
ATOM     20  C   UNL     1       5.117  34.356  77.544  0.00  0.00    +0.000 A 
ATOM     21  C   UNL     1       5.681  33.714  80.185  0.00  0.00    +0.000 A 
ATOM     22  C   UNL     1       4.090  34.349  78.485  0.00  0.00    +0.000 A 
ATOM     23  C   UNL     1       4.374  34.023  79.806  0.00  0.00    +0.000 A 
ENDBRANCH   5  18
BRANCH   4  24
ATOM     24  C   UNL     1      10.945  32.404  77.355  0.00  0.00    +0.000 C 
ATOM     25  O   UNL     1      10.878  32.111  78.540  0.00  0.00    +0.000 OA
ATOM     26  O   UNL     1      12.085  32.208  76.670  0.00  0.00    +0.000 OA
ENDBRANCH   4  24
BRANCH   7  27
ATOM     27  C   UNL     1       8.023  36.362  77.542  0.00  0.00    +0.000 C 
ATOM     28  O   UNL     1       7.193  37.174  77.167  0.00  0.00    +0.000 OA
ATOM     29  O   UNL     1       8.648  36.475  78.738  0.00  0.00    +0.000 OA
ENDBRANCH   7  27
BRANCH   4  30
ATOM     30  C   UNL     1      10.179  33.247  75.099  0.00  0.00    +0.000 C 
BRANCH  30  31
ATOM     31  C   UNL     1      11.260  34.261  74.737  0.00  0.00    +0.000 C 
BRANCH  31  32
ATOM     32  C   UNL     1      12.042  33.742  73.539  0.00  0.00    +0.000 C 
ATOM     33  O   UNL     1      12.540  32.629  73.475  0.00  0.00    +0.000 OA
ATOM     34  O   UNL     1      12.190  34.657  72.559  0.00  0.00    +0.000 OA
ENDBRANCH  31  32
ENDBRANCH  30  31
ENDBRANCH   4  30
TORSDOF 8
ENDMDL
MODEL 6
REMARK VINA RESULT:      -6.9      4.475      6.998
REMARK  Name = 
REMARK  8 active torsions:
REMARK  status: ('A' for Active; 'I' for Inactive)
REMARK    1  A    between atoms: C_2  and  C_5
REMARK    2  A    between atoms: C_10  and  C_11
REMARK    3  A    between atoms: C_14  and  C_16
REMARK    4  A    between atoms: C_14  and  C_18
REMARK    5  A    between atoms: C_15  and  C_19
REMARK    6  A    between atoms: C_18  and  C_23
REMARK    7  A    between atoms: C_20  and  C_26
REMARK    8  A    between atoms: C_23  and  C_27
REMARK                            x       y       z     vdW  Elec       q    Type
REMARK                         _______ _______ _______ _____ _____    ______ ____
ROOT
ATOM      1  C   UNL     1       5.827  36.067  78.510  0.00  0.00    +0.000 C 
ATOM      2  O   UNL     1       5.424  37.162  78.107  0.00  0.00    +0.000 OA
ATOM      3  N   UNL     1       6.704  36.018  79.611  0.00  0.00    +0.000 N 
ATOM      4  C   UNL     1       7.009  37.222  80.467  0.00  0.00    +0.000 C 
ATOM      5  C   UNL     1       7.211  34.787  80.290  0.00  0.00    +0.000 C 
ATOM      6  C   UNL     1       8.253  36.706  81.257  0.00  0.00    +0.000 C 
ATOM      7  C   UNL     1       7.940  35.248  81.559  0.00  0.00    +0.000 C 
ENDROOT
BRANCH   1  13
ATOM      8  C   UNL     1       5.079  32.399  76.307  0.00  0.00    +0.000 A 
ATOM      9  C   UNL     1       5.947  33.374  75.798  0.00  0.00    +0.000 A 
ATOM     10  C   UNL     1       4.355  32.702  77.460  0.00  0.00    +0.000 A 
ATOM     11  C   UNL     1       6.155  34.581  76.496  0.00  0.00    +0.000 A 
ATOM     12  C   UNL     1       4.483  33.946  78.083  0.00  0.00    +0.000 A 
ATOM     13  C   UNL     1       5.469  34.853  77.694  0.00  0.00    +0.000 A 
BRANCH   8  15
ATOM     14  F   UNL     1       5.946  30.214  75.776  0.00  0.00    +0.000 F 
ATOM     15  C   UNL     1       4.875  31.044  75.669  0.00  0.00    +0.000 C 
ATOM     16  F   UNL     1       4.611  31.145  74.334  0.00  0.00    +0.000 F 
ATOM     17  F   UNL     1       3.816  30.370  76.200  0.00  0.00    +0.000 F 
ENDBRANCH   8  15
ENDBRANCH   1  13
BRANCH   5  18
ATOM     18  C   UNL     1       7.980  33.814  79.425  0.00  0.00    +0.000 A 
ATOM     19  C   UNL     1       9.046  34.197  78.605  0.00  0.00    +0.000 A 
ATOM     20  C   UNL     1       7.580  32.459  79.422  0.00  0.00    +0.000 A 
ATOM     21  C   UNL     1       9.661  33.259  77.770  0.00  0.00    +0.000 A 
ATOM     22  C   UNL     1       8.190  31.529  78.586  0.00  0.00    +0.000 A 
ATOM     23  C   UNL     1       9.229  31.932  77.755  0.00  0.00    +0.000 A 
ENDBRANCH   5  18
BRANCH   4  24
ATOM     24  C   UNL     1       7.500  38.583  79.883  0.00  0.00    +0.000 C 
ATOM     25  O   UNL     1       6.741  39.520  79.676  0.00  0.00    +0.000 OA
ATOM     26  O   UNL     1       8.793  38.665  79.526  0.00  0.00    +0.000 OA
ENDBRANCH   4  24
BRANCH   7  27
ATOM     27  C   UNL     1       9.141  34.433  81.960  0.00  0.00    +0.000 C 
ATOM     28  O   UNL     1      10.299  34.751  81.739  0.00  0.00    +0.000 OA
ATOM     29  O   UNL     1       8.823  33.293  82.619  0.00  0.00    +0.000 OA
ENDBRANCH   7  27
BRANCH   4  30
ATOM     30  C   UNL     1       5.884  37.516  81.507  0.00  0.00    +0.000 C 
BRANCH  30  31
ATOM     31  C   UNL     1       6.271  38.210  82.809  0.00  0.00    +0.000 C 
BRANCH  31  32
ATOM     32  C   UNL     1       5.422  39.462  82.971  0.00  0.00    +0.000 C 
ATOM     33  O   UNL     1       5.810  40.592  82.716  0.00  0.00    +0.000 OA
ATOM     34  O   UNL     1       4.200  39.218  83.488  0.00  0.00    +0.000 OA
ENDBRANCH  31  32
ENDBRANCH  30  31
ENDBRANCH   4  30
TORSDOF 8
ENDMDL
MODEL 7
REMARK VINA RESULT:      -6.9      3.904      6.258
REMARK  Name = 
REMARK  8 active torsions:
REMARK  status: ('A' for Active; 'I' for Inactive)
REMARK    1  A    between atoms: C_2  and  C_5
REMARK    2  A    between atoms: C_10  and  C_11
REMARK    3  A    between atoms: C_14  and  C_16
REMARK    4  A    between atoms: C_14  and  C_18
REMARK    5  A    between atoms: C_15  and  C_19
REMARK    6  A    between atoms: C_18  and  C_23
REMARK    7  A    between atoms: C_20  and  C_26
REMARK    8  A    between atoms: C_23  and  C_27
REMARK                            x       y       z     vdW  Elec       q    Type
REMARK                         _______ _______ _______ _____ _____    ______ ____
ROOT
ATOM      1  C   UNL     1       6.771  34.803  77.140  0.00  0.00    +0.000 C 
ATOM      2  O   UNL     1       6.226  34.857  76.033  0.00  0.00    +0.000 OA
ATOM      3  N   UNL     1       6.967  33.549  77.752  0.00  0.00    +0.000 N 
ATOM      4  C   UNL     1       6.743  32.244  77.030  0.00  0.00    +0.000 C 
ATOM      5  C   UNL     1       7.690  33.288  79.033  0.00  0.00    +0.000 C 
ATOM      6  C   UNL     1       6.746  31.246  78.231  0.00  0.00    +0.000 C 
ATOM      7  C   UNL     1       7.834  31.766  79.159  0.00  0.00    +0.000 C 
ENDROOT
BRANCH   1  13
ATOM      8  C   UNL     1       7.603  38.379  79.461  0.00  0.00    +0.000 A 
ATOM      9  C   UNL     1       6.286  37.948  79.262  0.00  0.00    +0.000 A 
ATOM     10  C   UNL     1       8.622  37.716  78.776  0.00  0.00    +0.000 A 
ATOM     11  C   UNL     1       6.017  36.810  78.473  0.00  0.00    +0.000 A 
ATOM     12  C   UNL     1       8.336  36.661  77.907  0.00  0.00    +0.000 A 
ATOM     13  C   UNL     1       7.057  36.107  77.837  0.00  0.00    +0.000 A 
BRANCH   8  15
ATOM     14  F   UNL     1       7.975  39.219  81.689  0.00  0.00    +0.000 F 
ATOM     15  C   UNL     1       7.980  39.530  80.366  0.00  0.00    +0.000 C 
ATOM     16  F   UNL     1       7.129  40.586  80.226  0.00  0.00    +0.000 F 
ATOM     17  F   UNL     1       9.221  40.023  80.096  0.00  0.00    +0.000 F 
ENDBRANCH   8  15
ENDBRANCH   1  13
BRANCH   5  18
ATOM     18  C   UNL     1       7.151  33.987  80.261  0.00  0.00    +0.000 A 
ATOM     19  C   UNL     1       5.804  33.942  80.637  0.00  0.00    +0.000 A 
ATOM     20  C   UNL     1       8.045  34.747  81.047  0.00  0.00    +0.000 A 
ATOM     21  C   UNL     1       5.358  34.677  81.739  0.00  0.00    +0.000 A 
ATOM     22  C   UNL     1       7.598  35.482  82.141  0.00  0.00    +0.000 A 
ATOM     23  C   UNL     1       6.251  35.450  82.483  0.00  0.00    +0.000 A 
ENDBRANCH   5  18
BRANCH   4  24
ATOM     24  C   UNL     1       5.416  31.897  76.285  0.00  0.00    +0.000 C 
ATOM     25  O   UNL     1       5.324  31.918  75.065  0.00  0.00    +0.000 OA
ATOM     26  O   UNL     1       4.334  31.654  77.043  0.00  0.00    +0.000 OA
ENDBRANCH   4  24
BRANCH   7  27
ATOM     27  C   UNL     1       7.762  31.213  80.558  0.00  0.00    +0.000 C 
ATOM     28  O   UNL     1       6.776  30.677  81.041  0.00  0.00    +0.000 OA
ATOM     29  O   UNL     1       8.917  31.347  81.251  0.00  0.00    +0.000 OA
ENDBRANCH   7  27
BRANCH   4  30
ATOM     30  C   UNL     1       7.937  31.863  76.101  0.00  0.00    +0.000 C 
BRANCH  30  31
ATOM     31  C   UNL     1       9.138  32.801  76.052  0.00  0.00    +0.000 C 
BRANCH  31  32
ATOM     32  C   UNL     1      10.413  31.972  76.092  0.00  0.00    +0.000 C 
ATOM     33  O   UNL     1      10.782  31.236  75.190  0.00  0.00    +0.000 OA
ATOM     34  O   UNL     1      11.083  32.076  77.259  0.00  0.00    +0.000 OA
ENDBRANCH  31  32
ENDBRANCH  30  31
ENDBRANCH   4  30
TORSDOF 8
ENDMDL
MODEL 8
REMARK VINA RESULT:      -6.7      3.265      4.763
REMARK  Name = 
REMARK  8 active torsions:
REMARK  status: ('A' for Active; 'I' for Inactive)
REMARK    1  A    between atoms: C_2  and  C_5
REMARK    2  A    between atoms: C_10  and  C_11
REMARK    3  A    between atoms: C_14  and  C_16
REMARK    4  A    between atoms: C_14  and  C_18
REMARK    5  A    between atoms: C_15  and  C_19
REMARK    6  A    between atoms: C_18  and  C_23
REMARK    7  A    between atoms: C_20  and  C_26
REMARK    8  A    between atoms: C_23  and  C_27
REMARK                            x       y       z     vdW  Elec       q    Type
REMARK                         _______ _______ _______ _____ _____    ______ ____
ROOT
ATOM      1  C   UNL     1       6.932  33.292  77.565  0.00  0.00    +0.000 C 
ATOM      2  O   UNL     1       7.513  32.924  76.541  0.00  0.00    +0.000 OA
ATOM      3  N   UNL     1       6.014  32.423  78.188  0.00  0.00    +0.000 N 
ATOM      4  C   UNL     1       5.863  30.975  77.793  0.00  0.00    +0.000 C 
ATOM      5  C   UNL     1       5.299  32.662  79.479  0.00  0.00    +0.000 C 
ATOM      6  C   UNL     1       4.525  30.619  78.513  0.00  0.00    +0.000 C 
ATOM      7  C   UNL     1       4.599  31.347  79.847  0.00  0.00    +0.000 C 
ENDROOT
BRANCH   1  13
ATOM      8  C   UNL     1       7.192  37.386  78.996  0.00  0.00    +0.000 A 
ATOM      9  C   UNL     1       6.534  37.089  77.795  0.00  0.00    +0.000 A 
ATOM     10  C   UNL     1       7.882  36.357  79.638  0.00  0.00    +0.000 A 
ATOM     11  C   UNL     1       6.487  35.765  77.314  0.00  0.00    +0.000 A 
ATOM     12  C   UNL     1       7.926  35.072  79.094  0.00  0.00    +0.000 A 
ATOM     13  C   UNL     1       7.132  34.720  78.001  0.00  0.00    +0.000 A 
BRANCH   8  15
ATOM     14  F   UNL     1       6.565  39.710  78.896  0.00  0.00    +0.000 F 
ATOM     15  C   UNL     1       7.206  38.760  79.626  0.00  0.00    +0.000 C 
ATOM     16  F   UNL     1       8.476  39.222  79.809  0.00  0.00    +0.000 F 
ATOM     17  F   UNL     1       6.631  38.775  80.861  0.00  0.00    +0.000 F 
ENDBRANCH   8  15
ENDBRANCH   1  13
BRANCH   5  18
ATOM     18  C   UNL     1       4.425  33.894  79.542  0.00  0.00    +0.000 A 
ATOM     19  C   UNL     1       3.491  34.221  78.553  0.00  0.00    +0.000 A 
ATOM     20  C   UNL     1       4.585  34.773  80.636  0.00  0.00    +0.000 A 
ATOM     21  C   UNL     1       2.773  35.418  78.635  0.00  0.00    +0.000 A 
ATOM     22  C   UNL     1       3.873  35.967  80.712  0.00  0.00    +0.000 A 
ATOM     23  C   UNL     1       2.969  36.291  79.706  0.00  0.00    +0.000 A 
ENDBRANCH   5  18
BRANCH   4  24
ATOM     24  C   UNL     1       5.610  30.512  76.325  0.00  0.00    +0.000 C 
ATOM     25  O   UNL     1       4.770  31.037  75.607  0.00  0.00    +0.000 OA
ATOM     26  O   UNL     1       6.296  29.440  75.894  0.00  0.00    +0.000 OA
ENDBRANCH   4  24
BRANCH   7  27
ATOM     27  C   UNL     1       3.273  31.482  80.547  0.00  0.00    +0.000 C 
ATOM     28  O   UNL     1       2.187  31.422  79.992  0.00  0.00    +0.000 OA
ATOM     29  O   UNL     1       3.385  31.665  81.884  0.00  0.00    +0.000 OA
ENDBRANCH   7  27
BRANCH   4  30
ATOM     30  C   UNL     1       6.978  30.071  78.403  0.00  0.00    +0.000 C 
BRANCH  30  31
ATOM     31  C   UNL     1       8.417  30.574  78.360  0.00  0.00    +0.000 C 
BRANCH  31  32
ATOM     32  C   UNL     1       8.904  30.796  79.785  0.00  0.00    +0.000 C 
ATOM     33  O   UNL     1       8.167  30.947  80.746  0.00  0.00    +0.000 OA
ATOM     34  O   UNL     1      10.247  30.871  79.886  0.00  0.00    +0.000 OA
ENDBRANCH  31  32
ENDBRANCH  30  31
ENDBRANCH   4  30
TORSDOF 8
ENDMDL
MODEL 9
REMARK VINA RESULT:      -6.7      4.518      7.212
REMARK  Name = 
REMARK  8 active torsions:
REMARK  status: ('A' for Active; 'I' for Inactive)
REMARK    1  A    between atoms: C_2  and  C_5
REMARK    2  A    between atoms: C_10  and  C_11
REMARK    3  A    between atoms: C_14  and  C_16
REMARK    4  A    between atoms: C_14  and  C_18
REMARK    5  A    between atoms: C_15  and  C_19
REMARK    6  A    between atoms: C_18  and  C_23
REMARK    7  A    between atoms: C_20  and  C_26
REMARK    8  A    between atoms: C_23  and  C_27
REMARK                            x       y       z     vdW  Elec       q    Type
REMARK                         _______ _______ _______ _____ _____    ______ ____
ROOT
ATOM      1  C   UNL     1       6.202  34.595  77.177  0.00  0.00    +0.000 C 
ATOM      2  O   UNL     1       6.361  35.268  76.154  0.00  0.00    +0.000 OA
ATOM      3  N   UNL     1       7.055  34.803  78.279  0.00  0.00    +0.000 N 
ATOM      4  C   UNL     1       8.021  35.960  78.358  0.00  0.00    +0.000 C 
ATOM      5  C   UNL     1       6.947  34.156  79.622  0.00  0.00    +0.000 C 
ATOM      6  C   UNL     1       8.917  35.505  79.552  0.00  0.00    +0.000 C 
ATOM      7  C   UNL     1       7.950  34.868  80.539  0.00  0.00    +0.000 C 
ENDROOT
BRANCH   1  13
ATOM      8  C   UNL     1       3.469  31.220  77.292  0.00  0.00    +0.000 A 
ATOM      9  C   UNL     1       4.624  31.178  76.501  0.00  0.00    +0.000 A 
ATOM     10  C   UNL     1       3.149  32.424  77.922  0.00  0.00    +0.000 A 
ATOM     11  C   UNL     1       5.488  32.291  76.434  0.00  0.00    +0.000 A 
ATOM     12  C   UNL     1       3.950  33.556  77.758  0.00  0.00    +0.000 A 
ATOM     13  C   UNL     1       5.190  33.481  77.124  0.00  0.00    +0.000 A 
BRANCH   8  15
ATOM     14  F   UNL     1       3.162  28.931  77.976  0.00  0.00    +0.000 F 
ATOM     15  C   UNL     1       2.546  30.041  77.490  0.00  0.00    +0.000 C 
ATOM     16  F   UNL     1       1.951  29.659  76.324  0.00  0.00    +0.000 F 
ATOM     17  F   UNL     1       1.523  30.315  78.348  0.00  0.00    +0.000 F 
ENDBRANCH   8  15
ENDBRANCH   1  13
BRANCH   5  18
ATOM     18  C   UNL     1       7.017  32.645  79.644  0.00  0.00    +0.000 A 
ATOM     19  C   UNL     1       8.023  31.916  79.001  0.00  0.00    +0.000 A 
ATOM     20  C   UNL     1       5.998  31.938  80.319  0.00  0.00    +0.000 A 
ATOM     21  C   UNL     1       7.982  30.519  78.994  0.00  0.00    +0.000 A 
ATOM     22  C   UNL     1       5.956  30.546  80.306  0.00  0.00    +0.000 A 
ATOM     23  C   UNL     1       6.948  29.837  79.638  0.00  0.00    +0.000 A 
ENDBRANCH   5  18
BRANCH   4  24
ATOM     24  C   UNL     1       9.059  36.284  77.239  0.00  0.00    +0.000 C 
ATOM     25  O   UNL     1       9.238  37.418  76.819  0.00  0.00    +0.000 OA
ATOM     26  O   UNL     1       9.699  35.243  76.679  0.00  0.00    +0.000 OA
ENDBRANCH   4  24
BRANCH   7  27
ATOM     27  C   UNL     1       8.614  34.007  81.581  0.00  0.00    +0.000 C 
ATOM     28  O   UNL     1       8.067  33.595  82.592  0.00  0.00    +0.000 OA
ATOM     29  O   UNL     1       9.901  33.705  81.289  0.00  0.00    +0.000 OA
ENDBRANCH   7  27
BRANCH   4  30
ATOM     30  C   UNL     1       7.325  37.291  78.776  0.00  0.00    +0.000 C 
BRANCH  30  31
ATOM     31  C   UNL     1       8.085  38.243  79.694  0.00  0.00    +0.000 C 
BRANCH  31  32
ATOM     32  C   UNL     1       7.083  39.036  80.521  0.00  0.00    +0.000 C 
ATOM     33  O   UNL     1       6.089  38.554  81.042  0.00  0.00    +0.000 OA
ATOM     34  O   UNL     1       7.361  40.355  80.579  0.00  0.00    +0.000 OA
ENDBRANCH  31  32
ENDBRANCH  30  31
ENDBRANCH   4  30
TORSDOF 8
ENDMDL
