MODEL 1
REMARK VINA RESULT:      -7.8      0.000      0.000
REMARK  Name = 
REMARK  9 active torsions:
REMARK  status: ('A' for Active; 'I' for Inactive)
REMARK    1  A    between atoms: C_7  and  C_8
REMARK    2  A    between atoms: C_10  and  C_13
REMARK    3  A    between atoms: C_11  and  C_16
REMARK    4  A    between atoms: C_12  and  C_17
REMARK    5  A    between atoms: C_12  and  C_18
REMARK    6  A    between atoms: C_18  and  C_25
REMARK    7  A    between atoms: C_25  and  C_28
REMARK    8  A    between atoms: C_25  and  C_29
REMARK    9  A    between atoms: C_30  and  C_31
REMARK                            x       y       z     vdW  Elec       q    Type
REMARK                         _______ _______ _______ _____ _____    ______ ____
ROOT
ATOM      1  C   UNL     1       7.328  32.108  79.036  0.00  0.00    +0.000 C 
ATOM      2  N   UNL     1       6.568  32.488  77.805  0.00  0.00    +0.000 N 
ATOM      3  C   UNL     1       6.346  31.192  79.787  0.00  0.00    +0.000 C 
ATOM      4  C   UNL     1       7.080  32.761  76.530  0.00  0.00    +0.000 C 
ATOM      5  C   UNL     1       5.091  32.436  78.062  0.00  0.00    +0.000 C 
ATOM      6  C   UNL     1       4.977  31.813  79.494  0.00  0.00    +0.000 C 
ATOM      7  O   UNL     1       6.321  33.074  75.610  0.00  0.00    +0.000 OA
ENDROOT
BRANCH   1  14
ATOM      8 CL   UNL     1       9.372  36.968  82.073  0.00  0.00    +0.000 Cl
ATOM      9  C   UNL     1       8.795  35.565  81.267  0.00  0.00    +0.000 A 
ATOM     10  C   UNL     1       7.447  35.242  81.323  0.00  0.00    +0.000 A 
ATOM     11  C   UNL     1       9.672  34.754  80.558  0.00  0.00    +0.000 A 
ATOM     12  C   UNL     1       6.963  34.131  80.625  0.00  0.00    +0.000 A 
ATOM     13  C   UNL     1       9.188  33.618  79.895  0.00  0.00    +0.000 A 
ATOM     14  C   UNL     1       7.810  33.314  79.861  0.00  0.00    +0.000 A 
ENDBRANCH   1  14
BRANCH   4  15
ATOM     15  C   UNL     1       8.526  32.713  76.202  0.00  0.00    +0.000 A 
ATOM     16  C   UNL     1       9.284  33.890  76.129  0.00  0.00    +0.000 A 
ATOM     17  C   UNL     1       9.191  31.500  76.102  0.00  0.00    +0.000 A 
ATOM     18  C   UNL     1      10.659  33.835  75.839  0.00  0.00    +0.000 A 
ATOM     19  C   UNL     1      10.532  31.433  75.729  0.00  0.00    +0.000 A 
ATOM     20  C   UNL     1      11.286  32.603  75.594  0.00  0.00    +0.000 A 
BRANCH  20  21
ATOM     21  C   UNL     1      12.745  32.489  75.224  0.00  0.00    +0.000 C 
ATOM     22  F   UNL     1      13.571  33.231  76.009  0.00  0.00    +0.000 F 
ATOM     23  F   UNL     1      13.198  31.208  75.301  0.00  0.00    +0.000 F 
ATOM     24  F   UNL     1      12.980  32.889  73.943  0.00  0.00    +0.000 F 
ENDBRANCH  20  21
ENDBRANCH   4  15
BRANCH   3  25
ATOM     25  C   UNL     1       6.756  30.966  81.228  0.00  0.00    +0.000 C 
ATOM     26  O   UNL     1       7.879  30.607  81.547  0.00  0.00    +0.000 OA
ATOM     27  O   UNL     1       5.774  31.075  82.145  0.00  0.00    +0.000 OA
ENDBRANCH   3  25
BRANCH   5  28
ATOM     28  C   UNL     1       4.505  33.883  78.060  0.00  0.00    +0.000 C 
ATOM     29  O   UNL     1       5.198  34.892  78.118  0.00  0.00    +0.000 OA
ATOM     30  O   UNL     1       3.150  33.964  78.080  0.00  0.00    +0.000 OA
ENDBRANCH   5  28
BRANCH   5  31
ATOM     31  C   UNL     1       4.180  31.662  77.061  0.00  0.00    +0.000 C 
BRANCH  31  32
ATOM     32  C   UNL     1       3.397  30.412  77.510  0.00  0.00    +0.000 C 
ATOM     33  C   UNL     1       2.045  30.395  76.778  0.00  0.00    +0.000 C 
ATOM     34  C   UNL     1       4.129  29.107  77.230  0.00  0.00    +0.000 C 
ENDBRANCH  31  32
ENDBRANCH   5  31
TORSDOF 7
ENDMDL
MODEL 2
REMARK VINA RESULT:      -7.8      1.283      1.302
REMARK  Name = 
REMARK  9 active torsions:
REMARK  status: ('A' for Active; 'I' for Inactive)
REMARK    1  A    between atoms: C_7  and  C_8
REMARK    2  A    between atoms: C_10  and  C_13
REMARK    3  A    between atoms: C_11  and  C_16
REMARK    4  A    between atoms: C_12  and  C_17
REMARK    5  A    between atoms: C_12  and  C_18
REMARK    6  A    between atoms: C_18  and  C_25
REMARK    7  A    between atoms: C_25  and  C_28
REMARK    8  A    between atoms: C_25  and  C_29
REMARK    9  A    between atoms: C_30  and  C_31
REMARK                            x       y       z     vdW  Elec       q    Type
REMARK                         _______ _______ _______ _____ _____    ______ ____
ROOT
ATOM      1  C   UNL     1       7.019  33.110  78.867  0.00  0.00    +0.000 C 
ATOM      2  N   UNL     1       6.339  32.933  77.547  0.00  0.00    +0.000 N 
ATOM      3  C   UNL     1       6.080  32.386  79.847  0.00  0.00    +0.000 C 
ATOM      4  C   UNL     1       6.933  32.815  76.284  0.00  0.00    +0.000 C 
ATOM      5  C   UNL     1       4.860  32.773  77.735  0.00  0.00    +0.000 C 
ATOM      6  C   UNL     1       4.684  32.675  79.287  0.00  0.00    +0.000 C 
ATOM      7  O   UNL     1       6.232  32.683  75.278  0.00  0.00    +0.000 OA
ENDROOT
BRANCH   1  14
ATOM      8 CL   UNL     1       8.292  38.924  80.133  0.00  0.00    +0.000 Cl
ATOM      9  C   UNL     1       7.912  37.276  79.831  0.00  0.00    +0.000 A 
ATOM     10  C   UNL     1       6.609  36.915  79.522  0.00  0.00    +0.000 A 
ATOM     11  C   UNL     1       8.903  36.305  79.893  0.00  0.00    +0.000 A 
ATOM     12  C   UNL     1       6.304  35.582  79.223  0.00  0.00    +0.000 A 
ATOM     13  C   UNL     1       8.584  34.966  79.635  0.00  0.00    +0.000 A 
ATOM     14  C   UNL     1       7.286  34.581  79.231  0.00  0.00    +0.000 A 
ENDBRANCH   1  14
BRANCH   4  15
ATOM     15  C   UNL     1       8.399  32.854  76.063  0.00  0.00    +0.000 A 
ATOM     16  C   UNL     1       9.081  34.076  75.987  0.00  0.00    +0.000 A 
ATOM     17  C   UNL     1       9.150  31.687  76.070  0.00  0.00    +0.000 A 
ATOM     18  C   UNL     1      10.475  34.105  75.800  0.00  0.00    +0.000 A 
ATOM     19  C   UNL     1      10.517  31.698  75.798  0.00  0.00    +0.000 A 
ATOM     20  C   UNL     1      11.199  32.911  75.662  0.00  0.00    +0.000 A 
BRANCH  20  21
ATOM     21  C   UNL     1      12.686  32.883  75.403  0.00  0.00    +0.000 C 
ATOM     22  F   UNL     1      13.417  33.571  76.320  0.00  0.00    +0.000 F 
ATOM     23  F   UNL     1      13.185  31.616  75.394  0.00  0.00    +0.000 F 
ATOM     24  F   UNL     1      13.004  33.415  74.190  0.00  0.00    +0.000 F 
ENDBRANCH  20  21
ENDBRANCH   4  15
BRANCH   3  25
ATOM     25  C   UNL     1       6.377  32.731  81.292  0.00  0.00    +0.000 C 
ATOM     26  O   UNL     1       7.373  32.332  81.875  0.00  0.00    +0.000 OA
ATOM     27  O   UNL     1       5.418  33.419  81.944  0.00  0.00    +0.000 OA
ENDBRANCH   3  25
BRANCH   5  28
ATOM     28  C   UNL     1       4.119  34.035  77.191  0.00  0.00    +0.000 C 
ATOM     29  O   UNL     1       4.576  34.759  76.314  0.00  0.00    +0.000 OA
ATOM     30  O   UNL     1       2.956  34.345  77.818  0.00  0.00    +0.000 OA
ENDBRANCH   5  28
BRANCH   5  31
ATOM     31  C   UNL     1       4.137  31.583  77.032  0.00  0.00    +0.000 C 
BRANCH  31  32
ATOM     32  C   UNL     1       3.269  30.598  77.840  0.00  0.00    +0.000 C 
ATOM     33  C   UNL     1       1.838  30.637  77.281  0.00  0.00    +0.000 C 
ATOM     34  C   UNL     1       3.780  29.165  77.795  0.00  0.00    +0.000 C 
ENDBRANCH  31  32
ENDBRANCH   5  31
TORSDOF 7
ENDMDL
MODEL 3
REMARK VINA RESULT:      -7.5      2.838      5.474
REMARK  Name = 
REMARK  9 active torsions:
REMARK  status: ('A' for Active; 'I' for Inactive)
REMARK    1  A    between atoms: C_7  and  C_8
REMARK    2  A    between atoms: C_10  and  C_13
REMARK    3  A    between atoms: C_11  and  C_16
REMARK    4  A    between atoms: C_12  and  C_17
REMARK    5  A    between atoms: C_12  and  C_18
REMARK    6  A    between atoms: C_18  and  C_25
REMARK    7  A    between atoms: C_25  and  C_28
REMARK    8  A    between atoms: C_25  and  C_29
REMARK    9  A    between atoms: C_30  and  C_31
REMARK                            x       y       z     vdW  Elec       q    Type
REMARK                         _______ _______ _______ _____ _____    ______ ____
ROOT
ATOM      1  C   UNL     1       6.284  34.681  78.225  0.00  0.00    +0.000 C 
ATOM      2  N   UNL     1       7.259  35.032  79.304  0.00  0.00    +0.000 N 
ATOM      3  C   UNL     1       5.268  35.834  78.280  0.00  0.00    +0.000 C 
ATOM      4  C   UNL     1       8.632  34.757  79.343  0.00  0.00    +0.000 C 
ATOM      5  C   UNL     1       6.595  35.862  80.362  0.00  0.00    +0.000 C 
ATOM      6  C   UNL     1       5.177  36.163  79.773  0.00  0.00    +0.000 C 
ATOM      7  O   UNL     1       9.307  35.105  80.314  0.00  0.00    +0.000 OA
ENDROOT
BRANCH   1  14
ATOM      8 CL   UNL     1       4.051  29.062  78.912  0.00  0.00    +0.000 Cl
ATOM      9  C   UNL     1       4.635  30.662  78.683  0.00  0.00    +0.000 A 
ATOM     10  C   UNL     1       4.100  31.704  79.426  0.00  0.00    +0.000 A 
ATOM     11  C   UNL     1       5.640  30.915  77.759  0.00  0.00    +0.000 A 
ATOM     12  C   UNL     1       4.609  32.999  79.282  0.00  0.00    +0.000 A 
ATOM     13  C   UNL     1       6.116  32.221  77.588  0.00  0.00    +0.000 A 
ATOM     14  C   UNL     1       5.655  33.287  78.392  0.00  0.00    +0.000 A 
ENDBRANCH   1  14
BRANCH   4  15
ATOM     15  C   UNL     1       9.353  34.039  78.265  0.00  0.00    +0.000 A 
ATOM     16  C   UNL     1       9.782  34.715  77.114  0.00  0.00    +0.000 A 
ATOM     17  C   UNL     1       9.746  32.718  78.430  0.00  0.00    +0.000 A 
ATOM     18  C   UNL     1      10.485  34.033  76.106  0.00  0.00    +0.000 A 
ATOM     19  C   UNL     1      10.365  32.008  77.403  0.00  0.00    +0.000 A 
ATOM     20  C   UNL     1      10.745  32.659  76.225  0.00  0.00    +0.000 A 
BRANCH  20  21
ATOM     21  C   UNL     1      11.445  31.864  75.149  0.00  0.00    +0.000 C 
ATOM     22  F   UNL     1      11.530  32.510  73.956  0.00  0.00    +0.000 F 
ATOM     23  F   UNL     1      12.720  31.538  75.495  0.00  0.00    +0.000 F 
ATOM     24  F   UNL     1      10.816  30.683  74.895  0.00  0.00    +0.000 F 
ENDBRANCH  20  21
ENDBRANCH   4  15
BRANCH   3  25
ATOM     25  C   UNL     1       3.996  35.518  77.519  0.00  0.00    +0.000 C 
ATOM     26  O   UNL     1       3.999  35.095  76.373  0.00  0.00    +0.000 OA
ATOM     27  O   UNL     1       2.842  35.838  78.139  0.00  0.00    +0.000 OA
ENDBRANCH   3  25
BRANCH   5  28
ATOM     28  C   UNL     1       6.463  35.032  81.677  0.00  0.00    +0.000 C 
ATOM     29  O   UNL     1       6.593  33.814  81.722  0.00  0.00    +0.000 OA
ATOM     30  O   UNL     1       6.099  35.736  82.779  0.00  0.00    +0.000 OA
ENDBRANCH   5  28
BRANCH   5  31
ATOM     31  C   UNL     1       7.282  37.184  80.823  0.00  0.00    +0.000 C 
BRANCH  31  32
ATOM     32  C   UNL     1       7.514  38.340  79.830  0.00  0.00    +0.000 C 
ATOM     33  C   UNL     1       7.119  39.658  80.516  0.00  0.00    +0.000 C 
ATOM     34  C   UNL     1       8.954  38.445  79.347  0.00  0.00    +0.000 C 
ENDBRANCH  31  32
ENDBRANCH   5  31
TORSDOF 7
ENDMDL
MODEL 4
REMARK VINA RESULT:      -7.3      4.144      6.769
REMARK  Name = 
REMARK  9 active torsions:
REMARK  status: ('A' for Active; 'I' for Inactive)
REMARK    1  A    between atoms: C_7  and  C_8
REMARK    2  A    between atoms: C_10  and  C_13
REMARK    3  A    between atoms: C_11  and  C_16
REMARK    4  A    between atoms: C_12  and  C_17
REMARK    5  A    between atoms: C_12  and  C_18
REMARK    6  A    between atoms: C_18  and  C_25
REMARK    7  A    between atoms: C_25  and  C_28
REMARK    8  A    between atoms: C_25  and  C_29
REMARK    9  A    between atoms: C_30  and  C_31
REMARK                            x       y       z     vdW  Elec       q    Type
REMARK                         _______ _______ _______ _____ _____    ______ ____
ROOT
ATOM      1  C   UNL     1       8.171  34.124  77.331  0.00  0.00    +0.000 C 
ATOM      2  N   UNL     1       8.973  33.056  76.657  0.00  0.00    +0.000 N 
ATOM      3  C   UNL     1       8.615  35.406  76.606  0.00  0.00    +0.000 C 
ATOM      4  C   UNL     1       8.611  31.722  76.434  0.00  0.00    +0.000 C 
ATOM      5  C   UNL     1      10.249  33.624  76.110  0.00  0.00    +0.000 C 
ATOM      6  C   UNL     1      10.101  35.167  76.326  0.00  0.00    +0.000 C 
ATOM      7  O   UNL     1       9.391  30.953  75.868  0.00  0.00    +0.000 OA
ENDROOT
BRANCH   1  14
ATOM      8 CL   UNL     1       8.784  34.077  83.384  0.00  0.00    +0.000 Cl
ATOM      9  C   UNL     1       8.613  34.150  81.676  0.00  0.00    +0.000 A 
ATOM     10  C   UNL     1       9.732  34.338  80.879  0.00  0.00    +0.000 A 
ATOM     11  C   UNL     1       7.360  34.020  81.091  0.00  0.00    +0.000 A 
ATOM     12  C   UNL     1       9.606  34.344  79.485  0.00  0.00    +0.000 A 
ATOM     13  C   UNL     1       7.234  34.071  79.697  0.00  0.00    +0.000 A 
ATOM     14  C   UNL     1       8.364  34.171  78.856  0.00  0.00    +0.000 A 
ENDBRANCH   1  14
BRANCH   4  15
ATOM     15  C   UNL     1       7.311  31.146  76.857  0.00  0.00    +0.000 A 
ATOM     16  C   UNL     1       7.175  30.524  78.106  0.00  0.00    +0.000 A 
ATOM     17  C   UNL     1       6.168  31.334  76.093  0.00  0.00    +0.000 A 
ATOM     18  C   UNL     1       5.934  30.000  78.510  0.00  0.00    +0.000 A 
ATOM     19  C   UNL     1       4.954  30.744  76.441  0.00  0.00    +0.000 A 
ATOM     20  C   UNL     1       4.821  30.070  77.658  0.00  0.00    +0.000 A 
BRANCH  20  21
ATOM     21  C   UNL     1       3.481  29.475  78.016  0.00  0.00    +0.000 C 
ATOM     22  F   UNL     1       3.564  28.300  78.696  0.00  0.00    +0.000 F 
ATOM     23  F   UNL     1       2.736  30.309  78.792  0.00  0.00    +0.000 F 
ATOM     24  F   UNL     1       2.723  29.219  76.913  0.00  0.00    +0.000 F 
ENDBRANCH  20  21
ENDBRANCH   4  15
BRANCH   3  25
ATOM     25  C   UNL     1       8.201  36.661  77.350  0.00  0.00    +0.000 C 
ATOM     26  O   UNL     1       7.035  37.006  77.464  0.00  0.00    +0.000 OA
ATOM     27  O   UNL     1       9.205  37.446  77.788  0.00  0.00    +0.000 OA
ENDBRANCH   3  25
BRANCH   5  28
ATOM     28  C   UNL     1      11.462  33.083  76.930  0.00  0.00    +0.000 C 
ATOM     29  O   UNL     1      11.416  32.063  77.609  0.00  0.00    +0.000 OA
ATOM     30  O   UNL     1      12.569  33.868  76.924  0.00  0.00    +0.000 OA
ENDBRANCH   5  28
BRANCH   5  31
ATOM     31  C   UNL     1      10.634  33.319  74.630  0.00  0.00    +0.000 C 
BRANCH  31  32
ATOM     32  C   UNL     1      12.049  32.825  74.268  0.00  0.00    +0.000 C 
ATOM     33  C   UNL     1      11.948  31.371  73.779  0.00  0.00    +0.000 C 
ATOM     34  C   UNL     1      12.726  33.664  73.193  0.00  0.00    +0.000 C 
ENDBRANCH  31  32
ENDBRANCH   5  31
TORSDOF 7
ENDMDL
MODEL 5
REMARK VINA RESULT:      -7.2      3.973      5.919
REMARK  Name = 
REMARK  9 active torsions:
REMARK  status: ('A' for Active; 'I' for Inactive)
REMARK    1  A    between atoms: C_7  and  C_8
REMARK    2  A    between atoms: C_10  and  C_13
REMARK    3  A    between atoms: C_11  and  C_16
REMARK    4  A    between atoms: C_12  and  C_17
REMARK    5  A    between atoms: C_12  and  C_18
REMARK    6  A    between atoms: C_18  and  C_25
REMARK    7  A    between atoms: C_25  and  C_28
REMARK    8  A    between atoms: C_25  and  C_29
REMARK    9  A    between atoms: C_30  and  C_31
REMARK                            x       y       z     vdW  Elec       q    Type
REMARK                         _______ _______ _______ _____ _____    ______ ____
ROOT
ATOM      1  C   UNL     1       7.443  32.911  79.213  0.00  0.00    +0.000 C 
ATOM      2  N   UNL     1       7.504  33.240  77.755  0.00  0.00    +0.000 N 
ATOM      3  C   UNL     1       8.218  31.585  79.307  0.00  0.00    +0.000 C 
ATOM      4  C   UNL     1       7.539  34.508  77.162  0.00  0.00    +0.000 C 
ATOM      5  C   UNL     1       7.644  31.989  76.940  0.00  0.00    +0.000 C 
ATOM      6  C   UNL     1       7.856  30.863  78.007  0.00  0.00    +0.000 C 
ATOM      7  O   UNL     1       7.579  34.619  75.935  0.00  0.00    +0.000 OA
ENDROOT
BRANCH   1  14
ATOM      8 CL   UNL     1       1.766  32.897  81.404  0.00  0.00    +0.000 Cl
ATOM      9  C   UNL     1       3.381  32.852  80.817  0.00  0.00    +0.000 A 
ATOM     10  C   UNL     1       3.710  32.004  79.770  0.00  0.00    +0.000 A 
ATOM     11  C   UNL     1       4.356  33.662  81.385  0.00  0.00    +0.000 A 
ATOM     12  C   UNL     1       5.010  32.001  79.253  0.00  0.00    +0.000 A 
ATOM     13  C   UNL     1       5.666  33.624  80.891  0.00  0.00    +0.000 A 
ATOM     14  C   UNL     1       6.011  32.838  79.770  0.00  0.00    +0.000 A 
ENDBRANCH   1  14
BRANCH   4  15
ATOM     15  C   UNL     1       7.518  35.774  77.935  0.00  0.00    +0.000 A 
ATOM     16  C   UNL     1       8.661  36.581  78.020  0.00  0.00    +0.000 A 
ATOM     17  C   UNL     1       6.334  36.260  78.472  0.00  0.00    +0.000 A 
ATOM     18  C   UNL     1       8.627  37.791  78.737  0.00  0.00    +0.000 A 
ATOM     19  C   UNL     1       6.308  37.410  79.256  0.00  0.00    +0.000 A 
ATOM     20  C   UNL     1       7.457  38.194  79.398  0.00  0.00    +0.000 A 
BRANCH  20  21
ATOM     21  C   UNL     1       7.380  39.453  80.227  0.00  0.00    +0.000 C 
ATOM     22  F   UNL     1       6.754  40.486  79.602  0.00  0.00    +0.000 F 
ATOM     23  F   UNL     1       6.714  39.260  81.399  0.00  0.00    +0.000 F 
ATOM     24  F   UNL     1       8.614  39.913  80.574  0.00  0.00    +0.000 F 
ENDBRANCH  20  21
ENDBRANCH   4  15
BRANCH   3  25
ATOM     25  C   UNL     1       7.990  30.877  80.628  0.00  0.00    +0.000 C 
ATOM     26  O   UNL     1       8.336  31.351  81.700  0.00  0.00    +0.000 OA
ATOM     27  O   UNL     1       7.480  29.632  80.550  0.00  0.00    +0.000 OA
ENDBRANCH   3  25
BRANCH   5  28
ATOM     28  C   UNL     1       6.328  31.730  76.142  0.00  0.00    +0.000 C 
ATOM     29  O   UNL     1       5.545  32.618  75.825  0.00  0.00    +0.000 OA
ATOM     30  O   UNL     1       6.045  30.427  75.889  0.00  0.00    +0.000 OA
ENDBRANCH   5  28
BRANCH   5  31
ATOM     31  C   UNL     1       8.760  31.921  75.852  0.00  0.00    +0.000 C 
BRANCH  31  32
ATOM     32  C   UNL     1      10.237  31.728  76.248  0.00  0.00    +0.000 C 
ATOM     33  C   UNL     1      11.037  31.368  74.986  0.00  0.00    +0.000 C 
ATOM     34  C   UNL     1      10.857  32.961  76.893  0.00  0.00    +0.000 C 
ENDBRANCH  31  32
ENDBRANCH   5  31
TORSDOF 7
ENDMDL
MODEL 6
REMARK VINA RESULT:      -7.1      3.500      5.921
REMARK  Name = 
REMARK  9 active torsions:
REMARK  status: ('A' for Active; 'I' for Inactive)
REMARK    1  A    between atoms: C_7  and  C_8
REMARK    2  A    between atoms: C_10  and  C_13
REMARK    3  A    between atoms: C_11  and  C_16
REMARK    4  A    between atoms: C_12  and  C_17
REMARK    5  A    between atoms: C_12  and  C_18
REMARK    6  A    between atoms: C_18  and  C_25
REMARK    7  A    between atoms: C_25  and  C_28
REMARK    8  A    between atoms: C_25  and  C_29
REMARK    9  A    between atoms: C_30  and  C_31
REMARK                            x       y       z     vdW  Elec       q    Type
REMARK                         _______ _______ _______ _____ _____    ______ ____
ROOT
ATOM      1  C   UNL     1       6.230  33.645  77.367  0.00  0.00    +0.000 C 
ATOM      2  N   UNL     1       5.864  33.188  78.744  0.00  0.00    +0.000 N 
ATOM      3  C   UNL     1       5.088  33.090  76.498  0.00  0.00    +0.000 C 
ATOM      4  C   UNL     1       6.122  33.833  79.960  0.00  0.00    +0.000 C 
ATOM      5  C   UNL     1       5.041  31.936  78.680  0.00  0.00    +0.000 C 
ATOM      6  C   UNL     1       4.758  31.746  77.153  0.00  0.00    +0.000 C 
ATOM      7  O   UNL     1       5.764  33.321  81.023  0.00  0.00    +0.000 OA
ENDROOT
BRANCH   1  14
ATOM      8 CL   UNL     1      11.878  31.998  75.814  0.00  0.00    +0.000 Cl
ATOM      9  C   UNL     1      10.268  32.464  76.195  0.00  0.00    +0.000 A 
ATOM     10  C   UNL     1       9.264  31.507  76.230  0.00  0.00    +0.000 A 
ATOM     11  C   UNL     1       9.969  33.792  76.469  0.00  0.00    +0.000 A 
ATOM     12  C   UNL     1       7.963  31.871  76.591  0.00  0.00    +0.000 A 
ATOM     13  C   UNL     1       8.655  34.158  76.789  0.00  0.00    +0.000 A 
ATOM     14  C   UNL     1       7.631  33.195  76.919  0.00  0.00    +0.000 A 
ENDBRANCH   1  14
BRANCH   4  15
ATOM     15  C   UNL     1       6.834  35.131  80.062  0.00  0.00    +0.000 A 
ATOM     16  C   UNL     1       8.204  35.175  80.355  0.00  0.00    +0.000 A 
ATOM     17  C   UNL     1       6.198  36.319  79.730  0.00  0.00    +0.000 A 
ATOM     18  C   UNL     1       8.878  36.408  80.428  0.00  0.00    +0.000 A 
ATOM     19  C   UNL     1       6.830  37.551  79.884  0.00  0.00    +0.000 A 
ATOM     20  C   UNL     1       8.183  37.611  80.234  0.00  0.00    +0.000 A 
BRANCH  20  21
ATOM     21  C   UNL     1       8.841  38.964  80.356  0.00  0.00    +0.000 C 
ATOM     22  F   UNL     1       9.744  39.227  79.374  0.00  0.00    +0.000 F 
ATOM     23  F   UNL     1       7.939  39.983  80.324  0.00  0.00    +0.000 F 
ATOM     24  F   UNL     1       9.514  39.100  81.533  0.00  0.00    +0.000 F 
ENDBRANCH  20  21
ENDBRANCH   4  15
BRANCH   3  25
ATOM     25  C   UNL     1       5.422  33.124  75.020  0.00  0.00    +0.000 C 
ATOM     26  O   UNL     1       5.826  34.130  74.456  0.00  0.00    +0.000 OA
ATOM     27  O   UNL     1       5.139  32.004  74.325  0.00  0.00    +0.000 OA
ENDBRANCH   3  25
BRANCH   5  28
ATOM     28  C   UNL     1       5.870  30.731  79.225  0.00  0.00    +0.000 C 
ATOM     29  O   UNL     1       7.061  30.803  79.506  0.00  0.00    +0.000 OA
ATOM     30  O   UNL     1       5.208  29.548  79.289  0.00  0.00    +0.000 OA
ENDBRANCH   5  28
BRANCH   5  31
ATOM     31  C   UNL     1       3.709  31.870  79.490  0.00  0.00    +0.000 C 
BRANCH  31  32
ATOM     32  C   UNL     1       2.354  32.126  78.802  0.00  0.00    +0.000 C 
ATOM     33  C   UNL     1       1.561  30.809  78.781  0.00  0.00    +0.000 C 
ATOM     34  C   UNL     1       1.518  33.197  79.490  0.00  0.00    +0.000 C 
ENDBRANCH  31  32
ENDBRANCH   5  31
TORSDOF 7
ENDMDL
MODEL 7
REMARK VINA RESULT:      -7.1      4.407      6.798
REMARK  Name = 
REMARK  9 active torsions:
REMARK  status: ('A' for Active; 'I' for Inactive)
REMARK    1  A    between atoms: C_7  and  C_8
REMARK    2  A    between atoms: C_10  and  C_13
REMARK    3  A    between atoms: C_11  and  C_16
REMARK    4  A    between atoms: C_12  and  C_17
REMARK    5  A    between atoms: C_12  and  C_18
REMARK    6  A    between atoms: C_18  and  C_25
REMARK    7  A    between atoms: C_25  and  C_28
REMARK    8  A    between atoms: C_25  and  C_29
REMARK    9  A    between atoms: C_30  and  C_31
REMARK                            x       y       z     vdW  Elec       q    Type
REMARK                         _______ _______ _______ _____ _____    ______ ____
ROOT
ATOM      1  C   UNL     1       8.421  34.257  79.670  0.00  0.00    +0.000 C 
ATOM      2  N   UNL     1       8.903  34.696  78.324  0.00  0.00    +0.000 N 
ATOM      3  C   UNL     1       9.340  33.067  80.001  0.00  0.00    +0.000 C 
ATOM      4  C   UNL     1       8.911  35.993  77.796  0.00  0.00    +0.000 C 
ATOM      5  C   UNL     1       9.520  33.546  77.585  0.00  0.00    +0.000 C 
ATOM      6  C   UNL     1       9.559  32.393  78.644  0.00  0.00    +0.000 C 
ATOM      7  O   UNL     1       9.334  36.197  76.656  0.00  0.00    +0.000 OA
ENDROOT
BRANCH   1  14
ATOM      8 CL   UNL     1       2.434  33.183  79.803  0.00  0.00    +0.000 Cl
ATOM      9  C   UNL     1       4.133  33.438  79.800  0.00  0.00    +0.000 A 
ATOM     10  C   UNL     1       4.938  32.708  78.938  0.00  0.00    +0.000 A 
ATOM     11  C   UNL     1       4.703  34.372  80.655  0.00  0.00    +0.000 A 
ATOM     12  C   UNL     1       6.315  32.949  78.893  0.00  0.00    +0.000 A 
ATOM     13  C   UNL     1       6.088  34.580  80.636  0.00  0.00    +0.000 A 
ATOM     14  C   UNL     1       6.922  33.917  79.709  0.00  0.00    +0.000 A 
ENDBRANCH   1  14
BRANCH   4  15
ATOM     15  C   UNL     1       8.416  37.180  78.535  0.00  0.00    +0.000 A 
ATOM     16  C   UNL     1       7.076  37.581  78.433  0.00  0.00    +0.000 A 
ATOM     17  C   UNL     1       9.225  37.835  79.453  0.00  0.00    +0.000 A 
ATOM     18  C   UNL     1       6.608  38.693  79.154  0.00  0.00    +0.000 A 
ATOM     19  C   UNL     1       8.799  38.989  80.106  0.00  0.00    +0.000 A 
ATOM     20  C   UNL     1       7.480  39.433  79.966  0.00  0.00    +0.000 A 
BRANCH  20  21
ATOM     21  C   UNL     1       7.046  40.669  80.718  0.00  0.00    +0.000 C 
ATOM     22  F   UNL     1       6.433  41.600  79.938  0.00  0.00    +0.000 F 
ATOM     23  F   UNL     1       6.174  40.382  81.722  0.00  0.00    +0.000 F 
ATOM     24  F   UNL     1       8.097  41.303  81.308  0.00  0.00    +0.000 F 
ENDBRANCH  20  21
ENDBRANCH   4  15
BRANCH   3  25
ATOM     25  C   UNL     1       8.815  32.238  81.156  0.00  0.00    +0.000 C 
ATOM     26  O   UNL     1       8.824  32.635  82.312  0.00  0.00    +0.000 OA
ATOM     27  O   UNL     1       8.434  30.981  80.855  0.00  0.00    +0.000 OA
ENDBRANCH   3  25
BRANCH   5  28
ATOM     28  C   UNL     1       8.608  33.139  76.385  0.00  0.00    +0.000 C 
ATOM     29  O   UNL     1       7.982  33.948  75.709  0.00  0.00    +0.000 OA
ATOM     30  O   UNL     1       8.471  31.804  76.181  0.00  0.00    +0.000 OA
ENDBRANCH   5  28
BRANCH   5  31
ATOM     31  C   UNL     1      10.926  33.735  76.938  0.00  0.00    +0.000 C 
BRANCH  31  32
ATOM     32  C   UNL     1      11.204  33.256  75.499  0.00  0.00    +0.000 C 
ATOM     33  C   UNL     1      11.858  34.408  74.719  0.00  0.00    +0.000 C 
ATOM     34  C   UNL     1      12.110  32.034  75.432  0.00  0.00    +0.000 C 
ENDBRANCH  31  32
ENDBRANCH   5  31
TORSDOF 7
ENDMDL
MODEL 8
REMARK VINA RESULT:      -7.0      1.488      2.174
REMARK  Name = 
REMARK  9 active torsions:
REMARK  status: ('A' for Active; 'I' for Inactive)
REMARK    1  A    between atoms: C_7  and  C_8
REMARK    2  A    between atoms: C_10  and  C_13
REMARK    3  A    between atoms: C_11  and  C_16
REMARK    4  A    between atoms: C_12  and  C_17
REMARK    5  A    between atoms: C_12  and  C_18
REMARK    6  A    between atoms: C_18  and  C_25
REMARK    7  A    between atoms: C_25  and  C_28
REMARK    8  A    between atoms: C_25  and  C_29
REMARK    9  A    between atoms: C_30  and  C_31
REMARK                            x       y       z     vdW  Elec       q    Type
REMARK                         _______ _______ _______ _____ _____    ______ ____
ROOT
ATOM      1  C   UNL     1       7.040  33.826  79.495  0.00  0.00    +0.000 C 
ATOM      2  N   UNL     1       6.264  34.122  78.251  0.00  0.00    +0.000 N 
ATOM      3  C   UNL     1       5.972  33.266  80.450  0.00  0.00    +0.000 C 
ATOM      4  C   UNL     1       6.711  34.061  76.925  0.00  0.00    +0.000 C 
ATOM      5  C   UNL     1       4.829  34.404  78.581  0.00  0.00    +0.000 C 
ATOM      6  C   UNL     1       4.720  34.079  80.109  0.00  0.00    +0.000 C 
ATOM      7  O   UNL     1       5.949  34.347  75.999  0.00  0.00    +0.000 OA
ENDROOT
BRANCH   1  14
ATOM      8 CL   UNL     1       9.798  38.745  81.783  0.00  0.00    +0.000 Cl
ATOM      9  C   UNL     1       9.062  37.352  81.095  0.00  0.00    +0.000 A 
ATOM     10  C   UNL     1       9.544  36.091  81.412  0.00  0.00    +0.000 A 
ATOM     11  C   UNL     1       7.987  37.484  80.226  0.00  0.00    +0.000 A 
ATOM     12  C   UNL     1       8.915  34.951  80.898  0.00  0.00    +0.000 A 
ATOM     13  C   UNL     1       7.388  36.341  79.680  0.00  0.00    +0.000 A 
ATOM     14  C   UNL     1       7.799  35.043  80.053  0.00  0.00    +0.000 A 
ENDBRANCH   1  14
BRANCH   4  15
ATOM     15  C   UNL     1       8.092  33.676  76.545  0.00  0.00    +0.000 A 
ATOM     16  C   UNL     1       8.395  32.355  76.185  0.00  0.00    +0.000 A 
ATOM     17  C   UNL     1       9.083  34.636  76.398  0.00  0.00    +0.000 A 
ATOM     18  C   UNL     1       9.702  32.002  75.804  0.00  0.00    +0.000 A 
ATOM     19  C   UNL     1      10.400  34.286  76.107  0.00  0.00    +0.000 A 
ATOM     20  C   UNL     1      10.727  32.961  75.804  0.00  0.00    +0.000 A 
BRANCH  20  21
ATOM     21  C   UNL     1      12.158  32.626  75.459  0.00  0.00    +0.000 C 
ATOM     22  F   UNL     1      12.520  32.990  74.199  0.00  0.00    +0.000 F 
ATOM     23  F   UNL     1      13.045  33.229  76.297  0.00  0.00    +0.000 F 
ATOM     24  F   UNL     1      12.407  31.290  75.553  0.00  0.00    +0.000 F 
ENDBRANCH  20  21
ENDBRANCH   4  15
BRANCH   3  25
ATOM     25  C   UNL     1       6.450  33.224  81.888  0.00  0.00    +0.000 C 
ATOM     26  O   UNL     1       7.186  32.347  82.314  0.00  0.00    +0.000 OA
ATOM     27  O   UNL     1       5.926  34.153  82.712  0.00  0.00    +0.000 OA
ENDBRANCH   3  25
BRANCH   5  28
ATOM     28  C   UNL     1       4.516  35.913  78.333  0.00  0.00    +0.000 C 
ATOM     29  O   UNL     1       4.845  36.511  77.314  0.00  0.00    +0.000 OA
ATOM     30  O   UNL     1       3.927  36.566  79.366  0.00  0.00    +0.000 OA
ENDBRANCH   5  28
BRANCH   5  31
ATOM     31  C   UNL     1       3.713  33.657  77.788  0.00  0.00    +0.000 C 
BRANCH  31  32
ATOM     32  C   UNL     1       3.530  32.133  77.930  0.00  0.00    +0.000 C 
ATOM     33  C   UNL     1       2.025  31.822  77.951  0.00  0.00    +0.000 C 
ATOM     34  C   UNL     1       4.184  31.338  76.808  0.00  0.00    +0.000 C 
ENDBRANCH  31  32
ENDBRANCH   5  31
TORSDOF 7
ENDMDL
MODEL 9
REMARK VINA RESULT:      -6.9      1.942      2.527
REMARK  Name = 
REMARK  9 active torsions:
REMARK  status: ('A' for Active; 'I' for Inactive)
REMARK    1  A    between atoms: C_7  and  C_8
REMARK    2  A    between atoms: C_10  and  C_13
REMARK    3  A    between atoms: C_11  and  C_16
REMARK    4  A    between atoms: C_12  and  C_17
REMARK    5  A    between atoms: C_12  and  C_18
REMARK    6  A    between atoms: C_18  and  C_25
REMARK    7  A    between atoms: C_25  and  C_28
REMARK    8  A    between atoms: C_25  and  C_29
REMARK    9  A    between atoms: C_30  and  C_31
REMARK                            x       y       z     vdW  Elec       q    Type
REMARK                         _______ _______ _______ _____ _____    ______ ____
ROOT
ATOM      1  C   UNL     1       7.953  33.010  79.637  0.00  0.00    +0.000 C 
ATOM      2  N   UNL     1       7.120  32.198  78.697  0.00  0.00    +0.000 N 
ATOM      3  C   UNL     1       7.673  32.362  81.004  0.00  0.00    +0.000 C 
ATOM      4  C   UNL     1       7.389  31.894  77.356  0.00  0.00    +0.000 C 
ATOM      5  C   UNL     1       5.941  31.610  79.413  0.00  0.00    +0.000 C 
ATOM      6  C   UNL     1       6.199  31.959  80.917  0.00  0.00    +0.000 C 
ATOM      7  O   UNL     1       6.594  31.215  76.702  0.00  0.00    +0.000 OA
ENDROOT
BRANCH   1  14
ATOM      8 CL   UNL     1       6.875  38.983  79.197  0.00  0.00    +0.000 Cl
ATOM      9  C   UNL     1       7.182  37.302  79.381  0.00  0.00    +0.000 A 
ATOM     10  C   UNL     1       6.143  36.444  79.709  0.00  0.00    +0.000 A 
ATOM     11  C   UNL     1       8.464  36.800  79.199  0.00  0.00    +0.000 A 
ATOM     12  C   UNL     1       6.375  35.068  79.807  0.00  0.00    +0.000 A 
ATOM     13  C   UNL     1       8.700  35.426  79.341  0.00  0.00    +0.000 A 
ATOM     14  C   UNL     1       7.648  34.517  79.588  0.00  0.00    +0.000 A 
ENDBRANCH   1  14
BRANCH   4  15
ATOM     15  C   UNL     1       8.600  32.360  76.639  0.00  0.00    +0.000 A 
ATOM     16  C   UNL     1       8.750  33.709  76.286  0.00  0.00    +0.000 A 
ATOM     17  C   UNL     1       9.673  31.506  76.426  0.00  0.00    +0.000 A 
ATOM     18  C   UNL     1       9.912  34.148  75.626  0.00  0.00    +0.000 A 
ATOM     19  C   UNL     1      10.790  31.908  75.696  0.00  0.00    +0.000 A 
ATOM     20  C   UNL     1      10.925  33.238  75.288  0.00  0.00    +0.000 A 
BRANCH  20  21
ATOM     21  C   UNL     1      12.166  33.643  74.530  0.00  0.00    +0.000 C 
ATOM     22  F   UNL     1      12.342  32.967  73.362  0.00  0.00    +0.000 F 
ATOM     23  F   UNL     1      12.165  34.965  74.205  0.00  0.00    +0.000 F 
ATOM     24  F   UNL     1      13.299  33.441  75.258  0.00  0.00    +0.000 F 
ENDBRANCH  20  21
ENDBRANCH   4  15
BRANCH   3  25
ATOM     25  C   UNL     1       8.130  33.232  82.158  0.00  0.00    +0.000 C 
ATOM     26  O   UNL     1       7.353  33.727  82.960  0.00  0.00    +0.000 OA
ATOM     27  O   UNL     1       9.445  33.527  82.191  0.00  0.00    +0.000 OA
ENDBRANCH   3  25
BRANCH   5  28
ATOM     28  C   UNL     1       4.629  32.296  78.921  0.00  0.00    +0.000 C 
ATOM     29  O   UNL     1       4.582  33.050  77.956  0.00  0.00    +0.000 OA
ATOM     30  O   UNL     1       3.532  32.079  79.691  0.00  0.00    +0.000 OA
ENDBRANCH   5  28
BRANCH   5  31
ATOM     31  C   UNL     1       5.648  30.086  79.254  0.00  0.00    +0.000 C 
BRANCH  31  32
ATOM     32  C   UNL     1       5.415  29.194  80.489  0.00  0.00    +0.000 C 
ATOM     33  C   UNL     1       4.138  28.369  80.260  0.00  0.00    +0.000 C 
ATOM     34  C   UNL     1       6.571  28.248  80.781  0.00  0.00    +0.000 C 
ENDBRANCH  31  32
ENDBRANCH   5  31
TORSDOF 7
ENDMDL
