MODEL 1
REMARK VINA RESULT:      -7.4      0.000      0.000
REMARK  Name = 
REMARK  9 active torsions:
REMARK  status: ('A' for Active; 'I' for Inactive)
REMARK    1  A    between atoms: C_2  and  C_5
REMARK    2  A    between atoms: C_10  and  C_11
REMARK    3  A    between atoms: C_14  and  C_16
REMARK    4  A    between atoms: C_14  and  C_18
REMARK    5  A    between atoms: C_15  and  C_19
REMARK    6  A    between atoms: C_18  and  C_23
REMARK    7  A    between atoms: C_20  and  C_26
REMARK    8  A    between atoms: C_23  and  C_27
REMARK    9  A    between atoms: C_27  and  C_32
REMARK                            x       y       z     vdW  Elec       q    Type
REMARK                         _______ _______ _______ _____ _____    ______ ____
ROOT
ATOM      1  C   UNL     1       8.430  30.881  79.025  0.00  0.00    +0.000 C 
ATOM      2  O   UNL     1       8.989  29.862  79.433  0.00  0.00    +0.000 OA
ATOM      3  N   UNL     1       7.152  31.230  79.493  0.00  0.00    +0.000 N 
ATOM      4  C   UNL     1       6.513  30.546  80.669  0.00  0.00    +0.000 C 
ATOM      5  C   UNL     1       6.420  32.501  79.201  0.00  0.00    +0.000 C 
ATOM      6  C   UNL     1       5.038  31.058  80.531  0.00  0.00    +0.000 C 
ATOM      7  C   UNL     1       5.178  32.504  80.099  0.00  0.00    +0.000 C 
ENDROOT
BRANCH   1  13
ATOM      8  C   UNL     1      10.790  32.842  75.975  0.00  0.00    +0.000 A 
ATOM      9  C   UNL     1      10.708  33.385  77.266  0.00  0.00    +0.000 A 
ATOM     10  C   UNL     1       9.966  31.758  75.660  0.00  0.00    +0.000 A 
ATOM     11  C   UNL     1       9.904  32.768  78.243  0.00  0.00    +0.000 A 
ATOM     12  C   UNL     1       9.087  31.225  76.601  0.00  0.00    +0.000 A 
ATOM     13  C   UNL     1       9.136  31.631  77.931  0.00  0.00    +0.000 A 
BRANCH   8  15
ATOM     14  F   UNL     1      13.014  33.503  75.339  0.00  0.00    +0.000 F 
ATOM     15  C   UNL     1      11.730  33.361  74.915  0.00  0.00    +0.000 C 
ATOM     16  F   UNL     1      11.352  34.586  74.446  0.00  0.00    +0.000 F 
ATOM     17  F   UNL     1      11.780  32.551  73.820  0.00  0.00    +0.000 F 
ENDBRANCH   8  15
ENDBRANCH   1  13
BRANCH   5  18
ATOM     18  C   UNL     1       6.154  32.798  77.741  0.00  0.00    +0.000 A 
ATOM     19  C   UNL     1       5.544  31.896  76.863  0.00  0.00    +0.000 A 
ATOM     20  C   UNL     1       6.607  34.036  77.237  0.00  0.00    +0.000 A 
ATOM     21  C   UNL     1       5.459  32.201  75.498  0.00  0.00    +0.000 A 
ATOM     22  C   UNL     1       6.540  34.326  75.877  0.00  0.00    +0.000 A 
ATOM     23  C   UNL     1       5.975  33.402  75.006  0.00  0.00    +0.000 A 
ENDBRANCH   5  18
BRANCH   4  24
ATOM     24  C   UNL     1       6.355  28.994  80.755  0.00  0.00    +0.000 C 
ATOM     25  O   UNL     1       5.500  28.389  80.116  0.00  0.00    +0.000 OA
ATOM     26  O   UNL     1       7.124  28.340  81.639  0.00  0.00    +0.000 OA
ENDBRANCH   4  24
BRANCH   7  27
ATOM     27  C   UNL     1       3.974  33.226  79.539  0.00  0.00    +0.000 C 
ATOM     28  O   UNL     1       3.012  32.610  79.094  0.00  0.00    +0.000 OA
ATOM     29  O   UNL     1       3.991  34.566  79.593  0.00  0.00    +0.000 OA
ENDBRANCH   7  27
BRANCH   4  30
ATOM     30  C   UNL     1       7.078  31.057  82.034  0.00  0.00    +0.000 C 
BRANCH  30  31
ATOM     31  C   UNL     1       8.351  31.905  81.996  0.00  0.00    +0.000 C 
BRANCH  31  32
ATOM     32  C   UNL     1       8.034  33.349  82.404  0.00  0.00    +0.000 C 
ATOM     33  C   UNL     1       8.663  34.359  81.452  0.00  0.00    +0.000 C 
ENDBRANCH  31  32
ENDBRANCH  30  31
ENDBRANCH   4  30
TORSDOF 8
ENDMDL
MODEL 2
REMARK VINA RESULT:      -7.0      2.830      4.138
REMARK  Name = 
REMARK  9 active torsions:
REMARK  status: ('A' for Active; 'I' for Inactive)
REMARK    1  A    between atoms: C_2  and  C_5
REMARK    2  A    between atoms: C_10  and  C_11
REMARK    3  A    between atoms: C_14  and  C_16
REMARK    4  A    between atoms: C_14  and  C_18
REMARK    5  A    between atoms: C_15  and  C_19
REMARK    6  A    between atoms: C_18  and  C_23
REMARK    7  A    between atoms: C_20  and  C_26
REMARK    8  A    between atoms: C_23  and  C_27
REMARK    9  A    between atoms: C_27  and  C_32
REMARK                            x       y       z     vdW  Elec       q    Type
REMARK                         _______ _______ _______ _____ _____    ______ ____
ROOT
ATOM      1  C   UNL     1       8.542  34.912  79.081  0.00  0.00    +0.000 C 
ATOM      2  O   UNL     1       9.301  35.185  80.013  0.00  0.00    +0.000 OA
ATOM      3  N   UNL     1       7.182  35.259  79.144  0.00  0.00    +0.000 N 
ATOM      4  C   UNL     1       6.636  36.177  80.201  0.00  0.00    +0.000 C 
ATOM      5  C   UNL     1       6.184  35.126  78.039  0.00  0.00    +0.000 C 
ATOM      6  C   UNL     1       5.097  35.941  80.017  0.00  0.00    +0.000 C 
ATOM      7  C   UNL     1       4.908  35.826  78.517  0.00  0.00    +0.000 C 
ENDROOT
BRANCH   1  13
ATOM      8  C   UNL     1      10.590  32.648  76.016  0.00  0.00    +0.000 A 
ATOM      9  C   UNL     1      10.322  34.012  75.829  0.00  0.00    +0.000 A 
ATOM     10  C   UNL     1      10.037  32.012  77.131  0.00  0.00    +0.000 A 
ATOM     11  C   UNL     1       9.616  34.735  76.809  0.00  0.00    +0.000 A 
ATOM     12  C   UNL     1       9.243  32.711  78.038  0.00  0.00    +0.000 A 
ATOM     13  C   UNL     1       9.130  34.096  77.965  0.00  0.00    +0.000 A 
BRANCH   8  15
ATOM     14  F   UNL     1      10.985  30.583  74.848  0.00  0.00    +0.000 F 
ATOM     15  C   UNL     1      11.454  31.836  75.081  0.00  0.00    +0.000 C 
ATOM     16  F   UNL     1      12.723  31.678  75.560  0.00  0.00    +0.000 F 
ATOM     17  F   UNL     1      11.595  32.423  73.859  0.00  0.00    +0.000 F 
ENDBRANCH   8  15
ENDBRANCH   1  13
BRANCH   5  18
ATOM     18  C   UNL     1       5.979  33.731  77.489  0.00  0.00    +0.000 A 
ATOM     19  C   UNL     1       5.710  32.613  78.286  0.00  0.00    +0.000 A 
ATOM     20  C   UNL     1       6.129  33.551  76.097  0.00  0.00    +0.000 A 
ATOM     21  C   UNL     1       5.668  31.337  77.707  0.00  0.00    +0.000 A 
ATOM     22  C   UNL     1       6.109  32.281  75.529  0.00  0.00    +0.000 A 
ATOM     23  C   UNL     1       5.888  31.172  76.338  0.00  0.00    +0.000 A 
ENDBRANCH   5  18
BRANCH   4  24
ATOM     24  C   UNL     1       6.864  35.933  81.726  0.00  0.00    +0.000 C 
ATOM     25  O   UNL     1       6.399  34.957  82.308  0.00  0.00    +0.000 OA
ATOM     26  O   UNL     1       7.505  36.887  82.419  0.00  0.00    +0.000 OA
ENDBRANCH   4  24
BRANCH   7  27
ATOM     27  C   UNL     1       3.614  35.259  77.980  0.00  0.00    +0.000 C 
ATOM     28  O   UNL     1       2.855  34.616  78.694  0.00  0.00    +0.000 OA
ATOM     29  O   UNL     1       3.319  35.530  76.700  0.00  0.00    +0.000 OA
ENDBRANCH   7  27
BRANCH   4  30
ATOM     30  C   UNL     1       6.935  37.681  79.895  0.00  0.00    +0.000 C 
BRANCH  30  31
ATOM     31  C   UNL     1       8.188  37.998  79.077  0.00  0.00    +0.000 C 
BRANCH  31  32
ATOM     32  C   UNL     1       9.192  38.780  79.934  0.00  0.00    +0.000 C 
ATOM     33  C   UNL     1       8.525  39.927  80.684  0.00  0.00    +0.000 C 
ENDBRANCH  31  32
ENDBRANCH  30  31
ENDBRANCH   4  30
TORSDOF 8
ENDMDL
MODEL 3
REMARK VINA RESULT:      -6.9      4.006      6.496
REMARK  Name = 
REMARK  9 active torsions:
REMARK  status: ('A' for Active; 'I' for Inactive)
REMARK    1  A    between atoms: C_2  and  C_5
REMARK    2  A    between atoms: C_10  and  C_11
REMARK    3  A    between atoms: C_14  and  C_16
REMARK    4  A    between atoms: C_14  and  C_18
REMARK    5  A    between atoms: C_15  and  C_19
REMARK    6  A    between atoms: C_18  and  C_23
REMARK    7  A    between atoms: C_20  and  C_26
REMARK    8  A    between atoms: C_23  and  C_27
REMARK    9  A    between atoms: C_27  and  C_32
REMARK                            x       y       z     vdW  Elec       q    Type
REMARK                         _______ _______ _______ _____ _____    ______ ____
ROOT
ATOM      1  C   UNL     1       5.874  36.114  78.476  0.00  0.00    +0.000 C 
ATOM      2  O   UNL     1       5.450  37.200  78.074  0.00  0.00    +0.000 OA
ATOM      3  N   UNL     1       6.753  36.053  79.569  0.00  0.00    +0.000 N 
ATOM      4  C   UNL     1       7.023  37.240  80.451  0.00  0.00    +0.000 C 
ATOM      5  C   UNL     1       7.229  34.810  80.253  0.00  0.00    +0.000 C 
ATOM      6  C   UNL     1       8.276  36.729  81.242  0.00  0.00    +0.000 C 
ATOM      7  C   UNL     1       7.988  35.264  81.504  0.00  0.00    +0.000 C 
ENDROOT
BRANCH   1  13
ATOM      8  C   UNL     1       5.084  32.462  76.296  0.00  0.00    +0.000 A 
ATOM      9  C   UNL     1       5.981  33.411  75.786  0.00  0.00    +0.000 A 
ATOM     10  C   UNL     1       4.336  32.799  77.428  0.00  0.00    +0.000 A 
ATOM     11  C   UNL     1       6.203  34.619  76.476  0.00  0.00    +0.000 A 
ATOM     12  C   UNL     1       4.479  34.043  78.040  0.00  0.00    +0.000 A 
ATOM     13  C   UNL     1       5.497  34.912  77.657  0.00  0.00    +0.000 A 
BRANCH   8  15
ATOM     14  F   UNL     1       5.983  30.287  75.799  0.00  0.00    +0.000 F 
ATOM     15  C   UNL     1       4.893  31.092  75.692  0.00  0.00    +0.000 C 
ATOM     16  F   UNL     1       4.601  31.152  74.360  0.00  0.00    +0.000 F 
ATOM     17  F   UNL     1       3.860  30.410  76.262  0.00  0.00    +0.000 F 
ENDBRANCH   8  15
ENDBRANCH   1  13
BRANCH   5  18
ATOM     18  C   UNL     1       7.965  33.812  79.386  0.00  0.00    +0.000 A 
ATOM     19  C   UNL     1       9.034  34.150  78.548  0.00  0.00    +0.000 A 
ATOM     20  C   UNL     1       7.498  32.481  79.387  0.00  0.00    +0.000 A 
ATOM     21  C   UNL     1       9.570  33.189  77.679  0.00  0.00    +0.000 A 
ATOM     22  C   UNL     1       8.018  31.535  78.507  0.00  0.00    +0.000 A 
ATOM     23  C   UNL     1       9.048  31.895  77.646  0.00  0.00    +0.000 A 
ENDBRANCH   5  18
BRANCH   4  24
ATOM     24  C   UNL     1       7.486  38.620  79.884  0.00  0.00    +0.000 C 
ATOM     25  O   UNL     1       6.699  39.540  79.680  0.00  0.00    +0.000 OA
ATOM     26  O   UNL     1       8.774  38.742  79.523  0.00  0.00    +0.000 OA
ENDBRANCH   4  24
BRANCH   7  27
ATOM     27  C   UNL     1       9.115  34.359  81.944  0.00  0.00    +0.000 C 
ATOM     28  O   UNL     1      10.287  34.661  81.752  0.00  0.00    +0.000 OA
ATOM     29  O   UNL     1       8.773  33.235  82.592  0.00  0.00    +0.000 OA
ENDBRANCH   7  27
BRANCH   4  30
ATOM     30  C   UNL     1       5.872  37.493  81.478  0.00  0.00    +0.000 C 
BRANCH  30  31
ATOM     31  C   UNL     1       6.240  38.185  82.792  0.00  0.00    +0.000 C 
BRANCH  31  32
ATOM     32  C   UNL     1       5.314  39.383  83.033  0.00  0.00    +0.000 C 
ATOM     33  C   UNL     1       6.065  40.707  82.951  0.00  0.00    +0.000 C 
ENDBRANCH  31  32
ENDBRANCH  30  31
ENDBRANCH   4  30
TORSDOF 8
ENDMDL
MODEL 4
REMARK VINA RESULT:      -6.9      1.809      4.718
REMARK  Name = 
REMARK  9 active torsions:
REMARK  status: ('A' for Active; 'I' for Inactive)
REMARK    1  A    between atoms: C_2  and  C_5
REMARK    2  A    between atoms: C_10  and  C_11
REMARK    3  A    between atoms: C_14  and  C_16
REMARK    4  A    between atoms: C_14  and  C_18
REMARK    5  A    between atoms: C_15  and  C_19
REMARK    6  A    between atoms: C_18  and  C_23
REMARK    7  A    between atoms: C_20  and  C_26
REMARK    8  A    between atoms: C_23  and  C_27
REMARK    9  A    between atoms: C_27  and  C_32
REMARK                            x       y       z     vdW  Elec       q    Type
REMARK                         _______ _______ _______ _____ _____    ______ ____
ROOT
ATOM      1  C   UNL     1       5.050  33.495  77.640  0.00  0.00    +0.000 C 
ATOM      2  O   UNL     1       4.061  34.024  77.129  0.00  0.00    +0.000 OA
ATOM      3  N   UNL     1       4.911  32.654  78.756  0.00  0.00    +0.000 N 
ATOM      4  C   UNL     1       3.572  32.158  79.227  0.00  0.00    +0.000 C 
ATOM      5  C   UNL     1       5.993  31.835  79.386  0.00  0.00    +0.000 C 
ATOM      6  C   UNL     1       3.959  31.587  80.635  0.00  0.00    +0.000 C 
ATOM      7  C   UNL     1       5.311  30.936  80.422  0.00  0.00    +0.000 C 
ENDROOT
BRANCH   1  13
ATOM      8  C   UNL     1       9.048  34.545  76.366  0.00  0.00    +0.000 A 
ATOM      9  C   UNL     1       8.261  35.472  77.063  0.00  0.00    +0.000 A 
ATOM     10  C   UNL     1       8.453  33.349  75.953  0.00  0.00    +0.000 A 
ATOM     11  C   UNL     1       6.944  35.143  77.438  0.00  0.00    +0.000 A 
ATOM     12  C   UNL     1       7.114  33.079  76.230  0.00  0.00    +0.000 A 
ATOM     13  C   UNL     1       6.383  33.903  77.080  0.00  0.00    +0.000 A 
BRANCH   8  15
ATOM     14  F   UNL     1      10.861  36.077  75.974  0.00  0.00    +0.000 F 
ATOM     15  C   UNL     1      10.507  34.767  76.048  0.00  0.00    +0.000 C 
ATOM     16  F   UNL     1      10.863  34.215  74.852  0.00  0.00    +0.000 F 
ATOM     17  F   UNL     1      11.335  34.202  76.972  0.00  0.00    +0.000 F 
ENDBRANCH   8  15
ENDBRANCH   1  13
BRANCH   5  18
ATOM     18  C   UNL     1       7.197  32.597  79.894  0.00  0.00    +0.000 A 
ATOM     19  C   UNL     1       7.112  33.728  80.714  0.00  0.00    +0.000 A 
ATOM     20  C   UNL     1       8.469  32.167  79.461  0.00  0.00    +0.000 A 
ATOM     21  C   UNL     1       8.271  34.451  81.028  0.00  0.00    +0.000 A 
ATOM     22  C   UNL     1       9.615  32.900  79.756  0.00  0.00    +0.000 A 
ATOM     23  C   UNL     1       9.513  34.049  80.532  0.00  0.00    +0.000 A 
ENDBRANCH   5  18
BRANCH   4  24
ATOM     24  C   UNL     1       2.381  33.120  79.537  0.00  0.00    +0.000 C 
ATOM     25  O   UNL     1       2.535  34.177  80.142  0.00  0.00    +0.000 OA
ATOM     26  O   UNL     1       1.147  32.705  79.209  0.00  0.00    +0.000 OA
ENDBRANCH   4  24
BRANCH   7  27
ATOM     27  C   UNL     1       6.153  30.576  81.625  0.00  0.00    +0.000 C 
ATOM     28  O   UNL     1       5.953  31.089  82.719  0.00  0.00    +0.000 OA
ATOM     29  O   UNL     1       7.096  29.640  81.446  0.00  0.00    +0.000 OA
ENDBRANCH   7  27
BRANCH   4  30
ATOM     30  C   UNL     1       3.035  30.977  78.356  0.00  0.00    +0.000 C 
BRANCH  30  31
ATOM     31  C   UNL     1       3.680  30.763  76.985  0.00  0.00    +0.000 C 
BRANCH  31  32
ATOM     32  C   UNL     1       4.533  29.488  76.998  0.00  0.00    +0.000 C 
ATOM     33  C   UNL     1       5.941  29.742  76.472  0.00  0.00    +0.000 C 
ENDBRANCH  31  32
ENDBRANCH  30  31
ENDBRANCH   4  30
TORSDOF 8
ENDMDL
MODEL 5
REMARK VINA RESULT:      -6.9      4.152      6.388
REMARK  Name = 
REMARK  9 active torsions:
REMARK  status: ('A' for Active; 'I' for Inactive)
REMARK    1  A    between atoms: C_2  and  C_5
REMARK    2  A    between atoms: C_10  and  C_11
REMARK    3  A    between atoms: C_14  and  C_16
REMARK    4  A    between atoms: C_14  and  C_18
REMARK    5  A    between atoms: C_15  and  C_19
REMARK    6  A    between atoms: C_18  and  C_23
REMARK    7  A    between atoms: C_20  and  C_26
REMARK    8  A    between atoms: C_23  and  C_27
REMARK    9  A    between atoms: C_27  and  C_32
REMARK                            x       y       z     vdW  Elec       q    Type
REMARK                         _______ _______ _______ _____ _____    ______ ____
ROOT
ATOM      1  C   UNL     1       7.528  32.830  76.751  0.00  0.00    +0.000 C 
ATOM      2  O   UNL     1       8.159  32.844  75.692  0.00  0.00    +0.000 OA
ATOM      3  N   UNL     1       8.130  33.262  77.944  0.00  0.00    +0.000 N 
ATOM      4  C   UNL     1       9.448  33.984  77.964  0.00  0.00    +0.000 C 
ATOM      5  C   UNL     1       7.449  33.438  79.264  0.00  0.00    +0.000 C 
ATOM      6  C   UNL     1       9.790  33.912  79.492  0.00  0.00    +0.000 C 
ATOM      7  C   UNL     1       8.461  34.124  80.189  0.00  0.00    +0.000 C 
ENDROOT
BRANCH   1  13
ATOM      8  C   UNL     1       3.620  30.991  76.983  0.00  0.00    +0.000 A 
ATOM      9  C   UNL     1       4.753  30.213  76.706  0.00  0.00    +0.000 A 
ATOM     10  C   UNL     1       3.763  32.381  77.016  0.00  0.00    +0.000 A 
ATOM     11  C   UNL     1       6.018  30.821  76.588  0.00  0.00    +0.000 A 
ATOM     12  C   UNL     1       4.999  32.982  76.784  0.00  0.00    +0.000 A 
ATOM     13  C   UNL     1       6.158  32.217  76.698  0.00  0.00    +0.000 A 
BRANCH   8  15
ATOM     14  F   UNL     1       1.238  31.294  77.134  0.00  0.00    +0.000 F 
ATOM     15  C   UNL     1       2.257  30.403  77.259  0.00  0.00    +0.000 C 
ATOM     16  F   UNL     1       2.160  29.899  78.524  0.00  0.00    +0.000 F 
ATOM     17  F   UNL     1       1.958  29.365  76.428  0.00  0.00    +0.000 F 
ENDBRANCH   8  15
ENDBRANCH   1  13
BRANCH   5  18
ATOM     18  C   UNL     1       6.787  32.207  79.843  0.00  0.00    +0.000 A 
ATOM     19  C   UNL     1       7.402  30.952  79.911  0.00  0.00    +0.000 A 
ATOM     20  C   UNL     1       5.451  32.332  80.281  0.00  0.00    +0.000 A 
ATOM     21  C   UNL     1       6.669  29.837  80.339  0.00  0.00    +0.000 A 
ATOM     22  C   UNL     1       4.719  31.219  80.684  0.00  0.00    +0.000 A 
ATOM     23  C   UNL     1       5.327  29.969  80.702  0.00  0.00    +0.000 A 
ENDBRANCH   5  18
BRANCH   4  24
ATOM     24  C   UNL     1      10.729  33.413  77.276  0.00  0.00    +0.000 C 
ATOM     25  O   UNL     1      11.363  34.054  76.443  0.00  0.00    +0.000 OA
ATOM     26  O   UNL     1      11.066  32.142  77.547  0.00  0.00    +0.000 OA
ENDBRANCH   4  24
BRANCH   7  27
ATOM     27  C   UNL     1       8.335  33.783  81.655  0.00  0.00    +0.000 C 
ATOM     28  O   UNL     1       9.082  32.970  82.187  0.00  0.00    +0.000 OA
ATOM     29  O   UNL     1       7.400  34.444  82.353  0.00  0.00    +0.000 OA
ENDBRANCH   7  27
BRANCH   4  30
ATOM     30  C   UNL     1       9.309  35.490  77.569  0.00  0.00    +0.000 C 
BRANCH  30  31
ATOM     31  C   UNL     1       7.954  35.954  77.030  0.00  0.00    +0.000 C 
BRANCH  31  32
ATOM     32  C   UNL     1       7.392  37.074  77.913  0.00  0.00    +0.000 C 
ATOM     33  C   UNL     1       8.469  37.694  78.797  0.00  0.00    +0.000 C 
ENDBRANCH  31  32
ENDBRANCH  30  31
ENDBRANCH   4  30
TORSDOF 8
ENDMDL
MODEL 6
REMARK VINA RESULT:      -6.9      1.713      2.741
REMARK  Name = 
REMARK  9 active torsions:
REMARK  status: ('A' for Active; 'I' for Inactive)
REMARK    1  A    between atoms: C_2  and  C_5
REMARK    2  A    between atoms: C_10  and  C_11
REMARK    3  A    between atoms: C_14  and  C_16
REMARK    4  A    between atoms: C_14  and  C_18
REMARK    5  A    between atoms: C_15  and  C_19
REMARK    6  A    between atoms: C_18  and  C_23
REMARK    7  A    between atoms: C_20  and  C_26
REMARK    8  A    between atoms: C_23  and  C_27
REMARK    9  A    between atoms: C_27  and  C_32
REMARK                            x       y       z     vdW  Elec       q    Type
REMARK                         _______ _______ _______ _____ _____    ______ ____
ROOT
ATOM      1  C   UNL     1       5.855  31.168  79.410  0.00  0.00    +0.000 C 
ATOM      2  O   UNL     1       5.573  30.091  79.940  0.00  0.00    +0.000 OA
ATOM      3  N   UNL     1       4.963  32.251  79.479  0.00  0.00    +0.000 N 
ATOM      4  C   UNL     1       3.766  32.248  80.388  0.00  0.00    +0.000 C 
ATOM      5  C   UNL     1       5.231  33.647  79.016  0.00  0.00    +0.000 C 
ATOM      6  C   UNL     1       2.978  33.481  79.825  0.00  0.00    +0.000 C 
ATOM      7  C   UNL     1       4.051  34.499  79.496  0.00  0.00    +0.000 C 
ENDROOT
BRANCH   1  13
ATOM      8  C   UNL     1       9.359  31.575  76.906  0.00  0.00    +0.000 A 
ATOM      9  C   UNL     1       8.259  30.824  76.468  0.00  0.00    +0.000 A 
ATOM     10  C   UNL     1       9.359  32.042  78.224  0.00  0.00    +0.000 A 
ATOM     11  C   UNL     1       7.137  30.657  77.304  0.00  0.00    +0.000 A 
ATOM     12  C   UNL     1       8.294  31.774  79.082  0.00  0.00    +0.000 A 
ATOM     13  C   UNL     1       7.121  31.198  78.602  0.00  0.00    +0.000 A 
BRANCH   8  15
ATOM     14  F   UNL     1      11.669  32.215  76.712  0.00  0.00    +0.000 F 
ATOM     15  C   UNL     1      10.537  31.914  76.025  0.00  0.00    +0.000 C 
ATOM     16  F   UNL     1      10.287  32.991  75.224  0.00  0.00    +0.000 F 
ATOM     17  F   UNL     1      10.865  30.898  75.178  0.00  0.00    +0.000 F 
ENDBRANCH   8  15
ENDBRANCH   1  13
BRANCH   5  18
ATOM     18  C   UNL     1       5.583  33.809  77.553  0.00  0.00    +0.000 A 
ATOM     19  C   UNL     1       4.852  33.231  76.509  0.00  0.00    +0.000 A 
ATOM     20  C   UNL     1       6.750  34.538  77.241  0.00  0.00    +0.000 A 
ATOM     21  C   UNL     1       5.325  33.320  75.193  0.00  0.00    +0.000 A 
ATOM     22  C   UNL     1       7.229  34.606  75.936  0.00  0.00    +0.000 A 
ATOM     23  C   UNL     1       6.519  33.986  74.913  0.00  0.00    +0.000 A 
ENDBRANCH   5  18
BRANCH   4  24
ATOM     24  C   UNL     1       2.706  31.102  80.379  0.00  0.00    +0.000 C 
ATOM     25  O   UNL     1       2.448  30.442  81.381  0.00  0.00    +0.000 OA
ATOM     26  O   UNL     1       2.147  30.782  79.200  0.00  0.00    +0.000 OA
ENDBRANCH   4  24
BRANCH   7  27
ATOM     27  C   UNL     1       3.703  35.680  78.619  0.00  0.00    +0.000 C 
ATOM     28  O   UNL     1       2.781  35.625  77.813  0.00  0.00    +0.000 OA
ATOM     29  O   UNL     1       4.421  36.799  78.795  0.00  0.00    +0.000 OA
ENDBRANCH   7  27
BRANCH   4  30
ATOM     30  C   UNL     1       4.145  32.554  81.873  0.00  0.00    +0.000 C 
BRANCH  30  31
ATOM     31  C   UNL     1       5.561  32.193  82.327  0.00  0.00    +0.000 C 
BRANCH  31  32
ATOM     32  C   UNL     1       6.380  33.468  82.558  0.00  0.00    +0.000 C 
ATOM     33  C   UNL     1       7.878  33.209  82.447  0.00  0.00    +0.000 C 
ENDBRANCH  31  32
ENDBRANCH  30  31
ENDBRANCH   4  30
TORSDOF 8
ENDMDL
MODEL 7
REMARK VINA RESULT:      -6.8      2.097      3.602
REMARK  Name = 
REMARK  9 active torsions:
REMARK  status: ('A' for Active; 'I' for Inactive)
REMARK    1  A    between atoms: C_2  and  C_5
REMARK    2  A    between atoms: C_10  and  C_11
REMARK    3  A    between atoms: C_14  and  C_16
REMARK    4  A    between atoms: C_14  and  C_18
REMARK    5  A    between atoms: C_15  and  C_19
REMARK    6  A    between atoms: C_18  and  C_23
REMARK    7  A    between atoms: C_20  and  C_26
REMARK    8  A    between atoms: C_23  and  C_27
REMARK    9  A    between atoms: C_27  and  C_32
REMARK                            x       y       z     vdW  Elec       q    Type
REMARK                         _______ _______ _______ _____ _____    ______ ____
ROOT
ATOM      1  C   UNL     1       6.383  31.254  77.011  0.00  0.00    +0.000 C 
ATOM      2  O   UNL     1       5.769  30.644  76.134  0.00  0.00    +0.000 OA
ATOM      3  N   UNL     1       5.840  31.389  78.299  0.00  0.00    +0.000 N 
ATOM      4  C   UNL     1       4.636  30.610  78.749  0.00  0.00    +0.000 C 
ATOM      5  C   UNL     1       6.529  31.970  79.492  0.00  0.00    +0.000 C 
ATOM      6  C   UNL     1       4.276  31.377  80.068  0.00  0.00    +0.000 C 
ATOM      7  C   UNL     1       5.617  31.703  80.695  0.00  0.00    +0.000 C 
ENDROOT
BRANCH   1  13
ATOM      8  C   UNL     1      10.024  33.409  76.106  0.00  0.00    +0.000 A 
ATOM      9  C   UNL     1       8.781  33.914  75.696  0.00  0.00    +0.000 A 
ATOM     10  C   UNL     1      10.067  32.125  76.659  0.00  0.00    +0.000 A 
ATOM     11  C   UNL     1       7.602  33.188  75.954  0.00  0.00    +0.000 A 
ATOM     12  C   UNL     1       8.907  31.366  76.806  0.00  0.00    +0.000 A 
ATOM     13  C   UNL     1       7.654  31.929  76.581  0.00  0.00    +0.000 A 
BRANCH   8  15
ATOM     14  F   UNL     1      12.212  33.906  76.972  0.00  0.00    +0.000 F 
ATOM     15  C   UNL     1      11.314  34.183  75.990  0.00  0.00    +0.000 C 
ATOM     16  F   UNL     1      11.110  35.532  76.038  0.00  0.00    +0.000 F 
ATOM     17  F   UNL     1      11.957  33.953  74.811  0.00  0.00    +0.000 F 
ENDBRANCH   8  15
ENDBRANCH   1  13
BRANCH   5  18
ATOM     18  C   UNL     1       7.008  33.399  79.358  0.00  0.00    +0.000 A 
ATOM     19  C   UNL     1       6.199  34.450  78.912  0.00  0.00    +0.000 A 
ATOM     20  C   UNL     1       8.364  33.661  79.644  0.00  0.00    +0.000 A 
ATOM     21  C   UNL     1       6.760  35.715  78.689  0.00  0.00    +0.000 A 
ATOM     22  C   UNL     1       8.923  34.912  79.401  0.00  0.00    +0.000 A 
ATOM     23  C   UNL     1       8.120  35.937  78.912  0.00  0.00    +0.000 A 
ENDBRANCH   5  18
BRANCH   4  24
ATOM     24  C   UNL     1       3.293  30.603  77.952  0.00  0.00    +0.000 C 
ATOM     25  O   UNL     1       2.902  29.615  77.338  0.00  0.00    +0.000 OA
ATOM     26  O   UNL     1       2.614  31.759  77.870  0.00  0.00    +0.000 OA
ENDBRANCH   4  24
BRANCH   7  27
ATOM     27  C   UNL     1       5.683  32.731  81.800  0.00  0.00    +0.000 C 
ATOM     28  O   UNL     1       4.794  33.560  81.953  0.00  0.00    +0.000 OA
ATOM     29  O   UNL     1       6.735  32.664  82.629  0.00  0.00    +0.000 OA
ENDBRANCH   7  27
BRANCH   4  30
ATOM     30  C   UNL     1       4.989  29.135  79.127  0.00  0.00    +0.000 C 
BRANCH  30  31
ATOM     31  C   UNL     1       4.245  28.514  80.312  0.00  0.00    +0.000 C 
BRANCH  31  32
ATOM     32  C   UNL     1       5.200  27.636  81.130  0.00  0.00    +0.000 C 
ATOM     33  C   UNL     1       6.652  28.065  80.960  0.00  0.00    +0.000 C 
ENDBRANCH  31  32
ENDBRANCH  30  31
ENDBRANCH   4  30
TORSDOF 8
ENDMDL
MODEL 8
REMARK VINA RESULT:      -6.8      2.216      3.205
REMARK  Name = 
REMARK  9 active torsions:
REMARK  status: ('A' for Active; 'I' for Inactive)
REMARK    1  A    between atoms: C_2  and  C_5
REMARK    2  A    between atoms: C_10  and  C_11
REMARK    3  A    between atoms: C_14  and  C_16
REMARK    4  A    between atoms: C_14  and  C_18
REMARK    5  A    between atoms: C_15  and  C_19
REMARK    6  A    between atoms: C_18  and  C_23
REMARK    7  A    between atoms: C_20  and  C_26
REMARK    8  A    between atoms: C_23  and  C_27
REMARK    9  A    between atoms: C_27  and  C_32
REMARK                            x       y       z     vdW  Elec       q    Type
REMARK                         _______ _______ _______ _____ _____    ______ ____
ROOT
ATOM      1  C   UNL     1       7.462  31.543  77.115  0.00  0.00    +0.000 C 
ATOM      2  O   UNL     1       7.316  30.584  76.355  0.00  0.00    +0.000 OA
ATOM      3  N   UNL     1       6.472  31.865  78.057  0.00  0.00    +0.000 N 
ATOM      4  C   UNL     1       5.324  30.942  78.362  0.00  0.00    +0.000 C 
ATOM      5  C   UNL     1       6.576  32.899  79.132  0.00  0.00    +0.000 C 
ATOM      6  C   UNL     1       4.391  31.906  79.174  0.00  0.00    +0.000 C 
ATOM      7  C   UNL     1       5.341  32.727  80.023  0.00  0.00    +0.000 C 
ENDROOT
BRANCH   1  13
ATOM      8  C   UNL     1      11.104  33.698  76.215  0.00  0.00    +0.000 A 
ATOM      9  C   UNL     1      11.051  32.823  77.309  0.00  0.00    +0.000 A 
ATOM     10  C   UNL     1       9.916  33.979  75.534  0.00  0.00    +0.000 A 
ATOM     11  C   UNL     1       9.851  32.156  77.625  0.00  0.00    +0.000 A 
ATOM     12  C   UNL     1       8.709  33.402  75.926  0.00  0.00    +0.000 A 
ATOM     13  C   UNL     1       8.680  32.392  76.883  0.00  0.00    +0.000 A 
BRANCH   8  15
ATOM     14  F   UNL     1      13.471  34.036  76.477  0.00  0.00    +0.000 F 
ATOM     15  C   UNL     1      12.379  34.343  75.729  0.00  0.00    +0.000 C 
ATOM     16  F   UNL     1      12.298  35.706  75.726  0.00  0.00    +0.000 F 
ATOM     17  F   UNL     1      12.686  33.994  74.448  0.00  0.00    +0.000 F 
ENDBRANCH   8  15
ENDBRANCH   1  13
BRANCH   5  18
ATOM     18  C   UNL     1       6.840  34.316  78.672  0.00  0.00    +0.000 A 
ATOM     19  C   UNL     1       6.085  34.968  77.691  0.00  0.00    +0.000 A 
ATOM     20  C   UNL     1       7.950  34.985  79.230  0.00  0.00    +0.000 A 
ATOM     21  C   UNL     1       6.482  36.230  77.229  0.00  0.00    +0.000 A 
ATOM     22  C   UNL     1       8.354  36.229  78.754  0.00  0.00    +0.000 A 
ATOM     23  C   UNL     1       7.624  36.846  77.745  0.00  0.00    +0.000 A 
ENDBRANCH   5  18
BRANCH   4  24
ATOM     24  C   UNL     1       4.385  30.372  77.253  0.00  0.00    +0.000 C 
ATOM     25  O   UNL     1       3.430  31.007  76.816  0.00  0.00    +0.000 OA
ATOM     26  O   UNL     1       4.592  29.107  76.854  0.00  0.00    +0.000 OA
ENDBRANCH   4  24
BRANCH   7  27
ATOM     27  C   UNL     1       4.835  33.989  80.683  0.00  0.00    +0.000 C 
ATOM     28  O   UNL     1       3.817  34.549  80.292  0.00  0.00    +0.000 OA
ATOM     29  O   UNL     1       5.527  34.441  81.739  0.00  0.00    +0.000 OA
ENDBRANCH   7  27
BRANCH   4  30
ATOM     30  C   UNL     1       5.741  29.766  79.304  0.00  0.00    +0.000 C 
BRANCH  30  31
ATOM     31  C   UNL     1       4.639  29.104  80.135  0.00  0.00    +0.000 C 
BRANCH  31  32
ATOM     32  C   UNL     1       5.228  27.967  80.979  0.00  0.00    +0.000 C 
ATOM     33  C   UNL     1       6.753  27.991  80.978  0.00  0.00    +0.000 C 
ENDBRANCH  31  32
ENDBRANCH  30  31
ENDBRANCH   4  30
TORSDOF 8
ENDMDL
MODEL 9
REMARK VINA RESULT:      -6.8      2.945      4.615
REMARK  Name = 
REMARK  9 active torsions:
REMARK  status: ('A' for Active; 'I' for Inactive)
REMARK    1  A    between atoms: C_2  and  C_5
REMARK    2  A    between atoms: C_10  and  C_11
REMARK    3  A    between atoms: C_14  and  C_16
REMARK    4  A    between atoms: C_14  and  C_18
REMARK    5  A    between atoms: C_15  and  C_19
REMARK    6  A    between atoms: C_18  and  C_23
REMARK    7  A    between atoms: C_20  and  C_26
REMARK    8  A    between atoms: C_23  and  C_27
REMARK    9  A    between atoms: C_27  and  C_32
REMARK                            x       y       z     vdW  Elec       q    Type
REMARK                         _______ _______ _______ _____ _____    ______ ____
ROOT
ATOM      1  C   UNL     1       6.677  32.538  80.789  0.00  0.00    +0.000 C 
ATOM      2  O   UNL     1       6.783  32.184  81.966  0.00  0.00    +0.000 OA
ATOM      3  N   UNL     1       6.249  31.629  79.808  0.00  0.00    +0.000 N 
ATOM      4  C   UNL     1       5.668  30.286  80.155  0.00  0.00    +0.000 C 
ATOM      5  C   UNL     1       5.935  31.951  78.382  0.00  0.00    +0.000 C 
ATOM      6  C   UNL     1       5.696  29.592  78.750  0.00  0.00    +0.000 C 
ATOM      7  C   UNL     1       5.312  30.689  77.777  0.00  0.00    +0.000 C 
ENDROOT
BRANCH   1  13
ATOM      8  C   UNL     1       8.049  36.431  79.496  0.00  0.00    +0.000 A 
ATOM      9  C   UNL     1       8.972  35.442  79.866  0.00  0.00    +0.000 A 
ATOM     10  C   UNL     1       6.691  36.184  79.714  0.00  0.00    +0.000 A 
ATOM     11  C   UNL     1       8.520  34.190  80.328  0.00  0.00    +0.000 A 
ATOM     12  C   UNL     1       6.259  34.985  80.280  0.00  0.00    +0.000 A 
ATOM     13  C   UNL     1       7.145  33.929  80.471  0.00  0.00    +0.000 A 
BRANCH   8  15
ATOM     14  F   UNL     1       9.303  38.481  79.621  0.00  0.00    +0.000 F 
ATOM     15  C   UNL     1       8.447  37.743  78.865  0.00  0.00    +0.000 C 
ATOM     16  F   UNL     1       7.370  38.547  78.626  0.00  0.00    +0.000 F 
ATOM     17  F   UNL     1       9.055  37.578  77.656  0.00  0.00    +0.000 F 
ENDBRANCH   8  15
ENDBRANCH   1  13
BRANCH   5  18
ATOM     18  C   UNL     1       7.059  32.560  77.572  0.00  0.00    +0.000 A 
ATOM     19  C   UNL     1       8.353  32.030  77.517  0.00  0.00    +0.000 A 
ATOM     20  C   UNL     1       6.789  33.763  76.885  0.00  0.00    +0.000 A 
ATOM     21  C   UNL     1       9.367  32.732  76.851  0.00  0.00    +0.000 A 
ATOM     22  C   UNL     1       7.803  34.468  76.244  0.00  0.00    +0.000 A 
ATOM     23  C   UNL     1       9.095  33.956  76.237  0.00  0.00    +0.000 A 
ENDBRANCH   5  18
BRANCH   4  24
ATOM     24  C   UNL     1       6.403  29.267  81.082  0.00  0.00    +0.000 C 
ATOM     25  O   UNL     1       6.022  29.029  82.224  0.00  0.00    +0.000 OA
ATOM     26  O   UNL     1       7.543  28.724  80.626  0.00  0.00    +0.000 OA
ENDBRANCH   4  24
BRANCH   7  27
ATOM     27  C   UNL     1       5.561  30.484  76.301  0.00  0.00    +0.000 C 
ATOM     28  O   UNL     1       4.923  31.099  75.455  0.00  0.00    +0.000 OA
ATOM     29  O   UNL     1       6.541  29.632  75.963  0.00  0.00    +0.000 OA
ENDBRANCH   7  27
BRANCH   4  30
ATOM     30  C   UNL     1       4.178  30.384  80.618  0.00  0.00    +0.000 C 
BRANCH  30  31
ATOM     31  C   UNL     1       3.120  29.728  79.727  0.00  0.00    +0.000 C 
BRANCH  31  32
ATOM     32  C   UNL     1       2.001  30.729  79.416  0.00  0.00    +0.000 C 
ATOM     33  C   UNL     1       1.562  30.655  77.959  0.00  0.00    +0.000 C 
ENDBRANCH  31  32
ENDBRANCH  30  31
ENDBRANCH   4  30
TORSDOF 8
ENDMDL
