MODEL 1
REMARK VINA RESULT:      -7.7      0.000      0.000
REMARK  Name = 
REMARK  9 active torsions:
REMARK  status: ('A' for Active; 'I' for Inactive)
REMARK    1  A    between atoms: C_2  and  C_5
REMARK    2  A    between atoms: C_10  and  C_11
REMARK    3  A    between atoms: C_14  and  C_16
REMARK    4  A    between atoms: C_14  and  C_18
REMARK    5  A    between atoms: C_15  and  C_19
REMARK    6  A    between atoms: C_18  and  C_23
REMARK    7  A    between atoms: C_20  and  C_26
REMARK    8  A    between atoms: C_23  and  C_27
REMARK    9  A    between atoms: C_23  and  C_28
REMARK                            x       y       z     vdW  Elec       q    Type
REMARK                         _______ _______ _______ _____ _____    ______ ____
ROOT
ATOM      1  C   UNL     1       8.486  30.912  78.899  0.00  0.00    +0.000 C 
ATOM      2  O   UNL     1       8.915  29.801  79.208  0.00  0.00    +0.000 OA
ATOM      3  N   UNL     1       7.261  31.355  79.409  0.00  0.00    +0.000 N 
ATOM      4  C   UNL     1       6.662  30.755  80.658  0.00  0.00    +0.000 C 
ATOM      5  C   UNL     1       6.532  32.583  79.035  0.00  0.00    +0.000 C 
ATOM      6  C   UNL     1       5.193  31.282  80.527  0.00  0.00    +0.000 C 
ATOM      7  C   UNL     1       5.335  32.695  79.988  0.00  0.00    +0.000 C 
ENDROOT
BRANCH   1  13
ATOM      8  C   UNL     1      10.946  32.950  75.961  0.00  0.00    +0.000 A 
ATOM      9  C   UNL     1      10.834  33.442  77.269  0.00  0.00    +0.000 A 
ATOM     10  C   UNL     1      10.151  31.864  75.595  0.00  0.00    +0.000 A 
ATOM     11  C   UNL     1      10.008  32.796  78.206  0.00  0.00    +0.000 A 
ATOM     12  C   UNL     1       9.246  31.306  76.495  0.00  0.00    +0.000 A 
ATOM     13  C   UNL     1       9.246  31.670  77.841  0.00  0.00    +0.000 A 
BRANCH   8  15
ATOM     14  F   UNL     1      11.897  32.858  73.752  0.00  0.00    +0.000 F 
ATOM     15  C   UNL     1      11.861  33.548  74.921  0.00  0.00    +0.000 C 
ATOM     16  F   UNL     1      13.151  33.612  75.360  0.00  0.00    +0.000 F 
ATOM     17  F   UNL     1      11.521  34.828  74.602  0.00  0.00    +0.000 F 
ENDBRANCH   8  15
ENDBRANCH   1  13
BRANCH   5  18
ATOM     18  C   UNL     1       6.209  32.720  77.562  0.00  0.00    +0.000 A 
ATOM     19  C   UNL     1       5.546  31.726  76.834  0.00  0.00    +0.000 A 
ATOM     20  C   UNL     1       6.578  33.910  76.901  0.00  0.00    +0.000 A 
ATOM     21  C   UNL     1       5.261  31.918  75.480  0.00  0.00    +0.000 A 
ATOM     22  C   UNL     1       6.283  34.101  75.554  0.00  0.00    +0.000 A 
ATOM     23  C   UNL     1       5.622  33.106  74.841  0.00  0.00    +0.000 A 
ENDBRANCH   5  18
BRANCH   4  24
ATOM     24  C   UNL     1       6.413  29.228  80.819  0.00  0.00    +0.000 C 
ATOM     25  O   UNL     1       7.088  28.514  81.553  0.00  0.00    +0.000 OA
ATOM     26  O   UNL     1       5.307  28.766  80.204  0.00  0.00    +0.000 OA
ENDBRANCH   4  24
BRANCH   7  27
ATOM     27  C   UNL     1       4.088  33.274  79.364  0.00  0.00    +0.000 C 
ATOM     28  O   UNL     1       3.928  34.448  79.078  0.00  0.00    +0.000 OA
ATOM     29  O   UNL     1       3.134  32.338  79.131  0.00  0.00    +0.000 OA
ENDBRANCH   7  27
BRANCH   4  30
ATOM     30  C   UNL     1       7.318  31.342  81.958  0.00  0.00    +0.000 C 
BRANCH  30  31
ATOM     31  C   UNL     1       6.463  31.443  83.243  0.00  0.00    +0.000 C 
ATOM     32  C   UNL     1       7.077  30.573  84.354  0.00  0.00    +0.000 C 
ATOM     33  C   UNL     1       6.310  32.861  83.789  0.00  0.00    +0.000 C 
ENDBRANCH  30  31
ENDBRANCH   4  30
TORSDOF 7
ENDMDL
MODEL 2
REMARK VINA RESULT:      -7.5      4.150      6.621
REMARK  Name = 
REMARK  9 active torsions:
REMARK  status: ('A' for Active; 'I' for Inactive)
REMARK    1  A    between atoms: C_2  and  C_5
REMARK    2  A    between atoms: C_10  and  C_11
REMARK    3  A    between atoms: C_14  and  C_16
REMARK    4  A    between atoms: C_14  and  C_18
REMARK    5  A    between atoms: C_15  and  C_19
REMARK    6  A    between atoms: C_18  and  C_23
REMARK    7  A    between atoms: C_20  and  C_26
REMARK    8  A    between atoms: C_23  and  C_27
REMARK    9  A    between atoms: C_23  and  C_28
REMARK                            x       y       z     vdW  Elec       q    Type
REMARK                         _______ _______ _______ _____ _____    ______ ____
ROOT
ATOM      1  C   UNL     1       5.050  33.375  79.986  0.00  0.00    +0.000 C 
ATOM      2  O   UNL     1       4.027  33.900  80.423  0.00  0.00    +0.000 OA
ATOM      3  N   UNL     1       5.783  34.006  78.976  0.00  0.00    +0.000 N 
ATOM      4  C   UNL     1       5.655  35.487  78.716  0.00  0.00    +0.000 C 
ATOM      5  C   UNL     1       6.939  33.458  78.239  0.00  0.00    +0.000 C 
ATOM      6  C   UNL     1       6.317  35.566  77.298  0.00  0.00    +0.000 C 
ATOM      7  C   UNL     1       7.483  34.593  77.361  0.00  0.00    +0.000 C 
ENDROOT
BRANCH   1  13
ATOM      8  C   UNL     1       6.077  29.298  81.062  0.00  0.00    +0.000 A 
ATOM      9  C   UNL     1       4.908  29.576  80.339  0.00  0.00    +0.000 A 
ATOM     10  C   UNL     1       6.833  30.371  81.533  0.00  0.00    +0.000 A 
ATOM     11  C   UNL     1       4.564  30.903  80.023  0.00  0.00    +0.000 A 
ATOM     12  C   UNL     1       6.419  31.684  81.319  0.00  0.00    +0.000 A 
ATOM     13  C   UNL     1       5.360  31.978  80.461  0.00  0.00    +0.000 A 
BRANCH   8  15
ATOM     14  F   UNL     1       5.577  26.953  81.280  0.00  0.00    +0.000 F 
ATOM     15  C   UNL     1       6.546  27.900  81.380  0.00  0.00    +0.000 C 
ATOM     16  F   UNL     1       7.033  27.807  82.651  0.00  0.00    +0.000 F 
ATOM     17  F   UNL     1       7.564  27.494  80.570  0.00  0.00    +0.000 F 
ENDBRANCH   8  15
ENDBRANCH   1  13
BRANCH   5  18
ATOM     18  C   UNL     1       6.689  32.145  77.528  0.00  0.00    +0.000 A 
ATOM     19  C   UNL     1       5.565  31.917  76.726  0.00  0.00    +0.000 A 
ATOM     20  C   UNL     1       7.641  31.115  77.665  0.00  0.00    +0.000 A 
ATOM     21  C   UNL     1       5.398  30.689  76.082  0.00  0.00    +0.000 A 
ATOM     22  C   UNL     1       7.476  29.895  77.013  0.00  0.00    +0.000 A 
ATOM     23  C   UNL     1       6.355  29.681  76.218  0.00  0.00    +0.000 A 
ENDBRANCH   5  18
BRANCH   4  24
ATOM     24  C   UNL     1       4.288  36.176  78.439  0.00  0.00    +0.000 C 
ATOM     25  O   UNL     1       3.779  36.985  79.208  0.00  0.00    +0.000 OA
ATOM     26  O   UNL     1       3.765  35.932  77.222  0.00  0.00    +0.000 OA
ENDBRANCH   4  24
BRANCH   7  27
ATOM     27  C   UNL     1       8.022  34.149  76.023  0.00  0.00    +0.000 C 
ATOM     28  O   UNL     1       9.164  33.774  75.817  0.00  0.00    +0.000 OA
ATOM     29  O   UNL     1       7.088  34.192  75.039  0.00  0.00    +0.000 OA
ENDBRANCH   7  27
BRANCH   4  30
ATOM     30  C   UNL     1       6.496  36.333  79.737  0.00  0.00    +0.000 C 
BRANCH  30  31
ATOM     31  C   UNL     1       7.085  37.686  79.276  0.00  0.00    +0.000 C 
ATOM     32  C   UNL     1       6.816  38.767  80.338  0.00  0.00    +0.000 C 
ATOM     33  C   UNL     1       8.588  37.661  79.005  0.00  0.00    +0.000 C 
ENDBRANCH  30  31
ENDBRANCH   4  30
TORSDOF 7
ENDMDL
MODEL 3
REMARK VINA RESULT:      -7.3      1.063      1.879
REMARK  Name = 
REMARK  9 active torsions:
REMARK  status: ('A' for Active; 'I' for Inactive)
REMARK    1  A    between atoms: C_2  and  C_5
REMARK    2  A    between atoms: C_10  and  C_11
REMARK    3  A    between atoms: C_14  and  C_16
REMARK    4  A    between atoms: C_14  and  C_18
REMARK    5  A    between atoms: C_15  and  C_19
REMARK    6  A    between atoms: C_18  and  C_23
REMARK    7  A    between atoms: C_20  and  C_26
REMARK    8  A    between atoms: C_23  and  C_27
REMARK    9  A    between atoms: C_23  and  C_28
REMARK                            x       y       z     vdW  Elec       q    Type
REMARK                         _______ _______ _______ _____ _____    ______ ____
ROOT
ATOM      1  C   UNL     1       7.550  30.777  79.010  0.00  0.00    +0.000 C 
ATOM      2  O   UNL     1       7.856  29.620  79.293  0.00  0.00    +0.000 OA
ATOM      3  N   UNL     1       6.256  31.241  79.269  0.00  0.00    +0.000 N 
ATOM      4  C   UNL     1       5.362  30.566  80.281  0.00  0.00    +0.000 C 
ATOM      5  C   UNL     1       5.678  32.539  78.866  0.00  0.00    +0.000 C 
ATOM      6  C   UNL     1       3.983  31.187  79.872  0.00  0.00    +0.000 C 
ATOM      7  C   UNL     1       4.297  32.632  79.527  0.00  0.00    +0.000 C 
ENDROOT
BRANCH   1  13
ATOM      8  C   UNL     1      10.210  33.252  76.637  0.00  0.00    +0.000 A 
ATOM      9  C   UNL     1       9.644  32.088  76.100  0.00  0.00    +0.000 A 
ATOM     10  C   UNL     1       9.998  33.526  77.989  0.00  0.00    +0.000 A 
ATOM     11  C   UNL     1       8.809  31.272  76.886  0.00  0.00    +0.000 A 
ATOM     12  C   UNL     1       9.270  32.649  78.789  0.00  0.00    +0.000 A 
ATOM     13  C   UNL     1       8.561  31.583  78.236  0.00  0.00    +0.000 A 
BRANCH   8  15
ATOM     14  F   UNL     1      10.535  35.458  75.732  0.00  0.00    +0.000 F 
ATOM     15  C   UNL     1      11.059  34.210  75.839  0.00  0.00    +0.000 C 
ATOM     16  F   UNL     1      11.252  33.772  74.562  0.00  0.00    +0.000 F 
ATOM     17  F   UNL     1      12.308  34.361  76.364  0.00  0.00    +0.000 F 
ENDBRANCH   8  15
ENDBRANCH   1  13
BRANCH   5  18
ATOM     18  C   UNL     1       5.711  32.828  77.380  0.00  0.00    +0.000 A 
ATOM     19  C   UNL     1       6.222  34.018  76.850  0.00  0.00    +0.000 A 
ATOM     20  C   UNL     1       5.224  31.847  76.493  0.00  0.00    +0.000 A 
ATOM     21  C   UNL     1       6.242  34.220  75.468  0.00  0.00    +0.000 A 
ATOM     22  C   UNL     1       5.254  32.049  75.115  0.00  0.00    +0.000 A 
ATOM     23  C   UNL     1       5.765  33.235  74.601  0.00  0.00    +0.000 A 
ENDBRANCH   5  18
BRANCH   4  24
ATOM     24  C   UNL     1       5.029  29.048  80.224  0.00  0.00    +0.000 C 
ATOM     25  O   UNL     1       5.227  28.284  81.163  0.00  0.00    +0.000 OA
ATOM     26  O   UNL     1       4.369  28.652  79.118  0.00  0.00    +0.000 OA
ENDBRANCH   4  24
BRANCH   7  27
ATOM     27  C   UNL     1       3.250  33.336  78.698  0.00  0.00    +0.000 C 
ATOM     28  O   UNL     1       3.200  34.540  78.507  0.00  0.00    +0.000 OA
ATOM     29  O   UNL     1       2.347  32.482  78.155  0.00  0.00    +0.000 OA
ENDBRANCH   7  27
BRANCH   4  30
ATOM     30  C   UNL     1       5.718  30.993  81.749  0.00  0.00    +0.000 C 
BRANCH  30  31
ATOM     31  C   UNL     1       7.045  31.745  82.005  0.00  0.00    +0.000 C 
ATOM     32  C   UNL     1       6.766  33.241  82.234  0.00  0.00    +0.000 C 
ATOM     33  C   UNL     1       7.842  31.230  83.201  0.00  0.00    +0.000 C 
ENDBRANCH  30  31
ENDBRANCH   4  30
TORSDOF 7
ENDMDL
MODEL 4
REMARK VINA RESULT:      -7.1      2.102      2.749
REMARK  Name = 
REMARK  9 active torsions:
REMARK  status: ('A' for Active; 'I' for Inactive)
REMARK    1  A    between atoms: C_2  and  C_5
REMARK    2  A    between atoms: C_10  and  C_11
REMARK    3  A    between atoms: C_14  and  C_16
REMARK    4  A    between atoms: C_14  and  C_18
REMARK    5  A    between atoms: C_15  and  C_19
REMARK    6  A    between atoms: C_18  and  C_23
REMARK    7  A    between atoms: C_20  and  C_26
REMARK    8  A    between atoms: C_23  and  C_27
REMARK    9  A    between atoms: C_23  and  C_28
REMARK                            x       y       z     vdW  Elec       q    Type
REMARK                         _______ _______ _______ _____ _____    ______ ____
ROOT
ATOM      1  C   UNL     1       9.480  32.248  79.070  0.00  0.00    +0.000 C 
ATOM      2  O   UNL     1       9.855  31.300  79.757  0.00  0.00    +0.000 OA
ATOM      3  N   UNL     1       8.489  33.111  79.550  0.00  0.00    +0.000 N 
ATOM      4  C   UNL     1       8.186  33.223  81.024  0.00  0.00    +0.000 C 
ATOM      5  C   UNL     1       7.821  34.200  78.810  0.00  0.00    +0.000 C 
ATOM      6  C   UNL     1       6.799  33.948  80.955  0.00  0.00    +0.000 C 
ATOM      7  C   UNL     1       6.941  34.947  79.820  0.00  0.00    +0.000 C 
ENDROOT
BRANCH   1  13
ATOM      8  C   UNL     1      11.264  32.313  75.114  0.00  0.00    +0.000 A 
ATOM      9  C   UNL     1      11.573  33.304  76.057  0.00  0.00    +0.000 A 
ATOM     10  C   UNL     1      10.277  31.380  75.436  0.00  0.00    +0.000 A 
ATOM     11  C   UNL     1      10.964  33.296  77.325  0.00  0.00    +0.000 A 
ATOM     12  C   UNL     1       9.594  31.454  76.647  0.00  0.00    +0.000 A 
ATOM     13  C   UNL     1      10.005  32.321  77.659  0.00  0.00    +0.000 A 
BRANCH   8  15
ATOM     14  F   UNL     1      11.308  31.361  72.903  0.00  0.00    +0.000 F 
ATOM     15  C   UNL     1      11.923  32.216  73.761  0.00  0.00    +0.000 C 
ATOM     16  F   UNL     1      13.215  31.788  73.857  0.00  0.00    +0.000 F 
ATOM     17  F   UNL     1      11.986  33.419  73.124  0.00  0.00    +0.000 F 
ENDBRANCH   8  15
ENDBRANCH   1  13
BRANCH   5  18
ATOM     18  C   UNL     1       7.133  33.783  77.527  0.00  0.00    +0.000 A 
ATOM     19  C   UNL     1       7.316  34.455  76.314  0.00  0.00    +0.000 A 
ATOM     20  C   UNL     1       6.285  32.657  77.555  0.00  0.00    +0.000 A 
ATOM     21  C   UNL     1       6.666  34.012  75.159  0.00  0.00    +0.000 A 
ATOM     22  C   UNL     1       5.646  32.213  76.399  0.00  0.00    +0.000 A 
ATOM     23  C   UNL     1       5.838  32.889  75.199  0.00  0.00    +0.000 A 
ENDBRANCH   5  18
BRANCH   4  24
ATOM     24  C   UNL     1       7.828  31.990  81.903  0.00  0.00    +0.000 C 
ATOM     25  O   UNL     1       6.855  31.276  81.689  0.00  0.00    +0.000 OA
ATOM     26  O   UNL     1       8.748  31.671  82.834  0.00  0.00    +0.000 OA
ENDBRANCH   4  24
BRANCH   7  27
ATOM     27  C   UNL     1       5.641  35.468  79.256  0.00  0.00    +0.000 C 
ATOM     28  O   UNL     1       4.559  34.917  79.365  0.00  0.00    +0.000 OA
ATOM     29  O   UNL     1       5.786  36.651  78.607  0.00  0.00    +0.000 OA
ENDBRANCH   7  27
BRANCH   4  30
ATOM     30  C   UNL     1       9.224  34.139  81.765  0.00  0.00    +0.000 C 
BRANCH  30  31
ATOM     31  C   UNL     1       8.699  35.244  82.711  0.00  0.00    +0.000 C 
ATOM     32  C   UNL     1       9.119  34.939  84.160  0.00  0.00    +0.000 C 
ATOM     33  C   UNL     1       9.184  36.651  82.370  0.00  0.00    +0.000 C 
ENDBRANCH  30  31
ENDBRANCH   4  30
TORSDOF 7
ENDMDL
MODEL 5
REMARK VINA RESULT:      -7.1      2.995      4.422
REMARK  Name = 
REMARK  9 active torsions:
REMARK  status: ('A' for Active; 'I' for Inactive)
REMARK    1  A    between atoms: C_2  and  C_5
REMARK    2  A    between atoms: C_10  and  C_11
REMARK    3  A    between atoms: C_14  and  C_16
REMARK    4  A    between atoms: C_14  and  C_18
REMARK    5  A    between atoms: C_15  and  C_19
REMARK    6  A    between atoms: C_18  and  C_23
REMARK    7  A    between atoms: C_20  and  C_26
REMARK    8  A    between atoms: C_23  and  C_27
REMARK    9  A    between atoms: C_23  and  C_28
REMARK                            x       y       z     vdW  Elec       q    Type
REMARK                         _______ _______ _______ _____ _____    ______ ____
ROOT
ATOM      1  C   UNL     1       6.746  32.445  80.647  0.00  0.00    +0.000 C 
ATOM      2  O   UNL     1       7.027  31.976  81.749  0.00  0.00    +0.000 OA
ATOM      3  N   UNL     1       6.186  31.625  79.661  0.00  0.00    +0.000 N 
ATOM      4  C   UNL     1       5.489  30.333  80.010  0.00  0.00    +0.000 C 
ATOM      5  C   UNL     1       5.925  31.978  78.251  0.00  0.00    +0.000 C 
ATOM      6  C   UNL     1       5.449  29.662  78.596  0.00  0.00    +0.000 C 
ATOM      7  C   UNL     1       5.159  30.801  77.635  0.00  0.00    +0.000 C 
ENDROOT
BRANCH   1  13
ATOM      8  C   UNL     1       8.073  36.427  79.546  0.00  0.00    +0.000 A 
ATOM      9  C   UNL     1       8.998  35.434  79.895  0.00  0.00    +0.000 A 
ATOM     10  C   UNL     1       6.714  36.141  79.683  0.00  0.00    +0.000 A 
ATOM     11  C   UNL     1       8.559  34.155  80.284  0.00  0.00    +0.000 A 
ATOM     12  C   UNL     1       6.290  34.912  80.184  0.00  0.00    +0.000 A 
ATOM     13  C   UNL     1       7.185  33.860  80.372  0.00  0.00    +0.000 A 
BRANCH   8  15
ATOM     14  F   UNL     1       9.276  38.480  79.908  0.00  0.00    +0.000 F 
ATOM     15  C   UNL     1       8.467  37.798  79.056  0.00  0.00    +0.000 C 
ATOM     16  F   UNL     1       7.379  38.595  78.852  0.00  0.00    +0.000 F 
ATOM     17  F   UNL     1       9.118  37.757  77.860  0.00  0.00    +0.000 F 
ENDBRANCH   8  15
ENDBRANCH   1  13
BRANCH   5  18
ATOM     18  C   UNL     1       7.132  32.453  77.470  0.00  0.00    +0.000 A 
ATOM     19  C   UNL     1       7.124  33.618  76.695  0.00  0.00    +0.000 A 
ATOM     20  C   UNL     1       8.320  31.698  77.542  0.00  0.00    +0.000 A 
ATOM     21  C   UNL     1       8.275  34.014  76.009  0.00  0.00    +0.000 A 
ATOM     22  C   UNL     1       9.468  32.101  76.865  0.00  0.00    +0.000 A 
ATOM     23  C   UNL     1       9.447  33.262  76.098  0.00  0.00    +0.000 A 
ENDBRANCH   5  18
BRANCH   4  24
ATOM     24  C   UNL     1       6.169  29.213  80.849  0.00  0.00    +0.000 C 
ATOM     25  O   UNL     1       5.578  28.568  81.708  0.00  0.00    +0.000 OA
ATOM     26  O   UNL     1       7.420  28.896  80.463  0.00  0.00    +0.000 OA
ENDBRANCH   4  24
BRANCH   7  27
ATOM     27  C   UNL     1       5.492  30.523  76.189  0.00  0.00    +0.000 C 
ATOM     28  O   UNL     1       5.009  31.107  75.234  0.00  0.00    +0.000 OA
ATOM     29  O   UNL     1       6.419  29.543  76.042  0.00  0.00    +0.000 OA
ENDBRANCH   7  27
BRANCH   4  30
ATOM     30  C   UNL     1       4.023  30.581  80.517  0.00  0.00    +0.000 C 
BRANCH  30  31
ATOM     31  C   UNL     1       3.538  32.037  80.708  0.00  0.00    +0.000 C 
ATOM     32  C   UNL     1       2.258  32.277  79.889  0.00  0.00    +0.000 C 
ATOM     33  C   UNL     1       3.244  32.418  82.157  0.00  0.00    +0.000 C 
ENDBRANCH  30  31
ENDBRANCH   4  30
TORSDOF 7
ENDMDL
MODEL 6
REMARK VINA RESULT:      -7.1      3.170      4.481
REMARK  Name = 
REMARK  9 active torsions:
REMARK  status: ('A' for Active; 'I' for Inactive)
REMARK    1  A    between atoms: C_2  and  C_5
REMARK    2  A    between atoms: C_10  and  C_11
REMARK    3  A    between atoms: C_14  and  C_16
REMARK    4  A    between atoms: C_14  and  C_18
REMARK    5  A    between atoms: C_15  and  C_19
REMARK    6  A    between atoms: C_18  and  C_23
REMARK    7  A    between atoms: C_20  and  C_26
REMARK    8  A    between atoms: C_23  and  C_27
REMARK    9  A    between atoms: C_23  and  C_28
REMARK                            x       y       z     vdW  Elec       q    Type
REMARK                         _______ _______ _______ _____ _____    ______ ____
ROOT
ATOM      1  C   UNL     1       9.013  34.625  78.682  0.00  0.00    +0.000 C 
ATOM      2  O   UNL     1       9.696  34.699  79.702  0.00  0.00    +0.000 OA
ATOM      3  N   UNL     1       7.714  35.142  78.670  0.00  0.00    +0.000 N 
ATOM      4  C   UNL     1       7.270  36.182  79.670  0.00  0.00    +0.000 C 
ATOM      5  C   UNL     1       6.712  35.011  77.594  0.00  0.00    +0.000 C 
ATOM      6  C   UNL     1       5.717  36.081  79.485  0.00  0.00    +0.000 C 
ATOM      7  C   UNL     1       5.517  35.887  77.992  0.00  0.00    +0.000 C 
ENDROOT
BRANCH   1  13
ATOM      8  C   UNL     1      10.927  32.367  75.508  0.00  0.00    +0.000 A 
ATOM      9  C   UNL     1      10.773  33.757  75.407  0.00  0.00    +0.000 A 
ATOM     10  C   UNL     1      10.340  31.715  76.592  0.00  0.00    +0.000 A 
ATOM     11  C   UNL     1      10.121  34.477  76.425  0.00  0.00    +0.000 A 
ATOM     12  C   UNL     1       9.593  32.422  77.531  0.00  0.00    +0.000 A 
ATOM     13  C   UNL     1       9.574  33.816  77.540  0.00  0.00    +0.000 A 
BRANCH   8  15
ATOM     14  F   UNL     1      11.604  32.018  73.224  0.00  0.00    +0.000 F 
ATOM     15  C   UNL     1      11.671  31.536  74.492  0.00  0.00    +0.000 C 
ATOM     16  F   UNL     1      11.193  30.260  74.435  0.00  0.00    +0.000 F 
ATOM     17  F   UNL     1      12.996  31.416  74.787  0.00  0.00    +0.000 F 
ENDBRANCH   8  15
ENDBRANCH   1  13
BRANCH   5  18
ATOM     18  C   UNL     1       6.376  33.591  77.193  0.00  0.00    +0.000 A 
ATOM     19  C   UNL     1       6.360  33.161  75.861  0.00  0.00    +0.000 A 
ATOM     20  C   UNL     1       6.085  32.657  78.208  0.00  0.00    +0.000 A 
ATOM     21  C   UNL     1       6.057  31.832  75.555  0.00  0.00    +0.000 A 
ATOM     22  C   UNL     1       5.794  31.330  77.899  0.00  0.00    +0.000 A 
ATOM     23  C   UNL     1       5.782  30.915  76.572  0.00  0.00    +0.000 A 
ENDBRANCH   5  18
BRANCH   4  24
ATOM     24  C   UNL     1       7.396  35.977  81.207  0.00  0.00    +0.000 C 
ATOM     25  O   UNL     1       8.423  36.221  81.832  0.00  0.00    +0.000 OA
ATOM     26  O   UNL     1       6.249  35.647  81.832  0.00  0.00    +0.000 OA
ENDBRANCH   4  24
BRANCH   7  27
ATOM     27  C   UNL     1       4.172  35.333  77.591  0.00  0.00    +0.000 C 
ATOM     28  O   UNL     1       3.727  35.327  76.456  0.00  0.00    +0.000 OA
ATOM     29  O   UNL     1       3.483  34.813  78.638  0.00  0.00    +0.000 OA
ENDBRANCH   7  27
BRANCH   4  30
ATOM     30  C   UNL     1       7.755  37.621  79.269  0.00  0.00    +0.000 C 
BRANCH  30  31
ATOM     31  C   UNL     1       7.990  38.665  80.386  0.00  0.00    +0.000 C 
ATOM     32  C   UNL     1       9.434  39.193  80.317  0.00  0.00    +0.000 C 
ATOM     33  C   UNL     1       7.050  39.866  80.334  0.00  0.00    +0.000 C 
ENDBRANCH  30  31
ENDBRANCH   4  30
TORSDOF 7
ENDMDL
MODEL 7
REMARK VINA RESULT:      -7.0      2.201      4.861
REMARK  Name = 
REMARK  9 active torsions:
REMARK  status: ('A' for Active; 'I' for Inactive)
REMARK    1  A    between atoms: C_2  and  C_5
REMARK    2  A    between atoms: C_10  and  C_11
REMARK    3  A    between atoms: C_14  and  C_16
REMARK    4  A    between atoms: C_14  and  C_18
REMARK    5  A    between atoms: C_15  and  C_19
REMARK    6  A    between atoms: C_18  and  C_23
REMARK    7  A    between atoms: C_20  and  C_26
REMARK    8  A    between atoms: C_23  and  C_27
REMARK    9  A    between atoms: C_23  and  C_28
REMARK                            x       y       z     vdW  Elec       q    Type
REMARK                         _______ _______ _______ _____ _____    ______ ____
ROOT
ATOM      1  C   UNL     1       6.590  34.001  76.727  0.00  0.00    +0.000 C 
ATOM      2  O   UNL     1       6.100  34.745  75.878  0.00  0.00    +0.000 OA
ATOM      3  N   UNL     1       5.866  33.684  77.881  0.00  0.00    +0.000 N 
ATOM      4  C   UNL     1       4.364  33.822  77.933  0.00  0.00    +0.000 C 
ATOM      5  C   UNL     1       6.349  32.936  79.058  0.00  0.00    +0.000 C 
ATOM      6  C   UNL     1       4.146  33.758  79.483  0.00  0.00    +0.000 C 
ATOM      7  C   UNL     1       5.136  32.714  79.970  0.00  0.00    +0.000 C 
ENDROOT
BRANCH   1  13
ATOM      8  C   UNL     1      10.687  32.853  75.868  0.00  0.00    +0.000 A 
ATOM      9  C   UNL     1       9.675  31.887  75.957  0.00  0.00    +0.000 A 
ATOM     10  C   UNL     1      10.368  34.174  76.185  0.00  0.00    +0.000 A 
ATOM     11  C   UNL     1       8.355  32.264  76.270  0.00  0.00    +0.000 A 
ATOM     12  C   UNL     1       9.087  34.517  76.611  0.00  0.00    +0.000 A 
ATOM     13  C   UNL     1       8.033  33.607  76.540  0.00  0.00    +0.000 A 
BRANCH   8  15
ATOM     14  F   UNL     1      12.404  31.211  75.482  0.00  0.00    +0.000 F 
ATOM     15  C   UNL     1      12.108  32.537  75.473  0.00  0.00    +0.000 C 
ATOM     16  F   UNL     1      13.009  33.129  76.310  0.00  0.00    +0.000 F 
ATOM     17  F   UNL     1      12.416  32.990  74.226  0.00  0.00    +0.000 F 
ENDBRANCH   8  15
ENDBRANCH   1  13
BRANCH   5  18
ATOM     18  C   UNL     1       7.577  33.512  79.732  0.00  0.00    +0.000 A 
ATOM     19  C   UNL     1       8.689  32.736  80.076  0.00  0.00    +0.000 A 
ATOM     20  C   UNL     1       7.606  34.894  80.006  0.00  0.00    +0.000 A 
ATOM     21  C   UNL     1       9.800  33.328  80.682  0.00  0.00    +0.000 A 
ATOM     22  C   UNL     1       8.720  35.483  80.601  0.00  0.00    +0.000 A 
ATOM     23  C   UNL     1       9.819  34.701  80.938  0.00  0.00    +0.000 A 
ENDBRANCH   5  18
BRANCH   4  24
ATOM     24  C   UNL     1       3.631  35.150  77.588  0.00  0.00    +0.000 C 
ATOM     25  O   UNL     1       3.100  35.359  76.503  0.00  0.00    +0.000 OA
ATOM     26  O   UNL     1       3.493  36.007  78.620  0.00  0.00    +0.000 OA
ENDBRANCH   4  24
BRANCH   7  27
ATOM     27  C   UNL     1       5.444  32.761  81.447  0.00  0.00    +0.000 C 
ATOM     28  O   UNL     1       5.287  33.733  82.166  0.00  0.00    +0.000 OA
ATOM     29  O   UNL     1       5.915  31.581  81.924  0.00  0.00    +0.000 OA
ENDBRANCH   7  27
BRANCH   4  30
ATOM     30  C   UNL     1       3.643  32.607  77.249  0.00  0.00    +0.000 C 
BRANCH  30  31
ATOM     31  C   UNL     1       4.465  31.335  76.935  0.00  0.00    +0.000 C 
ATOM     32  C   UNL     1       3.713  30.086  77.428  0.00  0.00    +0.000 C 
ATOM     33  C   UNL     1       4.779  31.137  75.454  0.00  0.00    +0.000 C 
ENDBRANCH  30  31
ENDBRANCH   4  30
TORSDOF 7
ENDMDL
MODEL 8
REMARK VINA RESULT:      -7.0      1.846      2.818
REMARK  Name = 
REMARK  9 active torsions:
REMARK  status: ('A' for Active; 'I' for Inactive)
REMARK    1  A    between atoms: C_2  and  C_5
REMARK    2  A    between atoms: C_10  and  C_11
REMARK    3  A    between atoms: C_14  and  C_16
REMARK    4  A    between atoms: C_14  and  C_18
REMARK    5  A    between atoms: C_15  and  C_19
REMARK    6  A    between atoms: C_18  and  C_23
REMARK    7  A    between atoms: C_20  and  C_26
REMARK    8  A    between atoms: C_23  and  C_27
REMARK    9  A    between atoms: C_23  and  C_28
REMARK                            x       y       z     vdW  Elec       q    Type
REMARK                         _______ _______ _______ _____ _____    ______ ____
ROOT
ATOM      1  C   UNL     1       6.858  31.994  79.772  0.00  0.00    +0.000 C 
ATOM      2  O   UNL     1       6.656  31.030  80.509  0.00  0.00    +0.000 OA
ATOM      3  N   UNL     1       5.973  33.077  79.779  0.00  0.00    +0.000 N 
ATOM      4  C   UNL     1       5.056  33.340  80.949  0.00  0.00    +0.000 C 
ATOM      5  C   UNL     1       5.979  34.238  78.867  0.00  0.00    +0.000 C 
ATOM      6  C   UNL     1       4.054  34.342  80.280  0.00  0.00    +0.000 C 
ATOM      7  C   UNL     1       4.919  35.216  79.389  0.00  0.00    +0.000 C 
ENDROOT
BRANCH   1  13
ATOM      8  C   UNL     1       9.906  31.822  76.688  0.00  0.00    +0.000 A 
ATOM      9  C   UNL     1       8.787  30.979  76.638  0.00  0.00    +0.000 A 
ATOM     10  C   UNL     1      10.078  32.625  77.816  0.00  0.00    +0.000 A 
ATOM     11  C   UNL     1       7.820  31.016  77.660  0.00  0.00    +0.000 A 
ATOM     12  C   UNL     1       9.178  32.567  78.877  0.00  0.00    +0.000 A 
ATOM     13  C   UNL     1       7.977  31.867  78.770  0.00  0.00    +0.000 A 
BRANCH   8  15
ATOM     14  F   UNL     1      10.802  32.938  74.753  0.00  0.00    +0.000 F 
ATOM     15  C   UNL     1      10.949  31.887  75.600  0.00  0.00    +0.000 C 
ATOM     16  F   UNL     1      10.935  30.769  74.818  0.00  0.00    +0.000 F 
ATOM     17  F   UNL     1      12.216  31.968  76.096  0.00  0.00    +0.000 F 
ENDBRANCH   8  15
ENDBRANCH   1  13
BRANCH   5  18
ATOM     18  C   UNL     1       5.888  33.902  77.393  0.00  0.00    +0.000 A 
ATOM     19  C   UNL     1       4.930  33.026  76.871  0.00  0.00    +0.000 A 
ATOM     20  C   UNL     1       6.797  34.515  76.507  0.00  0.00    +0.000 A 
ATOM     21  C   UNL     1       4.886  32.768  75.499  0.00  0.00    +0.000 A 
ATOM     22  C   UNL     1       6.744  34.263  75.139  0.00  0.00    +0.000 A 
ATOM     23  C   UNL     1       5.786  33.391  74.632  0.00  0.00    +0.000 A 
ENDBRANCH   5  18
BRANCH   4  24
ATOM     24  C   UNL     1       4.074  32.268  81.502  0.00  0.00    +0.000 C 
ATOM     25  O   UNL     1       4.055  31.921  82.678  0.00  0.00    +0.000 OA
ATOM     26  O   UNL     1       3.140  31.847  80.626  0.00  0.00    +0.000 OA
ENDBRANCH   4  24
BRANCH   7  27
ATOM     27  C   UNL     1       4.176  35.970  78.313  0.00  0.00    +0.000 C 
ATOM     28  O   UNL     1       3.119  35.622  77.816  0.00  0.00    +0.000 OA
ATOM     29  O   UNL     1       4.803  37.116  77.945  0.00  0.00    +0.000 OA
ENDBRANCH   7  27
BRANCH   4  30
ATOM     30  C   UNL     1       5.806  34.054  82.129  0.00  0.00    +0.000 C 
BRANCH  30  31
ATOM     31  C   UNL     1       7.352  34.016  82.159  0.00  0.00    +0.000 C 
ATOM     32  C   UNL     1       7.915  35.448  82.156  0.00  0.00    +0.000 C 
ATOM     33  C   UNL     1       7.941  33.284  83.364  0.00  0.00    +0.000 C 
ENDBRANCH  30  31
ENDBRANCH   4  30
TORSDOF 7
ENDMDL
MODEL 9
REMARK VINA RESULT:      -6.9      1.894      2.857
REMARK  Name = 
REMARK  9 active torsions:
REMARK  status: ('A' for Active; 'I' for Inactive)
REMARK    1  A    between atoms: C_2  and  C_5
REMARK    2  A    between atoms: C_10  and  C_11
REMARK    3  A    between atoms: C_14  and  C_16
REMARK    4  A    between atoms: C_14  and  C_18
REMARK    5  A    between atoms: C_15  and  C_19
REMARK    6  A    between atoms: C_18  and  C_23
REMARK    7  A    between atoms: C_20  and  C_26
REMARK    8  A    between atoms: C_23  and  C_27
REMARK    9  A    between atoms: C_23  and  C_28
REMARK                            x       y       z     vdW  Elec       q    Type
REMARK                         _______ _______ _______ _____ _____    ______ ____
ROOT
ATOM      1  C   UNL     1       7.581  31.402  77.398  0.00  0.00    +0.000 C 
ATOM      2  O   UNL     1       7.168  30.479  76.697  0.00  0.00    +0.000 OA
ATOM      3  N   UNL     1       6.911  31.736  78.579  0.00  0.00    +0.000 N 
ATOM      4  C   UNL     1       5.999  30.756  79.275  0.00  0.00    +0.000 C 
ATOM      5  C   UNL     1       7.176  32.894  79.456  0.00  0.00    +0.000 C 
ATOM      6  C   UNL     1       5.233  31.735  80.228  0.00  0.00    +0.000 C 
ATOM      7  C   UNL     1       6.288  32.723  80.695  0.00  0.00    +0.000 C 
ENDROOT
BRANCH   1  13
ATOM      8  C   UNL     1      10.714  34.047  75.975  0.00  0.00    +0.000 A 
ATOM      9  C   UNL     1       9.438  34.067  75.393  0.00  0.00    +0.000 A 
ATOM     10  C   UNL     1      10.986  33.071  76.935  0.00  0.00    +0.000 A 
ATOM     11  C   UNL     1       8.438  33.182  75.837  0.00  0.00    +0.000 A 
ATOM     12  C   UNL     1      10.026  32.123  77.280  0.00  0.00    +0.000 A 
ATOM     13  C   UNL     1       8.708  32.234  76.841  0.00  0.00    +0.000 A 
BRANCH   8  15
ATOM     14  F   UNL     1      11.492  36.315  75.764  0.00  0.00    +0.000 F 
ATOM     15  C   UNL     1      11.816  35.006  75.600  0.00  0.00    +0.000 C 
ATOM     16  F   UNL     1      12.181  34.870  74.292  0.00  0.00    +0.000 F 
ATOM     17  F   UNL     1      12.954  34.799  76.319  0.00  0.00    +0.000 F 
ENDBRANCH   8  15
ENDBRANCH   1  13
BRANCH   5  18
ATOM     18  C   UNL     1       7.101  34.247  78.781  0.00  0.00    +0.000 A 
ATOM     19  C   UNL     1       8.112  35.208  78.891  0.00  0.00    +0.000 A 
ATOM     20  C   UNL     1       5.971  34.543  77.992  0.00  0.00    +0.000 A 
ATOM     21  C   UNL     1       7.993  36.434  78.231  0.00  0.00    +0.000 A 
ATOM     22  C   UNL     1       5.860  35.762  77.327  0.00  0.00    +0.000 A 
ATOM     23  C   UNL     1       6.873  36.708  77.444  0.00  0.00    +0.000 A 
ENDBRANCH   5  18
BRANCH   4  24
ATOM     24  C   UNL     1       4.810  30.059  78.553  0.00  0.00    +0.000 C 
ATOM     25  O   UNL     1       4.622  28.847  78.590  0.00  0.00    +0.000 OA
ATOM     26  O   UNL     1       3.911  30.897  78.001  0.00  0.00    +0.000 OA
ENDBRANCH   4  24
BRANCH   7  27
ATOM     27  C   UNL     1       5.752  34.013  81.267  0.00  0.00    +0.000 C 
ATOM     28  O   UNL     1       6.404  34.821  81.906  0.00  0.00    +0.000 OA
ATOM     29  O   UNL     1       4.439  34.208  80.985  0.00  0.00    +0.000 OA
ENDBRANCH   7  27
BRANCH   4  30
ATOM     30  C   UNL     1       6.806  29.714  80.129  0.00  0.00    +0.000 C 
BRANCH  30  31
ATOM     31  C   UNL     1       6.190  29.197  81.450  0.00  0.00    +0.000 C 
ATOM     32  C   UNL     1       6.231  27.660  81.484  0.00  0.00    +0.000 C 
ATOM     33  C   UNL     1       6.880  29.712  82.711  0.00  0.00    +0.000 C 
ENDBRANCH  30  31
ENDBRANCH   4  30
TORSDOF 7
ENDMDL
