MODEL 1
REMARK VINA RESULT:      -7.7      0.000      0.000
REMARK  Name = 
REMARK  6 active torsions:
REMARK  status: ('A' for Active; 'I' for Inactive)
REMARK    1  A    between atoms: C_2  and  C_5
REMARK    2  A    between atoms: C_10  and  C_11
REMARK    3  A    between atoms: C_14  and  C_16
REMARK    4  A    between atoms: C_14  and  C_18
REMARK    5  A    between atoms: C_15  and  C_19
REMARK    6  A    between atoms: C_20  and  C_25
REMARK                            x       y       z     vdW  Elec       q    Type
REMARK                         _______ _______ _______ _____ _____    ______ ____
ROOT
ATOM      1  C   UNL     1       7.099  32.458  76.210  0.00  0.00    +0.000 C 
ATOM      2  O   UNL     1       6.379  32.832  75.290  0.00  0.00    +0.000 OA
ATOM      3  N   UNL     1       6.581  31.900  77.378  0.00  0.00    +0.000 N 
ATOM      4  C   UNL     1       5.121  31.562  77.589  0.00  0.00    +0.000 C 
ATOM      5  C   UNL     1       7.408  31.280  78.437  0.00  0.00    +0.000 C 
ATOM      6  C   UNL     1       5.154  30.441  78.665  0.00  0.00    +0.000 C 
ATOM      7  C   UNL     1       4.376  31.081  76.338  0.00  0.00    +0.000 C 
ATOM      8  C   UNL     1       6.621  30.028  78.792  0.00  0.00    +0.000 C 
ENDROOT
BRANCH   1  14
ATOM      9  C   UNL     1      11.350  32.903  75.616  0.00  0.00    +0.000 A 
ATOM     10  C   UNL     1      10.744  31.640  75.594  0.00  0.00    +0.000 A 
ATOM     11  C   UNL     1      10.559  34.022  75.931  0.00  0.00    +0.000 A 
ATOM     12  C   UNL     1       9.377  31.502  75.846  0.00  0.00    +0.000 A 
ATOM     13  C   UNL     1       9.177  33.886  76.148  0.00  0.00    +0.000 A 
ATOM     14  C   UNL     1       8.574  32.625  76.059  0.00  0.00    +0.000 A 
BRANCH   9  16
ATOM     15  F   UNL     1      13.518  31.876  75.416  0.00  0.00    +0.000 F 
ATOM     16  C   UNL     1      12.827  33.047  75.316  0.00  0.00    +0.000 C 
ATOM     17  F   UNL     1      13.452  33.922  76.150  0.00  0.00    +0.000 F 
ATOM     18  F   UNL     1      13.056  33.502  74.052  0.00  0.00    +0.000 F 
ENDBRANCH   9  16
ENDBRANCH   1  14
BRANCH   5  19
ATOM     19  C   UNL     1       7.785  32.232  79.574  0.00  0.00    +0.000 A 
ATOM     20  C   UNL     1       6.854  32.922  80.364  0.00  0.00    +0.000 A 
ATOM     21  C   UNL     1       9.148  32.483  79.827  0.00  0.00    +0.000 A 
ATOM     22  C   UNL     1       7.253  33.847  81.335  0.00  0.00    +0.000 A 
ATOM     23  C   UNL     1       9.551  33.407  80.797  0.00  0.00    +0.000 A 
ATOM     24  C   UNL     1       8.603  34.095  81.547  0.00  0.00    +0.000 A 
ENDBRANCH   5  19
BRANCH   4  25
ATOM     25  C   UNL     1       4.263  32.745  78.111  0.00  0.00    +0.000 C 
ATOM     26  O   UNL     1       4.282  33.879  77.642  0.00  0.00    +0.000 OA
ATOM     27  O   UNL     1       3.531  32.452  79.213  0.00  0.00    +0.000 OA
ENDBRANCH   4  25
BRANCH   8  28
ATOM     28  C   UNL     1       6.987  29.427  80.125  0.00  0.00    +0.000 C 
ATOM     29  O   UNL     1       6.324  29.527  81.144  0.00  0.00    +0.000 OA
ATOM     30  O   UNL     1       8.149  28.733  80.094  0.00  0.00    +0.000 OA
ENDBRANCH   8  28
TORSDOF 5
ENDMDL
MODEL 2
REMARK VINA RESULT:      -7.6      1.699      4.376
REMARK  Name = 
REMARK  6 active torsions:
REMARK  status: ('A' for Active; 'I' for Inactive)
REMARK    1  A    between atoms: C_2  and  C_5
REMARK    2  A    between atoms: C_10  and  C_11
REMARK    3  A    between atoms: C_14  and  C_16
REMARK    4  A    between atoms: C_14  and  C_18
REMARK    5  A    between atoms: C_15  and  C_19
REMARK    6  A    between atoms: C_20  and  C_25
REMARK                            x       y       z     vdW  Elec       q    Type
REMARK                         _______ _______ _______ _____ _____    ______ ____
ROOT
ATOM      1  C   UNL     1       9.294  31.665  79.083  0.00  0.00    +0.000 C 
ATOM      2  O   UNL     1       9.976  30.995  79.851  0.00  0.00    +0.000 OA
ATOM      3  N   UNL     1       7.980  32.026  79.380  0.00  0.00    +0.000 N 
ATOM      4  C   UNL     1       7.303  31.767  80.708  0.00  0.00    +0.000 C 
ATOM      5  C   UNL     1       7.178  32.970  78.572  0.00  0.00    +0.000 C 
ATOM      6  C   UNL     1       6.197  32.858  80.777  0.00  0.00    +0.000 C 
ATOM      7  C   UNL     1       8.218  31.856  81.935  0.00  0.00    +0.000 C 
ATOM      8  C   UNL     1       6.493  33.823  79.628  0.00  0.00    +0.000 C 
ENDROOT
BRANCH   1  14
ATOM      9  C   UNL     1      11.205  32.845  75.399  0.00  0.00    +0.000 A 
ATOM     10  C   UNL     1      11.395  33.575  76.579  0.00  0.00    +0.000 A 
ATOM     11  C   UNL     1      10.301  31.768  75.413  0.00  0.00    +0.000 A 
ATOM     12  C   UNL     1      10.725  33.219  77.752  0.00  0.00    +0.000 A 
ATOM     13  C   UNL     1       9.655  31.389  76.603  0.00  0.00    +0.000 A 
ATOM     14  C   UNL     1       9.905  32.089  77.790  0.00  0.00    +0.000 A 
BRANCH   9  16
ATOM     15  F   UNL     1      13.308  33.260  74.304  0.00  0.00    +0.000 F 
ATOM     16  C   UNL     1      11.956  33.221  74.138  0.00  0.00    +0.000 C 
ATOM     17  F   UNL     1      11.603  34.445  73.660  0.00  0.00    +0.000 F 
ATOM     18  F   UNL     1      11.735  32.341  73.123  0.00  0.00    +0.000 F 
ENDBRANCH   9  16
ENDBRANCH   1  14
BRANCH   5  19
ATOM     19  C   UNL     1       6.298  32.298  77.515  0.00  0.00    +0.000 A 
ATOM     20  C   UNL     1       5.644  31.072  77.702  0.00  0.00    +0.000 A 
ATOM     21  C   UNL     1       6.162  32.910  76.254  0.00  0.00    +0.000 A 
ATOM     22  C   UNL     1       4.919  30.460  76.672  0.00  0.00    +0.000 A 
ATOM     23  C   UNL     1       5.439  32.301  75.223  0.00  0.00    +0.000 A 
ATOM     24  C   UNL     1       4.822  31.071  75.430  0.00  0.00    +0.000 A 
ENDBRANCH   5  19
BRANCH   4  25
ATOM     25  C   UNL     1       6.645  30.366  80.825  0.00  0.00    +0.000 C 
ATOM     26  O   UNL     1       7.206  29.309  80.554  0.00  0.00    +0.000 OA
ATOM     27  O   UNL     1       5.336  30.399  81.177  0.00  0.00    +0.000 OA
ENDBRANCH   4  25
BRANCH   8  28
ATOM     28  C   UNL     1       5.291  34.580  79.124  0.00  0.00    +0.000 C 
ATOM     29  O   UNL     1       5.335  35.580  78.426  0.00  0.00    +0.000 OA
ATOM     30  O   UNL     1       4.116  34.034  79.515  0.00  0.00    +0.000 OA
ENDBRANCH   8  28
TORSDOF 5
ENDMDL
MODEL 3
REMARK VINA RESULT:      -7.4      1.731      2.326
REMARK  Name = 
REMARK  6 active torsions:
REMARK  status: ('A' for Active; 'I' for Inactive)
REMARK    1  A    between atoms: C_2  and  C_5
REMARK    2  A    between atoms: C_10  and  C_11
REMARK    3  A    between atoms: C_14  and  C_16
REMARK    4  A    between atoms: C_14  and  C_18
REMARK    5  A    between atoms: C_15  and  C_19
REMARK    6  A    between atoms: C_20  and  C_25
REMARK                            x       y       z     vdW  Elec       q    Type
REMARK                         _______ _______ _______ _____ _____    ______ ____
ROOT
ATOM      1  C   UNL     1       6.020  31.260  76.722  0.00  0.00    +0.000 C 
ATOM      2  O   UNL     1       5.384  30.804  75.777  0.00  0.00    +0.000 OA
ATOM      3  N   UNL     1       5.572  31.155  78.038  0.00  0.00    +0.000 N 
ATOM      4  C   UNL     1       4.355  30.364  78.465  0.00  0.00    +0.000 C 
ATOM      5  C   UNL     1       6.379  31.533  79.219  0.00  0.00    +0.000 C 
ATOM      6  C   UNL     1       4.644  30.020  79.954  0.00  0.00    +0.000 C 
ATOM      7  C   UNL     1       4.095  29.083  77.662  0.00  0.00    +0.000 C 
ATOM      8  C   UNL     1       6.107  30.396  80.192  0.00  0.00    +0.000 C 
ENDROOT
BRANCH   1  14
ATOM      9  C   UNL     1       9.732  33.345  76.018  0.00  0.00    +0.000 A 
ATOM     10  C   UNL     1       8.503  34.016  75.966  0.00  0.00    +0.000 A 
ATOM     11  C   UNL     1       9.729  31.952  76.211  0.00  0.00    +0.000 A 
ATOM     12  C   UNL     1       7.304  33.320  76.136  0.00  0.00    +0.000 A 
ATOM     13  C   UNL     1       8.524  31.259  76.420  0.00  0.00    +0.000 A 
ATOM     14  C   UNL     1       7.308  31.954  76.429  0.00  0.00    +0.000 A 
BRANCH   9  16
ATOM     15  F   UNL     1      11.620  33.928  74.644  0.00  0.00    +0.000 F 
ATOM     16  C   UNL     1      11.028  34.111  75.858  0.00  0.00    +0.000 C 
ATOM     17  F   UNL     1      11.963  33.765  76.785  0.00  0.00    +0.000 F 
ATOM     18  F   UNL     1      10.854  35.456  75.982  0.00  0.00    +0.000 F 
ENDBRANCH   9  16
ENDBRANCH   1  14
BRANCH   5  19
ATOM     19  C   UNL     1       6.140  32.963  79.708  0.00  0.00    +0.000 A 
ATOM     20  C   UNL     1       4.881  33.475  80.056  0.00  0.00    +0.000 A 
ATOM     21  C   UNL     1       7.232  33.850  79.774  0.00  0.00    +0.000 A 
ATOM     22  C   UNL     1       4.706  34.817  80.416  0.00  0.00    +0.000 A 
ATOM     23  C   UNL     1       7.060  35.191  80.134  0.00  0.00    +0.000 A 
ATOM     24  C   UNL     1       5.795  35.677  80.448  0.00  0.00    +0.000 A 
ENDBRANCH   5  19
BRANCH   4  25
ATOM     25  C   UNL     1       3.020  31.149  78.372  0.00  0.00    +0.000 C 
ATOM     26  O   UNL     1       2.828  32.111  77.635  0.00  0.00    +0.000 OA
ATOM     27  O   UNL     1       2.076  30.739  79.255  0.00  0.00    +0.000 OA
ENDBRANCH   4  25
BRANCH   8  28
ATOM     28  C   UNL     1       6.443  30.718  81.626  0.00  0.00    +0.000 C 
ATOM     29  O   UNL     1       5.626  30.916  82.509  0.00  0.00    +0.000 OA
ATOM     30  O   UNL     1       7.775  30.760  81.863  0.00  0.00    +0.000 OA
ENDBRANCH   8  28
TORSDOF 5
ENDMDL
MODEL 4
REMARK VINA RESULT:      -7.4      3.622      4.843
REMARK  Name = 
REMARK  6 active torsions:
REMARK  status: ('A' for Active; 'I' for Inactive)
REMARK    1  A    between atoms: C_2  and  C_5
REMARK    2  A    between atoms: C_10  and  C_11
REMARK    3  A    between atoms: C_14  and  C_16
REMARK    4  A    between atoms: C_14  and  C_18
REMARK    5  A    between atoms: C_15  and  C_19
REMARK    6  A    between atoms: C_20  and  C_25
REMARK                            x       y       z     vdW  Elec       q    Type
REMARK                         _______ _______ _______ _____ _____    ______ ____
ROOT
ATOM      1  C   UNL     1       6.996  32.911  76.951  0.00  0.00    +0.000 C 
ATOM      2  O   UNL     1       7.422  32.651  75.831  0.00  0.00    +0.000 OA
ATOM      3  N   UNL     1       6.245  31.998  77.690  0.00  0.00    +0.000 N 
ATOM      4  C   UNL     1       5.995  30.564  77.275  0.00  0.00    +0.000 C 
ATOM      5  C   UNL     1       5.857  32.196  79.104  0.00  0.00    +0.000 C 
ATOM      6  C   UNL     1       5.723  29.833  78.620  0.00  0.00    +0.000 C 
ATOM      7  C   UNL     1       7.152  29.891  76.525  0.00  0.00    +0.000 C 
ATOM      8  C   UNL     1       6.102  30.827  79.718  0.00  0.00    +0.000 C 
ENDROOT
BRANCH   1  14
ATOM      9  C   UNL     1       7.719  36.797  78.683  0.00  0.00    +0.000 A 
ATOM     10  C   UNL     1       6.676  36.593  77.769  0.00  0.00    +0.000 A 
ATOM     11  C   UNL     1       8.591  35.728  78.956  0.00  0.00    +0.000 A 
ATOM     12  C   UNL     1       6.488  35.346  77.170  0.00  0.00    +0.000 A 
ATOM     13  C   UNL     1       8.377  34.463  78.381  0.00  0.00    +0.000 A 
ATOM     14  C   UNL     1       7.292  34.259  77.519  0.00  0.00    +0.000 A 
BRANCH   9  16
ATOM     15  F   UNL     1       9.101  38.728  79.072  0.00  0.00    +0.000 F 
ATOM     16  C   UNL     1       7.900  38.145  79.348  0.00  0.00    +0.000 C 
ATOM     17  F   UNL     1       7.821  38.078  80.705  0.00  0.00    +0.000 F 
ATOM     18  F   UNL     1       6.956  39.046  78.959  0.00  0.00    +0.000 F 
ENDBRANCH   9  16
ENDBRANCH   1  14
BRANCH   5  19
ATOM     19  C   UNL     1       4.474  32.825  79.290  0.00  0.00    +0.000 A 
ATOM     20  C   UNL     1       3.289  32.288  78.765  0.00  0.00    +0.000 A 
ATOM     21  C   UNL     1       4.370  34.044  79.987  0.00  0.00    +0.000 A 
ATOM     22  C   UNL     1       2.061  32.949  78.892  0.00  0.00    +0.000 A 
ATOM     23  C   UNL     1       3.144  34.707  80.116  0.00  0.00    +0.000 A 
ATOM     24  C   UNL     1       1.990  34.163  79.562  0.00  0.00    +0.000 A 
ENDBRANCH   5  19
BRANCH   4  25
ATOM     25  C   UNL     1       4.774  30.377  76.336  0.00  0.00    +0.000 C 
ATOM     26  O   UNL     1       4.595  30.999  75.293  0.00  0.00    +0.000 OA
ATOM     27  O   UNL     1       3.843  29.511  76.807  0.00  0.00    +0.000 OA
ENDBRANCH   4  25
BRANCH   8  28
ATOM     28  C   UNL     1       5.396  30.605  81.031  0.00  0.00    +0.000 C 
ATOM     29  O   UNL     1       5.682  31.156  82.082  0.00  0.00    +0.000 OA
ATOM     30  O   UNL     1       4.374  29.721  80.943  0.00  0.00    +0.000 OA
ENDBRANCH   8  28
TORSDOF 5
ENDMDL
MODEL 5
REMARK VINA RESULT:      -7.4      2.261      2.989
REMARK  Name = 
REMARK  6 active torsions:
REMARK  status: ('A' for Active; 'I' for Inactive)
REMARK    1  A    between atoms: C_2  and  C_5
REMARK    2  A    between atoms: C_10  and  C_11
REMARK    3  A    between atoms: C_14  and  C_16
REMARK    4  A    between atoms: C_14  and  C_18
REMARK    5  A    between atoms: C_15  and  C_19
REMARK    6  A    between atoms: C_20  and  C_25
REMARK                            x       y       z     vdW  Elec       q    Type
REMARK                         _______ _______ _______ _____ _____    ______ ____
ROOT
ATOM      1  C   UNL     1       6.268  32.957  76.484  0.00  0.00    +0.000 C 
ATOM      2  O   UNL     1       5.527  32.559  75.591  0.00  0.00    +0.000 OA
ATOM      3  N   UNL     1       5.776  33.449  77.692  0.00  0.00    +0.000 N 
ATOM      4  C   UNL     1       4.318  33.417  78.097  0.00  0.00    +0.000 C 
ATOM      5  C   UNL     1       6.625  33.778  78.859  0.00  0.00    +0.000 C 
ATOM      6  C   UNL     1       4.367  33.441  79.651  0.00  0.00    +0.000 C 
ATOM      7  C   UNL     1       3.532  32.195  77.606  0.00  0.00    +0.000 C 
ATOM      8  C   UNL     1       5.832  33.210  80.025  0.00  0.00    +0.000 C 
ENDROOT
BRANCH   1  14
ATOM      9  C   UNL     1      10.547  32.916  75.929  0.00  0.00    +0.000 A 
ATOM     10  C   UNL     1       9.813  34.104  75.814  0.00  0.00    +0.000 A 
ATOM     11  C   UNL     1       9.849  31.712  76.136  0.00  0.00    +0.000 A 
ATOM     12  C   UNL     1       8.422  34.096  75.937  0.00  0.00    +0.000 A 
ATOM     13  C   UNL     1       8.452  31.711  76.297  0.00  0.00    +0.000 A 
ATOM     14  C   UNL     1       7.740  32.916  76.244  0.00  0.00    +0.000 A 
BRANCH   9  16
ATOM     15  F   UNL     1      12.672  33.449  76.924  0.00  0.00    +0.000 F 
ATOM     16  C   UNL     1      12.057  32.937  75.821  0.00  0.00    +0.000 C 
ATOM     17  F   UNL     1      12.501  33.677  74.769  0.00  0.00    +0.000 F 
ATOM     18  F   UNL     1      12.581  31.691  75.653  0.00  0.00    +0.000 F 
ENDBRANCH   9  16
ENDBRANCH   1  14
BRANCH   5  19
ATOM     19  C   UNL     1       7.046  35.248  78.930  0.00  0.00    +0.000 A 
ATOM     20  C   UNL     1       6.222  36.321  78.562  0.00  0.00    +0.000 A 
ATOM     21  C   UNL     1       8.356  35.559  79.343  0.00  0.00    +0.000 A 
ATOM     22  C   UNL     1       6.687  37.641  78.566  0.00  0.00    +0.000 A 
ATOM     23  C   UNL     1       8.824  36.878  79.348  0.00  0.00    +0.000 A 
ATOM     24  C   UNL     1       7.991  37.920  78.952  0.00  0.00    +0.000 A 
ENDBRANCH   5  19
BRANCH   4  25
ATOM     25  C   UNL     1       3.491  34.629  77.594  0.00  0.00    +0.000 C 
ATOM     26  O   UNL     1       3.639  35.168  76.501  0.00  0.00    +0.000 OA
ATOM     27  O   UNL     1       2.623  35.124  78.510  0.00  0.00    +0.000 OA
ENDBRANCH   4  25
BRANCH   8  28
ATOM     28  C   UNL     1       6.228  33.767  81.369  0.00  0.00    +0.000 C 
ATOM     29  O   UNL     1       5.618  34.631  81.976  0.00  0.00    +0.000 OA
ATOM     30  O   UNL     1       7.352  33.200  81.868  0.00  0.00    +0.000 OA
ENDBRANCH   8  28
TORSDOF 5
ENDMDL
MODEL 6
REMARK VINA RESULT:      -7.4      2.409      3.879
REMARK  Name = 
REMARK  6 active torsions:
REMARK  status: ('A' for Active; 'I' for Inactive)
REMARK    1  A    between atoms: C_2  and  C_5
REMARK    2  A    between atoms: C_10  and  C_11
REMARK    3  A    between atoms: C_14  and  C_16
REMARK    4  A    between atoms: C_14  and  C_18
REMARK    5  A    between atoms: C_15  and  C_19
REMARK    6  A    between atoms: C_20  and  C_25
REMARK                            x       y       z     vdW  Elec       q    Type
REMARK                         _______ _______ _______ _____ _____    ______ ____
ROOT
ATOM      1  C   UNL     1       9.157  35.347  76.984  0.00  0.00    +0.000 C 
ATOM      2  O   UNL     1       9.569  36.473  77.247  0.00  0.00    +0.000 OA
ATOM      3  N   UNL     1       7.848  34.953  77.261  0.00  0.00    +0.000 N 
ATOM      4  C   UNL     1       6.766  35.881  77.770  0.00  0.00    +0.000 C 
ATOM      5  C   UNL     1       7.256  33.674  76.810  0.00  0.00    +0.000 C 
ATOM      6  C   UNL     1       5.448  35.198  77.307  0.00  0.00    +0.000 C 
ATOM      7  C   UNL     1       6.838  37.319  77.241  0.00  0.00    +0.000 C 
ATOM      8  C   UNL     1       5.870  34.089  76.343  0.00  0.00    +0.000 C 
ENDROOT
BRANCH   1  14
ATOM      9  C   UNL     1      11.779  32.449  75.157  0.00  0.00    +0.000 A 
ATOM     10  C   UNL     1      11.275  32.256  76.449  0.00  0.00    +0.000 A 
ATOM     11  C   UNL     1      11.491  33.657  74.496  0.00  0.00    +0.000 A 
ATOM     12  C   UNL     1      10.475  33.228  77.053  0.00  0.00    +0.000 A 
ATOM     13  C   UNL     1      10.655  34.618  75.092  0.00  0.00    +0.000 A 
ATOM     14  C   UNL     1      10.106  34.381  76.358  0.00  0.00    +0.000 A 
BRANCH   9  16
ATOM     15  F   UNL     1      11.937  30.232  74.232  0.00  0.00    +0.000 F 
ATOM     16  C   UNL     1      12.624  31.379  74.498  0.00  0.00    +0.000 C 
ATOM     17  F   UNL     1      13.691  31.008  75.257  0.00  0.00    +0.000 F 
ATOM     18  F   UNL     1      13.136  31.786  73.303  0.00  0.00    +0.000 F 
ENDBRANCH   9  16
ENDBRANCH   1  14
BRANCH   5  19
ATOM     19  C   UNL     1       7.354  32.544  77.837  0.00  0.00    +0.000 A 
ATOM     20  C   UNL     1       7.279  32.733  79.224  0.00  0.00    +0.000 A 
ATOM     21  C   UNL     1       7.583  31.231  77.382  0.00  0.00    +0.000 A 
ATOM     22  C   UNL     1       7.461  31.675  80.123  0.00  0.00    +0.000 A 
ATOM     23  C   UNL     1       7.765  30.171  78.277  0.00  0.00    +0.000 A 
ATOM     24  C   UNL     1       7.711  30.394  79.649  0.00  0.00    +0.000 A 
ENDBRANCH   5  19
BRANCH   4  25
ATOM     25  C   UNL     1       6.742  36.045  79.313  0.00  0.00    +0.000 C 
ATOM     26  O   UNL     1       7.721  36.320  79.999  0.00  0.00    +0.000 OA
ATOM     27  O   UNL     1       5.542  35.768  79.878  0.00  0.00    +0.000 OA
ENDBRANCH   4  25
BRANCH   8  28
ATOM     28  C   UNL     1       4.889  32.950  76.235  0.00  0.00    +0.000 C 
ATOM     29  O   UNL     1       4.881  32.115  75.345  0.00  0.00    +0.000 OA
ATOM     30  O   UNL     1       3.993  32.922  77.249  0.00  0.00    +0.000 OA
ENDBRANCH   8  28
TORSDOF 5
ENDMDL
MODEL 7
REMARK VINA RESULT:      -7.3      4.179      5.731
REMARK  Name = 
REMARK  6 active torsions:
REMARK  status: ('A' for Active; 'I' for Inactive)
REMARK    1  A    between atoms: C_2  and  C_5
REMARK    2  A    between atoms: C_10  and  C_11
REMARK    3  A    between atoms: C_14  and  C_16
REMARK    4  A    between atoms: C_14  and  C_18
REMARK    5  A    between atoms: C_15  and  C_19
REMARK    6  A    between atoms: C_20  and  C_25
REMARK                            x       y       z     vdW  Elec       q    Type
REMARK                         _______ _______ _______ _____ _____    ______ ____
ROOT
ATOM      1  C   UNL     1       5.752  35.113  77.316  0.00  0.00    +0.000 C 
ATOM      2  O   UNL     1       4.673  35.170  76.734  0.00  0.00    +0.000 OA
ATOM      3  N   UNL     1       6.646  34.061  77.121  0.00  0.00    +0.000 N 
ATOM      4  C   UNL     1       6.466  32.968  76.089  0.00  0.00    +0.000 C 
ATOM      5  C   UNL     1       8.022  34.032  77.662  0.00  0.00    +0.000 C 
ATOM      6  C   UNL     1       7.916  32.477  75.816  0.00  0.00    +0.000 C 
ATOM      7  C   UNL     1       5.796  33.409  74.782  0.00  0.00    +0.000 C 
ATOM      8  C   UNL     1       8.834  33.494  76.495  0.00  0.00    +0.000 C 
ENDROOT
BRANCH   1  14
ATOM      9  C   UNL     1       6.853  38.189  80.134  0.00  0.00    +0.000 A 
ATOM     10  C   UNL     1       6.161  37.043  80.547  0.00  0.00    +0.000 A 
ATOM     11  C   UNL     1       7.102  38.366  78.762  0.00  0.00    +0.000 A 
ATOM     12  C   UNL     1       5.757  36.082  79.617  0.00  0.00    +0.000 A 
ATOM     13  C   UNL     1       6.728  37.380  77.832  0.00  0.00    +0.000 A 
ATOM     14  C   UNL     1       6.094  36.210  78.268  0.00  0.00    +0.000 A 
BRANCH   9  16
ATOM     15  F   UNL     1       7.852  38.659  82.273  0.00  0.00    +0.000 F 
ATOM     16  C   UNL     1       7.310  39.213  81.151  0.00  0.00    +0.000 C 
ATOM     17  F   UNL     1       6.299  40.016  81.582  0.00  0.00    +0.000 F 
ATOM     18  F   UNL     1       8.267  40.046  80.654  0.00  0.00    +0.000 F 
ENDBRANCH   9  16
ENDBRANCH   1  14
BRANCH   5  19
ATOM     19  C   UNL     1       8.149  33.318  79.009  0.00  0.00    +0.000 A 
ATOM     20  C   UNL     1       7.606  32.055  79.284  0.00  0.00    +0.000 A 
ATOM     21  C   UNL     1       8.807  33.975  80.067  0.00  0.00    +0.000 A 
ATOM     22  C   UNL     1       7.678  31.484  80.560  0.00  0.00    +0.000 A 
ATOM     23  C   UNL     1       8.881  33.408  81.344  0.00  0.00    +0.000 A 
ATOM     24  C   UNL     1       8.310  32.164  81.593  0.00  0.00    +0.000 A 
ENDBRANCH   5  19
BRANCH   4  25
ATOM     25  C   UNL     1       5.604  31.771  76.573  0.00  0.00    +0.000 C 
ATOM     26  O   UNL     1       4.632  31.868  77.315  0.00  0.00    +0.000 OA
ATOM     27  O   UNL     1       6.067  30.561  76.174  0.00  0.00    +0.000 OA
ENDBRANCH   4  25
BRANCH   8  28
ATOM     28  C   UNL     1      10.186  32.952  76.882  0.00  0.00    +0.000 C 
ATOM     29  O   UNL     1      10.474  31.769  76.947  0.00  0.00    +0.000 OA
ATOM     30  O   UNL     1      11.090  33.923  77.152  0.00  0.00    +0.000 OA
ENDBRANCH   8  28
TORSDOF 5
ENDMDL
MODEL 8
REMARK VINA RESULT:      -7.2      3.330      4.252
REMARK  Name = 
REMARK  6 active torsions:
REMARK  status: ('A' for Active; 'I' for Inactive)
REMARK    1  A    between atoms: C_2  and  C_5
REMARK    2  A    between atoms: C_10  and  C_11
REMARK    3  A    between atoms: C_14  and  C_16
REMARK    4  A    between atoms: C_14  and  C_18
REMARK    5  A    between atoms: C_15  and  C_19
REMARK    6  A    between atoms: C_20  and  C_25
REMARK                            x       y       z     vdW  Elec       q    Type
REMARK                         _______ _______ _______ _____ _____    ______ ____
ROOT
ATOM      1  C   UNL     1       5.784  33.830  77.041  0.00  0.00    +0.000 C 
ATOM      2  O   UNL     1       5.040  34.019  76.084  0.00  0.00    +0.000 OA
ATOM      3  N   UNL     1       5.944  32.571  77.619  0.00  0.00    +0.000 N 
ATOM      4  C   UNL     1       5.349  31.295  77.064  0.00  0.00    +0.000 C 
ATOM      5  C   UNL     1       6.952  32.258  78.656  0.00  0.00    +0.000 C 
ATOM      6  C   UNL     1       6.288  30.183  77.612  0.00  0.00    +0.000 C 
ATOM      7  C   UNL     1       5.271  31.223  75.534  0.00  0.00    +0.000 C 
ATOM      8  C   UNL     1       7.495  30.911  78.204  0.00  0.00    +0.000 C 
ENDROOT
BRANCH   1  14
ATOM      9  C   UNL     1       7.948  37.132  78.781  0.00  0.00    +0.000 A 
ATOM     10  C   UNL     1       6.654  36.809  79.209  0.00  0.00    +0.000 A 
ATOM     11  C   UNL     1       8.498  36.417  77.703  0.00  0.00    +0.000 A 
ATOM     12  C   UNL     1       5.940  35.776  78.598  0.00  0.00    +0.000 A 
ATOM     13  C   UNL     1       7.793  35.353  77.113  0.00  0.00    +0.000 A 
ATOM     14  C   UNL     1       6.526  35.000  77.595  0.00  0.00    +0.000 A 
BRANCH   9  16
ATOM     15  F   UNL     1       7.948  39.287  79.853  0.00  0.00    +0.000 F 
ATOM     16  C   UNL     1       8.726  38.237  79.466  0.00  0.00    +0.000 C 
ATOM     17  F   UNL     1       9.700  38.764  78.676  0.00  0.00    +0.000 F 
ATOM     18  F   UNL     1       9.351  37.805  80.597  0.00  0.00    +0.000 F 
ENDBRANCH   9  16
ENDBRANCH   1  14
BRANCH   5  19
ATOM     19  C   UNL     1       6.431  32.373  80.090  0.00  0.00    +0.000 A 
ATOM     20  C   UNL     1       5.277  31.730  80.561  0.00  0.00    +0.000 A 
ATOM     21  C   UNL     1       7.111  33.210  80.995  0.00  0.00    +0.000 A 
ATOM     22  C   UNL     1       4.796  31.938  81.859  0.00  0.00    +0.000 A 
ATOM     23  C   UNL     1       6.634  33.420  82.294  0.00  0.00    +0.000 A 
ATOM     24  C   UNL     1       5.471  32.788  82.724  0.00  0.00    +0.000 A 
ENDBRANCH   5  19
BRANCH   4  25
ATOM     25  C   UNL     1       3.897  31.013  77.533  0.00  0.00    +0.000 C 
ATOM     26  O   UNL     1       3.056  31.879  77.755  0.00  0.00    +0.000 OA
ATOM     27  O   UNL     1       3.638  29.704  77.771  0.00  0.00    +0.000 OA
ENDBRANCH   4  25
BRANCH   8  28
ATOM     28  C   UNL     1       8.218  30.145  79.283  0.00  0.00    +0.000 C 
ATOM     29  O   UNL     1       7.760  29.193  79.892  0.00  0.00    +0.000 OA
ATOM     30  O   UNL     1       9.467  30.611  79.519  0.00  0.00    +0.000 OA
ENDBRANCH   8  28
TORSDOF 5
ENDMDL
MODEL 9
REMARK VINA RESULT:      -6.9      3.354      4.889
REMARK  Name = 
REMARK  6 active torsions:
REMARK  status: ('A' for Active; 'I' for Inactive)
REMARK    1  A    between atoms: C_2  and  C_5
REMARK    2  A    between atoms: C_10  and  C_11
REMARK    3  A    between atoms: C_14  and  C_16
REMARK    4  A    between atoms: C_14  and  C_18
REMARK    5  A    between atoms: C_15  and  C_19
REMARK    6  A    between atoms: C_20  and  C_25
REMARK                            x       y       z     vdW  Elec       q    Type
REMARK                         _______ _______ _______ _____ _____    ______ ____
ROOT
ATOM      1  C   UNL     1       3.896  34.097  79.804  0.00  0.00    +0.000 C 
ATOM      2  O   UNL     1       3.137  34.627  80.608  0.00  0.00    +0.000 OA
ATOM      3  N   UNL     1       3.721  32.782  79.373  0.00  0.00    +0.000 N 
ATOM      4  C   UNL     1       2.525  31.922  79.721  0.00  0.00    +0.000 C 
ATOM      5  C   UNL     1       4.501  32.157  78.282  0.00  0.00    +0.000 C 
ATOM      6  C   UNL     1       2.461  30.892  78.558  0.00  0.00    +0.000 C 
ATOM      7  C   UNL     1       1.194  32.673  79.844  0.00  0.00    +0.000 C 
ATOM      8  C   UNL     1       3.441  31.399  77.499  0.00  0.00    +0.000 C 
ENDROOT
BRANCH   1  14
ATOM      9  C   UNL     1       7.291  36.278  78.274  0.00  0.00    +0.000 A 
ATOM     10  C   UNL     1       7.388  35.514  79.445  0.00  0.00    +0.000 A 
ATOM     11  C   UNL     1       6.035  36.399  77.654  0.00  0.00    +0.000 A 
ATOM     12  C   UNL     1       6.268  34.860  79.963  0.00  0.00    +0.000 A 
ATOM     13  C   UNL     1       4.916  35.710  78.156  0.00  0.00    +0.000 A 
ATOM     14  C   UNL     1       5.045  34.899  79.290  0.00  0.00    +0.000 A 
BRANCH   9  16
ATOM     15  F   UNL     1       9.513  36.097  77.370  0.00  0.00    +0.000 F 
ATOM     16  C   UNL     1       8.515  36.962  77.704  0.00  0.00    +0.000 C 
ATOM     17  F   UNL     1       9.070  37.857  78.567  0.00  0.00    +0.000 F 
ATOM     18  F   UNL     1       8.236  37.659  76.567  0.00  0.00    +0.000 F 
ENDBRANCH   9  16
ENDBRANCH   1  14
BRANCH   5  19
ATOM     19  C   UNL     1       5.729  31.379  78.759  0.00  0.00    +0.000 A 
ATOM     20  C   UNL     1       5.715  30.459  79.817  0.00  0.00    +0.000 A 
ATOM     21  C   UNL     1       6.971  31.625  78.142  0.00  0.00    +0.000 A 
ATOM     22  C   UNL     1       6.885  29.838  80.268  0.00  0.00    +0.000 A 
ATOM     23  C   UNL     1       8.143  31.006  78.591  0.00  0.00    +0.000 A 
ATOM     24  C   UNL     1       8.102  30.117  79.659  0.00  0.00    +0.000 A 
ENDBRANCH   5  19
BRANCH   4  25
ATOM     25  C   UNL     1       2.659  31.163  81.068  0.00  0.00    +0.000 C 
ATOM     26  O   UNL     1       3.016  31.675  82.124  0.00  0.00    +0.000 OA
ATOM     27  O   UNL     1       2.428  29.830  80.975  0.00  0.00    +0.000 OA
ENDBRANCH   4  25
BRANCH   8  28
ATOM     28  C   UNL     1       3.992  30.326  76.595  0.00  0.00    +0.000 C 
ATOM     29  O   UNL     1       3.974  29.130  76.835  0.00  0.00    +0.000 OA
ATOM     30  O   UNL     1       4.519  30.816  75.448  0.00  0.00    +0.000 OA
ENDBRANCH   8  28
TORSDOF 5
ENDMDL
