MODEL 1
REMARK VINA RESULT:      -8.7      0.000      0.000
REMARK  Name = 
REMARK  7 active torsions:
REMARK  status: ('A' for Active; 'I' for Inactive)
REMARK    1  A    between atoms: C_2  and  C_5
REMARK    2  A    between atoms: C_10  and  C_11
REMARK    3  A    between atoms: C_14  and  C_16
REMARK    4  A    between atoms: C_14  and  C_18
REMARK    5  A    between atoms: C_15  and  C_19
REMARK    6  A    between atoms: C_18  and  C_23
REMARK    7  A    between atoms: C_20  and  C_26
REMARK                            x       y       z     vdW  Elec       q    Type
REMARK                         _______ _______ _______ _____ _____    ______ ____
ROOT
ATOM      1  C   UNL     1       7.361  32.212  76.779  0.00  0.00    +0.000 C 
ATOM      2  O   UNL     1       6.409  32.211  75.993  0.00  0.00    +0.000 OA
ATOM      3  N   UNL     1       7.128  32.065  78.176  0.00  0.00    +0.000 N 
ATOM      4  C   UNL     1       8.090  32.272  79.307  0.00  0.00    +0.000 C 
ATOM      5  C   UNL     1       5.761  32.365  78.697  0.00  0.00    +0.000 C 
ATOM      6  C   UNL     1       7.256  31.879  80.531  0.00  0.00    +0.000 C 
ATOM      7  C   UNL     1       5.866  32.415  80.242  0.00  0.00    +0.000 C 
ENDROOT
BRANCH   1  13
ATOM      8  C   UNL     1      11.388  32.716  75.115  0.00  0.00    +0.000 A 
ATOM      9  C   UNL     1      10.571  33.820  75.379  0.00  0.00    +0.000 A 
ATOM     10  C   UNL     1      10.891  31.461  75.363  0.00  0.00    +0.000 A 
ATOM     11  C   UNL     1       9.263  33.642  75.892  0.00  0.00    +0.000 A 
ATOM     12  C   UNL     1       9.594  31.313  75.828  0.00  0.00    +0.000 A 
ATOM     13  C   UNL     1       8.736  32.360  76.142  0.00  0.00    +0.000 A 
BRANCH   8  15
ATOM     14  F   UNL     1      12.939  33.543  73.467  0.00  0.00    +0.000 F 
ATOM     15  C   UNL     1      12.796  32.766  74.566  0.00  0.00    +0.000 C 
ATOM     16  F   UNL     1      13.235  31.521  74.221  0.00  0.00    +0.000 F 
ATOM     17  F   UNL     1      13.688  33.224  75.489  0.00  0.00    +0.000 F 
ENDBRANCH   8  15
ENDBRANCH   1  13
BRANCH   5  18
ATOM     18  C   UNL     1       4.579  31.584  78.170  0.00  0.00    +0.000 A 
ATOM     19  C   UNL     1       4.591  30.203  77.951  0.00  0.00    +0.000 A 
ATOM     20  C   UNL     1       3.363  32.279  78.002  0.00  0.00    +0.000 A 
ATOM     21  C   UNL     1       3.409  29.539  77.607  0.00  0.00    +0.000 A 
ATOM     22  C   UNL     1       2.188  31.617  77.660  0.00  0.00    +0.000 A 
ATOM     23  C   UNL     1       2.212  30.243  77.467  0.00  0.00    +0.000 A 
ENDBRANCH   5  18
BRANCH   4  24
ATOM     24  C   UNL     1       9.229  31.211  79.405  0.00  0.00    +0.000 C 
ATOM     25  O   UNL     1       9.037  30.022  79.627  0.00  0.00    +0.000 OA
ATOM     26  O   UNL     1      10.471  31.713  79.214  0.00  0.00    +0.000 OA
ENDBRANCH   4  24
BRANCH   7  27
ATOM     27  C   UNL     1       4.835  31.680  81.070  0.00  0.00    +0.000 C 
ATOM     28  O   UNL     1       4.928  30.512  81.416  0.00  0.00    +0.000 OA
ATOM     29  O   UNL     1       3.822  32.469  81.486  0.00  0.00    +0.000 OA
ENDBRANCH   7  27
BRANCH   4  30
ATOM     30  C   UNL     1       8.646  33.742  79.433  0.00  0.00    +0.000 C 
BRANCH  30  31
ATOM     31  C   UNL     1       7.817  34.996  79.225  0.00  0.00    +0.000 A 
ATOM     32  C   UNL     1       7.335  35.689  80.342  0.00  0.00    +0.000 A 
ATOM     33  C   UNL     1       7.724  35.616  77.963  0.00  0.00    +0.000 A 
ATOM     34  C   UNL     1       6.826  36.985  80.222  0.00  0.00    +0.000 A 
ATOM     35  C   UNL     1       7.204  36.909  77.842  0.00  0.00    +0.000 A 
ATOM     36  C   UNL     1       6.774  37.601  78.973  0.00  0.00    +0.000 A 
ENDBRANCH  30  31
ENDBRANCH   4  30
TORSDOF 7
ENDMDL
MODEL 2
REMARK VINA RESULT:      -8.5      1.060      1.794
REMARK  Name = 
REMARK  7 active torsions:
REMARK  status: ('A' for Active; 'I' for Inactive)
REMARK    1  A    between atoms: C_2  and  C_5
REMARK    2  A    between atoms: C_10  and  C_11
REMARK    3  A    between atoms: C_14  and  C_16
REMARK    4  A    between atoms: C_14  and  C_18
REMARK    5  A    between atoms: C_15  and  C_19
REMARK    6  A    between atoms: C_18  and  C_23
REMARK    7  A    between atoms: C_20  and  C_26
REMARK                            x       y       z     vdW  Elec       q    Type
REMARK                         _______ _______ _______ _____ _____    ______ ____
ROOT
ATOM      1  C   UNL     1       7.398  32.230  76.874  0.00  0.00    +0.000 C 
ATOM      2  O   UNL     1       6.423  32.162  76.120  0.00  0.00    +0.000 OA
ATOM      3  N   UNL     1       7.214  32.136  78.283  0.00  0.00    +0.000 N 
ATOM      4  C   UNL     1       8.203  32.425  79.372  0.00  0.00    +0.000 C 
ATOM      5  C   UNL     1       5.854  32.412  78.835  0.00  0.00    +0.000 C 
ATOM      6  C   UNL     1       7.422  32.058  80.638  0.00  0.00    +0.000 C 
ATOM      7  C   UNL     1       6.006  32.532  80.372  0.00  0.00    +0.000 C 
ENDROOT
BRANCH   1  13
ATOM      8  C   UNL     1      11.354  32.789  75.063  0.00  0.00    +0.000 A 
ATOM      9  C   UNL     1      10.531  33.882  75.356  0.00  0.00    +0.000 A 
ATOM     10  C   UNL     1      10.885  31.528  75.330  0.00  0.00    +0.000 A 
ATOM     11  C   UNL     1       9.246  33.686  75.917  0.00  0.00    +0.000 A 
ATOM     12  C   UNL     1       9.607  31.361  75.842  0.00  0.00    +0.000 A 
ATOM     13  C   UNL     1       8.746  32.397  76.186  0.00  0.00    +0.000 A 
BRANCH   8  15
ATOM     14  F   UNL     1      12.855  33.719  73.424  0.00  0.00    +0.000 F 
ATOM     15  C   UNL     1      12.740  32.859  74.462  0.00  0.00    +0.000 C 
ATOM     16  F   UNL     1      13.139  31.638  74.001  0.00  0.00    +0.000 F 
ATOM     17  F   UNL     1      13.677  33.225  75.381  0.00  0.00    +0.000 F 
ENDBRANCH   8  15
ENDBRANCH   1  13
BRANCH   5  18
ATOM     18  C   UNL     1       4.684  31.569  78.381  0.00  0.00    +0.000 A 
ATOM     19  C   UNL     1       3.457  32.096  77.967  0.00  0.00    +0.000 A 
ATOM     20  C   UNL     1       4.892  30.178  78.262  0.00  0.00    +0.000 A 
ATOM     21  C   UNL     1       2.483  31.253  77.419  0.00  0.00    +0.000 A 
ATOM     22  C   UNL     1       3.923  29.343  77.717  0.00  0.00    +0.000 A 
ATOM     23  C   UNL     1       2.718  29.884  77.291  0.00  0.00    +0.000 A 
ENDBRANCH   5  18
BRANCH   4  24
ATOM     24  C   UNL     1       9.381  31.408  79.478  0.00  0.00    +0.000 C 
ATOM     25  O   UNL     1      10.557  31.706  79.313  0.00  0.00    +0.000 OA
ATOM     26  O   UNL     1       8.997  30.147  79.782  0.00  0.00    +0.000 OA
ENDBRANCH   4  24
BRANCH   7  27
ATOM     27  C   UNL     1       5.027  31.799  81.264  0.00  0.00    +0.000 C 
ATOM     28  O   UNL     1       5.226  30.697  81.753  0.00  0.00    +0.000 OA
ATOM     29  O   UNL     1       3.928  32.524  81.560  0.00  0.00    +0.000 OA
ENDBRANCH   7  27
BRANCH   4  30
ATOM     30  C   UNL     1       8.710  33.917  79.417  0.00  0.00    +0.000 C 
BRANCH  30  31
ATOM     31  C   UNL     1       8.840  34.744  80.683  0.00  0.00    +0.000 A 
ATOM     32  C   UNL     1      10.050  34.731  81.386  0.00  0.00    +0.000 A 
ATOM     33  C   UNL     1       7.872  35.706  81.035  0.00  0.00    +0.000 A 
ATOM     34  C   UNL     1      10.320  35.681  82.375  0.00  0.00    +0.000 A 
ATOM     35  C   UNL     1       8.139  36.650  82.033  0.00  0.00    +0.000 A 
ATOM     36  C   UNL     1       9.369  36.650  82.688  0.00  0.00    +0.000 A 
ENDBRANCH  30  31
ENDBRANCH   4  30
TORSDOF 7
ENDMDL
MODEL 3
REMARK VINA RESULT:      -8.2      2.229      5.468
REMARK  Name = 
REMARK  7 active torsions:
REMARK  status: ('A' for Active; 'I' for Inactive)
REMARK    1  A    between atoms: C_2  and  C_5
REMARK    2  A    between atoms: C_10  and  C_11
REMARK    3  A    between atoms: C_14  and  C_16
REMARK    4  A    between atoms: C_14  and  C_18
REMARK    5  A    between atoms: C_15  and  C_19
REMARK    6  A    between atoms: C_18  and  C_23
REMARK    7  A    between atoms: C_20  and  C_26
REMARK                            x       y       z     vdW  Elec       q    Type
REMARK                         _______ _______ _______ _____ _____    ______ ____
ROOT
ATOM      1  C   UNL     1       8.793  34.742  78.133  0.00  0.00    +0.000 C 
ATOM      2  O   UNL     1       9.441  35.493  78.868  0.00  0.00    +0.000 OA
ATOM      3  N   UNL     1       7.372  34.725  78.211  0.00  0.00    +0.000 N 
ATOM      4  C   UNL     1       6.418  33.745  77.597  0.00  0.00    +0.000 C 
ATOM      5  C   UNL     1       6.728  35.253  79.451  0.00  0.00    +0.000 C 
ATOM      6  C   UNL     1       5.052  34.325  77.981  0.00  0.00    +0.000 C 
ATOM      7  C   UNL     1       5.234  34.848  79.393  0.00  0.00    +0.000 C 
ENDROOT
BRANCH   1  13
ATOM      8  C   UNL     1      11.333  32.402  75.429  0.00  0.00    +0.000 A 
ATOM      9  C   UNL     1      11.043  33.745  75.167  0.00  0.00    +0.000 A 
ATOM     10  C   UNL     1      10.781  31.819  76.542  0.00  0.00    +0.000 A 
ATOM     11  C   UNL     1      10.201  34.482  76.035  0.00  0.00    +0.000 A 
ATOM     12  C   UNL     1       9.928  32.551  77.353  0.00  0.00    +0.000 A 
ATOM     13  C   UNL     1       9.618  33.894  77.175  0.00  0.00    +0.000 A 
BRANCH   8  15
ATOM     14  F   UNL     1      12.579  32.039  73.399  0.00  0.00    +0.000 F 
ATOM     15  C   UNL     1      12.210  31.504  74.586  0.00  0.00    +0.000 C 
ATOM     16  F   UNL     1      11.583  30.326  74.305  0.00  0.00    +0.000 F 
ATOM     17  F   UNL     1      13.359  31.158  75.234  0.00  0.00    +0.000 F 
ENDBRANCH   8  15
ENDBRANCH   1  13
BRANCH   5  18
ATOM     18  C   UNL     1       6.977  36.687  79.863  0.00  0.00    +0.000 A 
ATOM     19  C   UNL     1       6.936  37.771  78.980  0.00  0.00    +0.000 A 
ATOM     20  C   UNL     1       7.146  36.948  81.239  0.00  0.00    +0.000 A 
ATOM     21  C   UNL     1       7.028  39.077  79.472  0.00  0.00    +0.000 A 
ATOM     22  C   UNL     1       7.237  38.247  81.726  0.00  0.00    +0.000 A 
ATOM     23  C   UNL     1       7.173  39.314  80.839  0.00  0.00    +0.000 A 
ENDBRANCH   5  18
BRANCH   4  24
ATOM     24  C   UNL     1       6.313  33.813  76.043  0.00  0.00    +0.000 C 
ATOM     25  O   UNL     1       5.699  34.683  75.437  0.00  0.00    +0.000 OA
ATOM     26  O   UNL     1       6.972  32.821  75.400  0.00  0.00    +0.000 OA
ENDBRANCH   4  24
BRANCH   7  27
ATOM     27  C   UNL     1       4.181  35.887  79.711  0.00  0.00    +0.000 C 
ATOM     28  O   UNL     1       3.772  36.137  80.835  0.00  0.00    +0.000 OA
ATOM     29  O   UNL     1       3.790  36.599  78.634  0.00  0.00    +0.000 OA
ENDBRANCH   7  27
BRANCH   4  30
ATOM     30  C   UNL     1       6.582  32.264  78.110  0.00  0.00    +0.000 C 
BRANCH  30  31
ATOM     31  C   UNL     1       5.449  31.261  78.222  0.00  0.00    +0.000 A 
ATOM     32  C   UNL     1       5.134  30.459  77.119  0.00  0.00    +0.000 A 
ATOM     33  C   UNL     1       4.868  30.943  79.467  0.00  0.00    +0.000 A 
ATOM     34  C   UNL     1       4.313  29.336  77.254  0.00  0.00    +0.000 A 
ATOM     35  C   UNL     1       4.036  29.826  79.598  0.00  0.00    +0.000 A 
ATOM     36  C   UNL     1       3.775  29.012  78.498  0.00  0.00    +0.000 A 
ENDBRANCH  30  31
ENDBRANCH   4  30
TORSDOF 7
ENDMDL
MODEL 4
REMARK VINA RESULT:      -8.1      3.189      5.704
REMARK  Name = 
REMARK  7 active torsions:
REMARK  status: ('A' for Active; 'I' for Inactive)
REMARK    1  A    between atoms: C_2  and  C_5
REMARK    2  A    between atoms: C_10  and  C_11
REMARK    3  A    between atoms: C_14  and  C_16
REMARK    4  A    between atoms: C_14  and  C_18
REMARK    5  A    between atoms: C_15  and  C_19
REMARK    6  A    between atoms: C_18  and  C_23
REMARK    7  A    between atoms: C_20  and  C_26
REMARK                            x       y       z     vdW  Elec       q    Type
REMARK                         _______ _______ _______ _____ _____    ______ ____
ROOT
ATOM      1  C   UNL     1       5.865  34.008  79.642  0.00  0.00    +0.000 C 
ATOM      2  O   UNL     1       5.083  33.741  80.559  0.00  0.00    +0.000 OA
ATOM      3  N   UNL     1       5.926  33.169  78.494  0.00  0.00    +0.000 N 
ATOM      4  C   UNL     1       6.945  33.168  77.395  0.00  0.00    +0.000 C 
ATOM      5  C   UNL     1       5.398  31.777  78.610  0.00  0.00    +0.000 C 
ATOM      6  C   UNL     1       6.403  32.100  76.438  0.00  0.00    +0.000 C 
ATOM      7  C   UNL     1       5.851  31.014  77.341  0.00  0.00    +0.000 C 
ENDROOT
BRANCH   1  13
ATOM      8  C   UNL     1       8.406  37.557  80.080  0.00  0.00    +0.000 A 
ATOM      9  C   UNL     1       8.826  36.305  80.543  0.00  0.00    +0.000 A 
ATOM     10  C   UNL     1       7.163  37.659  79.508  0.00  0.00    +0.000 A 
ATOM     11  C   UNL     1       7.985  35.172  80.418  0.00  0.00    +0.000 A 
ATOM     12  C   UNL     1       6.344  36.543  79.435  0.00  0.00    +0.000 A 
ATOM     13  C   UNL     1       6.702  35.264  79.842  0.00  0.00    +0.000 A 
BRANCH   8  15
ATOM     14  F   UNL     1      10.160  38.850  81.108  0.00  0.00    +0.000 F 
ATOM     15  C   UNL     1       9.200  38.842  80.155  0.00  0.00    +0.000 C 
ATOM     16  F   UNL     1       8.388  39.908  80.410  0.00  0.00    +0.000 F 
ATOM     17  F   UNL     1       9.817  39.129  78.974  0.00  0.00    +0.000 F 
ENDBRANCH   8  15
ENDBRANCH   1  13
BRANCH   5  18
ATOM     18  C   UNL     1       3.951  31.562  78.993  0.00  0.00    +0.000 A 
ATOM     19  C   UNL     1       2.873  32.171  78.342  0.00  0.00    +0.000 A 
ATOM     20  C   UNL     1       3.678  30.601  79.989  0.00  0.00    +0.000 A 
ATOM     21  C   UNL     1       1.563  31.799  78.662  0.00  0.00    +0.000 A 
ATOM     22  C   UNL     1       2.374  30.232  80.305  0.00  0.00    +0.000 A 
ATOM     23  C   UNL     1       1.316  30.831  79.635  0.00  0.00    +0.000 A 
ENDBRANCH   5  18
BRANCH   4  24
ATOM     24  C   UNL     1       6.905  34.415  76.458  0.00  0.00    +0.000 C 
ATOM     25  O   UNL     1       7.666  35.368  76.558  0.00  0.00    +0.000 OA
ATOM     26  O   UNL     1       5.951  34.356  75.501  0.00  0.00    +0.000 OA
ENDBRANCH   4  24
BRANCH   7  27
ATOM     27  C   UNL     1       4.841  30.170  76.594  0.00  0.00    +0.000 C 
ATOM     28  O   UNL     1       4.458  29.066  76.955  0.00  0.00    +0.000 OA
ATOM     29  O   UNL     1       4.312  30.793  75.521  0.00  0.00    +0.000 OA
ENDBRANCH   7  27
BRANCH   4  30
ATOM     30  C   UNL     1       8.412  32.833  77.864  0.00  0.00    +0.000 C 
BRANCH  30  31
ATOM     31  C   UNL     1       9.617  32.770  76.943  0.00  0.00    +0.000 A 
ATOM     32  C   UNL     1      10.721  33.590  77.205  0.00  0.00    +0.000 A 
ATOM     33  C   UNL     1       9.758  31.746  75.985  0.00  0.00    +0.000 A 
ATOM     34  C   UNL     1      11.950  33.368  76.578  0.00  0.00    +0.000 A 
ATOM     35  C   UNL     1      10.986  31.532  75.349  0.00  0.00    +0.000 A 
ATOM     36  C   UNL     1      12.086  32.329  75.660  0.00  0.00    +0.000 A 
ENDBRANCH  30  31
ENDBRANCH   4  30
TORSDOF 7
ENDMDL
MODEL 5
REMARK VINA RESULT:      -7.9      3.503      6.141
REMARK  Name = 
REMARK  7 active torsions:
REMARK  status: ('A' for Active; 'I' for Inactive)
REMARK    1  A    between atoms: C_2  and  C_5
REMARK    2  A    between atoms: C_10  and  C_11
REMARK    3  A    between atoms: C_14  and  C_16
REMARK    4  A    between atoms: C_14  and  C_18
REMARK    5  A    between atoms: C_15  and  C_19
REMARK    6  A    between atoms: C_18  and  C_23
REMARK    7  A    between atoms: C_20  and  C_26
REMARK                            x       y       z     vdW  Elec       q    Type
REMARK                         _______ _______ _______ _____ _____    ______ ____
ROOT
ATOM      1  C   UNL     1       6.994  33.757  79.791  0.00  0.00    +0.000 C 
ATOM      2  O   UNL     1       6.570  33.097  80.744  0.00  0.00    +0.000 OA
ATOM      3  N   UNL     1       6.980  33.201  78.480  0.00  0.00    +0.000 N 
ATOM      4  C   UNL     1       7.649  33.718  77.243  0.00  0.00    +0.000 C 
ATOM      5  C   UNL     1       6.887  31.716  78.347  0.00  0.00    +0.000 C 
ATOM      6  C   UNL     1       7.184  32.725  76.172  0.00  0.00    +0.000 C 
ATOM      7  C   UNL     1       7.188  31.376  76.866  0.00  0.00    +0.000 C 
ENDROOT
BRANCH   1  13
ATOM      8  C   UNL     1       8.309  37.781  80.940  0.00  0.00    +0.000 A 
ATOM      9  C   UNL     1       7.012  37.550  80.472  0.00  0.00    +0.000 A 
ATOM     10  C   UNL     1       9.178  36.720  81.008  0.00  0.00    +0.000 A 
ATOM     11  C   UNL     1       6.608  36.250  80.080  0.00  0.00    +0.000 A 
ATOM     12  C   UNL     1       8.770  35.466  80.580  0.00  0.00    +0.000 A 
ATOM     13  C   UNL     1       7.491  35.154  80.133  0.00  0.00    +0.000 A 
BRANCH   8  15
ATOM     14  F   UNL     1       8.938  40.044  80.406  0.00  0.00    +0.000 F 
ATOM     15  C   UNL     1       8.867  39.113  81.386  0.00  0.00    +0.000 C 
ATOM     16  F   UNL     1      10.130  38.977  81.885  0.00  0.00    +0.000 F 
ATOM     17  F   UNL     1       8.134  39.662  82.395  0.00  0.00    +0.000 F 
ENDBRANCH   8  15
ENDBRANCH   1  13
BRANCH   5  18
ATOM     18  C   UNL     1       5.696  30.992  78.931  0.00  0.00    +0.000 A 
ATOM     19  C   UNL     1       4.371  31.403  78.758  0.00  0.00    +0.000 A 
ATOM     20  C   UNL     1       5.938  29.768  79.590  0.00  0.00    +0.000 A 
ATOM     21  C   UNL     1       3.322  30.592  79.205  0.00  0.00    +0.000 A 
ATOM     22  C   UNL     1       4.894  28.962  80.033  0.00  0.00    +0.000 A 
ATOM     23  C   UNL     1       3.584  29.375  79.835  0.00  0.00    +0.000 A 
ENDBRANCH   5  18
BRANCH   4  24
ATOM     24  C   UNL     1       7.044  35.036  76.669  0.00  0.00    +0.000 C 
ATOM     25  O   UNL     1       5.960  35.101  76.104  0.00  0.00    +0.000 OA
ATOM     26  O   UNL     1       7.822  36.128  76.854  0.00  0.00    +0.000 OA
ENDBRANCH   4  24
BRANCH   7  27
ATOM     27  C   UNL     1       6.282  30.406  76.139  0.00  0.00    +0.000 C 
ATOM     28  O   UNL     1       5.254  30.720  75.558  0.00  0.00    +0.000 OA
ATOM     29  O   UNL     1       6.766  29.147  76.104  0.00  0.00    +0.000 OA
ENDBRANCH   7  27
BRANCH   4  30
ATOM     30  C   UNL     1       9.222  33.783  77.328  0.00  0.00    +0.000 C 
BRANCH  30  31
ATOM     31  C   UNL     1      10.161  33.401  76.198  0.00  0.00    +0.000 A 
ATOM     32  C   UNL     1      10.682  34.405  75.374  0.00  0.00    +0.000 A 
ATOM     33  C   UNL     1      10.713  32.107  76.106  0.00  0.00    +0.000 A 
ATOM     34  C   UNL     1      11.760  34.151  74.521  0.00  0.00    +0.000 A 
ATOM     35  C   UNL     1      11.784  31.851  75.243  0.00  0.00    +0.000 A 
ATOM     36  C   UNL     1      12.320  32.876  74.467  0.00  0.00    +0.000 A 
ENDBRANCH  30  31
ENDBRANCH   4  30
TORSDOF 7
ENDMDL
MODEL 6
REMARK VINA RESULT:      -7.9      1.903      4.849
REMARK  Name = 
REMARK  7 active torsions:
REMARK  status: ('A' for Active; 'I' for Inactive)
REMARK    1  A    between atoms: C_2  and  C_5
REMARK    2  A    between atoms: C_10  and  C_11
REMARK    3  A    between atoms: C_14  and  C_16
REMARK    4  A    between atoms: C_14  and  C_18
REMARK    5  A    between atoms: C_15  and  C_19
REMARK    6  A    between atoms: C_18  and  C_23
REMARK    7  A    between atoms: C_20  and  C_26
REMARK                            x       y       z     vdW  Elec       q    Type
REMARK                         _______ _______ _______ _____ _____    ______ ____
ROOT
ATOM      1  C   UNL     1       8.022  33.488  78.093  0.00  0.00    +0.000 C 
ATOM      2  O   UNL     1       8.530  33.838  79.162  0.00  0.00    +0.000 OA
ATOM      3  N   UNL     1       6.605  33.439  77.962  0.00  0.00    +0.000 N 
ATOM      4  C   UNL     1       5.793  32.830  76.859  0.00  0.00    +0.000 C 
ATOM      5  C   UNL     1       5.786  33.367  79.208  0.00  0.00    +0.000 C 
ATOM      6  C   UNL     1       4.358  33.182  77.269  0.00  0.00    +0.000 C 
ATOM      7  C   UNL     1       4.337  33.029  78.778  0.00  0.00    +0.000 C 
ENDROOT
BRANCH   1  13
ATOM      8  C   UNL     1      11.007  32.576  75.011  0.00  0.00    +0.000 A 
ATOM      9  C   UNL     1      10.685  33.898  75.337  0.00  0.00    +0.000 A 
ATOM     10  C   UNL     1      10.346  31.564  75.658  0.00  0.00    +0.000 A 
ATOM     11  C   UNL     1       9.701  34.179  76.317  0.00  0.00    +0.000 A 
ATOM     12  C   UNL     1       9.359  31.865  76.583  0.00  0.00    +0.000 A 
ATOM     13  C   UNL     1       9.006  33.149  76.982  0.00  0.00    +0.000 A 
BRANCH   8  15
ATOM     14  F   UNL     1      11.557  31.278  73.057  0.00  0.00    +0.000 F 
ATOM     15  C   UNL     1      12.031  32.140  73.987  0.00  0.00    +0.000 C 
ATOM     16  F   UNL     1      13.093  31.526  74.582  0.00  0.00    +0.000 F 
ATOM     17  F   UNL     1      12.556  33.199  73.308  0.00  0.00    +0.000 F 
ENDBRANCH   8  15
ENDBRANCH   1  13
BRANCH   5  18
ATOM     18  C   UNL     1       5.897  34.472  80.235  0.00  0.00    +0.000 A 
ATOM     19  C   UNL     1       6.089  34.250  81.602  0.00  0.00    +0.000 A 
ATOM     20  C   UNL     1       5.923  35.800  79.760  0.00  0.00    +0.000 A 
ATOM     21  C   UNL     1       6.332  35.329  82.458  0.00  0.00    +0.000 A 
ATOM     22  C   UNL     1       6.167  36.872  80.613  0.00  0.00    +0.000 A 
ATOM     23  C   UNL     1       6.376  36.633  81.964  0.00  0.00    +0.000 A 
ENDBRANCH   5  18
BRANCH   4  24
ATOM     24  C   UNL     1       5.874  33.577  75.493  0.00  0.00    +0.000 C 
ATOM     25  O   UNL     1       5.600  33.062  74.416  0.00  0.00    +0.000 OA
ATOM     26  O   UNL     1       6.270  34.867  75.590  0.00  0.00    +0.000 OA
ENDBRANCH   4  24
BRANCH   7  27
ATOM     27  C   UNL     1       3.193  33.821  79.372  0.00  0.00    +0.000 C 
ATOM     28  O   UNL     1       2.712  33.621  80.478  0.00  0.00    +0.000 OA
ATOM     29  O   UNL     1       2.800  34.855  78.600  0.00  0.00    +0.000 OA
ENDBRANCH   7  27
BRANCH   4  30
ATOM     30  C   UNL     1       5.982  31.274  76.691  0.00  0.00    +0.000 C 
BRANCH  30  31
ATOM     31  C   UNL     1       5.801  30.259  77.804  0.00  0.00    +0.000 A 
ATOM     32  C   UNL     1       6.807  30.115  78.767  0.00  0.00    +0.000 A 
ATOM     33  C   UNL     1       4.559  29.636  78.037  0.00  0.00    +0.000 A 
ATOM     34  C   UNL     1       6.572  29.421  79.957  0.00  0.00    +0.000 A 
ATOM     35  C   UNL     1       4.328  28.931  79.224  0.00  0.00    +0.000 A 
ATOM     36  C   UNL     1       5.327  28.841  80.192  0.00  0.00    +0.000 A 
ENDBRANCH  30  31
ENDBRANCH   4  30
TORSDOF 7
ENDMDL
MODEL 7
REMARK VINA RESULT:      -7.7      1.409      2.149
REMARK  Name = 
REMARK  7 active torsions:
REMARK  status: ('A' for Active; 'I' for Inactive)
REMARK    1  A    between atoms: C_2  and  C_5
REMARK    2  A    between atoms: C_10  and  C_11
REMARK    3  A    between atoms: C_14  and  C_16
REMARK    4  A    between atoms: C_14  and  C_18
REMARK    5  A    between atoms: C_15  and  C_19
REMARK    6  A    between atoms: C_18  and  C_23
REMARK    7  A    between atoms: C_20  and  C_26
REMARK                            x       y       z     vdW  Elec       q    Type
REMARK                         _______ _______ _______ _____ _____    ______ ____
ROOT
ATOM      1  C   UNL     1       7.074  32.803  77.131  0.00  0.00    +0.000 C 
ATOM      2  O   UNL     1       6.200  32.299  76.420  0.00  0.00    +0.000 OA
ATOM      3  N   UNL     1       6.736  33.316  78.416  0.00  0.00    +0.000 N 
ATOM      4  C   UNL     1       7.569  34.164  79.328  0.00  0.00    +0.000 C 
ATOM      5  C   UNL     1       5.304  33.644  78.688  0.00  0.00    +0.000 C 
ATOM      6  C   UNL     1       6.674  34.300  80.566  0.00  0.00    +0.000 C 
ATOM      7  C   UNL     1       5.268  34.442  80.015  0.00  0.00    +0.000 C 
ENDROOT
BRANCH   1  13
ATOM      8  C   UNL     1      11.041  32.726  75.261  0.00  0.00    +0.000 A 
ATOM      9  C   UNL     1      10.437  31.553  75.725  0.00  0.00    +0.000 A 
ATOM     10  C   UNL     1      10.376  33.914  75.429  0.00  0.00    +0.000 A 
ATOM     11  C   UNL     1       9.166  31.595  76.349  0.00  0.00    +0.000 A 
ATOM     12  C   UNL     1       9.152  33.933  76.080  0.00  0.00    +0.000 A 
ATOM     13  C   UNL     1       8.476  32.808  76.539  0.00  0.00    +0.000 A 
BRANCH   8  15
ATOM     14  F   UNL     1      13.320  33.507  75.285  0.00  0.00    +0.000 F 
ATOM     15  C   UNL     1      12.389  32.821  74.583  0.00  0.00    +0.000 C 
ATOM     16  F   UNL     1      12.287  33.435  73.369  0.00  0.00    +0.000 F 
ATOM     17  F   UNL     1      12.918  31.592  74.325  0.00  0.00    +0.000 F 
ENDBRANCH   8  15
ENDBRANCH   1  13
BRANCH   5  18
ATOM     18  C   UNL     1       4.259  32.557  78.577  0.00  0.00    +0.000 A 
ATOM     19  C   UNL     1       3.043  32.710  77.904  0.00  0.00    +0.000 A 
ATOM     20  C   UNL     1       4.590  31.283  79.085  0.00  0.00    +0.000 A 
ATOM     21  C   UNL     1       2.202  31.607  77.720  0.00  0.00    +0.000 A 
ATOM     22  C   UNL     1       3.753  30.187  78.900  0.00  0.00    +0.000 A 
ATOM     23  C   UNL     1       2.558  30.351  78.212  0.00  0.00    +0.000 A 
ENDBRANCH   5  18
BRANCH   4  24
ATOM     24  C   UNL     1       8.797  33.442  79.961  0.00  0.00    +0.000 C 
ATOM     25  O   UNL     1       8.710  32.542  80.786  0.00  0.00    +0.000 OA
ATOM     26  O   UNL     1       9.993  33.891  79.513  0.00  0.00    +0.000 OA
ENDBRANCH   4  24
BRANCH   7  27
ATOM     27  C   UNL     1       4.249  34.064  81.068  0.00  0.00    +0.000 C 
ATOM     28  O   UNL     1       4.460  33.293  81.992  0.00  0.00    +0.000 OA
ATOM     29  O   UNL     1       3.087  34.742  80.955  0.00  0.00    +0.000 OA
ENDBRANCH   7  27
BRANCH   4  30
ATOM     30  C   UNL     1       7.956  35.574  78.737  0.00  0.00    +0.000 C 
BRANCH  30  31
ATOM     31  C   UNL     1       7.935  36.872  79.522  0.00  0.00    +0.000 A 
ATOM     32  C   UNL     1       9.006  37.175  80.370  0.00  0.00    +0.000 A 
ATOM     33  C   UNL     1       6.996  37.886  79.242  0.00  0.00    +0.000 A 
ATOM     34  C   UNL     1       9.178  38.464  80.883  0.00  0.00    +0.000 A 
ATOM     35  C   UNL     1       7.163  39.172  79.765  0.00  0.00    +0.000 A 
ATOM     36  C   UNL     1       8.263  39.467  80.568  0.00  0.00    +0.000 A 
ENDBRANCH  30  31
ENDBRANCH   4  30
TORSDOF 7
ENDMDL
MODEL 8
REMARK VINA RESULT:      -7.4      2.389      5.143
REMARK  Name = 
REMARK  7 active torsions:
REMARK  status: ('A' for Active; 'I' for Inactive)
REMARK    1  A    between atoms: C_2  and  C_5
REMARK    2  A    between atoms: C_10  and  C_11
REMARK    3  A    between atoms: C_14  and  C_16
REMARK    4  A    between atoms: C_14  and  C_18
REMARK    5  A    between atoms: C_15  and  C_19
REMARK    6  A    between atoms: C_18  and  C_23
REMARK    7  A    between atoms: C_20  and  C_26
REMARK                            x       y       z     vdW  Elec       q    Type
REMARK                         _______ _______ _______ _____ _____    ______ ____
ROOT
ATOM      1  C   UNL     1       8.627  34.687  78.271  0.00  0.00    +0.000 C 
ATOM      2  O   UNL     1       9.320  35.424  78.978  0.00  0.00    +0.000 OA
ATOM      3  N   UNL     1       7.213  34.663  78.442  0.00  0.00    +0.000 N 
ATOM      4  C   UNL     1       6.224  33.693  77.870  0.00  0.00    +0.000 C 
ATOM      5  C   UNL     1       6.652  35.160  79.733  0.00  0.00    +0.000 C 
ATOM      6  C   UNL     1       4.884  34.258  78.357  0.00  0.00    +0.000 C 
ATOM      7  C   UNL     1       5.159  34.750  79.765  0.00  0.00    +0.000 C 
ENDROOT
BRANCH   1  13
ATOM      8  C   UNL     1      10.992  32.398  75.372  0.00  0.00    +0.000 A 
ATOM      9  C   UNL     1      10.837  33.783  75.246  0.00  0.00    +0.000 A 
ATOM     10  C   UNL     1      10.363  31.761  76.411  0.00  0.00    +0.000 A 
ATOM     11  C   UNL     1      10.050  34.506  76.175  0.00  0.00    +0.000 A 
ATOM     12  C   UNL     1       9.565  32.487  77.283  0.00  0.00    +0.000 A 
ATOM     13  C   UNL     1       9.388  33.865  77.241  0.00  0.00    +0.000 A 
BRANCH   8  15
ATOM     14  F   UNL     1      13.114  31.434  74.761  0.00  0.00    +0.000 F 
ATOM     15  C   UNL     1      11.799  31.509  74.452  0.00  0.00    +0.000 C 
ATOM     16  F   UNL     1      11.726  31.942  73.160  0.00  0.00    +0.000 F 
ATOM     17  F   UNL     1      11.327  30.231  74.435  0.00  0.00    +0.000 F 
ENDBRANCH   8  15
ENDBRANCH   1  13
BRANCH   5  18
ATOM     18  C   UNL     1       6.924  36.584  80.161  0.00  0.00    +0.000 A 
ATOM     19  C   UNL     1       7.363  36.945  81.439  0.00  0.00    +0.000 A 
ATOM     20  C   UNL     1       6.838  37.588  79.173  0.00  0.00    +0.000 A 
ATOM     21  C   UNL     1       7.735  38.267  81.703  0.00  0.00    +0.000 A 
ATOM     22  C   UNL     1       7.210  38.902  79.438  0.00  0.00    +0.000 A 
ATOM     23  C   UNL     1       7.663  39.239  80.706  0.00  0.00    +0.000 A 
ENDBRANCH   5  18
BRANCH   4  24
ATOM     24  C   UNL     1       6.015  33.797  76.328  0.00  0.00    +0.000 C 
ATOM     25  O   UNL     1       6.622  33.117  75.510  0.00  0.00    +0.000 OA
ATOM     26  O   UNL     1       5.087  34.708  75.956  0.00  0.00    +0.000 OA
ENDBRANCH   4  24
BRANCH   7  27
ATOM     27  C   UNL     1       4.126  35.777  80.177  0.00  0.00    +0.000 C 
ATOM     28  O   UNL     1       3.816  36.023  81.333  0.00  0.00    +0.000 OA
ATOM     29  O   UNL     1       3.632  36.484  79.139  0.00  0.00    +0.000 OA
ENDBRANCH   7  27
BRANCH   4  30
ATOM     30  C   UNL     1       6.425  32.201  78.336  0.00  0.00    +0.000 C 
BRANCH  30  31
ATOM     31  C   UNL     1       6.621  31.768  79.778  0.00  0.00    +0.000 A 
ATOM     32  C   UNL     1       7.882  31.912  80.368  0.00  0.00    +0.000 A 
ATOM     33  C   UNL     1       5.526  31.457  80.608  0.00  0.00    +0.000 A 
ATOM     34  C   UNL     1       8.047  31.807  81.753  0.00  0.00    +0.000 A 
ATOM     35  C   UNL     1       5.694  31.341  81.992  0.00  0.00    +0.000 A 
ATOM     36  C   UNL     1       6.949  31.536  82.566  0.00  0.00    +0.000 A 
ENDBRANCH  30  31
ENDBRANCH   4  30
TORSDOF 7
ENDMDL
MODEL 9
REMARK VINA RESULT:      -7.3      1.880      5.099
REMARK  Name = 
REMARK  7 active torsions:
REMARK  status: ('A' for Active; 'I' for Inactive)
REMARK    1  A    between atoms: C_2  and  C_5
REMARK    2  A    between atoms: C_10  and  C_11
REMARK    3  A    between atoms: C_14  and  C_16
REMARK    4  A    between atoms: C_14  and  C_18
REMARK    5  A    between atoms: C_15  and  C_19
REMARK    6  A    between atoms: C_18  and  C_23
REMARK    7  A    between atoms: C_20  and  C_26
REMARK                            x       y       z     vdW  Elec       q    Type
REMARK                         _______ _______ _______ _____ _____    ______ ____
ROOT
ATOM      1  C   UNL     1       9.018  33.301  78.653  0.00  0.00    +0.000 C 
ATOM      2  O   UNL     1       9.683  33.231  79.690  0.00  0.00    +0.000 OA
ATOM      3  N   UNL     1       7.641  33.658  78.715  0.00  0.00    +0.000 N 
ATOM      4  C   UNL     1       6.609  33.574  77.632  0.00  0.00    +0.000 C 
ATOM      5  C   UNL     1       6.930  33.498  80.018  0.00  0.00    +0.000 C 
ATOM      6  C   UNL     1       5.370  34.177  78.305  0.00  0.00    +0.000 C 
ATOM      7  C   UNL     1       5.418  33.668  79.733  0.00  0.00    +0.000 C 
ENDROOT
BRANCH   1  13
ATOM      8  C   UNL     1      11.376  32.430  75.058  0.00  0.00    +0.000 A 
ATOM      9  C   UNL     1      11.466  33.670  75.699  0.00  0.00    +0.000 A 
ATOM     10  C   UNL     1      10.509  31.495  75.563  0.00  0.00    +0.000 A 
ATOM     11  C   UNL     1      10.680  33.948  76.844  0.00  0.00    +0.000 A 
ATOM     12  C   UNL     1       9.722  31.806  76.661  0.00  0.00    +0.000 A 
ATOM     13  C   UNL     1       9.777  33.001  77.368  0.00  0.00    +0.000 A 
BRANCH   8  15
ATOM     14  F   UNL     1      12.670  33.035  73.117  0.00  0.00    +0.000 F 
ATOM     15  C   UNL     1      12.153  32.008  73.831  0.00  0.00    +0.000 C 
ATOM     16  F   UNL     1      11.369  31.294  72.973  0.00  0.00    +0.000 F 
ATOM     17  F   UNL     1      13.193  31.185  74.144  0.00  0.00    +0.000 F 
ENDBRANCH   8  15
ENDBRANCH   1  13
BRANCH   5  18
ATOM     18  C   UNL     1       7.431  34.247  81.233  0.00  0.00    +0.000 A 
ATOM     19  C   UNL     1       7.726  35.614  81.240  0.00  0.00    +0.000 A 
ATOM     20  C   UNL     1       7.491  33.542  82.453  0.00  0.00    +0.000 A 
ATOM     21  C   UNL     1       8.039  36.256  82.443  0.00  0.00    +0.000 A 
ATOM     22  C   UNL     1       7.800  34.182  83.648  0.00  0.00    +0.000 A 
ATOM     23  C   UNL     1       8.070  35.543  83.642  0.00  0.00    +0.000 A 
ENDBRANCH   5  18
BRANCH   4  24
ATOM     24  C   UNL     1       6.798  34.587  76.461  0.00  0.00    +0.000 C 
ATOM     25  O   UNL     1       6.331  34.430  75.340  0.00  0.00    +0.000 OA
ATOM     26  O   UNL     1       7.527  35.679  76.787  0.00  0.00    +0.000 OA
ENDBRANCH   4  24
BRANCH   7  27
ATOM     27  C   UNL     1       4.597  34.560  80.639  0.00  0.00    +0.000 C 
ATOM     28  O   UNL     1       4.358  35.738  80.420  0.00  0.00    +0.000 OA
ATOM     29  O   UNL     1       4.057  33.905  81.688  0.00  0.00    +0.000 OA
ENDBRANCH   7  27
BRANCH   4  30
ATOM     30  C   UNL     1       6.329  32.115  77.106  0.00  0.00    +0.000 C 
BRANCH  30  31
ATOM     31  C   UNL     1       5.379  31.130  77.764  0.00  0.00    +0.000 A 
ATOM     32  C   UNL     1       4.129  30.893  77.180  0.00  0.00    +0.000 A 
ATOM     33  C   UNL     1       5.808  30.273  78.797  0.00  0.00    +0.000 A 
ATOM     34  C   UNL     1       3.347  29.801  77.569  0.00  0.00    +0.000 A 
ATOM     35  C   UNL     1       5.019  29.188  79.194  0.00  0.00    +0.000 A 
ATOM     36  C   UNL     1       3.800  28.940  78.566  0.00  0.00    +0.000 A 
ENDBRANCH  30  31
ENDBRANCH   4  30
TORSDOF 7
ENDMDL
