MODEL 1
REMARK VINA RESULT:      -8.9      0.000      0.000
REMARK  Name = 
REMARK  7 active torsions:
REMARK  status: ('A' for Active; 'I' for Inactive)
REMARK    1  A    between atoms: C_2  and  C_5
REMARK    2  A    between atoms: C_10  and  C_11
REMARK    3  A    between atoms: C_14  and  C_16
REMARK    4  A    between atoms: C_14  and  C_18
REMARK    5  A    between atoms: C_15  and  C_19
REMARK    6  A    between atoms: C_18  and  C_23
REMARK    7  A    between atoms: C_20  and  C_26
REMARK                            x       y       z     vdW  Elec       q    Type
REMARK                         _______ _______ _______ _____ _____    ______ ____
ROOT
ATOM      1  C   UNL     1       7.404  32.242  76.977  0.00  0.00    +0.000 C 
ATOM      2  O   UNL     1       6.446  32.227  76.203  0.00  0.00    +0.000 OA
ATOM      3  N   UNL     1       7.194  32.044  78.371  0.00  0.00    +0.000 N 
ATOM      4  C   UNL     1       8.172  32.273  79.473  0.00  0.00    +0.000 C 
ATOM      5  C   UNL     1       5.826  32.216  78.946  0.00  0.00    +0.000 C 
ATOM      6  C   UNL     1       7.429  31.729  80.693  0.00  0.00    +0.000 C 
ATOM      7  C   UNL     1       5.997  32.189  80.491  0.00  0.00    +0.000 C 
ENDROOT
BRANCH   1  13
ATOM      8  C   UNL     1      11.336  32.729  75.054  0.00  0.00    +0.000 A 
ATOM      9  C   UNL     1      10.583  33.849  75.471  0.00  0.00    +0.000 A 
ATOM     10  C   UNL     1      10.828  31.484  75.336  0.00  0.00    +0.000 A 
ATOM     11  C   UNL     1       9.319  33.691  76.106  0.00  0.00    +0.000 A 
ATOM     12  C   UNL     1       9.600  31.363  75.951  0.00  0.00    +0.000 A 
ATOM     13  C   UNL     1       8.777  32.413  76.334  0.00  0.00    +0.000 A 
BRANCH   8  15
ATOM     14  F   UNL     1      12.646  33.552  73.209  0.00  0.00    +0.000 F 
ATOM     15  C   UNL     1      12.633  32.751  74.309  0.00  0.00    +0.000 C 
ATOM     16  F   UNL     1      12.978  31.505  73.880  0.00  0.00    +0.000 F 
ATOM     17  F   UNL     1      13.667  33.162  75.096  0.00  0.00    +0.000 F 
ENDBRANCH   8  15
ENDBRANCH   1  13
BRANCH   5  18
ATOM     18  C   UNL     1       4.663  31.366  78.482  0.00  0.00    +0.000 A 
ATOM     19  C   UNL     1       3.419  31.893  78.115  0.00  0.00    +0.000 A 
ATOM     20  C   UNL     1       4.932  30.013  78.183  0.00  0.00    +0.000 A 
ATOM     21  C   UNL     1       2.506  31.105  77.403  0.00  0.00    +0.000 A 
ATOM     22  C   UNL     1       4.018  29.231  77.478  0.00  0.00    +0.000 A 
ATOM     23  C   UNL     1       2.811  29.784  77.071  0.00  0.00    +0.000 A 
ENDBRANCH   5  18
BRANCH   4  24
ATOM     24  C   UNL     1       9.403  31.314  79.424  0.00  0.00    +0.000 C 
ATOM     25  O   UNL     1      10.558  31.694  79.294  0.00  0.00    +0.000 OA
ATOM     26  O   UNL     1       9.091  30.003  79.570  0.00  0.00    +0.000 OA
ENDBRANCH   4  24
BRANCH   7  27
ATOM     27  C   UNL     1       5.049  31.332  81.315  0.00  0.00    +0.000 C 
ATOM     28  O   UNL     1       3.927  31.687  81.662  0.00  0.00    +0.000 OA
ATOM     29  O   UNL     1       5.527  30.110  81.577  0.00  0.00    +0.000 OA
ENDBRANCH   7  27
BRANCH   4  30
ATOM     30  C   UNL     1       8.575  33.791  79.672  0.00  0.00    +0.000 C 
BRANCH  30  31
ATOM     31  C   UNL     1       7.730  34.996  79.315  0.00  0.00    +0.000 A 
ATOM     32  C   UNL     1       6.913  35.569  80.294  0.00  0.00    +0.000 A 
ATOM     33  C   UNL     1       7.942  35.693  78.108  0.00  0.00    +0.000 A 
ATOM     34  C   UNL     1       6.359  36.834  80.100  0.00  0.00    +0.000 A 
ATOM     35  C   UNL     1       7.374  36.954  77.916  0.00  0.00    +0.000 A 
ATOM     36  C   UNL     1       6.599  37.530  78.915  0.00  0.00    +0.000 A 
ENDBRANCH  30  31
ENDBRANCH   4  30
TORSDOF 7
ENDMDL
MODEL 2
REMARK VINA RESULT:      -8.7      1.152      1.893
REMARK  Name = 
REMARK  7 active torsions:
REMARK  status: ('A' for Active; 'I' for Inactive)
REMARK    1  A    between atoms: C_2  and  C_5
REMARK    2  A    between atoms: C_10  and  C_11
REMARK    3  A    between atoms: C_14  and  C_16
REMARK    4  A    between atoms: C_14  and  C_18
REMARK    5  A    between atoms: C_15  and  C_19
REMARK    6  A    between atoms: C_18  and  C_23
REMARK    7  A    between atoms: C_20  and  C_26
REMARK                            x       y       z     vdW  Elec       q    Type
REMARK                         _______ _______ _______ _____ _____    ______ ____
ROOT
ATOM      1  C   UNL     1       7.336  32.243  76.989  0.00  0.00    +0.000 C 
ATOM      2  O   UNL     1       6.387  32.214  76.205  0.00  0.00    +0.000 OA
ATOM      3  N   UNL     1       7.113  32.043  78.381  0.00  0.00    +0.000 N 
ATOM      4  C   UNL     1       8.076  32.286  79.494  0.00  0.00    +0.000 C 
ATOM      5  C   UNL     1       5.737  32.197  78.941  0.00  0.00    +0.000 C 
ATOM      6  C   UNL     1       7.327  31.734  80.706  0.00  0.00    +0.000 C 
ATOM      7  C   UNL     1       5.891  32.173  80.487  0.00  0.00    +0.000 C 
ENDROOT
BRANCH   1  13
ATOM      8  C   UNL     1      11.281  32.786  75.109  0.00  0.00    +0.000 A 
ATOM      9  C   UNL     1      10.523  33.893  75.547  0.00  0.00    +0.000 A 
ATOM     10  C   UNL     1      10.775  31.533  75.357  0.00  0.00    +0.000 A 
ATOM     11  C   UNL     1       9.254  33.717  76.168  0.00  0.00    +0.000 A 
ATOM     12  C   UNL     1       9.542  31.394  75.959  0.00  0.00    +0.000 A 
ATOM     13  C   UNL     1       8.714  32.433  76.362  0.00  0.00    +0.000 A 
BRANCH   8  15
ATOM     14  F   UNL     1      13.673  33.061  75.158  0.00  0.00    +0.000 F 
ATOM     15  C   UNL     1      12.584  32.829  74.375  0.00  0.00    +0.000 C 
ATOM     16  F   UNL     1      12.582  33.804  73.423  0.00  0.00    +0.000 F 
ATOM     17  F   UNL     1      12.831  31.669  73.704  0.00  0.00    +0.000 F 
ENDBRANCH   8  15
ENDBRANCH   1  13
BRANCH   5  18
ATOM     18  C   UNL     1       4.592  31.330  78.465  0.00  0.00    +0.000 A 
ATOM     19  C   UNL     1       3.335  31.836  78.111  0.00  0.00    +0.000 A 
ATOM     20  C   UNL     1       4.888  29.988  78.140  0.00  0.00    +0.000 A 
ATOM     21  C   UNL     1       2.437  31.042  77.387  0.00  0.00    +0.000 A 
ATOM     22  C   UNL     1       3.990  29.200  77.424  0.00  0.00    +0.000 A 
ATOM     23  C   UNL     1       2.770  29.733  77.030  0.00  0.00    +0.000 A 
ENDBRANCH   5  18
BRANCH   4  24
ATOM     24  C   UNL     1       9.321  31.345  79.459  0.00  0.00    +0.000 C 
ATOM     25  O   UNL     1       9.262  30.132  79.605  0.00  0.00    +0.000 OA
ATOM     26  O   UNL     1      10.492  31.982  79.218  0.00  0.00    +0.000 OA
ENDBRANCH   4  24
BRANCH   7  27
ATOM     27  C   UNL     1       4.947  31.304  81.302  0.00  0.00    +0.000 C 
ATOM     28  O   UNL     1       3.825  31.652  81.656  0.00  0.00    +0.000 OA
ATOM     29  O   UNL     1       5.426  30.078  81.546  0.00  0.00    +0.000 OA
ENDBRANCH   7  27
BRANCH   4  30
ATOM     30  C   UNL     1       8.456  33.811  79.695  0.00  0.00    +0.000 C 
BRANCH  30  31
ATOM     31  C   UNL     1       8.710  34.503  81.017  0.00  0.00    +0.000 A 
ATOM     32  C   UNL     1      10.028  34.730  81.425  0.00  0.00    +0.000 A 
ATOM     33  C   UNL     1       7.662  35.139  81.712  0.00  0.00    +0.000 A 
ATOM     34  C   UNL     1      10.303  35.613  82.468  0.00  0.00    +0.000 A 
ATOM     35  C   UNL     1       7.943  36.014  82.764  0.00  0.00    +0.000 A 
ATOM     36  C   UNL     1       9.260  36.263  83.129  0.00  0.00    +0.000 A 
ENDBRANCH  30  31
ENDBRANCH   4  30
TORSDOF 7
ENDMDL
MODEL 3
REMARK VINA RESULT:      -8.3      2.220      5.524
REMARK  Name = 
REMARK  7 active torsions:
REMARK  status: ('A' for Active; 'I' for Inactive)
REMARK    1  A    between atoms: C_2  and  C_5
REMARK    2  A    between atoms: C_10  and  C_11
REMARK    3  A    between atoms: C_14  and  C_16
REMARK    4  A    between atoms: C_14  and  C_18
REMARK    5  A    between atoms: C_15  and  C_19
REMARK    6  A    between atoms: C_18  and  C_23
REMARK    7  A    between atoms: C_20  and  C_26
REMARK                            x       y       z     vdW  Elec       q    Type
REMARK                         _______ _______ _______ _____ _____    ______ ____
ROOT
ATOM      1  C   UNL     1       8.632  34.821  78.417  0.00  0.00    +0.000 C 
ATOM      2  O   UNL     1       9.191  35.565  79.224  0.00  0.00    +0.000 OA
ATOM      3  N   UNL     1       7.210  34.755  78.380  0.00  0.00    +0.000 N 
ATOM      4  C   UNL     1       6.372  33.750  77.663  0.00  0.00    +0.000 C 
ATOM      5  C   UNL     1       6.415  35.252  79.542  0.00  0.00    +0.000 C 
ATOM      6  C   UNL     1       4.960  34.300  77.858  0.00  0.00    +0.000 C 
ATOM      7  C   UNL     1       4.950  34.799  79.292  0.00  0.00    +0.000 C 
ENDROOT
BRANCH   1  13
ATOM      8  C   UNL     1      11.219  32.612  75.620  0.00  0.00    +0.000 A 
ATOM      9  C   UNL     1      10.836  33.946  75.362  0.00  0.00    +0.000 A 
ATOM     10  C   UNL     1      10.814  32.056  76.809  0.00  0.00    +0.000 A 
ATOM     11  C   UNL     1      10.012  34.665  76.273  0.00  0.00    +0.000 A 
ATOM     12  C   UNL     1      10.015  32.777  77.671  0.00  0.00    +0.000 A 
ATOM     13  C   UNL     1       9.550  34.067  77.459  0.00  0.00    +0.000 A 
BRANCH   8  15
ATOM     14  F   UNL     1      12.337  32.267  73.516  0.00  0.00    +0.000 F 
ATOM     15  C   UNL     1      12.010  31.719  74.718  0.00  0.00    +0.000 C 
ATOM     16  F   UNL     1      11.334  30.569  74.444  0.00  0.00    +0.000 F 
ATOM     17  F   UNL     1      13.181  31.322  75.291  0.00  0.00    +0.000 F 
ENDBRANCH   8  15
ENDBRANCH   1  13
BRANCH   5  18
ATOM     18  C   UNL     1       6.500  36.693  79.996  0.00  0.00    +0.000 A 
ATOM     19  C   UNL     1       6.590  37.075  81.339  0.00  0.00    +0.000 A 
ATOM     20  C   UNL     1       6.739  37.670  79.005  0.00  0.00    +0.000 A 
ATOM     21  C   UNL     1       6.981  38.378  81.674  0.00  0.00    +0.000 A 
ATOM     22  C   UNL     1       7.124  38.966  79.342  0.00  0.00    +0.000 A 
ATOM     23  C   UNL     1       7.264  39.316  80.678  0.00  0.00    +0.000 A 
ENDBRANCH   5  18
BRANCH   4  24
ATOM     24  C   UNL     1       6.506  33.821  76.109  0.00  0.00    +0.000 C 
ATOM     25  O   UNL     1       6.100  34.755  75.432  0.00  0.00    +0.000 OA
ATOM     26  O   UNL     1       7.148  32.762  75.559  0.00  0.00    +0.000 OA
ENDBRANCH   4  24
BRANCH   7  27
ATOM     27  C   UNL     1       3.829  35.807  79.489  0.00  0.00    +0.000 C 
ATOM     28  O   UNL     1       3.448  36.590  78.625  0.00  0.00    +0.000 OA
ATOM     29  O   UNL     1       3.236  35.717  80.686  0.00  0.00    +0.000 OA
ENDBRANCH   7  27
BRANCH   4  30
ATOM     30  C   UNL     1       6.503  32.278  78.232  0.00  0.00    +0.000 C 
BRANCH  30  31
ATOM     31  C   UNL     1       5.399  31.245  78.304  0.00  0.00    +0.000 A 
ATOM     32  C   UNL     1       5.058  30.531  77.152  0.00  0.00    +0.000 A 
ATOM     33  C   UNL     1       4.893  30.816  79.548  0.00  0.00    +0.000 A 
ATOM     34  C   UNL     1       4.273  29.382  77.239  0.00  0.00    +0.000 A 
ATOM     35  C   UNL     1       4.097  29.671  79.627  0.00  0.00    +0.000 A 
ATOM     36  C   UNL     1       3.802  28.947  78.478  0.00  0.00    +0.000 A 
ENDBRANCH  30  31
ENDBRANCH   4  30
TORSDOF 7
ENDMDL
MODEL 4
REMARK VINA RESULT:      -8.1      3.455      6.148
REMARK  Name = 
REMARK  7 active torsions:
REMARK  status: ('A' for Active; 'I' for Inactive)
REMARK    1  A    between atoms: C_2  and  C_5
REMARK    2  A    between atoms: C_10  and  C_11
REMARK    3  A    between atoms: C_14  and  C_16
REMARK    4  A    between atoms: C_14  and  C_18
REMARK    5  A    between atoms: C_15  and  C_19
REMARK    6  A    between atoms: C_18  and  C_23
REMARK    7  A    between atoms: C_20  and  C_26
REMARK                            x       y       z     vdW  Elec       q    Type
REMARK                         _______ _______ _______ _____ _____    ______ ____
ROOT
ATOM      1  C   UNL     1       6.823  33.784  79.791  0.00  0.00    +0.000 C 
ATOM      2  O   UNL     1       6.411  33.122  80.744  0.00  0.00    +0.000 OA
ATOM      3  N   UNL     1       6.866  33.206  78.490  0.00  0.00    +0.000 N 
ATOM      4  C   UNL     1       7.552  33.750  77.283  0.00  0.00    +0.000 C 
ATOM      5  C   UNL     1       6.802  31.722  78.337  0.00  0.00    +0.000 C 
ATOM      6  C   UNL     1       7.099  32.789  76.184  0.00  0.00    +0.000 C 
ATOM      7  C   UNL     1       7.132  31.424  76.847  0.00  0.00    +0.000 C 
ENDROOT
BRANCH   1  13
ATOM      8  C   UNL     1       7.929  37.969  80.602  0.00  0.00    +0.000 A 
ATOM      9  C   UNL     1       6.588  37.603  80.349  0.00  0.00    +0.000 A 
ATOM     10  C   UNL     1       8.860  36.961  80.657  0.00  0.00    +0.000 A 
ATOM     11  C   UNL     1       6.229  36.249  80.101  0.00  0.00    +0.000 A 
ATOM     12  C   UNL     1       8.482  35.658  80.411  0.00  0.00    +0.000 A 
ATOM     13  C   UNL     1       7.200  35.231  80.097  0.00  0.00    +0.000 A 
BRANCH   8  15
ATOM     14  F   UNL     1       7.534  40.344  80.638  0.00  0.00    +0.000 F 
ATOM     15  C   UNL     1       8.455  39.355  80.799  0.00  0.00    +0.000 C 
ATOM     16  F   UNL     1       9.466  39.628  79.927  0.00  0.00    +0.000 F 
ATOM     17  F   UNL     1       8.991  39.527  82.040  0.00  0.00    +0.000 F 
ENDBRANCH   8  15
ENDBRANCH   1  13
BRANCH   5  18
ATOM     18  C   UNL     1       5.611  30.929  78.829  0.00  0.00    +0.000 A 
ATOM     19  C   UNL     1       5.723  29.754  79.581  0.00  0.00    +0.000 A 
ATOM     20  C   UNL     1       4.342  31.538  78.726  0.00  0.00    +0.000 A 
ATOM     21  C   UNL     1       4.611  29.251  80.268  0.00  0.00    +0.000 A 
ATOM     22  C   UNL     1       3.236  31.032  79.407  0.00  0.00    +0.000 A 
ATOM     23  C   UNL     1       3.375  29.897  80.194  0.00  0.00    +0.000 A 
ENDBRANCH   5  18
BRANCH   4  24
ATOM     24  C   UNL     1       6.944  35.094  76.772  0.00  0.00    +0.000 C 
ATOM     25  O   UNL     1       5.809  35.203  76.329  0.00  0.00    +0.000 OA
ATOM     26  O   UNL     1       7.774  36.158  76.888  0.00  0.00    +0.000 OA
ENDBRANCH   4  24
BRANCH   7  27
ATOM     27  C   UNL     1       6.251  30.448  76.084  0.00  0.00    +0.000 C 
ATOM     28  O   UNL     1       5.223  30.765  75.495  0.00  0.00    +0.000 OA
ATOM     29  O   UNL     1       6.740  29.202  76.053  0.00  0.00    +0.000 OA
ENDBRANCH   7  27
BRANCH   4  30
ATOM     30  C   UNL     1       9.131  33.787  77.402  0.00  0.00    +0.000 C 
BRANCH  30  31
ATOM     31  C   UNL     1      10.120  33.434  76.311  0.00  0.00    +0.000 A 
ATOM     32  C   UNL     1      10.653  34.454  75.518  0.00  0.00    +0.000 A 
ATOM     33  C   UNL     1      10.696  32.149  76.249  0.00  0.00    +0.000 A 
ATOM     34  C   UNL     1      11.771  34.217  74.720  0.00  0.00    +0.000 A 
ATOM     35  C   UNL     1      11.808  31.915  75.437  0.00  0.00    +0.000 A 
ATOM     36  C   UNL     1      12.354  32.949  74.688  0.00  0.00    +0.000 A 
ENDBRANCH  30  31
ENDBRANCH   4  30
TORSDOF 7
ENDMDL
MODEL 5
REMARK VINA RESULT:      -7.9      4.164      7.221
REMARK  Name = 
REMARK  7 active torsions:
REMARK  status: ('A' for Active; 'I' for Inactive)
REMARK    1  A    between atoms: C_2  and  C_5
REMARK    2  A    between atoms: C_10  and  C_11
REMARK    3  A    between atoms: C_14  and  C_16
REMARK    4  A    between atoms: C_14  and  C_18
REMARK    5  A    between atoms: C_15  and  C_19
REMARK    6  A    between atoms: C_18  and  C_23
REMARK    7  A    between atoms: C_20  and  C_26
REMARK                            x       y       z     vdW  Elec       q    Type
REMARK                         _______ _______ _______ _____ _____    ______ ____
ROOT
ATOM      1  C   UNL     1       7.917  31.505  76.922  0.00  0.00    +0.000 C 
ATOM      2  O   UNL     1       8.635  30.507  76.997  0.00  0.00    +0.000 OA
ATOM      3  N   UNL     1       8.479  32.756  76.538  0.00  0.00    +0.000 N 
ATOM      4  C   UNL     1       7.838  34.100  76.633  0.00  0.00    +0.000 C 
ATOM      5  C   UNL     1       9.956  32.959  76.615  0.00  0.00    +0.000 C 
ATOM      6  C   UNL     1       8.850  34.998  75.923  0.00  0.00    +0.000 C 
ATOM      7  C   UNL     1      10.198  34.477  76.386  0.00  0.00    +0.000 C 
ENDROOT
BRANCH   1  13
ATOM      8  C   UNL     1       3.619  30.931  77.694  0.00  0.00    +0.000 A 
ATOM      9  C   UNL     1       4.184  30.616  76.439  0.00  0.00    +0.000 A 
ATOM     10  C   UNL     1       4.472  31.354  78.684  0.00  0.00    +0.000 A 
ATOM     11  C   UNL     1       5.576  30.788  76.194  0.00  0.00    +0.000 A 
ATOM     12  C   UNL     1       5.816  31.512  78.417  0.00  0.00    +0.000 A 
ATOM     13  C   UNL     1       6.432  31.281  77.195  0.00  0.00    +0.000 A 
BRANCH   8  15
ATOM     14  F   UNL     1       1.579  32.087  78.241  0.00  0.00    +0.000 F 
ATOM     15  C   UNL     1       2.170  30.875  78.061  0.00  0.00    +0.000 C 
ATOM     16  F   UNL     1       1.980  30.179  79.217  0.00  0.00    +0.000 F 
ATOM     17  F   UNL     1       1.430  30.222  77.120  0.00  0.00    +0.000 F 
ENDBRANCH   8  15
ENDBRANCH   1  13
BRANCH   5  18
ATOM     18  C   UNL     1      10.912  32.099  75.818  0.00  0.00    +0.000 A 
ATOM     19  C   UNL     1      10.568  31.472  74.615  0.00  0.00    +0.000 A 
ATOM     20  C   UNL     1      12.275  32.134  76.189  0.00  0.00    +0.000 A 
ATOM     21  C   UNL     1      11.569  30.964  73.777  0.00  0.00    +0.000 A 
ATOM     22  C   UNL     1      13.267  31.623  75.354  0.00  0.00    +0.000 A 
ATOM     23  C   UNL     1      12.915  31.054  74.137  0.00  0.00    +0.000 A 
ENDBRANCH   5  18
BRANCH   4  24
ATOM     24  C   UNL     1       6.593  34.264  75.705  0.00  0.00    +0.000 C 
ATOM     25  O   UNL     1       6.599  34.017  74.507  0.00  0.00    +0.000 OA
ATOM     26  O   UNL     1       5.474  34.679  76.347  0.00  0.00    +0.000 OA
ENDBRANCH   4  24
BRANCH   7  27
ATOM     27  C   UNL     1      11.288  34.905  75.415  0.00  0.00    +0.000 C 
ATOM     28  O   UNL     1      11.214  34.775  74.197  0.00  0.00    +0.000 OA
ATOM     29  O   UNL     1      12.324  35.509  76.010  0.00  0.00    +0.000 OA
ENDBRANCH   7  27
BRANCH   4  30
ATOM     30  C   UNL     1       7.576  34.586  78.117  0.00  0.00    +0.000 C 
BRANCH  30  31
ATOM     31  C   UNL     1       7.828  35.975  78.662  0.00  0.00    +0.000 A 
ATOM     32  C   UNL     1       7.024  37.034  78.227  0.00  0.00    +0.000 A 
ATOM     33  C   UNL     1       8.675  36.172  79.771  0.00  0.00    +0.000 A 
ATOM     34  C   UNL     1       7.023  38.247  78.914  0.00  0.00    +0.000 A 
ATOM     35  C   UNL     1       8.678  37.395  80.446  0.00  0.00    +0.000 A 
ATOM     36  C   UNL     1       7.842  38.423  80.029  0.00  0.00    +0.000 A 
ENDBRANCH  30  31
ENDBRANCH   4  30
TORSDOF 7
ENDMDL
MODEL 6
REMARK VINA RESULT:      -7.7      1.599      2.357
REMARK  Name = 
REMARK  7 active torsions:
REMARK  status: ('A' for Active; 'I' for Inactive)
REMARK    1  A    between atoms: C_2  and  C_5
REMARK    2  A    between atoms: C_10  and  C_11
REMARK    3  A    between atoms: C_14  and  C_16
REMARK    4  A    between atoms: C_14  and  C_18
REMARK    5  A    between atoms: C_15  and  C_19
REMARK    6  A    between atoms: C_18  and  C_23
REMARK    7  A    between atoms: C_20  and  C_26
REMARK                            x       y       z     vdW  Elec       q    Type
REMARK                         _______ _______ _______ _____ _____    ______ ____
ROOT
ATOM      1  C   UNL     1       6.954  32.927  77.087  0.00  0.00    +0.000 C 
ATOM      2  O   UNL     1       6.133  32.376  76.353  0.00  0.00    +0.000 OA
ATOM      3  N   UNL     1       6.553  33.409  78.366  0.00  0.00    +0.000 N 
ATOM      4  C   UNL     1       7.323  34.308  79.273  0.00  0.00    +0.000 C 
ATOM      5  C   UNL     1       5.103  33.613  78.659  0.00  0.00    +0.000 C 
ATOM      6  C   UNL     1       6.460  34.320  80.535  0.00  0.00    +0.000 C 
ATOM      7  C   UNL     1       5.037  34.377  80.011  0.00  0.00    +0.000 C 
ENDROOT
BRANCH   1  13
ATOM      8  C   UNL     1      11.109  33.113  75.639  0.00  0.00    +0.000 A 
ATOM      9  C   UNL     1      10.536  31.893  76.058  0.00  0.00    +0.000 A 
ATOM     10  C   UNL     1      10.300  34.224  75.631  0.00  0.00    +0.000 A 
ATOM     11  C   UNL     1       9.189  31.830  76.512  0.00  0.00    +0.000 A 
ATOM     12  C   UNL     1       8.999  34.132  76.079  0.00  0.00    +0.000 A 
ATOM     13  C   UNL     1       8.386  32.984  76.561  0.00  0.00    +0.000 A 
BRANCH   8  15
ATOM     14  F   UNL     1      13.336  32.249  75.336  0.00  0.00    +0.000 F 
ATOM     15  C   UNL     1      12.527  33.336  75.216  0.00  0.00    +0.000 C 
ATOM     16  F   UNL     1      13.109  34.329  75.944  0.00  0.00    +0.000 F 
ATOM     17  F   UNL     1      12.615  33.740  73.917  0.00  0.00    +0.000 F 
ENDBRANCH   8  15
ENDBRANCH   1  13
BRANCH   5  18
ATOM     18  C   UNL     1       4.118  32.466  78.599  0.00  0.00    +0.000 A 
ATOM     19  C   UNL     1       2.890  32.537  77.931  0.00  0.00    +0.000 A 
ATOM     20  C   UNL     1       4.572  31.201  79.033  0.00  0.00    +0.000 A 
ATOM     21  C   UNL     1       2.179  31.365  77.643  0.00  0.00    +0.000 A 
ATOM     22  C   UNL     1       3.859  30.038  78.748  0.00  0.00    +0.000 A 
ATOM     23  C   UNL     1       2.670  30.118  78.036  0.00  0.00    +0.000 A 
ENDBRANCH   5  18
BRANCH   4  24
ATOM     24  C   UNL     1       8.637  33.667  79.819  0.00  0.00    +0.000 C 
ATOM     25  O   UNL     1       9.757  34.099  79.581  0.00  0.00    +0.000 OA
ATOM     26  O   UNL     1       8.440  32.592  80.620  0.00  0.00    +0.000 OA
ENDBRANCH   4  24
BRANCH   7  27
ATOM     27  C   UNL     1       4.065  33.894  81.076  0.00  0.00    +0.000 C 
ATOM     28  O   UNL     1       4.361  33.111  81.973  0.00  0.00    +0.000 OA
ATOM     29  O   UNL     1       2.855  34.460  80.990  0.00  0.00    +0.000 OA
ENDBRANCH   7  27
BRANCH   4  30
ATOM     30  C   UNL     1       7.534  35.770  78.704  0.00  0.00    +0.000 C 
BRANCH  30  31
ATOM     31  C   UNL     1       7.787  37.021  79.519  0.00  0.00    +0.000 A 
ATOM     32  C   UNL     1       9.060  37.600  79.501  0.00  0.00    +0.000 A 
ATOM     33  C   UNL     1       6.716  37.743  80.083  0.00  0.00    +0.000 A 
ATOM     34  C   UNL     1       9.254  38.893  79.984  0.00  0.00    +0.000 A 
ATOM     35  C   UNL     1       6.921  39.033  80.577  0.00  0.00    +0.000 A 
ATOM     36  C   UNL     1       8.182  39.613  80.512  0.00  0.00    +0.000 A 
ENDBRANCH  30  31
ENDBRANCH   4  30
TORSDOF 7
ENDMDL
MODEL 7
REMARK VINA RESULT:      -7.7      4.120      6.704
REMARK  Name = 
REMARK  7 active torsions:
REMARK  status: ('A' for Active; 'I' for Inactive)
REMARK    1  A    between atoms: C_2  and  C_5
REMARK    2  A    between atoms: C_10  and  C_11
REMARK    3  A    between atoms: C_14  and  C_16
REMARK    4  A    between atoms: C_14  and  C_18
REMARK    5  A    between atoms: C_15  and  C_19
REMARK    6  A    between atoms: C_18  and  C_23
REMARK    7  A    between atoms: C_20  and  C_26
REMARK                            x       y       z     vdW  Elec       q    Type
REMARK                         _______ _______ _______ _____ _____    ______ ____
ROOT
ATOM      1  C   UNL     1       8.481  35.556  78.438  0.00  0.00    +0.000 C 
ATOM      2  O   UNL     1       8.799  35.532  77.248  0.00  0.00    +0.000 OA
ATOM      3  N   UNL     1       8.445  34.346  79.188  0.00  0.00    +0.000 N 
ATOM      4  C   UNL     1       7.855  34.141  80.542  0.00  0.00    +0.000 C 
ATOM      5  C   UNL     1       8.394  33.035  78.475  0.00  0.00    +0.000 C 
ATOM      6  C   UNL     1       8.274  32.708  80.871  0.00  0.00    +0.000 C 
ATOM      7  C   UNL     1       8.102  31.961  79.561  0.00  0.00    +0.000 C 
ENDROOT
BRANCH   1  13
ATOM      8  C   UNL     1       7.685  39.509  80.209  0.00  0.00    +0.000 A 
ATOM      9  C   UNL     1       8.997  38.994  80.133  0.00  0.00    +0.000 A 
ATOM     10  C   UNL     1       6.678  38.764  79.645  0.00  0.00    +0.000 A 
ATOM     11  C   UNL     1       9.256  37.723  79.547  0.00  0.00    +0.000 A 
ATOM     12  C   UNL     1       6.960  37.535  79.086  0.00  0.00    +0.000 A 
ATOM     13  C   UNL     1       8.211  36.937  79.029  0.00  0.00    +0.000 A 
BRANCH   8  15
ATOM     14  F   UNL     1       6.856  41.761  80.006  0.00  0.00    +0.000 F 
ATOM     15  C   UNL     1       7.263  40.786  80.864  0.00  0.00    +0.000 C 
ATOM     16  F   UNL     1       8.276  41.321  81.601  0.00  0.00    +0.000 F 
ATOM     17  F   UNL     1       6.238  40.595  81.742  0.00  0.00    +0.000 F 
ENDBRANCH   8  15
ENDBRANCH   1  13
BRANCH   5  18
ATOM     18  C   UNL     1       9.496  32.609  77.529  0.00  0.00    +0.000 A 
ATOM     19  C   UNL     1       9.268  31.872  76.361  0.00  0.00    +0.000 A 
ATOM     20  C   UNL     1      10.769  33.189  77.717  0.00  0.00    +0.000 A 
ATOM     21  C   UNL     1      10.265  31.786  75.380  0.00  0.00    +0.000 A 
ATOM     22  C   UNL     1      11.759  33.097  76.741  0.00  0.00    +0.000 A 
ATOM     23  C   UNL     1      11.500  32.410  75.562  0.00  0.00    +0.000 A 
ENDBRANCH   5  18
BRANCH   4  24
ATOM     24  C   UNL     1       8.591  34.931  81.670  0.00  0.00    +0.000 C 
ATOM     25  O   UNL     1       8.062  35.799  82.350  0.00  0.00    +0.000 OA
ATOM     26  O   UNL     1       9.878  34.553  81.863  0.00  0.00    +0.000 OA
ENDBRANCH   4  24
BRANCH   7  27
ATOM     27  C   UNL     1       8.932  30.687  79.570  0.00  0.00    +0.000 C 
ATOM     28  O   UNL     1      10.070  30.611  80.021  0.00  0.00    +0.000 OA
ATOM     29  O   UNL     1       8.275  29.620  79.098  0.00  0.00    +0.000 OA
ENDBRANCH   7  27
BRANCH   4  30
ATOM     30  C   UNL     1       6.281  34.308  80.592  0.00  0.00    +0.000 C 
BRANCH  30  31
ATOM     31  C   UNL     1       5.292  33.778  79.576  0.00  0.00    +0.000 A 
ATOM     32  C   UNL     1       4.550  32.632  79.880  0.00  0.00    +0.000 A 
ATOM     33  C   UNL     1       4.927  34.549  78.454  0.00  0.00    +0.000 A 
ATOM     34  C   UNL     1       3.435  32.290  79.117  0.00  0.00    +0.000 A 
ATOM     35  C   UNL     1       3.816  34.193  77.686  0.00  0.00    +0.000 A 
ATOM     36  C   UNL     1       3.062  33.076  78.027  0.00  0.00    +0.000 A 
ENDBRANCH  30  31
ENDBRANCH   4  30
TORSDOF 7
ENDMDL
MODEL 8
REMARK VINA RESULT:      -7.5      1.899      5.027
REMARK  Name = 
REMARK  7 active torsions:
REMARK  status: ('A' for Active; 'I' for Inactive)
REMARK    1  A    between atoms: C_2  and  C_5
REMARK    2  A    between atoms: C_10  and  C_11
REMARK    3  A    between atoms: C_14  and  C_16
REMARK    4  A    between atoms: C_14  and  C_18
REMARK    5  A    between atoms: C_15  and  C_19
REMARK    6  A    between atoms: C_18  and  C_23
REMARK    7  A    between atoms: C_20  and  C_26
REMARK                            x       y       z     vdW  Elec       q    Type
REMARK                         _______ _______ _______ _____ _____    ______ ____
ROOT
ATOM      1  C   UNL     1       8.294  33.431  78.487  0.00  0.00    +0.000 C 
ATOM      2  O   UNL     1       8.848  33.658  79.563  0.00  0.00    +0.000 OA
ATOM      3  N   UNL     1       6.872  33.425  78.408  0.00  0.00    +0.000 N 
ATOM      4  C   UNL     1       6.033  32.935  77.277  0.00  0.00    +0.000 C 
ATOM      5  C   UNL     1       6.062  33.292  79.656  0.00  0.00    +0.000 C 
ATOM      6  C   UNL     1       4.625  33.346  77.708  0.00  0.00    +0.000 C 
ATOM      7  C   UNL     1       4.595  33.060  79.199  0.00  0.00    +0.000 C 
ENDROOT
BRANCH   1  13
ATOM      8  C   UNL     1      11.021  32.879  75.074  0.00  0.00    +0.000 A 
ATOM      9  C   UNL     1      10.470  31.771  75.755  0.00  0.00    +0.000 A 
ATOM     10  C   UNL     1      10.618  34.131  75.470  0.00  0.00    +0.000 A 
ATOM     11  C   UNL     1       9.577  31.950  76.849  0.00  0.00    +0.000 A 
ATOM     12  C   UNL     1       9.752  34.272  76.534  0.00  0.00    +0.000 A 
ATOM     13  C   UNL     1       9.218  33.237  77.288  0.00  0.00    +0.000 A 
BRANCH   8  15
ATOM     14  F   UNL     1      11.956  31.735  73.172  0.00  0.00    +0.000 F 
ATOM     15  C   UNL     1      12.026  32.837  73.967  0.00  0.00    +0.000 C 
ATOM     16  F   UNL     1      13.299  32.878  74.453  0.00  0.00    +0.000 F 
ATOM     17  F   UNL     1      11.921  33.915  73.140  0.00  0.00    +0.000 F 
ENDBRANCH   8  15
ENDBRANCH   1  13
BRANCH   5  18
ATOM     18  C   UNL     1       6.160  34.310  80.772  0.00  0.00    +0.000 A 
ATOM     19  C   UNL     1       6.380  33.968  82.111  0.00  0.00    +0.000 A 
ATOM     20  C   UNL     1       6.273  35.667  80.400  0.00  0.00    +0.000 A 
ATOM     21  C   UNL     1       6.774  34.949  83.030  0.00  0.00    +0.000 A 
ATOM     22  C   UNL     1       6.661  36.640  81.319  0.00  0.00    +0.000 A 
ATOM     23  C   UNL     1       6.931  36.278  82.632  0.00  0.00    +0.000 A 
ENDBRANCH   5  18
BRANCH   4  24
ATOM     24  C   UNL     1       6.198  33.771  75.969  0.00  0.00    +0.000 C 
ATOM     25  O   UNL     1       6.347  33.278  74.860  0.00  0.00    +0.000 OA
ATOM     26  O   UNL     1       6.131  35.111  76.155  0.00  0.00    +0.000 OA
ENDBRANCH   4  24
BRANCH   7  27
ATOM     27  C   UNL     1       3.486  33.859  79.864  0.00  0.00    +0.000 C 
ATOM     28  O   UNL     1       3.022  34.901  79.411  0.00  0.00    +0.000 OA
ATOM     29  O   UNL     1       3.004  33.282  80.972  0.00  0.00    +0.000 OA
ENDBRANCH   7  27
BRANCH   4  30
ATOM     30  C   UNL     1       6.129  31.373  77.033  0.00  0.00    +0.000 C 
BRANCH  30  31
ATOM     31  C   UNL     1       6.027  30.294  78.090  0.00  0.00    +0.000 A 
ATOM     32  C   UNL     1       7.125  30.047  78.920  0.00  0.00    +0.000 A 
ATOM     33  C   UNL     1       4.782  29.719  78.416  0.00  0.00    +0.000 A 
ATOM     34  C   UNL     1       6.976  29.288  80.080  0.00  0.00    +0.000 A 
ATOM     35  C   UNL     1       4.643  28.950  79.573  0.00  0.00    +0.000 A 
ATOM     36  C   UNL     1       5.733  28.749  80.411  0.00  0.00    +0.000 A 
ENDBRANCH  30  31
ENDBRANCH   4  30
TORSDOF 7
ENDMDL
MODEL 9
REMARK VINA RESULT:      -7.5      2.051      5.325
REMARK  Name = 
REMARK  7 active torsions:
REMARK  status: ('A' for Active; 'I' for Inactive)
REMARK    1  A    between atoms: C_2  and  C_5
REMARK    2  A    between atoms: C_10  and  C_11
REMARK    3  A    between atoms: C_14  and  C_16
REMARK    4  A    between atoms: C_14  and  C_18
REMARK    5  A    between atoms: C_15  and  C_19
REMARK    6  A    between atoms: C_18  and  C_23
REMARK    7  A    between atoms: C_20  and  C_26
REMARK                            x       y       z     vdW  Elec       q    Type
REMARK                         _______ _______ _______ _____ _____    ______ ____
ROOT
ATOM      1  C   UNL     1       8.717  34.309  78.660  0.00  0.00    +0.000 C 
ATOM      2  O   UNL     1       9.394  34.766  79.582  0.00  0.00    +0.000 OA
ATOM      3  N   UNL     1       7.297  34.398  78.710  0.00  0.00    +0.000 N 
ATOM      4  C   UNL     1       6.317  33.697  77.831  0.00  0.00    +0.000 C 
ATOM      5  C   UNL     1       6.617  34.665  80.013  0.00  0.00    +0.000 C 
ATOM      6  C   UNL     1       4.987  34.319  78.257  0.00  0.00    +0.000 C 
ATOM      7  C   UNL     1       5.099  34.440  79.766  0.00  0.00    +0.000 C 
ENDROOT
BRANCH   1  13
ATOM      8  C   UNL     1      11.033  32.656  75.299  0.00  0.00    +0.000 A 
ATOM      9  C   UNL     1      10.459  31.812  76.275  0.00  0.00    +0.000 A 
ATOM     10  C   UNL     1      10.780  34.002  75.397  0.00  0.00    +0.000 A 
ATOM     11  C   UNL     1       9.698  32.346  77.353  0.00  0.00    +0.000 A 
ATOM     12  C   UNL     1      10.041  34.490  76.455  0.00  0.00    +0.000 A 
ATOM     13  C   UNL     1       9.497  33.732  77.482  0.00  0.00    +0.000 A 
BRANCH   8  15
ATOM     14  F   UNL     1      12.224  33.230  73.287  0.00  0.00    +0.000 F 
ATOM     15  C   UNL     1      11.915  32.239  74.166  0.00  0.00    +0.000 C 
ATOM     16  F   UNL     1      11.343  31.242  73.434  0.00  0.00    +0.000 F 
ATOM     17  F   UNL     1      13.102  31.730  74.603  0.00  0.00    +0.000 F 
ENDBRANCH   8  15
ENDBRANCH   1  13
BRANCH   5  18
ATOM     18  C   UNL     1       6.888  35.929  80.799  0.00  0.00    +0.000 A 
ATOM     19  C   UNL     1       6.896  37.207  80.229  0.00  0.00    +0.000 A 
ATOM     20  C   UNL     1       6.894  35.825  82.208  0.00  0.00    +0.000 A 
ATOM     21  C   UNL     1       6.836  38.342  81.048  0.00  0.00    +0.000 A 
ATOM     22  C   UNL     1       6.839  36.957  83.019  0.00  0.00    +0.000 A 
ATOM     23  C   UNL     1       6.791  38.217  82.438  0.00  0.00    +0.000 A 
ENDBRANCH   5  18
BRANCH   4  24
ATOM     24  C   UNL     1       6.388  34.143  76.337  0.00  0.00    +0.000 C 
ATOM     25  O   UNL     1       6.697  33.397  75.418  0.00  0.00    +0.000 OA
ATOM     26  O   UNL     1       6.045  35.436  76.127  0.00  0.00    +0.000 OA
ENDBRANCH   4  24
BRANCH   7  27
ATOM     27  C   UNL     1       4.113  35.473  80.285  0.00  0.00    +0.000 C 
ATOM     28  O   UNL     1       3.768  36.470  79.659  0.00  0.00    +0.000 OA
ATOM     29  O   UNL     1       3.592  35.161  81.478  0.00  0.00    +0.000 OA
ENDBRANCH   7  27
BRANCH   4  30
ATOM     30  C   UNL     1       6.301  32.124  78.011  0.00  0.00    +0.000 C 
BRANCH  30  31
ATOM     31  C   UNL     1       5.086  31.225  77.929  0.00  0.00    +0.000 A 
ATOM     32  C   UNL     1       4.478  30.790  79.110  0.00  0.00    +0.000 A 
ATOM     33  C   UNL     1       4.415  31.030  76.704  0.00  0.00    +0.000 A 
ATOM     34  C   UNL     1       3.206  30.221  79.082  0.00  0.00    +0.000 A 
ATOM     35  C   UNL     1       3.146  30.448  76.682  0.00  0.00    +0.000 A 
ATOM     36  C   UNL     1       2.536  30.061  77.869  0.00  0.00    +0.000 A 
ENDBRANCH  30  31
ENDBRANCH   4  30
TORSDOF 7
ENDMDL
