MODEL 1
REMARK VINA RESULT:      -8.2      0.000      0.000
REMARK  Name = 
REMARK  9 active torsions:
REMARK  status: ('A' for Active; 'I' for Inactive)
REMARK    1  A    between atoms: C_2  and  C_5
REMARK    2  A    between atoms: C_10  and  C_11
REMARK    3  A    between atoms: C_14  and  C_16
REMARK    4  A    between atoms: C_14  and  C_18
REMARK    5  A    between atoms: C_15  and  C_19
REMARK    6  A    between atoms: C_18  and  C_23
REMARK    7  A    between atoms: C_20  and  C_26
REMARK    8  A    between atoms: C_23  and  C_27
REMARK    9  A    between atoms: C_23  and  C_28
REMARK                            x       y       z     vdW  Elec       q    Type
REMARK                         _______ _______ _______ _____ _____    ______ ____
ROOT
ATOM      1  C   UNL     1       7.319  32.348  76.942  0.00  0.00    +0.000 C 
ATOM      2  O   UNL     1       6.384  32.565  76.173  0.00  0.00    +0.000 OA
ATOM      3  N   UNL     1       7.050  32.025  78.304  0.00  0.00    +0.000 N 
ATOM      4  C   UNL     1       7.990  32.066  79.485  0.00  0.00    +0.000 C 
ATOM      5  C   UNL     1       5.663  32.349  78.777  0.00  0.00    +0.000 C 
ATOM      6  C   UNL     1       7.041  31.763  80.657  0.00  0.00    +0.000 C 
ATOM      7  C   UNL     1       5.722  32.427  80.315  0.00  0.00    +0.000 C 
ENDROOT
BRANCH   1  13
ATOM      8  C   UNL     1      11.327  32.752  75.244  0.00  0.00    +0.000 A 
ATOM      9  C   UNL     1      10.538  33.871  75.551  0.00  0.00    +0.000 A 
ATOM     10  C   UNL     1      10.794  31.495  75.477  0.00  0.00    +0.000 A 
ATOM     11  C   UNL     1       9.241  33.715  76.081  0.00  0.00    +0.000 A 
ATOM     12  C   UNL     1       9.529  31.366  76.033  0.00  0.00    +0.000 A 
ATOM     13  C   UNL     1       8.701  32.443  76.329  0.00  0.00    +0.000 A 
BRANCH   8  15
ATOM     14  F   UNL     1      13.644  33.307  75.560  0.00  0.00    +0.000 F 
ATOM     15  C   UNL     1      12.725  32.817  74.690  0.00  0.00    +0.000 C 
ATOM     16  F   UNL     1      12.797  33.591  73.572  0.00  0.00    +0.000 F 
ATOM     17  F   UNL     1      13.172  31.584  74.314  0.00  0.00    +0.000 F 
ENDBRANCH   8  15
ENDBRANCH   1  13
BRANCH   5  18
ATOM     18  C   UNL     1       4.539  31.478  78.271  0.00  0.00    +0.000 A 
ATOM     19  C   UNL     1       3.293  32.000  77.913  0.00  0.00    +0.000 A 
ATOM     20  C   UNL     1       4.799  30.111  78.036  0.00  0.00    +0.000 A 
ATOM     21  C   UNL     1       2.336  31.183  77.312  0.00  0.00    +0.000 A 
ATOM     22  C   UNL     1       3.843  29.304  77.418  0.00  0.00    +0.000 A 
ATOM     23  C   UNL     1       2.614  29.842  77.051  0.00  0.00    +0.000 A 
ENDBRANCH   5  18
BRANCH   4  24
ATOM     24  C   UNL     1       8.999  30.866  79.636  0.00  0.00    +0.000 C 
ATOM     25  O   UNL     1      10.198  31.008  79.812  0.00  0.00    +0.000 OA
ATOM     26  O   UNL     1       8.443  29.642  79.558  0.00  0.00    +0.000 OA
ENDBRANCH   4  24
BRANCH   7  27
ATOM     27  C   UNL     1       4.619  31.744  81.107  0.00  0.00    +0.000 C 
ATOM     28  O   UNL     1       4.663  30.591  81.508  0.00  0.00    +0.000 OA
ATOM     29  O   UNL     1       3.583  32.557  81.406  0.00  0.00    +0.000 OA
ENDBRANCH   7  27
BRANCH   4  30
ATOM     30  C   UNL     1       8.555  33.529  79.580  0.00  0.00    +0.000 C 
BRANCH  30  31
ATOM     31  C   UNL     1       8.534  34.312  80.903  0.00  0.00    +0.000 C 
ATOM     32  C   UNL     1       9.978  34.672  81.298  0.00  0.00    +0.000 C 
ATOM     33  C   UNL     1       7.729  35.604  80.847  0.00  0.00    +0.000 C 
ENDBRANCH  30  31
ENDBRANCH   4  30
TORSDOF 7
ENDMDL
MODEL 2
REMARK VINA RESULT:      -7.6      2.324      5.089
REMARK  Name = 
REMARK  9 active torsions:
REMARK  status: ('A' for Active; 'I' for Inactive)
REMARK    1  A    between atoms: C_2  and  C_5
REMARK    2  A    between atoms: C_10  and  C_11
REMARK    3  A    between atoms: C_14  and  C_16
REMARK    4  A    between atoms: C_14  and  C_18
REMARK    5  A    between atoms: C_15  and  C_19
REMARK    6  A    between atoms: C_18  and  C_23
REMARK    7  A    between atoms: C_20  and  C_26
REMARK    8  A    between atoms: C_23  and  C_27
REMARK    9  A    between atoms: C_23  and  C_28
REMARK                            x       y       z     vdW  Elec       q    Type
REMARK                         _______ _______ _______ _____ _____    ______ ____
ROOT
ATOM      1  C   UNL     1       8.845  34.312  78.164  0.00  0.00    +0.000 C 
ATOM      2  O   UNL     1       9.498  34.844  79.060  0.00  0.00    +0.000 OA
ATOM      3  N   UNL     1       7.421  34.329  78.226  0.00  0.00    +0.000 N 
ATOM      4  C   UNL     1       6.436  33.469  77.469  0.00  0.00    +0.000 C 
ATOM      5  C   UNL     1       6.842  34.663  79.569  0.00  0.00    +0.000 C 
ATOM      6  C   UNL     1       5.099  33.880  78.110  0.00  0.00    +0.000 C 
ATOM      7  C   UNL     1       5.393  34.136  79.575  0.00  0.00    +0.000 C 
ENDROOT
BRANCH   1  13
ATOM      8  C   UNL     1      11.276  32.623  74.947  0.00  0.00    +0.000 A 
ATOM      9  C   UNL     1      11.063  34.004  75.066  0.00  0.00    +0.000 A 
ATOM     10  C   UNL     1      10.676  31.788  75.877  0.00  0.00    +0.000 A 
ATOM     11  C   UNL     1      10.260  34.524  76.101  0.00  0.00    +0.000 A 
ATOM     12  C   UNL     1       9.920  32.325  76.909  0.00  0.00    +0.000 A 
ATOM     13  C   UNL     1       9.658  33.684  77.052  0.00  0.00    +0.000 A 
BRANCH   8  15
ATOM     14  F   UNL     1      11.436  31.187  73.026  0.00  0.00    +0.000 F 
ATOM     15  C   UNL     1      12.127  31.975  73.888  0.00  0.00    +0.000 C 
ATOM     16  F   UNL     1      13.107  31.196  74.426  0.00  0.00    +0.000 F 
ATOM     17  F   UNL     1      12.772  32.904  73.127  0.00  0.00    +0.000 F 
ENDBRANCH   8  15
ENDBRANCH   1  13
BRANCH   5  18
ATOM     18  C   UNL     1       6.953  36.094  80.033  0.00  0.00    +0.000 A 
ATOM     19  C   UNL     1       7.258  36.430  81.355  0.00  0.00    +0.000 A 
ATOM     20  C   UNL     1       6.866  37.123  79.071  0.00  0.00    +0.000 A 
ATOM     21  C   UNL     1       7.496  37.758  81.705  0.00  0.00    +0.000 A 
ATOM     22  C   UNL     1       7.124  38.448  79.426  0.00  0.00    +0.000 A 
ATOM     23  C   UNL     1       7.444  38.764  80.741  0.00  0.00    +0.000 A 
ENDBRANCH   5  18
BRANCH   4  24
ATOM     24  C   UNL     1       6.150  33.862  75.970  0.00  0.00    +0.000 C 
ATOM     25  O   UNL     1       6.945  33.689  75.062  0.00  0.00    +0.000 OA
ATOM     26  O   UNL     1       4.942  34.414  75.748  0.00  0.00    +0.000 OA
ENDBRANCH   4  24
BRANCH   7  27
ATOM     27  C   UNL     1       4.307  35.040  80.135  0.00  0.00    +0.000 C 
ATOM     28  O   UNL     1       3.649  35.827  79.472  0.00  0.00    +0.000 OA
ATOM     29  O   UNL     1       4.067  34.849  81.450  0.00  0.00    +0.000 OA
ENDBRANCH   7  27
BRANCH   4  30
ATOM     30  C   UNL     1       6.780  31.972  77.793  0.00  0.00    +0.000 C 
BRANCH  30  31
ATOM     31  C   UNL     1       6.056  30.812  77.088  0.00  0.00    +0.000 C 
ATOM     32  C   UNL     1       7.098  29.913  76.400  0.00  0.00    +0.000 C 
ATOM     33  C   UNL     1       5.228  29.938  78.021  0.00  0.00    +0.000 C 
ENDBRANCH  30  31
ENDBRANCH   4  30
TORSDOF 7
ENDMDL
MODEL 3
REMARK VINA RESULT:      -7.3      1.642      2.279
REMARK  Name = 
REMARK  9 active torsions:
REMARK  status: ('A' for Active; 'I' for Inactive)
REMARK    1  A    between atoms: C_2  and  C_5
REMARK    2  A    between atoms: C_10  and  C_11
REMARK    3  A    between atoms: C_14  and  C_16
REMARK    4  A    between atoms: C_14  and  C_18
REMARK    5  A    between atoms: C_15  and  C_19
REMARK    6  A    between atoms: C_18  and  C_23
REMARK    7  A    between atoms: C_20  and  C_26
REMARK    8  A    between atoms: C_23  and  C_27
REMARK    9  A    between atoms: C_23  and  C_28
REMARK                            x       y       z     vdW  Elec       q    Type
REMARK                         _______ _______ _______ _____ _____    ______ ____
ROOT
ATOM      1  C   UNL     1       7.173  32.807  76.748  0.00  0.00    +0.000 C 
ATOM      2  O   UNL     1       6.360  32.300  75.976  0.00  0.00    +0.000 OA
ATOM      3  N   UNL     1       6.733  33.299  78.011  0.00  0.00    +0.000 N 
ATOM      4  C   UNL     1       7.438  34.249  78.949  0.00  0.00    +0.000 C 
ATOM      5  C   UNL     1       5.251  33.501  78.138  0.00  0.00    +0.000 C 
ATOM      6  C   UNL     1       6.366  34.484  80.028  0.00  0.00    +0.000 C 
ATOM      7  C   UNL     1       5.033  34.484  79.306  0.00  0.00    +0.000 C 
ENDROOT
BRANCH   1  13
ATOM      8  C   UNL     1      11.287  32.773  75.269  0.00  0.00    +0.000 A 
ATOM      9  C   UNL     1      10.641  31.599  75.684  0.00  0.00    +0.000 A 
ATOM     10  C   UNL     1      10.588  33.966  75.354  0.00  0.00    +0.000 A 
ATOM     11  C   UNL     1       9.319  31.637  76.175  0.00  0.00    +0.000 A 
ATOM     12  C   UNL     1       9.276  33.976  75.806  0.00  0.00    +0.000 A 
ATOM     13  C   UNL     1       8.604  32.843  76.254  0.00  0.00    +0.000 A 
BRANCH   8  15
ATOM     14  F   UNL     1      13.607  33.310  75.592  0.00  0.00    +0.000 F 
ATOM     15  C   UNL     1      12.686  32.831  74.718  0.00  0.00    +0.000 C 
ATOM     16  F   UNL     1      12.765  33.610  73.603  0.00  0.00    +0.000 F 
ATOM     17  F   UNL     1      13.125  31.598  74.335  0.00  0.00    +0.000 F 
ENDBRANCH   8  15
ENDBRANCH   1  13
BRANCH   5  18
ATOM     18  C   UNL     1       4.390  32.266  78.236  0.00  0.00    +0.000 A 
ATOM     19  C   UNL     1       3.148  32.170  77.604  0.00  0.00    +0.000 A 
ATOM     20  C   UNL     1       4.915  31.128  78.886  0.00  0.00    +0.000 A 
ATOM     21  C   UNL     1       2.455  30.960  77.597  0.00  0.00    +0.000 A 
ATOM     22  C   UNL     1       4.224  29.916  78.859  0.00  0.00    +0.000 A 
ATOM     23  C   UNL     1       2.998  29.831  78.210  0.00  0.00    +0.000 A 
ENDBRANCH   5  18
BRANCH   4  24
ATOM     24  C   UNL     1       8.591  33.649  79.839  0.00  0.00    +0.000 C 
ATOM     25  O   UNL     1       8.397  32.911  80.791  0.00  0.00    +0.000 OA
ATOM     26  O   UNL     1       9.837  34.011  79.476  0.00  0.00    +0.000 OA
ENDBRANCH   4  24
BRANCH   7  27
ATOM     27  C   UNL     1       3.940  34.165  80.313  0.00  0.00    +0.000 C 
ATOM     28  O   UNL     1       2.758  34.439  80.166  0.00  0.00    +0.000 OA
ATOM     29  O   UNL     1       4.376  33.468  81.384  0.00  0.00    +0.000 OA
ENDBRANCH   7  27
BRANCH   4  30
ATOM     30  C   UNL     1       7.728  35.567  78.146  0.00  0.00    +0.000 C 
BRANCH  30  31
ATOM     31  C   UNL     1       7.354  36.948  78.709  0.00  0.00    +0.000 C 
ATOM     32  C   UNL     1       8.631  37.793  78.861  0.00  0.00    +0.000 C 
ATOM     33  C   UNL     1       6.378  37.730  77.838  0.00  0.00    +0.000 C 
ENDBRANCH  30  31
ENDBRANCH   4  30
TORSDOF 7
ENDMDL
MODEL 4
REMARK VINA RESULT:      -7.2      1.894      4.401
REMARK  Name = 
REMARK  9 active torsions:
REMARK  status: ('A' for Active; 'I' for Inactive)
REMARK    1  A    between atoms: C_2  and  C_5
REMARK    2  A    between atoms: C_10  and  C_11
REMARK    3  A    between atoms: C_14  and  C_16
REMARK    4  A    between atoms: C_14  and  C_18
REMARK    5  A    between atoms: C_15  and  C_19
REMARK    6  A    between atoms: C_18  and  C_23
REMARK    7  A    between atoms: C_20  and  C_26
REMARK    8  A    between atoms: C_23  and  C_27
REMARK    9  A    between atoms: C_23  and  C_28
REMARK                            x       y       z     vdW  Elec       q    Type
REMARK                         _______ _______ _______ _____ _____    ______ ____
ROOT
ATOM      1  C   UNL     1       8.778  31.597  78.827  0.00  0.00    +0.000 C 
ATOM      2  O   UNL     1       9.195  30.701  79.560  0.00  0.00    +0.000 OA
ATOM      3  N   UNL     1       7.486  32.153  79.061  0.00  0.00    +0.000 N 
ATOM      4  C   UNL     1       6.633  32.977  78.127  0.00  0.00    +0.000 C 
ATOM      5  C   UNL     1       6.589  31.338  79.946  0.00  0.00    +0.000 C 
ATOM      6  C   UNL     1       5.325  33.110  78.926  0.00  0.00    +0.000 C 
ATOM      7  C   UNL     1       5.145  31.798  79.664  0.00  0.00    +0.000 C 
ENDROOT
BRANCH   1  13
ATOM      8  C   UNL     1      11.402  32.805  75.547  0.00  0.00    +0.000 A 
ATOM      9  C   UNL     1      10.477  31.759  75.407  0.00  0.00    +0.000 A 
ATOM     10  C   UNL     1      11.481  33.446  76.772  0.00  0.00    +0.000 A 
ATOM     11  C   UNL     1       9.653  31.376  76.485  0.00  0.00    +0.000 A 
ATOM     12  C   UNL     1      10.636  33.076  77.808  0.00  0.00    +0.000 A 
ATOM     13  C   UNL     1       9.722  32.030  77.726  0.00  0.00    +0.000 A 
BRANCH   8  15
ATOM     14  F   UNL     1      12.151  34.607  74.144  0.00  0.00    +0.000 F 
ATOM     15  C   UNL     1      12.311  33.295  74.452  0.00  0.00    +0.000 C 
ATOM     16  F   UNL     1      12.138  32.600  73.293  0.00  0.00    +0.000 F 
ATOM     17  F   UNL     1      13.624  33.136  74.783  0.00  0.00    +0.000 F 
ENDBRANCH   8  15
ENDBRANCH   1  13
BRANCH   5  18
ATOM     18  C   UNL     1       6.920  31.299  81.418  0.00  0.00    +0.000 A 
ATOM     19  C   UNL     1       6.745  30.149  82.193  0.00  0.00    +0.000 A 
ATOM     20  C   UNL     1       7.541  32.426  81.999  0.00  0.00    +0.000 A 
ATOM     21  C   UNL     1       7.202  30.114  83.509  0.00  0.00    +0.000 A 
ATOM     22  C   UNL     1       8.012  32.376  83.312  0.00  0.00    +0.000 A 
ATOM     23  C   UNL     1       7.847  31.219  84.065  0.00  0.00    +0.000 A 
ENDBRANCH   5  18
BRANCH   4  24
ATOM     24  C   UNL     1       7.010  34.498  77.970  0.00  0.00    +0.000 C 
ATOM     25  O   UNL     1       7.683  34.937  77.052  0.00  0.00    +0.000 OA
ATOM     26  O   UNL     1       6.531  35.306  78.935  0.00  0.00    +0.000 OA
ENDBRANCH   4  24
BRANCH   7  27
ATOM     27  C   UNL     1       4.226  32.034  80.850  0.00  0.00    +0.000 C 
ATOM     28  O   UNL     1       4.076  33.110  81.411  0.00  0.00    +0.000 OA
ATOM     29  O   UNL     1       3.508  30.947  81.205  0.00  0.00    +0.000 OA
ENDBRANCH   7  27
BRANCH   4  30
ATOM     30  C   UNL     1       6.414  32.127  76.824  0.00  0.00    +0.000 C 
BRANCH  30  31
ATOM     31  C   UNL     1       5.194  32.352  75.915  0.00  0.00    +0.000 C 
ATOM     32  C   UNL     1       5.600  33.263  74.744  0.00  0.00    +0.000 C 
ATOM     33  C   UNL     1       4.611  31.071  75.330  0.00  0.00    +0.000 C 
ENDBRANCH  30  31
ENDBRANCH   4  30
TORSDOF 7
ENDMDL
MODEL 5
REMARK VINA RESULT:      -7.2      3.326      5.553
REMARK  Name = 
REMARK  9 active torsions:
REMARK  status: ('A' for Active; 'I' for Inactive)
REMARK    1  A    between atoms: C_2  and  C_5
REMARK    2  A    between atoms: C_10  and  C_11
REMARK    3  A    between atoms: C_14  and  C_16
REMARK    4  A    between atoms: C_14  and  C_18
REMARK    5  A    between atoms: C_15  and  C_19
REMARK    6  A    between atoms: C_18  and  C_23
REMARK    7  A    between atoms: C_20  and  C_26
REMARK    8  A    between atoms: C_23  and  C_27
REMARK    9  A    between atoms: C_23  and  C_28
REMARK                            x       y       z     vdW  Elec       q    Type
REMARK                         _______ _______ _______ _____ _____    ______ ____
ROOT
ATOM      1  C   UNL     1       5.886  33.774  79.678  0.00  0.00    +0.000 C 
ATOM      2  O   UNL     1       5.408  33.388  80.743  0.00  0.00    +0.000 OA
ATOM      3  N   UNL     1       5.650  33.026  78.488  0.00  0.00    +0.000 N 
ATOM      4  C   UNL     1       6.391  33.088  77.174  0.00  0.00    +0.000 C 
ATOM      5  C   UNL     1       5.155  31.625  78.700  0.00  0.00    +0.000 C 
ATOM      6  C   UNL     1       5.746  31.932  76.390  0.00  0.00    +0.000 C 
ATOM      7  C   UNL     1       5.455  30.844  77.405  0.00  0.00    +0.000 C 
ENDROOT
BRANCH   1  13
ATOM      8  C   UNL     1       8.093  37.539  79.942  0.00  0.00    +0.000 A 
ATOM      9  C   UNL     1       6.715  37.506  79.679  0.00  0.00    +0.000 A 
ATOM     10  C   UNL     1       8.755  36.332  80.102  0.00  0.00    +0.000 A 
ATOM     11  C   UNL     1       6.028  36.279  79.581  0.00  0.00    +0.000 A 
ATOM     12  C   UNL     1       8.052  35.137  80.037  0.00  0.00    +0.000 A 
ATOM     13  C   UNL     1       6.693  35.053  79.752  0.00  0.00    +0.000 A 
BRANCH   8  15
ATOM     14  F   UNL     1       8.171  39.917  80.283  0.00  0.00    +0.000 F 
ATOM     15  C   UNL     1       8.909  38.796  80.081  0.00  0.00    +0.000 C 
ATOM     16  F   UNL     1       9.678  39.030  78.981  0.00  0.00    +0.000 F 
ATOM     17  F   UNL     1       9.779  38.715  81.127  0.00  0.00    +0.000 F 
ENDBRANCH   8  15
ENDBRANCH   1  13
BRANCH   5  18
ATOM     18  C   UNL     1       3.733  31.458  79.176  0.00  0.00    +0.000 A 
ATOM     19  C   UNL     1       3.379  30.535  80.163  0.00  0.00    +0.000 A 
ATOM     20  C   UNL     1       2.752  32.351  78.693  0.00  0.00    +0.000 A 
ATOM     21  C   UNL     1       2.083  30.519  80.676  0.00  0.00    +0.000 A 
ATOM     22  C   UNL     1       1.462  32.340  79.225  0.00  0.00    +0.000 A 
ATOM     23  C   UNL     1       1.129  31.428  80.220  0.00  0.00    +0.000 A 
ENDBRANCH   5  18
BRANCH   4  24
ATOM     24  C   UNL     1       6.046  34.290  76.216  0.00  0.00    +0.000 C 
ATOM     25  O   UNL     1       6.366  35.446  76.438  0.00  0.00    +0.000 OA
ATOM     26  O   UNL     1       5.359  33.955  75.107  0.00  0.00    +0.000 OA
ENDBRANCH   4  24
BRANCH   7  27
ATOM     27  C   UNL     1       4.366  29.943  76.847  0.00  0.00    +0.000 C 
ATOM     28  O   UNL     1       4.159  28.795  77.212  0.00  0.00    +0.000 OA
ATOM     29  O   UNL     1       3.573  30.550  75.938  0.00  0.00    +0.000 OA
ENDBRANCH   7  27
BRANCH   4  30
ATOM     30  C   UNL     1       7.903  32.790  77.477  0.00  0.00    +0.000 C 
BRANCH  30  31
ATOM     31  C   UNL     1       8.995  33.029  76.422  0.00  0.00    +0.000 C 
ATOM     32  C   UNL     1       9.822  34.264  76.825  0.00  0.00    +0.000 C 
ATOM     33  C   UNL     1       9.956  31.861  76.247  0.00  0.00    +0.000 C 
ENDBRANCH  30  31
ENDBRANCH   4  30
TORSDOF 7
ENDMDL
MODEL 6
REMARK VINA RESULT:      -6.9      4.432      6.804
REMARK  Name = 
REMARK  9 active torsions:
REMARK  status: ('A' for Active; 'I' for Inactive)
REMARK    1  A    between atoms: C_2  and  C_5
REMARK    2  A    between atoms: C_10  and  C_11
REMARK    3  A    between atoms: C_14  and  C_16
REMARK    4  A    between atoms: C_14  and  C_18
REMARK    5  A    between atoms: C_15  and  C_19
REMARK    6  A    between atoms: C_18  and  C_23
REMARK    7  A    between atoms: C_20  and  C_26
REMARK    8  A    between atoms: C_23  and  C_27
REMARK    9  A    between atoms: C_23  and  C_28
REMARK                            x       y       z     vdW  Elec       q    Type
REMARK                         _______ _______ _______ _____ _____    ______ ____
ROOT
ATOM      1  C   UNL     1       8.326  35.513  78.479  0.00  0.00    +0.000 C 
ATOM      2  O   UNL     1       8.395  35.472  77.251  0.00  0.00    +0.000 OA
ATOM      3  N   UNL     1       8.447  34.309  79.232  0.00  0.00    +0.000 N 
ATOM      4  C   UNL     1       8.054  34.054  80.668  0.00  0.00    +0.000 C 
ATOM      5  C   UNL     1       8.268  33.043  78.447  0.00  0.00    +0.000 C 
ATOM      6  C   UNL     1       8.295  32.540  80.797  0.00  0.00    +0.000 C 
ATOM      7  C   UNL     1       7.917  31.935  79.460  0.00  0.00    +0.000 C 
ENDROOT
BRANCH   1  13
ATOM      8  C   UNL     1       7.591  39.468  80.190  0.00  0.00    +0.000 A 
ATOM      9  C   UNL     1       6.671  38.853  79.328  0.00  0.00    +0.000 A 
ATOM     10  C   UNL     1       8.766  38.793  80.480  0.00  0.00    +0.000 A 
ATOM     11  C   UNL     1       6.938  37.585  78.774  0.00  0.00    +0.000 A 
ATOM     12  C   UNL     1       8.992  37.530  79.952  0.00  0.00    +0.000 A 
ATOM     13  C   UNL     1       8.123  36.891  79.073  0.00  0.00    +0.000 A 
BRANCH   8  15
ATOM     14  F   UNL     1       7.131  41.817  79.970  0.00  0.00    +0.000 F 
ATOM     15  C   UNL     1       7.389  40.810  80.842  0.00  0.00    +0.000 C 
ATOM     16  F   UNL     1       8.475  41.194  81.569  0.00  0.00    +0.000 F 
ATOM     17  F   UNL     1       6.347  40.787  81.722  0.00  0.00    +0.000 F 
ENDBRANCH   8  15
ENDBRANCH   1  13
BRANCH   5  18
ATOM     18  C   UNL     1       9.379  32.651  77.504  0.00  0.00    +0.000 A 
ATOM     19  C   UNL     1       9.142  31.940  76.324  0.00  0.00    +0.000 A 
ATOM     20  C   UNL     1      10.682  33.127  77.764  0.00  0.00    +0.000 A 
ATOM     21  C   UNL     1      10.175  31.730  75.412  0.00  0.00    +0.000 A 
ATOM     22  C   UNL     1      11.707  32.929  76.836  0.00  0.00    +0.000 A 
ATOM     23  C   UNL     1      11.451  32.236  75.659  0.00  0.00    +0.000 A 
ENDBRANCH   5  18
BRANCH   4  24
ATOM     24  C   UNL     1       9.036  34.581  81.781  0.00  0.00    +0.000 C 
ATOM     25  O   UNL     1      10.248  34.450  81.732  0.00  0.00    +0.000 OA
ATOM     26  O   UNL     1       8.440  35.201  82.818  0.00  0.00    +0.000 OA
ENDBRANCH   4  24
BRANCH   7  27
ATOM     27  C   UNL     1       8.617  30.593  79.322  0.00  0.00    +0.000 C 
ATOM     28  O   UNL     1       9.710  30.327  79.799  0.00  0.00    +0.000 OA
ATOM     29  O   UNL     1       7.884  29.664  78.672  0.00  0.00    +0.000 OA
ENDBRANCH   7  27
BRANCH   4  30
ATOM     30  C   UNL     1       6.527  34.395  80.801  0.00  0.00    +0.000 C 
BRANCH  30  31
ATOM     31  C   UNL     1       5.561  33.468  81.557  0.00  0.00    +0.000 C 
ATOM     32  C   UNL     1       5.098  34.169  82.847  0.00  0.00    +0.000 C 
ATOM     33  C   UNL     1       4.319  33.083  80.763  0.00  0.00    +0.000 C 
ENDBRANCH  30  31
ENDBRANCH   4  30
TORSDOF 7
ENDMDL
MODEL 7
REMARK VINA RESULT:      -6.9      1.978      5.031
REMARK  Name = 
REMARK  9 active torsions:
REMARK  status: ('A' for Active; 'I' for Inactive)
REMARK    1  A    between atoms: C_2  and  C_5
REMARK    2  A    between atoms: C_10  and  C_11
REMARK    3  A    between atoms: C_14  and  C_16
REMARK    4  A    between atoms: C_14  and  C_18
REMARK    5  A    between atoms: C_15  and  C_19
REMARK    6  A    between atoms: C_18  and  C_23
REMARK    7  A    between atoms: C_20  and  C_26
REMARK    8  A    between atoms: C_23  and  C_27
REMARK    9  A    between atoms: C_23  and  C_28
REMARK                            x       y       z     vdW  Elec       q    Type
REMARK                         _______ _______ _______ _____ _____    ______ ____
ROOT
ATOM      1  C   UNL     1       9.114  33.453  78.682  0.00  0.00    +0.000 C 
ATOM      2  O   UNL     1       9.775  33.508  79.718  0.00  0.00    +0.000 OA
ATOM      3  N   UNL     1       7.733  33.805  78.708  0.00  0.00    +0.000 N 
ATOM      4  C   UNL     1       6.662  33.490  77.691  0.00  0.00    +0.000 C 
ATOM      5  C   UNL     1       7.109  33.848  80.072  0.00  0.00    +0.000 C 
ATOM      6  C   UNL     1       5.395  34.006  78.394  0.00  0.00    +0.000 C 
ATOM      7  C   UNL     1       5.586  33.722  79.871  0.00  0.00    +0.000 C 
ENDROOT
BRANCH   1  13
ATOM      8  C   UNL     1      11.427  32.251  75.173  0.00  0.00    +0.000 A 
ATOM      9  C   UNL     1      11.676  33.457  75.844  0.00  0.00    +0.000 A 
ATOM     10  C   UNL     1      10.404  31.442  75.642  0.00  0.00    +0.000 A 
ATOM     11  C   UNL     1      10.904  33.832  76.963  0.00  0.00    +0.000 A 
ATOM     12  C   UNL     1       9.682  31.814  76.767  0.00  0.00    +0.000 A 
ATOM     13  C   UNL     1       9.874  33.011  77.449  0.00  0.00    +0.000 A 
BRANCH   8  15
ATOM     14  F   UNL     1      13.041  30.724  74.254  0.00  0.00    +0.000 F 
ATOM     15  C   UNL     1      12.204  31.758  73.981  0.00  0.00    +0.000 C 
ATOM     16  F   UNL     1      12.968  32.740  73.427  0.00  0.00    +0.000 F 
ATOM     17  F   UNL     1      11.376  31.329  72.986  0.00  0.00    +0.000 F 
ENDBRANCH   8  15
ENDBRANCH   1  13
BRANCH   5  18
ATOM     18  C   UNL     1       7.495  34.996  80.973  0.00  0.00    +0.000 A 
ATOM     19  C   UNL     1       7.787  34.817  82.328  0.00  0.00    +0.000 A 
ATOM     20  C   UNL     1       7.684  36.270  80.396  0.00  0.00    +0.000 A 
ATOM     21  C   UNL     1       8.281  35.877  83.085  0.00  0.00    +0.000 A 
ATOM     22  C   UNL     1       8.197  37.322  81.157  0.00  0.00    +0.000 A 
ATOM     23  C   UNL     1       8.500  37.124  82.499  0.00  0.00    +0.000 A 
ENDBRANCH   5  18
BRANCH   4  24
ATOM     24  C   UNL     1       6.630  34.377  76.390  0.00  0.00    +0.000 C 
ATOM     25  O   UNL     1       7.124  34.038  75.327  0.00  0.00    +0.000 OA
ATOM     26  O   UNL     1       6.008  35.564  76.525  0.00  0.00    +0.000 OA
ENDBRANCH   4  24
BRANCH   7  27
ATOM     27  C   UNL     1       4.682  34.654  80.662  0.00  0.00    +0.000 C 
ATOM     28  O   UNL     1       4.356  34.483  81.827  0.00  0.00    +0.000 OA
ATOM     29  O   UNL     1       4.313  35.759  79.979  0.00  0.00    +0.000 OA
ENDBRANCH   7  27
BRANCH   4  30
ATOM     30  C   UNL     1       6.620  31.928  77.527  0.00  0.00    +0.000 C 
BRANCH  30  31
ATOM     31  C   UNL     1       5.292  31.178  77.330  0.00  0.00    +0.000 C 
ATOM     32  C   UNL     1       5.137  30.812  75.843  0.00  0.00    +0.000 C 
ATOM     33  C   UNL     1       5.178  29.894  78.142  0.00  0.00    +0.000 C 
ENDBRANCH  30  31
ENDBRANCH   4  30
TORSDOF 7
ENDMDL
MODEL 8
REMARK VINA RESULT:      -6.9      4.268      7.545
REMARK  Name = 
REMARK  9 active torsions:
REMARK  status: ('A' for Active; 'I' for Inactive)
REMARK    1  A    between atoms: C_2  and  C_5
REMARK    2  A    between atoms: C_10  and  C_11
REMARK    3  A    between atoms: C_14  and  C_16
REMARK    4  A    between atoms: C_14  and  C_18
REMARK    5  A    between atoms: C_15  and  C_19
REMARK    6  A    between atoms: C_18  and  C_23
REMARK    7  A    between atoms: C_20  and  C_26
REMARK    8  A    between atoms: C_23  and  C_27
REMARK    9  A    between atoms: C_23  and  C_28
REMARK                            x       y       z     vdW  Elec       q    Type
REMARK                         _______ _______ _______ _____ _____    ______ ____
ROOT
ATOM      1  C   UNL     1       8.840  32.021  77.887  0.00  0.00    +0.000 C 
ATOM      2  O   UNL     1       9.750  31.215  78.077  0.00  0.00    +0.000 OA
ATOM      3  N   UNL     1       9.086  33.191  77.111  0.00  0.00    +0.000 N 
ATOM      4  C   UNL     1       8.270  34.459  77.035  0.00  0.00    +0.000 C 
ATOM      5  C   UNL     1      10.534  33.533  76.910  0.00  0.00    +0.000 C 
ATOM      6  C   UNL     1       9.161  35.358  76.161  0.00  0.00    +0.000 C 
ATOM      7  C   UNL     1      10.593  35.026  76.534  0.00  0.00    +0.000 C 
ENDROOT
BRANCH   1  13
ATOM      8  C   UNL     1       5.018  31.088  79.792  0.00  0.00    +0.000 A 
ATOM      9  C   UNL     1       6.090  31.634  80.514  0.00  0.00    +0.000 A 
ATOM     10  C   UNL     1       5.204  30.829  78.444  0.00  0.00    +0.000 A 
ATOM     11  C   UNL     1       7.319  31.909  79.881  0.00  0.00    +0.000 A 
ATOM     12  C   UNL     1       6.410  31.143  77.834  0.00  0.00    +0.000 A 
ATOM     13  C   UNL     1       7.509  31.659  78.512  0.00  0.00    +0.000 A 
BRANCH   8  15
ATOM     14  F   UNL     1       3.414  31.390  81.557  0.00  0.00    +0.000 F 
ATOM     15  C   UNL     1       3.665  30.774  80.374  0.00  0.00    +0.000 C 
ATOM     16  F   UNL     1       3.498  29.439  80.588  0.00  0.00    +0.000 F 
ATOM     17  F   UNL     1       2.660  31.140  79.529  0.00  0.00    +0.000 F 
ENDBRANCH   8  15
ENDBRANCH   1  13
BRANCH   5  18
ATOM     18  C   UNL     1      11.328  32.655  75.974  0.00  0.00    +0.000 A 
ATOM     19  C   UNL     1      12.717  32.530  76.066  0.00  0.00    +0.000 A 
ATOM     20  C   UNL     1      10.628  31.842  75.057  0.00  0.00    +0.000 A 
ATOM     21  C   UNL     1      13.391  31.596  75.280  0.00  0.00    +0.000 A 
ATOM     22  C   UNL     1      11.308  30.897  74.287  0.00  0.00    +0.000 A 
ATOM     23  C   UNL     1      12.688  30.771  74.402  0.00  0.00    +0.000 A 
ENDBRANCH   5  18
BRANCH   4  24
ATOM     24  C   UNL     1       6.970  34.420  76.146  0.00  0.00    +0.000 C 
ATOM     25  O   UNL     1       6.048  35.210  76.261  0.00  0.00    +0.000 OA
ATOM     26  O   UNL     1       6.938  33.435  75.229  0.00  0.00    +0.000 OA
ENDBRANCH   4  24
BRANCH   7  27
ATOM     27  C   UNL     1      11.499  35.438  75.386  0.00  0.00    +0.000 C 
ATOM     28  O   UNL     1      11.381  35.049  74.233  0.00  0.00    +0.000 OA
ATOM     29  O   UNL     1      12.430  36.353  75.731  0.00  0.00    +0.000 OA
ENDBRANCH   7  27
BRANCH   4  30
ATOM     30  C   UNL     1       8.156  35.028  78.495  0.00  0.00    +0.000 C 
BRANCH  30  31
ATOM     31  C   UNL     1       7.538  36.409  78.771  0.00  0.00    +0.000 C 
ATOM     32  C   UNL     1       6.477  36.273  79.878  0.00  0.00    +0.000 C 
ATOM     33  C   UNL     1       8.546  37.461  79.217  0.00  0.00    +0.000 C 
ENDBRANCH  30  31
ENDBRANCH   4  30
TORSDOF 7
ENDMDL
MODEL 9
REMARK VINA RESULT:      -6.7      3.653      6.050
REMARK  Name = 
REMARK  9 active torsions:
REMARK  status: ('A' for Active; 'I' for Inactive)
REMARK    1  A    between atoms: C_2  and  C_5
REMARK    2  A    between atoms: C_10  and  C_11
REMARK    3  A    between atoms: C_14  and  C_16
REMARK    4  A    between atoms: C_14  and  C_18
REMARK    5  A    between atoms: C_15  and  C_19
REMARK    6  A    between atoms: C_18  and  C_23
REMARK    7  A    between atoms: C_20  and  C_26
REMARK    8  A    between atoms: C_23  and  C_27
REMARK    9  A    between atoms: C_23  and  C_28
REMARK                            x       y       z     vdW  Elec       q    Type
REMARK                         _______ _______ _______ _____ _____    ______ ____
ROOT
ATOM      1  C   UNL     1       7.009  33.782  79.929  0.00  0.00    +0.000 C 
ATOM      2  O   UNL     1       6.899  32.999  80.871  0.00  0.00    +0.000 OA
ATOM      3  N   UNL     1       6.794  33.318  78.598  0.00  0.00    +0.000 N 
ATOM      4  C   UNL     1       7.203  33.967  77.297  0.00  0.00    +0.000 C 
ATOM      5  C   UNL     1       6.824  31.828  78.428  0.00  0.00    +0.000 C 
ATOM      6  C   UNL     1       6.820  32.888  76.270  0.00  0.00    +0.000 C 
ATOM      7  C   UNL     1       7.096  31.554  76.935  0.00  0.00    +0.000 C 
ENDROOT
BRANCH   1  13
ATOM      8  C   UNL     1       8.170  37.870  80.957  0.00  0.00    +0.000 A 
ATOM      9  C   UNL     1       9.103  36.822  80.926  0.00  0.00    +0.000 A 
ATOM     10  C   UNL     1       6.848  37.575  80.667  0.00  0.00    +0.000 A 
ATOM     11  C   UNL     1       8.701  35.508  80.609  0.00  0.00    +0.000 A 
ATOM     12  C   UNL     1       6.482  36.281  80.322  0.00  0.00    +0.000 A 
ATOM     13  C   UNL     1       7.364  35.206  80.304  0.00  0.00    +0.000 A 
BRANCH   8  15
ATOM     14  F   UNL     1       9.101  39.969  80.247  0.00  0.00    +0.000 F 
ATOM     15  C   UNL     1       8.504  39.304  81.268  0.00  0.00    +0.000 C 
ATOM     16  F   UNL     1       9.336  39.414  82.342  0.00  0.00    +0.000 F 
ATOM     17  F   UNL     1       7.389  40.018  81.592  0.00  0.00    +0.000 F 
ENDBRANCH   8  15
ENDBRANCH   1  13
BRANCH   5  18
ATOM     18  C   UNL     1       5.653  31.046  78.969  0.00  0.00    +0.000 A 
ATOM     19  C   UNL     1       4.338  31.511  78.877  0.00  0.00    +0.000 A 
ATOM     20  C   UNL     1       5.884  29.748  79.472  0.00  0.00    +0.000 A 
ATOM     21  C   UNL     1       3.276  30.691  79.255  0.00  0.00    +0.000 A 
ATOM     22  C   UNL     1       4.814  28.927  79.831  0.00  0.00    +0.000 A 
ATOM     23  C   UNL     1       3.510  29.396  79.718  0.00  0.00    +0.000 A 
ENDBRANCH   5  18
BRANCH   4  24
ATOM     24  C   UNL     1       6.312  35.160  76.783  0.00  0.00    +0.000 C 
ATOM     25  O   UNL     1       6.607  36.335  76.923  0.00  0.00    +0.000 OA
ATOM     26  O   UNL     1       5.174  34.793  76.163  0.00  0.00    +0.000 OA
ENDBRANCH   4  24
BRANCH   7  27
ATOM     27  C   UNL     1       6.265  30.488  76.242  0.00  0.00    +0.000 C 
ATOM     28  O   UNL     1       5.174  30.683  75.725  0.00  0.00    +0.000 OA
ATOM     29  O   UNL     1       6.874  29.284  76.173  0.00  0.00    +0.000 OA
ENDBRANCH   7  27
BRANCH   4  30
ATOM     30  C   UNL     1       8.760  34.170  77.347  0.00  0.00    +0.000 C 
BRANCH  30  31
ATOM     31  C   UNL     1       9.609  34.176  76.065  0.00  0.00    +0.000 C 
ATOM     32  C   UNL     1      10.530  35.409  76.077  0.00  0.00    +0.000 C 
ATOM     33  C   UNL     1      10.484  32.941  75.895  0.00  0.00    +0.000 C 
ENDBRANCH  30  31
ENDBRANCH   4  30
TORSDOF 7
ENDMDL
