MODEL 1
REMARK VINA RESULT:      -7.7      0.000      0.000
REMARK  Name = 
REMARK  9 active torsions:
REMARK  status: ('A' for Active; 'I' for Inactive)
REMARK    1  A    between atoms: C_2  and  C_5
REMARK    2  A    between atoms: C_8  and  C_11
REMARK    3  A    between atoms: C_9  and  C_14
REMARK    4  A    between atoms: C_10  and  C_15
REMARK    5  A    between atoms: C_10  and  C_16
REMARK    6  A    between atoms: C_16  and  C_23
REMARK    7  A    between atoms: C_23  and  C_26
REMARK    8  A    between atoms: C_23  and  C_27
REMARK    9  A    between atoms: C_28  and  C_29
REMARK                            x       y       z     vdW  Elec       q    Type
REMARK                         _______ _______ _______ _____ _____    ______ ____
ROOT
ATOM      1  C   UNL     1       7.143  33.556  78.790  0.00  0.00    +0.000 C 
ATOM      2  N   UNL     1       6.503  33.197  77.516  0.00  0.00    +0.000 N 
ATOM      3  C   UNL     1       6.312  32.804  79.814  0.00  0.00    +0.000 C 
ATOM      4  C   UNL     1       7.101  33.117  76.263  0.00  0.00    +0.000 C 
ATOM      5  C   UNL     1       5.034  32.975  77.725  0.00  0.00    +0.000 C 
ATOM      6  C   UNL     1       4.883  32.922  79.282  0.00  0.00    +0.000 C 
ATOM      7  O   UNL     1       6.394  33.064  75.254  0.00  0.00    +0.000 OA
ENDROOT
BRANCH   4   8
ATOM      8  C   UNL     1       8.582  33.098  76.066  0.00  0.00    +0.000 A 
ATOM      9  C   UNL     1       9.377  34.243  75.993  0.00  0.00    +0.000 A 
ATOM     10  C   UNL     1       9.220  31.851  76.041  0.00  0.00    +0.000 A 
ATOM     11  C   UNL     1      10.732  34.156  75.669  0.00  0.00    +0.000 A 
ATOM     12  C   UNL     1      10.597  31.757  75.807  0.00  0.00    +0.000 A 
ATOM     13  C   UNL     1      11.354  32.910  75.556  0.00  0.00    +0.000 A 
BRANCH  13  14
ATOM     14  C   UNL     1      12.819  32.811  75.205  0.00  0.00    +0.000 C 
ATOM     15  F   UNL     1      13.301  31.538  75.268  0.00  0.00    +0.000 F 
ATOM     16  F   UNL     1      13.081  33.248  73.944  0.00  0.00    +0.000 F 
ATOM     17  F   UNL     1      13.605  33.547  76.036  0.00  0.00    +0.000 F 
ENDBRANCH  13  14
ENDBRANCH   4   8
BRANCH   1  19
ATOM     18  S   UNL     1       8.724  35.712  79.547  0.00  0.00    +0.000 S 
ATOM     19  C   UNL     1       7.253  35.057  78.922  0.00  0.00    +0.000 A 
ATOM     20  C   UNL     1       8.198  37.319  79.322  0.00  0.00    +0.000 A 
ATOM     21  C   UNL     1       6.362  36.073  78.629  0.00  0.00    +0.000 A 
ATOM     22  C   UNL     1       6.920  37.373  78.824  0.00  0.00    +0.000 A 
ENDBRANCH   1  19
BRANCH   3  23
ATOM     23  C   UNL     1       6.541  33.249  81.233  0.00  0.00    +0.000 C 
ATOM     24  O   UNL     1       5.744  33.891  81.898  0.00  0.00    +0.000 OA
ATOM     25  O   UNL     1       7.710  32.799  81.754  0.00  0.00    +0.000 OA
ENDBRANCH   3  23
BRANCH   5  26
ATOM     26  C   UNL     1       4.184  34.169  77.180  0.00  0.00    +0.000 C 
ATOM     27  O   UNL     1       4.437  34.773  76.144  0.00  0.00    +0.000 OA
ATOM     28  O   UNL     1       3.181  34.585  77.984  0.00  0.00    +0.000 OA
ENDBRANCH   5  26
BRANCH   5  29
ATOM     29  C   UNL     1       4.451  31.693  77.056  0.00  0.00    +0.000 C 
BRANCH  29  30
ATOM     30  C   UNL     1       5.027  30.305  77.418  0.00  0.00    +0.000 C 
ATOM     31  C   UNL     1       3.872  29.301  77.543  0.00  0.00    +0.000 C 
ATOM     32  C   UNL     1       6.022  29.747  76.405  0.00  0.00    +0.000 C 
ENDBRANCH  29  30
ENDBRANCH   5  29
TORSDOF 7
ENDMDL
MODEL 2
REMARK VINA RESULT:      -7.3      1.739      4.949
REMARK  Name = 
REMARK  9 active torsions:
REMARK  status: ('A' for Active; 'I' for Inactive)
REMARK    1  A    between atoms: C_2  and  C_5
REMARK    2  A    between atoms: C_8  and  C_11
REMARK    3  A    between atoms: C_9  and  C_14
REMARK    4  A    between atoms: C_10  and  C_15
REMARK    5  A    between atoms: C_10  and  C_16
REMARK    6  A    between atoms: C_16  and  C_23
REMARK    7  A    between atoms: C_23  and  C_26
REMARK    8  A    between atoms: C_23  and  C_27
REMARK    9  A    between atoms: C_28  and  C_29
REMARK                            x       y       z     vdW  Elec       q    Type
REMARK                         _______ _______ _______ _____ _____    ______ ____
ROOT
ATOM      1  C   UNL     1       6.929  34.077  77.414  0.00  0.00    +0.000 C 
ATOM      2  N   UNL     1       7.963  34.380  78.415  0.00  0.00    +0.000 N 
ATOM      3  C   UNL     1       6.000  35.275  77.509  0.00  0.00    +0.000 C 
ATOM      4  C   UNL     1       9.294  33.977  78.404  0.00  0.00    +0.000 C 
ATOM      5  C   UNL     1       7.367  35.166  79.545  0.00  0.00    +0.000 C 
ATOM      6  C   UNL     1       5.959  35.586  79.005  0.00  0.00    +0.000 C 
ATOM      7  O   UNL     1       9.969  34.081  79.431  0.00  0.00    +0.000 OA
ENDROOT
BRANCH   4   8
ATOM      8  C   UNL     1       9.963  33.408  77.195  0.00  0.00    +0.000 A 
ATOM      9  C   UNL     1       9.995  32.047  76.885  0.00  0.00    +0.000 A 
ATOM     10  C   UNL     1      10.517  34.306  76.274  0.00  0.00    +0.000 A 
ATOM     11  C   UNL     1      10.755  31.572  75.816  0.00  0.00    +0.000 A 
ATOM     12  C   UNL     1      11.205  33.840  75.147  0.00  0.00    +0.000 A 
ATOM     13  C   UNL     1      11.384  32.465  74.943  0.00  0.00    +0.000 A 
BRANCH  13  14
ATOM     14  C   UNL     1      12.209  31.956  73.786  0.00  0.00    +0.000 C 
ATOM     15  F   UNL     1      13.187  31.086  74.165  0.00  0.00    +0.000 F 
ATOM     16  F   UNL     1      11.458  31.297  72.863  0.00  0.00    +0.000 F 
ATOM     17  F   UNL     1      12.842  32.958  73.118  0.00  0.00    +0.000 F 
ENDBRANCH  13  14
ENDBRANCH   4   8
BRANCH   1  19
ATOM     18  S   UNL     1       6.616  31.491  76.450  0.00  0.00    +0.000 S 
ATOM     19  C   UNL     1       6.350  32.703  77.651  0.00  0.00    +0.000 A 
ATOM     20  C   UNL     1       5.835  30.289  77.374  0.00  0.00    +0.000 A 
ATOM     21  C   UNL     1       5.604  32.187  78.696  0.00  0.00    +0.000 A 
ATOM     22  C   UNL     1       5.341  30.790  78.553  0.00  0.00    +0.000 A 
ENDBRANCH   1  19
BRANCH   3  23
ATOM     23  C   UNL     1       4.674  35.075  76.826  0.00  0.00    +0.000 C 
ATOM     24  O   UNL     1       3.615  35.537  77.216  0.00  0.00    +0.000 OA
ATOM     25  O   UNL     1       4.768  34.381  75.664  0.00  0.00    +0.000 OA
ENDBRANCH   3  23
BRANCH   5  26
ATOM     26  C   UNL     1       7.170  34.285  80.823  0.00  0.00    +0.000 C 
ATOM     27  O   UNL     1       7.677  33.181  80.977  0.00  0.00    +0.000 OA
ATOM     28  O   UNL     1       6.304  34.772  81.739  0.00  0.00    +0.000 OA
ENDBRANCH   5  26
BRANCH   5  29
ATOM     29  C   UNL     1       8.191  36.408  80.003  0.00  0.00    +0.000 C 
BRANCH  29  30
ATOM     30  C   UNL     1       8.195  37.690  79.140  0.00  0.00    +0.000 C 
ATOM     31  C   UNL     1       8.873  38.821  79.927  0.00  0.00    +0.000 C 
ATOM     32  C   UNL     1       8.918  37.554  77.804  0.00  0.00    +0.000 C 
ENDBRANCH  29  30
ENDBRANCH   5  29
TORSDOF 7
ENDMDL
MODEL 3
REMARK VINA RESULT:      -7.2      3.639      5.684
REMARK  Name = 
REMARK  9 active torsions:
REMARK  status: ('A' for Active; 'I' for Inactive)
REMARK    1  A    between atoms: C_2  and  C_5
REMARK    2  A    between atoms: C_8  and  C_11
REMARK    3  A    between atoms: C_9  and  C_14
REMARK    4  A    between atoms: C_10  and  C_15
REMARK    5  A    between atoms: C_10  and  C_16
REMARK    6  A    between atoms: C_16  and  C_23
REMARK    7  A    between atoms: C_23  and  C_26
REMARK    8  A    between atoms: C_23  and  C_27
REMARK    9  A    between atoms: C_28  and  C_29
REMARK                            x       y       z     vdW  Elec       q    Type
REMARK                         _______ _______ _______ _____ _____    ______ ____
ROOT
ATOM      1  C   UNL     1       7.414  32.928  79.083  0.00  0.00    +0.000 C 
ATOM      2  N   UNL     1       7.539  33.196  77.643  0.00  0.00    +0.000 N 
ATOM      3  C   UNL     1       8.292  31.705  79.280  0.00  0.00    +0.000 C 
ATOM      4  C   UNL     1       7.436  34.424  76.999  0.00  0.00    +0.000 C 
ATOM      5  C   UNL     1       7.738  31.909  76.898  0.00  0.00    +0.000 C 
ATOM      6  C   UNL     1       8.037  30.868  78.027  0.00  0.00    +0.000 C 
ATOM      7  O   UNL     1       7.299  34.460  75.774  0.00  0.00    +0.000 OA
ENDROOT
BRANCH   4   8
ATOM      8  C   UNL     1       7.477  35.730  77.724  0.00  0.00    +0.000 A 
ATOM      9  C   UNL     1       8.651  36.424  78.024  0.00  0.00    +0.000 A 
ATOM     10  C   UNL     1       6.254  36.336  78.044  0.00  0.00    +0.000 A 
ATOM     11  C   UNL     1       8.625  37.567  78.824  0.00  0.00    +0.000 A 
ATOM     12  C   UNL     1       6.219  37.533  78.769  0.00  0.00    +0.000 A 
ATOM     13  C   UNL     1       7.406  38.126  79.220  0.00  0.00    +0.000 A 
BRANCH  13  14
ATOM     14  C   UNL     1       7.373  39.361  80.086  0.00  0.00    +0.000 C 
ATOM     15  F   UNL     1       6.646  40.378  79.543  0.00  0.00    +0.000 F 
ATOM     16  F   UNL     1       6.828  39.123  81.309  0.00  0.00    +0.000 F 
ATOM     17  F   UNL     1       8.613  39.872  80.314  0.00  0.00    +0.000 F 
ENDBRANCH  13  14
ENDBRANCH   4   8
BRANCH   1  19
ATOM     18  S   UNL     1       5.394  33.874  80.740  0.00  0.00    +0.000 S 
ATOM     19  C   UNL     1       5.960  32.836  79.481  0.00  0.00    +0.000 A 
ATOM     20  C   UNL     1       3.786  33.331  80.575  0.00  0.00    +0.000 A 
ATOM     21  C   UNL     1       4.928  32.041  79.015  0.00  0.00    +0.000 A 
ATOM     22  C   UNL     1       3.672  32.352  79.618  0.00  0.00    +0.000 A 
ENDBRANCH   1  19
BRANCH   3  23
ATOM     23  C   UNL     1       8.092  31.017  80.604  0.00  0.00    +0.000 C 
ATOM     24  O   UNL     1       7.543  29.937  80.749  0.00  0.00    +0.000 OA
ATOM     25  O   UNL     1       8.656  31.679  81.644  0.00  0.00    +0.000 OA
ENDBRANCH   3  23
BRANCH   5  26
ATOM     26  C   UNL     1       6.441  31.469  76.143  0.00  0.00    +0.000 C 
ATOM     27  O   UNL     1       5.637  32.252  75.652  0.00  0.00    +0.000 OA
ATOM     28  O   UNL     1       6.187  30.142  76.144  0.00  0.00    +0.000 OA
ENDBRANCH   5  26
BRANCH   5  29
ATOM     29  C   UNL     1       8.873  31.925  75.828  0.00  0.00    +0.000 C 
BRANCH  29  30
ATOM     30  C   UNL     1      10.350  31.823  76.271  0.00  0.00    +0.000 C 
ATOM     31  C   UNL     1      11.208  31.423  75.062  0.00  0.00    +0.000 C 
ATOM     32  C   UNL     1      10.930  33.109  76.850  0.00  0.00    +0.000 C 
ENDBRANCH  29  30
ENDBRANCH   5  29
TORSDOF 7
ENDMDL
MODEL 4
REMARK VINA RESULT:      -7.2      1.351      1.732
REMARK  Name = 
REMARK  9 active torsions:
REMARK  status: ('A' for Active; 'I' for Inactive)
REMARK    1  A    between atoms: C_2  and  C_5
REMARK    2  A    between atoms: C_8  and  C_11
REMARK    3  A    between atoms: C_9  and  C_14
REMARK    4  A    between atoms: C_10  and  C_15
REMARK    5  A    between atoms: C_10  and  C_16
REMARK    6  A    between atoms: C_16  and  C_23
REMARK    7  A    between atoms: C_23  and  C_26
REMARK    8  A    between atoms: C_23  and  C_27
REMARK    9  A    between atoms: C_28  and  C_29
REMARK                            x       y       z     vdW  Elec       q    Type
REMARK                         _______ _______ _______ _____ _____    ______ ____
ROOT
ATOM      1  C   UNL     1       7.299  32.363  79.130  0.00  0.00    +0.000 C 
ATOM      2  N   UNL     1       6.521  32.642  77.914  0.00  0.00    +0.000 N 
ATOM      3  C   UNL     1       6.435  31.355  79.865  0.00  0.00    +0.000 C 
ATOM      4  C   UNL     1       7.006  33.021  76.668  0.00  0.00    +0.000 C 
ATOM      5  C   UNL     1       5.054  32.526  78.208  0.00  0.00    +0.000 C 
ATOM      6  C   UNL     1       5.009  31.849  79.618  0.00  0.00    +0.000 C 
ATOM      7  O   UNL     1       6.229  33.475  75.824  0.00  0.00    +0.000 OA
ENDROOT
BRANCH   4   8
ATOM      8  C   UNL     1       8.447  32.914  76.287  0.00  0.00    +0.000 A 
ATOM      9  C   UNL     1       9.300  34.009  76.131  0.00  0.00    +0.000 A 
ATOM     10  C   UNL     1       8.995  31.630  76.164  0.00  0.00    +0.000 A 
ATOM     11  C   UNL     1      10.596  33.845  75.640  0.00  0.00    +0.000 A 
ATOM     12  C   UNL     1      10.324  31.457  75.759  0.00  0.00    +0.000 A 
ATOM     13  C   UNL     1      11.117  32.565  75.432  0.00  0.00    +0.000 A 
BRANCH  13  14
ATOM     14  C   UNL     1      12.517  32.382  74.899  0.00  0.00    +0.000 C 
ATOM     15  F   UNL     1      12.588  32.452  73.540  0.00  0.00    +0.000 F 
ATOM     16  F   UNL     1      13.378  33.325  75.368  0.00  0.00    +0.000 F 
ATOM     17  F   UNL     1      13.050  31.176  75.237  0.00  0.00    +0.000 F 
ENDBRANCH  13  14
ENDBRANCH   4   8
BRANCH   1  19
ATOM     18  S   UNL     1       9.312  34.145  79.833  0.00  0.00    +0.000 S 
ATOM     19  C   UNL     1       7.657  33.649  79.836  0.00  0.00    +0.000 A 
ATOM     20  C   UNL     1       8.961  35.600  80.650  0.00  0.00    +0.000 A 
ATOM     21  C   UNL     1       6.883  34.564  80.527  0.00  0.00    +0.000 A 
ATOM     22  C   UNL     1       7.627  35.703  80.962  0.00  0.00    +0.000 A 
ENDBRANCH   1  19
BRANCH   3  23
ATOM     23  C   UNL     1       6.834  31.140  81.301  0.00  0.00    +0.000 C 
ATOM     24  O   UNL     1       7.979  30.968  81.686  0.00  0.00    +0.000 OA
ATOM     25  O   UNL     1       5.794  31.232  82.166  0.00  0.00    +0.000 OA
ENDBRANCH   3  23
BRANCH   5  26
ATOM     26  C   UNL     1       4.369  33.928  78.304  0.00  0.00    +0.000 C 
ATOM     27  O   UNL     1       4.263  34.569  79.343  0.00  0.00    +0.000 OA
ATOM     28  O   UNL     1       3.788  34.372  77.167  0.00  0.00    +0.000 OA
ENDBRANCH   5  26
BRANCH   5  29
ATOM     29  C   UNL     1       4.227  31.714  77.164  0.00  0.00    +0.000 C 
BRANCH  29  30
ATOM     30  C   UNL     1       3.407  30.486  77.618  0.00  0.00    +0.000 C 
ATOM     31  C   UNL     1       2.053  30.492  76.895  0.00  0.00    +0.000 C 
ATOM     32  C   UNL     1       4.074  29.141  77.346  0.00  0.00    +0.000 C 
ENDBRANCH  29  30
ENDBRANCH   5  29
TORSDOF 7
ENDMDL
MODEL 5
REMARK VINA RESULT:      -7.1      2.148      4.769
REMARK  Name = 
REMARK  9 active torsions:
REMARK  status: ('A' for Active; 'I' for Inactive)
REMARK    1  A    between atoms: C_2  and  C_5
REMARK    2  A    between atoms: C_8  and  C_11
REMARK    3  A    between atoms: C_9  and  C_14
REMARK    4  A    between atoms: C_10  and  C_15
REMARK    5  A    between atoms: C_10  and  C_16
REMARK    6  A    between atoms: C_16  and  C_23
REMARK    7  A    between atoms: C_23  and  C_26
REMARK    8  A    between atoms: C_23  and  C_27
REMARK    9  A    between atoms: C_28  and  C_29
REMARK                            x       y       z     vdW  Elec       q    Type
REMARK                         _______ _______ _______ _____ _____    ______ ____
ROOT
ATOM      1  C   UNL     1       7.063  33.137  77.918  0.00  0.00    +0.000 C 
ATOM      2  N   UNL     1       7.975  32.478  78.863  0.00  0.00    +0.000 N 
ATOM      3  C   UNL     1       6.346  34.154  78.787  0.00  0.00    +0.000 C 
ATOM      4  C   UNL     1       9.206  31.894  78.583  0.00  0.00    +0.000 C 
ATOM      5  C   UNL     1       7.362  32.450  80.232  0.00  0.00    +0.000 C 
ATOM      6  C   UNL     1       6.140  33.420  80.112  0.00  0.00    +0.000 C 
ATOM      7  O   UNL     1       9.732  31.153  79.417  0.00  0.00    +0.000 OA
ENDROOT
BRANCH   4   8
ATOM      8  C   UNL     1       9.939  32.113  77.300  0.00  0.00    +0.000 A 
ATOM      9  C   UNL     1       9.738  31.357  76.144  0.00  0.00    +0.000 A 
ATOM     10  C   UNL     1      10.819  33.201  77.231  0.00  0.00    +0.000 A 
ATOM     11  C   UNL     1      10.555  31.526  75.025  0.00  0.00    +0.000 A 
ATOM     12  C   UNL     1      11.578  33.434  76.077  0.00  0.00    +0.000 A 
ATOM     13  C   UNL     1      11.497  32.558  74.986  0.00  0.00    +0.000 A 
BRANCH  13  14
ATOM     14  C   UNL     1      12.384  32.744  73.779  0.00  0.00    +0.000 C 
ATOM     15  F   UNL     1      11.871  33.615  72.865  0.00  0.00    +0.000 F 
ATOM     16  F   UNL     1      13.613  33.225  74.106  0.00  0.00    +0.000 F 
ATOM     17  F   UNL     1      12.597  31.582  73.104  0.00  0.00    +0.000 F 
ENDBRANCH  13  14
ENDBRANCH   4   8
BRANCH   1  19
ATOM     18  S   UNL     1       5.625  32.528  75.620  0.00  0.00    +0.000 S 
ATOM     19  C   UNL     1       6.231  32.113  77.183  0.00  0.00    +0.000 A 
ATOM     20  C   UNL     1       4.938  30.984  75.387  0.00  0.00    +0.000 A 
ATOM     21  C   UNL     1       5.832  30.834  77.527  0.00  0.00    +0.000 A 
ATOM     22  C   UNL     1       5.121  30.173  76.480  0.00  0.00    +0.000 A 
ENDBRANCH   1  19
BRANCH   3  23
ATOM     23  C   UNL     1       5.120  34.749  78.148  0.00  0.00    +0.000 C 
ATOM     24  O   UNL     1       3.973  34.441  78.426  0.00  0.00    +0.000 OA
ATOM     25  O   UNL     1       5.402  35.738  77.264  0.00  0.00    +0.000 OA
ENDBRANCH   3  23
BRANCH   5  26
ATOM     26  C   UNL     1       6.835  31.025  80.602  0.00  0.00    +0.000 C 
ATOM     27  O   UNL     1       7.546  30.030  80.676  0.00  0.00    +0.000 OA
ATOM     28  O   UNL     1       5.495  30.917  80.743  0.00  0.00    +0.000 OA
ENDBRANCH   5  26
BRANCH   5  29
ATOM     29  C   UNL     1       8.308  32.873  81.397  0.00  0.00    +0.000 C 
BRANCH  29  30
ATOM     30  C   UNL     1       8.643  34.366  81.614  0.00  0.00    +0.000 C 
ATOM     31  C   UNL     1       8.318  34.746  83.065  0.00  0.00    +0.000 C 
ATOM     32  C   UNL     1      10.099  34.735  81.350  0.00  0.00    +0.000 C 
ENDBRANCH  29  30
ENDBRANCH   5  29
TORSDOF 7
ENDMDL
MODEL 6
REMARK VINA RESULT:      -6.7      1.797      2.400
REMARK  Name = 
REMARK  9 active torsions:
REMARK  status: ('A' for Active; 'I' for Inactive)
REMARK    1  A    between atoms: C_2  and  C_5
REMARK    2  A    between atoms: C_8  and  C_11
REMARK    3  A    between atoms: C_9  and  C_14
REMARK    4  A    between atoms: C_10  and  C_15
REMARK    5  A    between atoms: C_10  and  C_16
REMARK    6  A    between atoms: C_16  and  C_23
REMARK    7  A    between atoms: C_23  and  C_26
REMARK    8  A    between atoms: C_23  and  C_27
REMARK    9  A    between atoms: C_28  and  C_29
REMARK                            x       y       z     vdW  Elec       q    Type
REMARK                         _______ _______ _______ _____ _____    ______ ____
ROOT
ATOM      1  C   UNL     1       6.267  34.431  79.917  0.00  0.00    +0.000 C 
ATOM      2  N   UNL     1       5.410  34.523  78.727  0.00  0.00    +0.000 N 
ATOM      3  C   UNL     1       5.321  33.902  80.980  0.00  0.00    +0.000 C 
ATOM      4  C   UNL     1       5.796  34.408  77.396  0.00  0.00    +0.000 C 
ATOM      5  C   UNL     1       4.000  34.837  79.134  0.00  0.00    +0.000 C 
ATOM      6  C   UNL     1       4.004  34.620  80.684  0.00  0.00    +0.000 C 
ATOM      7  O   UNL     1       5.023  34.768  76.505  0.00  0.00    +0.000 OA
ENDROOT
BRANCH   4   8
ATOM      8  C   UNL     1       7.124  33.867  76.976  0.00  0.00    +0.000 A 
ATOM      9  C   UNL     1       8.228  34.661  76.659  0.00  0.00    +0.000 A 
ATOM     10  C   UNL     1       7.294  32.476  76.986  0.00  0.00    +0.000 A 
ATOM     11  C   UNL     1       9.394  34.095  76.142  0.00  0.00    +0.000 A 
ATOM     12  C   UNL     1       8.495  31.901  76.555  0.00  0.00    +0.000 A 
ATOM     13  C   UNL     1       9.534  32.706  76.068  0.00  0.00    +0.000 A 
BRANCH  13  14
ATOM     14  C   UNL     1      10.792  32.089  75.508  0.00  0.00    +0.000 C 
ATOM     15  F   UNL     1      11.833  32.100  76.387  0.00  0.00    +0.000 F 
ATOM     16  F   UNL     1      10.618  30.788  75.151  0.00  0.00    +0.000 F 
ATOM     17  F   UNL     1      11.238  32.733  74.396  0.00  0.00    +0.000 F 
ENDBRANCH  13  14
ENDBRANCH   4   8
BRANCH   1  19
ATOM     18  S   UNL     1       8.692  35.764  80.170  0.00  0.00    +0.000 S 
ATOM     19  C   UNL     1       6.965  35.746  80.171  0.00  0.00    +0.000 A 
ATOM     20  C   UNL     1       8.755  37.454  80.394  0.00  0.00    +0.000 A 
ATOM     21  C   UNL     1       6.472  37.015  80.420  0.00  0.00    +0.000 A 
ATOM     22  C   UNL     1       7.501  38.001  80.510  0.00  0.00    +0.000 A 
ENDBRANCH   1  19
BRANCH   3  23
ATOM     23  C   UNL     1       5.851  34.020  82.384  0.00  0.00    +0.000 C 
ATOM     24  O   UNL     1       5.386  34.750  83.244  0.00  0.00    +0.000 OA
ATOM     25  O   UNL     1       6.874  33.168  82.645  0.00  0.00    +0.000 OA
ENDBRANCH   3  23
BRANCH   5  26
ATOM     26  C   UNL     1       3.629  36.326  78.838  0.00  0.00    +0.000 C 
ATOM     27  O   UNL     1       2.612  36.873  79.249  0.00  0.00    +0.000 OA
ATOM     28  O   UNL     1       4.460  36.978  77.994  0.00  0.00    +0.000 OA
ENDBRANCH   5  26
BRANCH   5  29
ATOM     29  C   UNL     1       2.899  33.975  78.444  0.00  0.00    +0.000 C 
BRANCH  29  30
ATOM     30  C   UNL     1       2.854  32.448  78.681  0.00  0.00    +0.000 C 
ATOM     31  C   UNL     1       1.399  32.020  78.916  0.00  0.00    +0.000 C 
ATOM     32  C   UNL     1       3.407  31.611  77.532  0.00  0.00    +0.000 C 
ENDBRANCH  29  30
ENDBRANCH   5  29
TORSDOF 7
ENDMDL
MODEL 7
REMARK VINA RESULT:      -6.6      3.880      5.460
REMARK  Name = 
REMARK  9 active torsions:
REMARK  status: ('A' for Active; 'I' for Inactive)
REMARK    1  A    between atoms: C_2  and  C_5
REMARK    2  A    between atoms: C_8  and  C_11
REMARK    3  A    between atoms: C_9  and  C_14
REMARK    4  A    between atoms: C_10  and  C_15
REMARK    5  A    between atoms: C_10  and  C_16
REMARK    6  A    between atoms: C_16  and  C_23
REMARK    7  A    between atoms: C_23  and  C_26
REMARK    8  A    between atoms: C_23  and  C_27
REMARK    9  A    between atoms: C_28  and  C_29
REMARK                            x       y       z     vdW  Elec       q    Type
REMARK                         _______ _______ _______ _____ _____    ______ ____
ROOT
ATOM      1  C   UNL     1       7.149  32.125  79.969  0.00  0.00    +0.000 C 
ATOM      2  N   UNL     1       5.767  32.554  79.712  0.00  0.00    +0.000 N 
ATOM      3  C   UNL     1       7.265  30.844  79.163  0.00  0.00    +0.000 C 
ATOM      4  C   UNL     1       5.272  33.854  79.709  0.00  0.00    +0.000 C 
ATOM      5  C   UNL     1       4.889  31.356  79.506  0.00  0.00    +0.000 C 
ATOM      6  C   UNL     1       5.903  30.174  79.347  0.00  0.00    +0.000 C 
ATOM      7  O   UNL     1       4.053  34.040  79.741  0.00  0.00    +0.000 OA
ENDROOT
BRANCH   4   8
ATOM      8  C   UNL     1       6.151  35.061  79.675  0.00  0.00    +0.000 A 
ATOM      9  C   UNL     1       6.973  35.401  78.599  0.00  0.00    +0.000 A 
ATOM     10  C   UNL     1       6.079  35.951  80.755  0.00  0.00    +0.000 A 
ATOM     11  C   UNL     1       7.871  36.466  78.690  0.00  0.00    +0.000 A 
ATOM     12  C   UNL     1       6.913  37.074  80.812  0.00  0.00    +0.000 A 
ATOM     13  C   UNL     1       7.862  37.305  79.807  0.00  0.00    +0.000 A 
BRANCH  13  14
ATOM     14  C   UNL     1       8.833  38.456  79.911  0.00  0.00    +0.000 C 
ATOM     15  F   UNL     1       8.226  39.647  80.180  0.00  0.00    +0.000 F 
ATOM     16  F   UNL     1       9.752  38.274  80.897  0.00  0.00    +0.000 F 
ATOM     17  F   UNL     1       9.537  38.650  78.763  0.00  0.00    +0.000 F 
ENDBRANCH  13  14
ENDBRANCH   4   8
BRANCH   1  19
ATOM     18  S   UNL     1       8.310  33.354  82.175  0.00  0.00    +0.000 S 
ATOM     19  C   UNL     1       7.417  32.062  81.454  0.00  0.00    +0.000 A 
ATOM     20  C   UNL     1       8.138  32.705  83.743  0.00  0.00    +0.000 A 
ATOM     21  C   UNL     1       7.075  31.124  82.411  0.00  0.00    +0.000 A 
ATOM     22  C   UNL     1       7.456  31.513  83.731  0.00  0.00    +0.000 A 
ENDBRANCH   1  19
BRANCH   3  23
ATOM     23  C   UNL     1       8.474  30.015  79.503  0.00  0.00    +0.000 C 
ATOM     24  O   UNL     1       9.620  30.434  79.525  0.00  0.00    +0.000 OA
ATOM     25  O   UNL     1       8.169  28.744  79.866  0.00  0.00    +0.000 OA
ENDBRANCH   3  23
BRANCH   5  26
ATOM     26  C   UNL     1       3.986  31.076  80.752  0.00  0.00    +0.000 C 
ATOM     27  O   UNL     1       4.004  31.750  81.775  0.00  0.00    +0.000 OA
ATOM     28  O   UNL     1       3.230  29.958  80.685  0.00  0.00    +0.000 OA
ENDBRANCH   5  26
BRANCH   5  29
ATOM     29  C   UNL     1       3.921  31.439  78.286  0.00  0.00    +0.000 C 
BRANCH  29  30
ATOM     30  C   UNL     1       4.003  30.380  77.163  0.00  0.00    +0.000 C 
ATOM     31  C   UNL     1       2.584  29.911  76.813  0.00  0.00    +0.000 C 
ATOM     32  C   UNL     1       4.664  30.867  75.878  0.00  0.00    +0.000 C 
ENDBRANCH  29  30
ENDBRANCH   5  29
TORSDOF 7
ENDMDL
MODEL 8
REMARK VINA RESULT:      -6.6      3.166      5.776
REMARK  Name = 
REMARK  9 active torsions:
REMARK  status: ('A' for Active; 'I' for Inactive)
REMARK    1  A    between atoms: C_2  and  C_5
REMARK    2  A    between atoms: C_8  and  C_11
REMARK    3  A    between atoms: C_9  and  C_14
REMARK    4  A    between atoms: C_10  and  C_15
REMARK    5  A    between atoms: C_10  and  C_16
REMARK    6  A    between atoms: C_16  and  C_23
REMARK    7  A    between atoms: C_23  and  C_26
REMARK    8  A    between atoms: C_23  and  C_27
REMARK    9  A    between atoms: C_28  and  C_29
REMARK                            x       y       z     vdW  Elec       q    Type
REMARK                         _______ _______ _______ _____ _____    ______ ____
ROOT
ATOM      1  C   UNL     1       6.203  33.397  77.422  0.00  0.00    +0.000 C 
ATOM      2  N   UNL     1       5.807  33.007  78.783  0.00  0.00    +0.000 N 
ATOM      3  C   UNL     1       5.015  32.964  76.583  0.00  0.00    +0.000 C 
ATOM      4  C   UNL     1       6.192  33.603  79.979  0.00  0.00    +0.000 C 
ATOM      5  C   UNL     1       4.941  31.783  78.733  0.00  0.00    +0.000 C 
ATOM      6  C   UNL     1       4.584  31.641  77.216  0.00  0.00    +0.000 C 
ATOM      7  O   UNL     1       5.997  33.012  81.044  0.00  0.00    +0.000 OA
ENDROOT
BRANCH   4   8
ATOM      8  C   UNL     1       6.848  34.944  80.048  0.00  0.00    +0.000 A 
ATOM      9  C   UNL     1       6.230  36.138  79.674  0.00  0.00    +0.000 A 
ATOM     10  C   UNL     1       8.132  35.013  80.604  0.00  0.00    +0.000 A 
ATOM     11  C   UNL     1       6.947  37.335  79.633  0.00  0.00    +0.000 A 
ATOM     12  C   UNL     1       8.825  36.229  80.652  0.00  0.00    +0.000 A 
ATOM     13  C   UNL     1       8.260  37.390  80.106  0.00  0.00    +0.000 A 
BRANCH  13  14
ATOM     14  C   UNL     1       9.040  38.681  80.063  0.00  0.00    +0.000 C 
ATOM     15  F   UNL     1       9.674  38.886  78.874  0.00  0.00    +0.000 F 
ATOM     16  F   UNL     1       8.251  39.771  80.258  0.00  0.00    +0.000 F 
ATOM     17  F   UNL     1      10.011  38.736  81.015  0.00  0.00    +0.000 F 
ENDBRANCH  13  14
ENDBRANCH   4   8
BRANCH   1  19
ATOM     18  S   UNL     1       8.933  33.874  77.212  0.00  0.00    +0.000 S 
ATOM     19  C   UNL     1       7.562  32.831  77.084  0.00  0.00    +0.000 A 
ATOM     20  C   UNL     1      10.023  32.624  76.816  0.00  0.00    +0.000 A 
ATOM     21  C   UNL     1       7.955  31.572  76.666  0.00  0.00    +0.000 A 
ATOM     22  C   UNL     1       9.373  31.444  76.549  0.00  0.00    +0.000 A 
ENDBRANCH   1  19
BRANCH   3  23
ATOM     23  C   UNL     1       5.287  32.946  75.103  0.00  0.00    +0.000 C 
ATOM     24  O   UNL     1       5.713  33.893  74.462  0.00  0.00    +0.000 OA
ATOM     25  O   UNL     1       5.084  31.731  74.535  0.00  0.00    +0.000 OA
ENDBRANCH   3  23
BRANCH   5  26
ATOM     26  C   UNL     1       5.718  30.504  79.187  0.00  0.00    +0.000 C 
ATOM     27  O   UNL     1       6.900  30.499  79.508  0.00  0.00    +0.000 OA
ATOM     28  O   UNL     1       5.027  29.345  79.111  0.00  0.00    +0.000 OA
ENDBRANCH   5  26
BRANCH   5  29
ATOM     29  C   UNL     1       3.655  31.839  79.614  0.00  0.00    +0.000 C 
BRANCH  29  30
ATOM     30  C   UNL     1       2.555  32.880  79.306  0.00  0.00    +0.000 C 
ATOM     31  C   UNL     1       1.196  32.168  79.243  0.00  0.00    +0.000 C 
ATOM     32  C   UNL     1       2.444  34.008  80.326  0.00  0.00    +0.000 C 
ENDBRANCH  29  30
ENDBRANCH   5  29
TORSDOF 7
ENDMDL
MODEL 9
REMARK VINA RESULT:      -6.4      3.731      6.186
REMARK  Name = 
REMARK  9 active torsions:
REMARK  status: ('A' for Active; 'I' for Inactive)
REMARK    1  A    between atoms: C_2  and  C_5
REMARK    2  A    between atoms: C_8  and  C_11
REMARK    3  A    between atoms: C_9  and  C_14
REMARK    4  A    between atoms: C_10  and  C_15
REMARK    5  A    between atoms: C_10  and  C_16
REMARK    6  A    between atoms: C_16  and  C_23
REMARK    7  A    between atoms: C_23  and  C_26
REMARK    8  A    between atoms: C_23  and  C_27
REMARK    9  A    between atoms: C_28  and  C_29
REMARK                            x       y       z     vdW  Elec       q    Type
REMARK                         _______ _______ _______ _____ _____    ______ ____
ROOT
ATOM      1  C   UNL     1       6.986  33.967  77.955  0.00  0.00    +0.000 C 
ATOM      2  N   UNL     1       7.345  33.316  79.223  0.00  0.00    +0.000 N 
ATOM      3  C   UNL     1       5.911  33.053  77.394  0.00  0.00    +0.000 C 
ATOM      4  C   UNL     1       7.826  33.922  80.379  0.00  0.00    +0.000 C 
ATOM      5  C   UNL     1       7.184  31.829  79.099  0.00  0.00    +0.000 C 
ATOM      6  C   UNL     1       6.401  31.651  77.756  0.00  0.00    +0.000 C 
ATOM      7  O   UNL     1       8.331  33.228  81.265  0.00  0.00    +0.000 OA
ENDROOT
BRANCH   4   8
ATOM      8  C   UNL     1       7.770  35.397  80.609  0.00  0.00    +0.000 A 
ATOM      9  C   UNL     1       6.593  36.147  80.603  0.00  0.00    +0.000 A 
ATOM     10  C   UNL     1       8.966  36.051  80.936  0.00  0.00    +0.000 A 
ATOM     11  C   UNL     1       6.628  37.540  80.687  0.00  0.00    +0.000 A 
ATOM     12  C   UNL     1       8.995  37.440  81.113  0.00  0.00    +0.000 A 
ATOM     13  C   UNL     1       7.835  38.204  80.926  0.00  0.00    +0.000 A 
BRANCH  13  14
ATOM     14  C   UNL     1       7.879  39.710  81.016  0.00  0.00    +0.000 C 
ATOM     15  F   UNL     1       8.887  40.262  80.284  0.00  0.00    +0.000 F 
ATOM     16  F   UNL     1       6.732  40.290  80.572  0.00  0.00    +0.000 F 
ATOM     17  F   UNL     1       8.061  40.151  82.291  0.00  0.00    +0.000 F 
ENDBRANCH  13  14
ENDBRANCH   4   8
BRANCH   1  19
ATOM     18  S   UNL     1       8.962  35.774  77.214  0.00  0.00    +0.000 S 
ATOM     19  C   UNL     1       8.219  34.217  77.120  0.00  0.00    +0.000 A 
ATOM     20  C   UNL     1      10.239  35.316  76.181  0.00  0.00    +0.000 A 
ATOM     21  C   UNL     1       8.915  33.406  76.243  0.00  0.00    +0.000 A 
ATOM     22  C   UNL     1      10.097  34.025  75.732  0.00  0.00    +0.000 A 
ENDBRANCH   1  19
BRANCH   3  23
ATOM     23  C   UNL     1       5.594  33.302  75.944  0.00  0.00    +0.000 C 
ATOM     24  O   UNL     1       5.439  34.405  75.446  0.00  0.00    +0.000 OA
ATOM     25  O   UNL     1       5.567  32.170  75.198  0.00  0.00    +0.000 OA
ENDBRANCH   3  23
BRANCH   5  26
ATOM     26  C   UNL     1       8.564  31.105  78.974  0.00  0.00    +0.000 C 
ATOM     27  O   UNL     1       9.184  30.990  77.923  0.00  0.00    +0.000 OA
ATOM     28  O   UNL     1       9.010  30.502  80.098  0.00  0.00    +0.000 OA
ENDBRANCH   5  26
BRANCH   5  29
ATOM     29  C   UNL     1       6.443  31.137  80.284  0.00  0.00    +0.000 C 
BRANCH  29  30
ATOM     30  C   UNL     1       5.515  29.931  80.012  0.00  0.00    +0.000 C 
ATOM     31  C   UNL     1       5.966  28.747  80.878  0.00  0.00    +0.000 C 
ATOM     32  C   UNL     1       4.040  30.187  80.304  0.00  0.00    +0.000 C 
ENDBRANCH  29  30
ENDBRANCH   5  29
TORSDOF 7
ENDMDL
