MODEL 1
REMARK VINA RESULT:      -7.4      0.000      0.000
REMARK  Name = 
REMARK  9 active torsions:
REMARK  status: ('A' for Active; 'I' for Inactive)
REMARK    1  A    between atoms: C_2  and  C_5
REMARK    2  A    between atoms: C_10  and  C_11
REMARK    3  A    between atoms: C_14  and  C_16
REMARK    4  A    between atoms: C_14  and  C_18
REMARK    5  A    between atoms: C_15  and  C_19
REMARK    6  A    between atoms: C_18  and  C_23
REMARK    7  A    between atoms: C_20  and  C_26
REMARK    8  A    between atoms: C_23  and  C_27
REMARK    9  A    between atoms: C_27  and  C_32
REMARK                            x       y       z     vdW  Elec       q    Type
REMARK                         _______ _______ _______ _____ _____    ______ ____
ROOT
ATOM      1  C   UNL     1       8.307  30.792  79.038  0.00  0.00    +0.000 C 
ATOM      2  O   UNL     1       8.889  29.796  79.479  0.00  0.00    +0.000 OA
ATOM      3  N   UNL     1       6.995  31.088  79.456  0.00  0.00    +0.000 N 
ATOM      4  C   UNL     1       6.377  30.416  80.659  0.00  0.00    +0.000 C 
ATOM      5  C   UNL     1       6.223  32.327  79.145  0.00  0.00    +0.000 C 
ATOM      6  C   UNL     1       4.884  30.823  80.468  0.00  0.00    +0.000 C 
ATOM      7  C   UNL     1       4.933  32.255  79.970  0.00  0.00    +0.000 C 
ENDROOT
BRANCH   1  13
ATOM      8  C   UNL     1      10.708  32.805  76.077  0.00  0.00    +0.000 A 
ATOM      9  C   UNL     1      10.588  33.328  77.372  0.00  0.00    +0.000 A 
ATOM     10  C   UNL     1       9.909  31.715  75.725  0.00  0.00    +0.000 A 
ATOM     11  C   UNL     1       9.766  32.692  78.318  0.00  0.00    +0.000 A 
ATOM     12  C   UNL     1       9.005  31.168  76.632  0.00  0.00    +0.000 A 
ATOM     13  C   UNL     1       9.022  31.552  77.968  0.00  0.00    +0.000 A 
BRANCH   8  15
ATOM     14  F   UNL     1      11.768  32.595  73.929  0.00  0.00    +0.000 F 
ATOM     15  C   UNL     1      11.645  33.369  75.040  0.00  0.00    +0.000 C 
ATOM     16  F   UNL     1      12.909  33.526  75.528  0.00  0.00    +0.000 F 
ATOM     17  F   UNL     1      11.263  34.603  74.605  0.00  0.00    +0.000 F 
ENDBRANCH   8  15
ENDBRANCH   1  13
BRANCH   5  18
ATOM     18  C   UNL     1       6.022  32.686  77.690  0.00  0.00    +0.000 A 
ATOM     19  C   UNL     1       5.488  31.810  76.736  0.00  0.00    +0.000 A 
ATOM     20  C   UNL     1       6.446  33.965  77.272  0.00  0.00    +0.000 A 
ATOM     21  C   UNL     1       5.398  32.209  75.400  0.00  0.00    +0.000 A 
ATOM     22  C   UNL     1       6.379  34.346  75.934  0.00  0.00    +0.000 A 
ATOM     23  C   UNL     1       5.854  33.463  74.999  0.00  0.00    +0.000 A 
ENDBRANCH   5  18
BRANCH   4  24
ATOM     24  C   UNL     1       6.302  28.864  80.822  0.00  0.00    +0.000 C 
ATOM     25  O   UNL     1       5.469  28.184  80.229  0.00  0.00    +0.000 OA
ATOM     26  O   UNL     1       7.129  28.293  81.712  0.00  0.00    +0.000 OA
ENDBRANCH   4  24
BRANCH   7  27
ATOM     27  C   UNL     1       3.652  32.755  79.346  0.00  0.00    +0.000 C 
ATOM     28  O   UNL     1       3.403  33.954  79.255  0.00  0.00    +0.000 OA
ATOM     29  O   UNL     1       2.792  31.823  78.896  0.00  0.00    +0.000 OA
ENDBRANCH   7  27
BRANCH   4  30
ATOM     30  C   UNL     1       6.903  31.023  82.008  0.00  0.00    +0.000 C 
BRANCH  30  31
ATOM     31  C   UNL     1       8.129  31.929  81.874  0.00  0.00    +0.000 C 
BRANCH  31  32
ATOM     32  C   UNL     1       7.863  33.367  82.320  0.00  0.00    +0.000 C 
ATOM     33  C   UNL     1       8.441  34.342  81.303  0.00  0.00    +0.000 C 
ENDBRANCH  31  32
ENDBRANCH  30  31
ENDBRANCH   4  30
TORSDOF 8
ENDMDL
MODEL 2
REMARK VINA RESULT:      -7.3      3.972      6.415
REMARK  Name = 
REMARK  9 active torsions:
REMARK  status: ('A' for Active; 'I' for Inactive)
REMARK    1  A    between atoms: C_2  and  C_5
REMARK    2  A    between atoms: C_10  and  C_11
REMARK    3  A    between atoms: C_14  and  C_16
REMARK    4  A    between atoms: C_14  and  C_18
REMARK    5  A    between atoms: C_15  and  C_19
REMARK    6  A    between atoms: C_18  and  C_23
REMARK    7  A    between atoms: C_20  and  C_26
REMARK    8  A    between atoms: C_23  and  C_27
REMARK    9  A    between atoms: C_27  and  C_32
REMARK                            x       y       z     vdW  Elec       q    Type
REMARK                         _______ _______ _______ _____ _____    ______ ____
ROOT
ATOM      1  C   UNL     1       4.875  33.452  80.205  0.00  0.00    +0.000 C 
ATOM      2  O   UNL     1       3.980  34.004  80.853  0.00  0.00    +0.000 OA
ATOM      3  N   UNL     1       5.426  34.088  79.076  0.00  0.00    +0.000 N 
ATOM      4  C   UNL     1       5.193  35.556  78.802  0.00  0.00    +0.000 C 
ATOM      5  C   UNL     1       6.610  33.632  78.291  0.00  0.00    +0.000 C 
ATOM      6  C   UNL     1       5.702  35.646  77.331  0.00  0.00    +0.000 C 
ATOM      7  C   UNL     1       6.922  34.747  77.286  0.00  0.00    +0.000 C 
ENDROOT
BRANCH   1  13
ATOM      8  C   UNL     1       6.028  29.379  81.020  0.00  0.00    +0.000 A 
ATOM      9  C   UNL     1       4.827  29.659  80.354  0.00  0.00    +0.000 A 
ATOM     10  C   UNL     1       6.757  30.445  81.551  0.00  0.00    +0.000 A 
ATOM     11  C   UNL     1       4.435  30.991  80.134  0.00  0.00    +0.000 A 
ATOM     12  C   UNL     1       6.297  31.755  81.435  0.00  0.00    +0.000 A 
ATOM     13  C   UNL     1       5.217  32.055  80.613  0.00  0.00    +0.000 A 
BRANCH   8  15
ATOM     14  F   UNL     1       7.052  27.740  82.451  0.00  0.00    +0.000 F 
ATOM     15  C   UNL     1       6.566  27.983  81.205  0.00  0.00    +0.000 C 
ATOM     16  F   UNL     1       7.591  27.715  80.346  0.00  0.00    +0.000 F 
ATOM     17  F   UNL     1       5.628  27.024  80.968  0.00  0.00    +0.000 F 
ENDBRANCH   8  15
ENDBRANCH   1  13
BRANCH   5  18
ATOM     18  C   UNL     1       6.570  32.241  77.698  0.00  0.00    +0.000 A 
ATOM     19  C   UNL     1       5.515  31.757  76.914  0.00  0.00    +0.000 A 
ATOM     20  C   UNL     1       7.642  31.376  78.000  0.00  0.00    +0.000 A 
ATOM     21  C   UNL     1       5.536  30.435  76.461  0.00  0.00    +0.000 A 
ATOM     22  C   UNL     1       7.644  30.052  77.568  0.00  0.00    +0.000 A 
ATOM     23  C   UNL     1       6.586  29.584  76.799  0.00  0.00    +0.000 A 
ENDBRANCH   5  18
BRANCH   4  24
ATOM     24  C   UNL     1       3.768  36.191  78.723  0.00  0.00    +0.000 C 
ATOM     25  O   UNL     1       3.343  36.951  79.589  0.00  0.00    +0.000 OA
ATOM     26  O   UNL     1       2.973  35.807  77.712  0.00  0.00    +0.000 OA
ENDBRANCH   4  24
BRANCH   7  27
ATOM     27  C   UNL     1       7.374  34.358  75.898  0.00  0.00    +0.000 C 
ATOM     28  O   UNL     1       8.539  34.053  75.661  0.00  0.00    +0.000 OA
ATOM     29  O   UNL     1       6.439  34.365  74.931  0.00  0.00    +0.000 OA
ENDBRANCH   7  27
BRANCH   4  30
ATOM     30  C   UNL     1       6.087  36.473  79.709  0.00  0.00    +0.000 C 
BRANCH  30  31
ATOM     31  C   UNL     1       6.681  37.695  79.005  0.00  0.00    +0.000 C 
BRANCH  31  32
ATOM     32  C   UNL     1       8.206  37.759  79.102  0.00  0.00    +0.000 C 
ATOM     33  C   UNL     1       8.620  38.867  80.060  0.00  0.00    +0.000 C 
ENDBRANCH  31  32
ENDBRANCH  30  31
ENDBRANCH   4  30
TORSDOF 8
ENDMDL
MODEL 3
REMARK VINA RESULT:      -7.1      2.958      4.263
REMARK  Name = 
REMARK  9 active torsions:
REMARK  status: ('A' for Active; 'I' for Inactive)
REMARK    1  A    between atoms: C_2  and  C_5
REMARK    2  A    between atoms: C_10  and  C_11
REMARK    3  A    between atoms: C_14  and  C_16
REMARK    4  A    between atoms: C_14  and  C_18
REMARK    5  A    between atoms: C_15  and  C_19
REMARK    6  A    between atoms: C_18  and  C_23
REMARK    7  A    between atoms: C_20  and  C_26
REMARK    8  A    between atoms: C_23  and  C_27
REMARK    9  A    between atoms: C_27  and  C_32
REMARK                            x       y       z     vdW  Elec       q    Type
REMARK                         _______ _______ _______ _____ _____    ______ ____
ROOT
ATOM      1  C   UNL     1       8.559  34.850  78.852  0.00  0.00    +0.000 C 
ATOM      2  O   UNL     1       9.284  35.079  79.826  0.00  0.00    +0.000 OA
ATOM      3  N   UNL     1       7.211  35.254  78.863  0.00  0.00    +0.000 N 
ATOM      4  C   UNL     1       6.687  36.237  79.884  0.00  0.00    +0.000 C 
ATOM      5  C   UNL     1       6.259  35.196  77.715  0.00  0.00    +0.000 C 
ATOM      6  C   UNL     1       5.152  36.066  79.671  0.00  0.00    +0.000 C 
ATOM      7  C   UNL     1       4.983  35.914  78.171  0.00  0.00    +0.000 C 
ENDROOT
BRANCH   1  13
ATOM      8  C   UNL     1      10.661  32.566  75.861  0.00  0.00    +0.000 A 
ATOM      9  C   UNL     1      10.425  33.935  75.676  0.00  0.00    +0.000 A 
ATOM     10  C   UNL     1      10.064  31.931  76.951  0.00  0.00    +0.000 A 
ATOM     11  C   UNL     1       9.698  34.663  76.633  0.00  0.00    +0.000 A 
ATOM     12  C   UNL     1       9.242  32.636  77.828  0.00  0.00    +0.000 A 
ATOM     13  C   UNL     1       9.163  34.022  77.764  0.00  0.00    +0.000 A 
BRANCH   8  15
ATOM     14  F   UNL     1      12.779  31.528  75.389  0.00  0.00    +0.000 F 
ATOM     15  C   UNL     1      11.515  31.740  74.933  0.00  0.00    +0.000 C 
ATOM     16  F   UNL     1      11.653  32.328  73.710  0.00  0.00    +0.000 F 
ATOM     17  F   UNL     1      10.986  30.508  74.691  0.00  0.00    +0.000 F 
ENDBRANCH   8  15
ENDBRANCH   1  13
BRANCH   5  18
ATOM     18  C   UNL     1       6.027  33.854  77.058  0.00  0.00    +0.000 A 
ATOM     19  C   UNL     1       6.073  33.644  75.674  0.00  0.00    +0.000 A 
ATOM     20  C   UNL     1       5.698  32.768  77.897  0.00  0.00    +0.000 A 
ATOM     21  C   UNL     1       5.782  32.381  75.153  0.00  0.00    +0.000 A 
ATOM     22  C   UNL     1       5.383  31.519  77.369  0.00  0.00    +0.000 A 
ATOM     23  C   UNL     1       5.425  31.329  75.993  0.00  0.00    +0.000 A 
ENDBRANCH   5  18
BRANCH   4  24
ATOM     24  C   UNL     1       6.855  36.034  81.423  0.00  0.00    +0.000 C 
ATOM     25  O   UNL     1       7.566  36.768  82.105  0.00  0.00    +0.000 OA
ATOM     26  O   UNL     1       6.261  34.965  81.977  0.00  0.00    +0.000 OA
ENDBRANCH   4  24
BRANCH   7  27
ATOM     27  C   UNL     1       3.649  35.354  77.735  0.00  0.00    +0.000 C 
ATOM     28  O   UNL     1       3.240  35.484  76.585  0.00  0.00    +0.000 OA
ATOM     29  O   UNL     1       2.927  34.709  78.669  0.00  0.00    +0.000 OA
ENDBRANCH   7  27
BRANCH   4  30
ATOM     30  C   UNL     1       7.088  37.714  79.539  0.00  0.00    +0.000 C 
BRANCH  30  31
ATOM     31  C   UNL     1       8.524  37.895  79.043  0.00  0.00    +0.000 C 
BRANCH  31  32
ATOM     32  C   UNL     1       9.334  38.871  79.896  0.00  0.00    +0.000 C 
ATOM     33  C   UNL     1       8.398  39.827  80.624  0.00  0.00    +0.000 C 
ENDBRANCH  31  32
ENDBRANCH  30  31
ENDBRANCH   4  30
TORSDOF 8
ENDMDL
MODEL 4
REMARK VINA RESULT:      -7.0      2.001      3.782
REMARK  Name = 
REMARK  9 active torsions:
REMARK  status: ('A' for Active; 'I' for Inactive)
REMARK    1  A    between atoms: C_2  and  C_5
REMARK    2  A    between atoms: C_10  and  C_11
REMARK    3  A    between atoms: C_14  and  C_16
REMARK    4  A    between atoms: C_14  and  C_18
REMARK    5  A    between atoms: C_15  and  C_19
REMARK    6  A    between atoms: C_18  and  C_23
REMARK    7  A    between atoms: C_20  and  C_26
REMARK    8  A    between atoms: C_23  and  C_27
REMARK    9  A    between atoms: C_27  and  C_32
REMARK                            x       y       z     vdW  Elec       q    Type
REMARK                         _______ _______ _______ _____ _____    ______ ____
ROOT
ATOM      1  C   UNL     1       6.163  31.295  76.985  0.00  0.00    +0.000 C 
ATOM      2  O   UNL     1       5.434  30.807  76.114  0.00  0.00    +0.000 OA
ATOM      3  N   UNL     1       5.707  31.396  78.314  0.00  0.00    +0.000 N 
ATOM      4  C   UNL     1       4.484  30.648  78.790  0.00  0.00    +0.000 C 
ATOM      5  C   UNL     1       6.514  31.807  79.499  0.00  0.00    +0.000 C 
ATOM      6  C   UNL     1       4.241  31.356  80.157  0.00  0.00    +0.000 C 
ATOM      7  C   UNL     1       5.628  31.583  80.729  0.00  0.00    +0.000 C 
ENDROOT
BRANCH   1  13
ATOM      8  C   UNL     1       9.914  33.158  75.966  0.00  0.00    +0.000 A 
ATOM      9  C   UNL     1       8.702  33.817  75.720  0.00  0.00    +0.000 A 
ATOM     10  C   UNL     1       9.872  31.830  76.396  0.00  0.00    +0.000 A 
ATOM     11  C   UNL     1       7.481  33.184  76.011  0.00  0.00    +0.000 A 
ATOM     12  C   UNL     1       8.657  31.170  76.564  0.00  0.00    +0.000 A 
ATOM     13  C   UNL     1       7.458  31.871  76.512  0.00  0.00    +0.000 A 
BRANCH   8  15
ATOM     14  F   UNL     1      11.886  34.132  76.940  0.00  0.00    +0.000 F 
ATOM     15  C   UNL     1      11.262  33.806  75.776  0.00  0.00    +0.000 C 
ATOM     16  F   UNL     1      11.173  34.965  75.062  0.00  0.00    +0.000 F 
ATOM     17  F   UNL     1      12.131  33.015  75.087  0.00  0.00    +0.000 F 
ENDBRANCH   8  15
ENDBRANCH   1  13
BRANCH   5  18
ATOM     18  C   UNL     1       7.200  33.154  79.453  0.00  0.00    +0.000 A 
ATOM     19  C   UNL     1       6.546  34.353  79.139  0.00  0.00    +0.000 A 
ATOM     20  C   UNL     1       8.590  33.184  79.696  0.00  0.00    +0.000 A 
ATOM     21  C   UNL     1       7.276  35.541  79.058  0.00  0.00    +0.000 A 
ATOM     22  C   UNL     1       9.315  34.368  79.587  0.00  0.00    +0.000 A 
ATOM     23  C   UNL     1       8.654  35.547  79.266  0.00  0.00    +0.000 A 
ENDBRANCH   5  18
BRANCH   4  24
ATOM     24  C   UNL     1       3.094  30.752  78.086  0.00  0.00    +0.000 C 
ATOM     25  O   UNL     1       2.362  31.728  78.227  0.00  0.00    +0.000 OA
ATOM     26  O   UNL     1       2.675  29.690  77.380  0.00  0.00    +0.000 OA
ENDBRANCH   4  24
BRANCH   7  27
ATOM     27  C   UNL     1       5.694  32.586  81.856  0.00  0.00    +0.000 C 
ATOM     28  O   UNL     1       4.832  33.448  82.004  0.00  0.00    +0.000 OA
ATOM     29  O   UNL     1       6.746  32.495  82.689  0.00  0.00    +0.000 OA
ENDBRANCH   7  27
BRANCH   4  30
ATOM     30  C   UNL     1       4.787  29.130  79.049  0.00  0.00    +0.000 C 
BRANCH  30  31
ATOM     31  C   UNL     1       4.185  28.561  80.336  0.00  0.00    +0.000 C 
BRANCH  31  32
ATOM     32  C   UNL     1       5.094  27.540  81.022  0.00  0.00    +0.000 C 
ATOM     33  C   UNL     1       6.533  28.037  81.015  0.00  0.00    +0.000 C 
ENDBRANCH  31  32
ENDBRANCH  30  31
ENDBRANCH   4  30
TORSDOF 8
ENDMDL
MODEL 5
REMARK VINA RESULT:      -7.0      2.215      3.344
REMARK  Name = 
REMARK  9 active torsions:
REMARK  status: ('A' for Active; 'I' for Inactive)
REMARK    1  A    between atoms: C_2  and  C_5
REMARK    2  A    between atoms: C_10  and  C_11
REMARK    3  A    between atoms: C_14  and  C_16
REMARK    4  A    between atoms: C_14  and  C_18
REMARK    5  A    between atoms: C_15  and  C_19
REMARK    6  A    between atoms: C_18  and  C_23
REMARK    7  A    between atoms: C_20  and  C_26
REMARK    8  A    between atoms: C_23  and  C_27
REMARK    9  A    between atoms: C_27  and  C_32
REMARK                            x       y       z     vdW  Elec       q    Type
REMARK                         _______ _______ _______ _____ _____    ______ ____
ROOT
ATOM      1  C   UNL     1       7.492  31.555  77.090  0.00  0.00    +0.000 C 
ATOM      2  O   UNL     1       7.364  30.576  76.347  0.00  0.00    +0.000 OA
ATOM      3  N   UNL     1       6.472  31.889  78.002  0.00  0.00    +0.000 N 
ATOM      4  C   UNL     1       5.360  30.923  78.335  0.00  0.00    +0.000 C 
ATOM      5  C   UNL     1       6.542  32.932  79.067  0.00  0.00    +0.000 C 
ATOM      6  C   UNL     1       4.376  31.878  79.076  0.00  0.00    +0.000 C 
ATOM      7  C   UNL     1       5.265  32.788  79.902  0.00  0.00    +0.000 C 
ENDROOT
BRANCH   1  13
ATOM      8  C   UNL     1      11.131  33.690  76.210  0.00  0.00    +0.000 A 
ATOM      9  C   UNL     1      11.072  32.799  77.290  0.00  0.00    +0.000 A 
ATOM     10  C   UNL     1       9.949  33.989  75.531  0.00  0.00    +0.000 A 
ATOM     11  C   UNL     1       9.869  32.142  77.600  0.00  0.00    +0.000 A 
ATOM     12  C   UNL     1       8.736  33.427  75.923  0.00  0.00    +0.000 A 
ATOM     13  C   UNL     1       8.702  32.401  76.860  0.00  0.00    +0.000 A 
BRANCH   8  15
ATOM     14  F   UNL     1      12.338  35.712  75.720  0.00  0.00    +0.000 F 
ATOM     15  C   UNL     1      12.406  34.355  75.753  0.00  0.00    +0.000 C 
ATOM     16  F   UNL     1      12.758  33.967  74.494  0.00  0.00    +0.000 F 
ATOM     17  F   UNL     1      13.470  34.045  76.545  0.00  0.00    +0.000 F 
ENDBRANCH   8  15
ENDBRANCH   1  13
BRANCH   5  18
ATOM     18  C   UNL     1       6.865  34.348  78.648  0.00  0.00    +0.000 A 
ATOM     19  C   UNL     1       6.168  35.046  77.653  0.00  0.00    +0.000 A 
ATOM     20  C   UNL     1       7.966  34.974  79.269  0.00  0.00    +0.000 A 
ATOM     21  C   UNL     1       6.580  36.331  77.288  0.00  0.00    +0.000 A 
ATOM     22  C   UNL     1       8.387  36.244  78.882  0.00  0.00    +0.000 A 
ATOM     23  C   UNL     1       7.691  36.920  77.888  0.00  0.00    +0.000 A 
ENDBRANCH   5  18
BRANCH   4  24
ATOM     24  C   UNL     1       4.457  30.257  77.249  0.00  0.00    +0.000 C 
ATOM     25  O   UNL     1       4.653  29.113  76.847  0.00  0.00    +0.000 OA
ATOM     26  O   UNL     1       3.497  31.013  76.692  0.00  0.00    +0.000 OA
ENDBRANCH   4  24
BRANCH   7  27
ATOM     27  C   UNL     1       4.594  34.041  80.411  0.00  0.00    +0.000 C 
ATOM     28  O   UNL     1       5.028  34.658  81.380  0.00  0.00    +0.000 OA
ATOM     29  O   UNL     1       3.493  34.450  79.754  0.00  0.00    +0.000 OA
ENDBRANCH   7  27
BRANCH   4  30
ATOM     30  C   UNL     1       5.831  29.804  79.331  0.00  0.00    +0.000 C 
BRANCH  30  31
ATOM     31  C   UNL     1       4.714  29.160  80.155  0.00  0.00    +0.000 C 
BRANCH  31  32
ATOM     32  C   UNL     1       5.187  27.951  80.962  0.00  0.00    +0.000 C 
ATOM     33  C   UNL     1       6.709  27.924  81.015  0.00  0.00    +0.000 C 
ENDBRANCH  31  32
ENDBRANCH  30  31
ENDBRANCH   4  30
TORSDOF 8
ENDMDL
MODEL 6
REMARK VINA RESULT:      -6.9      3.326      5.660
REMARK  Name = 
REMARK  9 active torsions:
REMARK  status: ('A' for Active; 'I' for Inactive)
REMARK    1  A    between atoms: C_2  and  C_5
REMARK    2  A    between atoms: C_10  and  C_11
REMARK    3  A    between atoms: C_14  and  C_16
REMARK    4  A    between atoms: C_14  and  C_18
REMARK    5  A    between atoms: C_15  and  C_19
REMARK    6  A    between atoms: C_18  and  C_23
REMARK    7  A    between atoms: C_20  and  C_26
REMARK    8  A    between atoms: C_23  and  C_27
REMARK    9  A    between atoms: C_27  and  C_32
REMARK                            x       y       z     vdW  Elec       q    Type
REMARK                         _______ _______ _______ _____ _____    ______ ____
ROOT
ATOM      1  C   UNL     1       6.353  34.001  77.230  0.00  0.00    +0.000 C 
ATOM      2  O   UNL     1       5.864  34.028  76.096  0.00  0.00    +0.000 OA
ATOM      3  N   UNL     1       6.351  32.805  77.972  0.00  0.00    +0.000 N 
ATOM      4  C   UNL     1       6.059  31.471  77.325  0.00  0.00    +0.000 C 
ATOM      5  C   UNL     1       7.039  32.569  79.276  0.00  0.00    +0.000 C 
ATOM      6  C   UNL     1       5.850  30.588  78.593  0.00  0.00    +0.000 C 
ATOM      7  C   UNL     1       6.893  31.074  79.581  0.00  0.00    +0.000 C 
ENDROOT
BRANCH   1  13
ATOM      8  C   UNL     1       7.622  37.625  79.190  0.00  0.00    +0.000 A 
ATOM      9  C   UNL     1       6.259  37.349  79.016  0.00  0.00    +0.000 A 
ATOM     10  C   UNL     1       8.553  36.784  78.576  0.00  0.00    +0.000 A 
ATOM     11  C   UNL     1       5.853  36.189  78.334  0.00  0.00    +0.000 A 
ATOM     12  C   UNL     1       8.139  35.705  77.798  0.00  0.00    +0.000 A 
ATOM     13  C   UNL     1       6.805  35.314  77.783  0.00  0.00    +0.000 A 
BRANCH   8  15
ATOM     14  F   UNL     1       9.364  39.229  79.610  0.00  0.00    +0.000 F 
ATOM     15  C   UNL     1       8.135  38.792  79.994  0.00  0.00    +0.000 C 
ATOM     16  F   UNL     1       8.243  38.488  81.319  0.00  0.00    +0.000 F 
ATOM     17  F   UNL     1       7.309  39.874  79.932  0.00  0.00    +0.000 F 
ENDBRANCH   8  15
ENDBRANCH   1  13
BRANCH   5  18
ATOM     18  C   UNL     1       6.698  33.485  80.430  0.00  0.00    +0.000 A 
ATOM     19  C   UNL     1       5.389  33.768  80.841  0.00  0.00    +0.000 A 
ATOM     20  C   UNL     1       7.769  34.122  81.091  0.00  0.00    +0.000 A 
ATOM     21  C   UNL     1       5.169  34.677  81.879  0.00  0.00    +0.000 A 
ATOM     22  C   UNL     1       7.541  35.047  82.107  0.00  0.00    +0.000 A 
ATOM     23  C   UNL     1       6.236  35.324  82.497  0.00  0.00    +0.000 A 
ENDBRANCH   5  18
BRANCH   4  24
ATOM     24  C   UNL     1       4.771  31.197  76.487  0.00  0.00    +0.000 C 
ATOM     25  O   UNL     1       4.815  30.943  75.286  0.00  0.00    +0.000 OA
ATOM     26  O   UNL     1       3.587  31.336  77.104  0.00  0.00    +0.000 OA
ENDBRANCH   4  24
BRANCH   7  27
ATOM     27  C   UNL     1       6.658  30.652  81.012  0.00  0.00    +0.000 C 
ATOM     28  O   UNL     1       7.575  30.593  81.826  0.00  0.00    +0.000 OA
ATOM     29  O   UNL     1       5.394  30.340  81.353  0.00  0.00    +0.000 OA
ENDBRANCH   7  27
BRANCH   4  30
ATOM     30  C   UNL     1       7.291  30.925  76.520  0.00  0.00    +0.000 C 
BRANCH  30  31
ATOM     31  C   UNL     1       8.294  31.991  76.073  0.00  0.00    +0.000 C 
BRANCH  31  32
ATOM     32  C   UNL     1       9.738  31.645  76.440  0.00  0.00    +0.000 C 
ATOM     33  C   UNL     1      10.229  32.570  77.546  0.00  0.00    +0.000 C 
ENDBRANCH  31  32
ENDBRANCH  30  31
ENDBRANCH   4  30
TORSDOF 8
ENDMDL
MODEL 7
REMARK VINA RESULT:      -6.7      2.198      3.137
REMARK  Name = 
REMARK  9 active torsions:
REMARK  status: ('A' for Active; 'I' for Inactive)
REMARK    1  A    between atoms: C_2  and  C_5
REMARK    2  A    between atoms: C_10  and  C_11
REMARK    3  A    between atoms: C_14  and  C_16
REMARK    4  A    between atoms: C_14  and  C_18
REMARK    5  A    between atoms: C_15  and  C_19
REMARK    6  A    between atoms: C_18  and  C_23
REMARK    7  A    between atoms: C_20  and  C_26
REMARK    8  A    between atoms: C_23  and  C_27
REMARK    9  A    between atoms: C_27  and  C_32
REMARK                            x       y       z     vdW  Elec       q    Type
REMARK                         _______ _______ _______ _____ _____    ______ ____
ROOT
ATOM      1  C   UNL     1       8.666  33.404  79.162  0.00  0.00    +0.000 C 
ATOM      2  O   UNL     1       9.282  32.980  80.146  0.00  0.00    +0.000 OA
ATOM      3  N   UNL     1       7.390  33.978  79.321  0.00  0.00    +0.000 N 
ATOM      4  C   UNL     1       6.869  34.386  80.678  0.00  0.00    +0.000 C 
ATOM      5  C   UNL     1       6.595  34.674  78.267  0.00  0.00    +0.000 C 
ATOM      6  C   UNL     1       5.365  34.619  80.338  0.00  0.00    +0.000 C 
ATOM      7  C   UNL     1       5.373  35.276  78.971  0.00  0.00    +0.000 C 
ENDROOT
BRANCH   1  13
ATOM      8  C   UNL     1      10.831  32.626  75.516  0.00  0.00    +0.000 A 
ATOM      9  C   UNL     1      10.753  33.926  76.035  0.00  0.00    +0.000 A 
ATOM     10  C   UNL     1      10.063  31.625  76.115  0.00  0.00    +0.000 A 
ATOM     11  C   UNL     1      10.006  34.180  77.198  0.00  0.00    +0.000 A 
ATOM     12  C   UNL     1       9.228  31.913  77.193  0.00  0.00    +0.000 A 
ATOM     13  C   UNL     1       9.295  33.146  77.831  0.00  0.00    +0.000 A 
BRANCH   8  15
ATOM     14  F   UNL     1      11.857  33.263  73.437  0.00  0.00    +0.000 F 
ATOM     15  C   UNL     1      11.691  32.255  74.335  0.00  0.00    +0.000 C 
ATOM     16  F   UNL     1      11.167  31.210  73.632  0.00  0.00    +0.000 F 
ATOM     17  F   UNL     1      12.942  31.862  74.701  0.00  0.00    +0.000 F 
ENDBRANCH   8  15
ENDBRANCH   1  13
BRANCH   5  18
ATOM     18  C   UNL     1       6.281  33.911  77.000  0.00  0.00    +0.000 A 
ATOM     19  C   UNL     1       6.498  34.415  75.711  0.00  0.00    +0.000 A 
ATOM     20  C   UNL     1       5.689  32.638  77.139  0.00  0.00    +0.000 A 
ATOM     21  C   UNL     1       6.117  33.661  74.598  0.00  0.00    +0.000 A 
ATOM     22  C   UNL     1       5.287  31.904  76.025  0.00  0.00    +0.000 A 
ATOM     23  C   UNL     1       5.502  32.421  74.754  0.00  0.00    +0.000 A 
ENDBRANCH   5  18
BRANCH   4  24
ATOM     24  C   UNL     1       6.809  33.411  81.896  0.00  0.00    +0.000 C 
ATOM     25  O   UNL     1       7.379  33.654  82.956  0.00  0.00    +0.000 OA
ATOM     26  O   UNL     1       6.182  32.237  81.720  0.00  0.00    +0.000 OA
ENDBRANCH   4  24
BRANCH   7  27
ATOM     27  C   UNL     1       4.047  35.257  78.249  0.00  0.00    +0.000 C 
ATOM     28  O   UNL     1       3.818  36.000  77.299  0.00  0.00    +0.000 OA
ATOM     29  O   UNL     1       3.123  34.388  78.699  0.00  0.00    +0.000 OA
ENDBRANCH   7  27
BRANCH   4  30
ATOM     30  C   UNL     1       7.496  35.739  81.167  0.00  0.00    +0.000 C 
BRANCH  30  31
ATOM     31  C   UNL     1       8.677  36.243  80.334  0.00  0.00    +0.000 C 
BRANCH  31  32
ATOM     32  C   UNL     1       8.406  37.591  79.666  0.00  0.00    +0.000 C 
ATOM     33  C   UNL     1       8.672  37.493  78.170  0.00  0.00    +0.000 C 
ENDBRANCH  31  32
ENDBRANCH  30  31
ENDBRANCH   4  30
TORSDOF 8
ENDMDL
MODEL 8
REMARK VINA RESULT:      -6.6      2.261      3.012
REMARK  Name = 
REMARK  9 active torsions:
REMARK  status: ('A' for Active; 'I' for Inactive)
REMARK    1  A    between atoms: C_2  and  C_5
REMARK    2  A    between atoms: C_10  and  C_11
REMARK    3  A    between atoms: C_14  and  C_16
REMARK    4  A    between atoms: C_14  and  C_18
REMARK    5  A    between atoms: C_15  and  C_19
REMARK    6  A    between atoms: C_18  and  C_23
REMARK    7  A    between atoms: C_20  and  C_26
REMARK    8  A    between atoms: C_23  and  C_27
REMARK    9  A    between atoms: C_27  and  C_32
REMARK                            x       y       z     vdW  Elec       q    Type
REMARK                         _______ _______ _______ _____ _____    ______ ____
ROOT
ATOM      1  C   UNL     1       6.852  32.181  80.331  0.00  0.00    +0.000 C 
ATOM      2  O   UNL     1       6.814  31.326  81.223  0.00  0.00    +0.000 OA
ATOM      3  N   UNL     1       5.862  33.180  80.265  0.00  0.00    +0.000 N 
ATOM      4  C   UNL     1       4.926  33.444  81.422  0.00  0.00    +0.000 C 
ATOM      5  C   UNL     1       5.857  34.364  79.358  0.00  0.00    +0.000 C 
ATOM      6  C   UNL     1       3.870  34.351  80.721  0.00  0.00    +0.000 C 
ATOM      7  C   UNL     1       4.675  35.240  79.792  0.00  0.00    +0.000 C 
ENDROOT
BRANCH   1  13
ATOM      8  C   UNL     1       9.679  31.887  77.091  0.00  0.00    +0.000 A 
ATOM      9  C   UNL     1       8.576  31.025  77.153  0.00  0.00    +0.000 A 
ATOM     10  C   UNL     1       9.928  32.727  78.177  0.00  0.00    +0.000 A 
ATOM     11  C   UNL     1       7.684  31.095  78.237  0.00  0.00    +0.000 A 
ATOM     12  C   UNL     1       9.108  32.702  79.303  0.00  0.00    +0.000 A 
ATOM     13  C   UNL     1       7.909  31.998  79.291  0.00  0.00    +0.000 A 
BRANCH   8  15
ATOM     14  F   UNL     1      10.350  32.945  75.038  0.00  0.00    +0.000 F 
ATOM     15  C   UNL     1      10.622  31.942  75.914  0.00  0.00    +0.000 C 
ATOM     16  F   UNL     1      10.592  30.790  75.185  0.00  0.00    +0.000 F 
ATOM     17  F   UNL     1      11.920  32.106  76.291  0.00  0.00    +0.000 F 
ENDBRANCH   8  15
ENDBRANCH   1  13
BRANCH   5  18
ATOM     18  C   UNL     1       5.942  34.113  77.869  0.00  0.00    +0.000 A 
ATOM     19  C   UNL     1       5.095  33.241  77.174  0.00  0.00    +0.000 A 
ATOM     20  C   UNL     1       6.973  34.766  77.159  0.00  0.00    +0.000 A 
ATOM     21  C   UNL     1       5.291  33.024  75.808  0.00  0.00    +0.000 A 
ATOM     22  C   UNL     1       7.179  34.524  75.803  0.00  0.00    +0.000 A 
ATOM     23  C   UNL     1       6.335  33.650  75.130  0.00  0.00    +0.000 A 
ENDBRANCH   5  18
BRANCH   4  24
ATOM     24  C   UNL     1       4.054  32.331  82.082  0.00  0.00    +0.000 C 
ATOM     25  O   UNL     1       3.070  31.854  81.523  0.00  0.00    +0.000 OA
ATOM     26  O   UNL     1       4.361  31.964  83.337  0.00  0.00    +0.000 OA
ENDBRANCH   4  24
BRANCH   7  27
ATOM     27  C   UNL     1       3.869  35.939  78.723  0.00  0.00    +0.000 C 
ATOM     28  O   UNL     1       4.262  36.974  78.192  0.00  0.00    +0.000 OA
ATOM     29  O   UNL     1       2.695  35.376  78.383  0.00  0.00    +0.000 OA
ENDBRANCH   7  27
BRANCH   4  30
ATOM     30  C   UNL     1       5.622  34.263  82.566  0.00  0.00    +0.000 C 
BRANCH  30  31
ATOM     31  C   UNL     1       4.742  35.327  83.226  0.00  0.00    +0.000 C 
BRANCH  31  32
ATOM     32  C   UNL     1       5.397  36.708  83.260  0.00  0.00    +0.000 C 
ATOM     33  C   UNL     1       6.754  36.658  82.571  0.00  0.00    +0.000 C 
ENDBRANCH  31  32
ENDBRANCH  30  31
ENDBRANCH   4  30
TORSDOF 8
ENDMDL
MODEL 9
REMARK VINA RESULT:      -6.5      2.553      4.083
REMARK  Name = 
REMARK  9 active torsions:
REMARK  status: ('A' for Active; 'I' for Inactive)
REMARK    1  A    between atoms: C_2  and  C_5
REMARK    2  A    between atoms: C_10  and  C_11
REMARK    3  A    between atoms: C_14  and  C_16
REMARK    4  A    between atoms: C_14  and  C_18
REMARK    5  A    between atoms: C_15  and  C_19
REMARK    6  A    between atoms: C_18  and  C_23
REMARK    7  A    between atoms: C_20  and  C_26
REMARK    8  A    between atoms: C_23  and  C_27
REMARK    9  A    between atoms: C_27  and  C_32
REMARK                            x       y       z     vdW  Elec       q    Type
REMARK                         _______ _______ _______ _____ _____    ______ ____
ROOT
ATOM      1  C   UNL     1       7.980  34.857  79.252  0.00  0.00    +0.000 C 
ATOM      2  O   UNL     1       8.478  35.676  80.032  0.00  0.00    +0.000 OA
ATOM      3  N   UNL     1       6.628  34.488  79.383  0.00  0.00    +0.000 N 
ATOM      4  C   UNL     1       5.670  35.282  80.240  0.00  0.00    +0.000 C 
ATOM      5  C   UNL     1       5.843  33.645  78.435  0.00  0.00    +0.000 C 
ATOM      6  C   UNL     1       4.470  34.289  80.306  0.00  0.00    +0.000 C 
ATOM      7  C   UNL     1       4.389  33.684  78.917  0.00  0.00    +0.000 C 
ENDROOT
BRANCH   1  13
ATOM      8  C   UNL     1      10.431  32.697  76.440  0.00  0.00    +0.000 A 
ATOM      9  C   UNL     1      10.512  32.423  77.812  0.00  0.00    +0.000 A 
ATOM     10  C   UNL     1       9.664  33.787  76.025  0.00  0.00    +0.000 A 
ATOM     11  C   UNL     1       9.744  33.163  78.727  0.00  0.00    +0.000 A 
ATOM     12  C   UNL     1       9.005  34.593  76.951  0.00  0.00    +0.000 A 
ATOM     13  C   UNL     1       8.921  34.213  78.286  0.00  0.00    +0.000 A 
BRANCH   8  15
ATOM     14  F   UNL     1      12.414  31.535  75.729  0.00  0.00    +0.000 F 
ATOM     15  C   UNL     1      11.144  31.883  75.390  0.00  0.00    +0.000 C 
ATOM     16  F   UNL     1      11.243  32.554  74.207  0.00  0.00    +0.000 F 
ATOM     17  F   UNL     1      10.495  30.721  75.100  0.00  0.00    +0.000 F 
ENDBRANCH   8  15
ENDBRANCH   1  13
BRANCH   5  18
ATOM     18  C   UNL     1       6.367  32.261  78.122  0.00  0.00    +0.000 A 
ATOM     19  C   UNL     1       6.765  31.338  79.097  0.00  0.00    +0.000 A 
ATOM     20  C   UNL     1       6.501  31.910  76.762  0.00  0.00    +0.000 A 
ATOM     21  C   UNL     1       7.297  30.105  78.710  0.00  0.00    +0.000 A 
ATOM     22  C   UNL     1       7.056  30.690  76.383  0.00  0.00    +0.000 A 
ATOM     23  C   UNL     1       7.455  29.789  77.363  0.00  0.00    +0.000 A 
ENDBRANCH   5  18
BRANCH   4  24
ATOM     24  C   UNL     1       5.942  35.608  81.743  0.00  0.00    +0.000 C 
ATOM     25  O   UNL     1       5.940  36.759  82.172  0.00  0.00    +0.000 OA
ATOM     26  O   UNL     1       6.273  34.587  82.549  0.00  0.00    +0.000 OA
ENDBRANCH   4  24
BRANCH   7  27
ATOM     27  C   UNL     1       3.565  32.422  78.821  0.00  0.00    +0.000 C 
ATOM     28  O   UNL     1       3.390  31.690  79.792  0.00  0.00    +0.000 OA
ATOM     29  O   UNL     1       3.035  32.132  77.619  0.00  0.00    +0.000 OA
ENDBRANCH   7  27
BRANCH   4  30
ATOM     30  C   UNL     1       5.201  36.601  79.531  0.00  0.00    +0.000 C 
BRANCH  30  31
ATOM     31  C   UNL     1       5.620  36.731  78.065  0.00  0.00    +0.000 C 
BRANCH  31  32
ATOM     32  C   UNL     1       6.564  37.907  77.814  0.00  0.00    +0.000 C 
ATOM     33  C   UNL     1       6.989  38.525  79.139  0.00  0.00    +0.000 C 
ENDBRANCH  31  32
ENDBRANCH  30  31
ENDBRANCH   4  30
TORSDOF 8
ENDMDL
