MODEL 1
REMARK VINA RESULT:      -7.9      0.000      0.000
REMARK  Name = 
REMARK  9 active torsions:
REMARK  status: ('A' for Active; 'I' for Inactive)
REMARK    1  A    between atoms: C_2  and  C_5
REMARK    2  A    between atoms: C_10  and  C_11
REMARK    3  A    between atoms: C_14  and  C_16
REMARK    4  A    between atoms: C_14  and  C_18
REMARK    5  A    between atoms: C_15  and  C_19
REMARK    6  A    between atoms: C_18  and  C_23
REMARK    7  A    between atoms: C_20  and  C_26
REMARK    8  A    between atoms: C_23  and  C_27
REMARK    9  A    between atoms: C_27  and  N_32
REMARK                            x       y       z     vdW  Elec       q    Type
REMARK                         _______ _______ _______ _____ _____    ______ ____
ROOT
ATOM      1  C   UNL     1       7.198  32.194  76.879  0.00  0.00    +0.000 C 
ATOM      2  O   UNL     1       6.229  32.287  76.160  0.00  0.00    +0.000 OA
ATOM      3  N   UNL     1       7.074  31.923  78.289  0.00  0.00    +0.000 N 
ATOM      4  C   UNL     1       8.117  32.085  79.360  0.00  0.00    +0.000 C 
ATOM      5  C   UNL     1       5.722  32.180  78.917  0.00  0.00    +0.000 C 
ATOM      6  C   UNL     1       7.358  31.558  80.600  0.00  0.00    +0.000 C 
ATOM      7  C   UNL     1       5.938  32.052  80.450  0.00  0.00    +0.000 C 
ENDROOT
BRANCH   1  13
ATOM      8  C   UNL     1      11.265  32.984  75.503  0.00  0.00    +0.000 A 
ATOM      9  C   UNL     1      10.347  34.024  75.743  0.00  0.00    +0.000 A 
ATOM     10  C   UNL     1      10.841  31.694  75.678  0.00  0.00    +0.000 A 
ATOM     11  C   UNL     1       9.005  33.779  76.117  0.00  0.00    +0.000 A 
ATOM     12  C   UNL     1       9.510  31.498  75.975  0.00  0.00    +0.000 A 
ATOM     13  C   UNL     1       8.546  32.463  76.228  0.00  0.00    +0.000 A 
BRANCH   8  15
ATOM     14  F   UNL     1      13.445  32.077  75.242  0.00  0.00    +0.000 F 
ATOM     15  C   UNL     1      12.686  33.200  75.096  0.00  0.00    +0.000 C 
ATOM     16  F   UNL     1      13.279  34.160  75.856  0.00  0.00    +0.000 F 
ATOM     17  F   UNL     1      12.829  33.599  73.805  0.00  0.00    +0.000 F 
ENDBRANCH   8  15
ENDBRANCH   1  13
BRANCH   5  18
ATOM     18  C   UNL     1       4.579  31.323  78.441  0.00  0.00    +0.000 A 
ATOM     19  C   UNL     1       3.326  31.878  78.163  0.00  0.00    +0.000 A 
ATOM     20  C   UNL     1       4.821  29.978  78.093  0.00  0.00    +0.000 A 
ATOM     21  C   UNL     1       2.375  31.154  77.451  0.00  0.00    +0.000 A 
ATOM     22  C   UNL     1       3.862  29.249  77.392  0.00  0.00    +0.000 A 
ATOM     23  C   UNL     1       2.651  29.849  77.050  0.00  0.00    +0.000 A 
ENDBRANCH   5  18
BRANCH   4  24
ATOM     24  C   UNL     1       9.305  31.032  79.472  0.00  0.00    +0.000 C 
ATOM     25  O   UNL     1      10.490  31.332  79.436  0.00  0.00    +0.000 OA
ATOM     26  O   UNL     1       8.925  29.722  79.579  0.00  0.00    +0.000 OA
ENDBRANCH   4  24
BRANCH   7  27
ATOM     27  C   UNL     1       4.989  31.221  81.308  0.00  0.00    +0.000 C 
ATOM     28  O   UNL     1       4.015  31.711  81.850  0.00  0.00    +0.000 OA
ATOM     29  O   UNL     1       5.323  29.926  81.523  0.00  0.00    +0.000 OA
ENDBRANCH   7  27
BRANCH   4  30
ATOM     30  C   UNL     1       8.470  33.637  79.609  0.00  0.00    +0.000 C 
BRANCH  30  31
ATOM     31  C   UNL     1       9.058  33.956  81.025  0.00  0.00    +0.000 C 
BRANCH  31  32
ATOM     32  C   UNL     1       9.452  35.296  81.559  0.00  0.00    +0.000 C 
BRANCH  32  33
ATOM     33  N   UNL     1      10.561  35.154  82.471  0.00  0.00    +0.000 N 
ATOM     34  H   UNL     1      10.914  36.078  82.723  0.00  0.00    +0.000 HD
ATOM     35  H   UNL     1      11.303  34.617  82.022  0.00  0.00    +0.000 HD
ATOM     36  H   UNL     1      10.250  34.667  83.312  0.00  0.00    +0.000 HD
ENDBRANCH  32  33
ENDBRANCH  31  32
ENDBRANCH  30  31
ENDBRANCH   4  30
TORSDOF 9
ENDMDL
MODEL 2
REMARK VINA RESULT:      -7.9      0.643      1.604
REMARK  Name = 
REMARK  9 active torsions:
REMARK  status: ('A' for Active; 'I' for Inactive)
REMARK    1  A    between atoms: C_2  and  C_5
REMARK    2  A    between atoms: C_10  and  C_11
REMARK    3  A    between atoms: C_14  and  C_16
REMARK    4  A    between atoms: C_14  and  C_18
REMARK    5  A    between atoms: C_15  and  C_19
REMARK    6  A    between atoms: C_18  and  C_23
REMARK    7  A    between atoms: C_20  and  C_26
REMARK    8  A    between atoms: C_23  and  C_27
REMARK    9  A    between atoms: C_27  and  N_32
REMARK                            x       y       z     vdW  Elec       q    Type
REMARK                         _______ _______ _______ _____ _____    ______ ____
ROOT
ATOM      1  C   UNL     1       7.293  32.298  76.992  0.00  0.00    +0.000 C 
ATOM      2  O   UNL     1       6.438  32.609  76.194  0.00  0.00    +0.000 OA
ATOM      3  N   UNL     1       6.965  31.854  78.322  0.00  0.00    +0.000 N 
ATOM      4  C   UNL     1       7.877  31.736  79.512  0.00  0.00    +0.000 C 
ATOM      5  C   UNL     1       5.581  32.189  78.832  0.00  0.00    +0.000 C 
ATOM      6  C   UNL     1       6.916  31.142  80.569  0.00  0.00    +0.000 C 
ATOM      7  C   UNL     1       5.588  31.825  80.342  0.00  0.00    +0.000 C 
ENDROOT
BRANCH   1  13
ATOM      8  C   UNL     1      11.236  32.845  75.197  0.00  0.00    +0.000 A 
ATOM      9  C   UNL     1      10.710  31.565  75.460  0.00  0.00    +0.000 A 
ATOM     10  C   UNL     1      10.489  33.936  75.554  0.00  0.00    +0.000 A 
ATOM     11  C   UNL     1       9.468  31.375  76.109  0.00  0.00    +0.000 A 
ATOM     12  C   UNL     1       9.318  33.707  76.243  0.00  0.00    +0.000 A 
ATOM     13  C   UNL     1       8.733  32.484  76.539  0.00  0.00    +0.000 A 
BRANCH   8  15
ATOM     14  F   UNL     1      12.530  34.202  73.740  0.00  0.00    +0.000 F 
ATOM     15  C   UNL     1      12.547  33.089  74.526  0.00  0.00    +0.000 C 
ATOM     16  F   UNL     1      12.887  32.054  73.711  0.00  0.00    +0.000 F 
ATOM     17  F   UNL     1      13.583  33.242  75.392  0.00  0.00    +0.000 F 
ENDBRANCH   8  15
ENDBRANCH   1  13
BRANCH   5  18
ATOM     18  C   UNL     1       4.420  31.554  78.111  0.00  0.00    +0.000 A 
ATOM     19  C   UNL     1       4.489  30.236  77.650  0.00  0.00    +0.000 A 
ATOM     20  C   UNL     1       3.183  32.229  78.063  0.00  0.00    +0.000 A 
ATOM     21  C   UNL     1       3.336  29.563  77.259  0.00  0.00    +0.000 A 
ATOM     22  C   UNL     1       2.031  31.558  77.657  0.00  0.00    +0.000 A 
ATOM     23  C   UNL     1       2.108  30.218  77.282  0.00  0.00    +0.000 A 
ENDBRANCH   5  18
BRANCH   4  24
ATOM     24  C   UNL     1       8.921  30.538  79.592  0.00  0.00    +0.000 C 
ATOM     25  O   UNL     1       8.608  29.355  79.578  0.00  0.00    +0.000 OA
ATOM     26  O   UNL     1      10.233  30.904  79.719  0.00  0.00    +0.000 OA
ENDBRANCH   4  24
BRANCH   7  27
ATOM     27  C   UNL     1       4.455  31.008  80.957  0.00  0.00    +0.000 C 
ATOM     28  O   UNL     1       3.489  31.537  81.475  0.00  0.00    +0.000 OA
ATOM     29  O   UNL     1       4.608  29.664  80.987  0.00  0.00    +0.000 OA
ENDBRANCH   7  27
BRANCH   4  30
ATOM     30  C   UNL     1       8.360  33.182  80.030  0.00  0.00    +0.000 C 
BRANCH  30  31
ATOM     31  C   UNL     1       8.644  33.266  81.567  0.00  0.00    +0.000 C 
BRANCH  31  32
ATOM     32  C   UNL     1       8.952  34.495  82.364  0.00  0.00    +0.000 C 
BRANCH  32  33
ATOM     33  N   UNL     1      10.329  34.877  82.163  0.00  0.00    +0.000 N 
ATOM     34  H   UNL     1      10.409  35.419  81.302  0.00  0.00    +0.000 HD
ATOM     35  H   UNL     1      10.907  34.039  82.091  0.00  0.00    +0.000 HD
ATOM     36  H   UNL     1      10.644  35.441  82.951  0.00  0.00    +0.000 HD
ENDBRANCH  32  33
ENDBRANCH  31  32
ENDBRANCH  30  31
ENDBRANCH   4  30
TORSDOF 9
ENDMDL
MODEL 3
REMARK VINA RESULT:      -7.6      2.854      5.465
REMARK  Name = 
REMARK  9 active torsions:
REMARK  status: ('A' for Active; 'I' for Inactive)
REMARK    1  A    between atoms: C_2  and  C_5
REMARK    2  A    between atoms: C_10  and  C_11
REMARK    3  A    between atoms: C_14  and  C_16
REMARK    4  A    between atoms: C_14  and  C_18
REMARK    5  A    between atoms: C_15  and  C_19
REMARK    6  A    between atoms: C_18  and  C_23
REMARK    7  A    between atoms: C_20  and  C_26
REMARK    8  A    between atoms: C_23  and  C_27
REMARK    9  A    between atoms: C_27  and  N_32
REMARK                            x       y       z     vdW  Elec       q    Type
REMARK                         _______ _______ _______ _____ _____    ______ ____
ROOT
ATOM      1  C   UNL     1       8.457  34.429  77.534  0.00  0.00    +0.000 C 
ATOM      2  O   UNL     1       9.045  35.095  78.355  0.00  0.00    +0.000 OA
ATOM      3  N   UNL     1       7.021  34.317  77.534  0.00  0.00    +0.000 N 
ATOM      4  C   UNL     1       6.168  33.312  76.811  0.00  0.00    +0.000 C 
ATOM      5  C   UNL     1       6.306  34.694  78.813  0.00  0.00    +0.000 C 
ATOM      6  C   UNL     1       4.748  33.802  77.179  0.00  0.00    +0.000 C 
ATOM      7  C   UNL     1       4.831  34.248  78.621  0.00  0.00    +0.000 C 
ENDROOT
BRANCH   1  13
ATOM      8  C   UNL     1      11.317  32.194  75.107  0.00  0.00    +0.000 A 
ATOM      9  C   UNL     1      11.231  33.598  75.049  0.00  0.00    +0.000 A 
ATOM     10  C   UNL     1      10.446  31.526  75.928  0.00  0.00    +0.000 A 
ATOM     11  C   UNL     1      10.259  34.328  75.773  0.00  0.00    +0.000 A 
ATOM     12  C   UNL     1       9.475  32.269  76.561  0.00  0.00    +0.000 A 
ATOM     13  C   UNL     1       9.323  33.648  76.557  0.00  0.00    +0.000 A 
BRANCH   8  15
ATOM     14  F   UNL     1      12.710  31.991  73.194  0.00  0.00    +0.000 F 
ATOM     15  C   UNL     1      12.318  31.385  74.351  0.00  0.00    +0.000 C 
ATOM     16  F   UNL     1      11.810  30.175  73.993  0.00  0.00    +0.000 F 
ATOM     17  F   UNL     1      13.451  31.124  75.054  0.00  0.00    +0.000 F 
ENDBRANCH   8  15
ENDBRANCH   1  13
BRANCH   5  18
ATOM     18  C   UNL     1       6.402  36.135  79.244  0.00  0.00    +0.000 A 
ATOM     19  C   UNL     1       6.686  36.475  80.571  0.00  0.00    +0.000 A 
ATOM     20  C   UNL     1       6.390  37.151  78.267  0.00  0.00    +0.000 A 
ATOM     21  C   UNL     1       7.064  37.772  80.901  0.00  0.00    +0.000 A 
ATOM     22  C   UNL     1       6.756  38.454  78.603  0.00  0.00    +0.000 A 
ATOM     23  C   UNL     1       7.117  38.754  79.915  0.00  0.00    +0.000 A 
ENDBRANCH   5  18
BRANCH   4  24
ATOM     24  C   UNL     1       5.951  33.443  75.240  0.00  0.00    +0.000 C 
ATOM     25  O   UNL     1       6.356  34.383  74.569  0.00  0.00    +0.000 OA
ATOM     26  O   UNL     1       5.232  32.437  74.656  0.00  0.00    +0.000 OA
ENDBRANCH   4  24
BRANCH   7  27
ATOM     27  C   UNL     1       3.678  35.189  78.957  0.00  0.00    +0.000 C 
ATOM     28  O   UNL     1       3.202  35.249  80.076  0.00  0.00    +0.000 OA
ATOM     29  O   UNL     1       3.136  35.893  77.935  0.00  0.00    +0.000 OA
ENDBRANCH   7  27
BRANCH   4  30
ATOM     30  C   UNL     1       6.360  31.832  77.416  0.00  0.00    +0.000 C 
BRANCH  30  31
ATOM     31  C   UNL     1       5.051  30.977  77.486  0.00  0.00    +0.000 C 
BRANCH  31  32
ATOM     32  C   UNL     1       4.774  29.688  76.779  0.00  0.00    +0.000 C 
BRANCH  32  33
ATOM     33  N   UNL     1       4.029  28.805  77.644  0.00  0.00    +0.000 N 
ATOM     34  H   UNL     1       3.222  29.302  78.023  0.00  0.00    +0.000 HD
ATOM     35  H   UNL     1       4.627  28.495  78.409  0.00  0.00    +0.000 HD
ATOM     36  H   UNL     1       3.710  27.996  77.111  0.00  0.00    +0.000 HD
ENDBRANCH  32  33
ENDBRANCH  31  32
ENDBRANCH  30  31
ENDBRANCH   4  30
TORSDOF 9
ENDMDL
MODEL 4
REMARK VINA RESULT:      -7.1      3.361      5.341
REMARK  Name = 
REMARK  9 active torsions:
REMARK  status: ('A' for Active; 'I' for Inactive)
REMARK    1  A    between atoms: C_2  and  C_5
REMARK    2  A    between atoms: C_10  and  C_11
REMARK    3  A    between atoms: C_14  and  C_16
REMARK    4  A    between atoms: C_14  and  C_18
REMARK    5  A    between atoms: C_15  and  C_19
REMARK    6  A    between atoms: C_18  and  C_23
REMARK    7  A    between atoms: C_20  and  C_26
REMARK    8  A    between atoms: C_23  and  C_27
REMARK    9  A    between atoms: C_27  and  N_32
REMARK                            x       y       z     vdW  Elec       q    Type
REMARK                         _______ _______ _______ _____ _____    ______ ____
ROOT
ATOM      1  C   UNL     1       5.565  34.156  79.804  0.00  0.00    +0.000 C 
ATOM      2  O   UNL     1       4.781  33.868  80.680  0.00  0.00    +0.000 OA
ATOM      3  N   UNL     1       5.756  33.317  78.649  0.00  0.00    +0.000 N 
ATOM      4  C   UNL     1       6.880  33.352  77.652  0.00  0.00    +0.000 C 
ATOM      5  C   UNL     1       5.281  31.885  78.760  0.00  0.00    +0.000 C 
ATOM      6  C   UNL     1       6.433  32.258  76.655  0.00  0.00    +0.000 C 
ATOM      7  C   UNL     1       5.828  31.160  77.499  0.00  0.00    +0.000 C 
ENDROOT
BRANCH   1  13
ATOM      8  C   UNL     1       8.228  37.609  80.031  0.00  0.00    +0.000 A 
ATOM      9  C   UNL     1       8.515  36.405  80.701  0.00  0.00    +0.000 A 
ATOM     10  C   UNL     1       7.058  37.692  79.322  0.00  0.00    +0.000 A 
ATOM     11  C   UNL     1       7.625  35.305  80.697  0.00  0.00    +0.000 A 
ATOM     12  C   UNL     1       6.191  36.625  79.401  0.00  0.00    +0.000 A 
ATOM     13  C   UNL     1       6.398  35.408  80.035  0.00  0.00    +0.000 A 
BRANCH   8  15
ATOM     14  F   UNL     1       9.769  38.954  78.824  0.00  0.00    +0.000 F 
ATOM     15  C   UNL     1       9.133  38.796  80.019  0.00  0.00    +0.000 C 
ATOM     16  F   UNL     1      10.112  38.683  80.958  0.00  0.00    +0.000 F 
ATOM     17  F   UNL     1       8.498  39.969  80.278  0.00  0.00    +0.000 F 
ENDBRANCH   8  15
ENDBRANCH   1  13
BRANCH   5  18
ATOM     18  C   UNL     1       3.799  31.672  78.927  0.00  0.00    +0.000 A 
ATOM     19  C   UNL     1       2.881  32.261  78.052  0.00  0.00    +0.000 A 
ATOM     20  C   UNL     1       3.338  30.720  79.860  0.00  0.00    +0.000 A 
ATOM     21  C   UNL     1       1.558  31.831  78.023  0.00  0.00    +0.000 A 
ATOM     22  C   UNL     1       2.008  30.302  79.839  0.00  0.00    +0.000 A 
ATOM     23  C   UNL     1       1.129  30.841  78.902  0.00  0.00    +0.000 A 
ENDBRANCH   5  18
BRANCH   4  24
ATOM     24  C   UNL     1       6.935  34.511  76.562  0.00  0.00    +0.000 C 
ATOM     25  O   UNL     1       6.097  34.665  75.685  0.00  0.00    +0.000 OA
ATOM     26  O   UNL     1       8.022  35.337  76.632  0.00  0.00    +0.000 OA
ENDBRANCH   4  24
BRANCH   7  27
ATOM     27  C   UNL     1       4.922  30.272  76.652  0.00  0.00    +0.000 C 
ATOM     28  O   UNL     1       4.653  29.130  76.977  0.00  0.00    +0.000 OA
ATOM     29  O   UNL     1       4.498  30.772  75.467  0.00  0.00    +0.000 OA
ENDBRANCH   7  27
BRANCH   4  30
ATOM     30  C   UNL     1       8.272  32.887  78.316  0.00  0.00    +0.000 C 
BRANCH  30  31
ATOM     31  C   UNL     1       9.235  32.118  77.350  0.00  0.00    +0.000 C 
BRANCH  31  32
ATOM     32  C   UNL     1      10.432  32.667  76.641  0.00  0.00    +0.000 C 
BRANCH  32  33
ATOM     33  N   UNL     1      11.625  32.382  77.400  0.00  0.00    +0.000 N 
ATOM     34  H   UNL     1      12.122  31.601  76.970  0.00  0.00    +0.000 HD
ATOM     35  H   UNL     1      11.369  32.136  78.356  0.00  0.00    +0.000 HD
ATOM     36  H   UNL     1      12.228  33.204  77.410  0.00  0.00    +0.000 HD
ENDBRANCH  32  33
ENDBRANCH  31  32
ENDBRANCH  30  31
ENDBRANCH   4  30
TORSDOF 9
ENDMDL
MODEL 5
REMARK VINA RESULT:      -6.9      4.678      6.800
REMARK  Name = 
REMARK  9 active torsions:
REMARK  status: ('A' for Active; 'I' for Inactive)
REMARK    1  A    between atoms: C_2  and  C_5
REMARK    2  A    between atoms: C_10  and  C_11
REMARK    3  A    between atoms: C_14  and  C_16
REMARK    4  A    between atoms: C_14  and  C_18
REMARK    5  A    between atoms: C_15  and  C_19
REMARK    6  A    between atoms: C_18  and  C_23
REMARK    7  A    between atoms: C_20  and  C_26
REMARK    8  A    between atoms: C_23  and  C_27
REMARK    9  A    between atoms: C_27  and  N_32
REMARK                            x       y       z     vdW  Elec       q    Type
REMARK                         _______ _______ _______ _____ _____    ______ ____
ROOT
ATOM      1  C   UNL     1       8.608  35.943  78.073  0.00  0.00    +0.000 C 
ATOM      2  O   UNL     1       8.746  35.890  76.872  0.00  0.00    +0.000 OA
ATOM      3  N   UNL     1       8.675  34.765  78.899  0.00  0.00    +0.000 N 
ATOM      4  C   UNL     1       8.224  34.603  80.323  0.00  0.00    +0.000 C 
ATOM      5  C   UNL     1       8.497  33.433  78.203  0.00  0.00    +0.000 C 
ATOM      6  C   UNL     1       8.647  33.143  80.609  0.00  0.00    +0.000 C 
ATOM      7  C   UNL     1       8.363  32.380  79.337  0.00  0.00    +0.000 C 
ENDROOT
BRANCH   1  13
ATOM      8  C   UNL     1       7.559  39.617  80.188  0.00  0.00    +0.000 A 
ATOM      9  C   UNL     1       6.598  38.863  79.488  0.00  0.00    +0.000 A 
ATOM     10  C   UNL     1       8.860  39.188  80.164  0.00  0.00    +0.000 A 
ATOM     11  C   UNL     1       6.938  37.713  78.737  0.00  0.00    +0.000 A 
ATOM     12  C   UNL     1       9.157  38.105  79.367  0.00  0.00    +0.000 A 
ATOM     13  C   UNL     1       8.274  37.311  78.650  0.00  0.00    +0.000 A 
BRANCH   8  15
ATOM     14  F   UNL     1       6.760  41.853  80.209  0.00  0.00    +0.000 F 
ATOM     15  C   UNL     1       7.245  40.841  80.983  0.00  0.00    +0.000 C 
ATOM     16  F   UNL     1       8.356  41.332  81.597  0.00  0.00    +0.000 F 
ATOM     17  F   UNL     1       6.332  40.633  81.967  0.00  0.00    +0.000 F 
ENDBRANCH   8  15
ENDBRANCH   1  13
BRANCH   5  18
ATOM     18  C   UNL     1       9.553  33.044  77.201  0.00  0.00    +0.000 A 
ATOM     19  C   UNL     1      10.888  33.422  77.375  0.00  0.00    +0.000 A 
ATOM     20  C   UNL     1       9.230  32.132  76.175  0.00  0.00    +0.000 A 
ATOM     21  C   UNL     1      11.894  32.821  76.626  0.00  0.00    +0.000 A 
ATOM     22  C   UNL     1      10.239  31.542  75.415  0.00  0.00    +0.000 A 
ATOM     23  C   UNL     1      11.571  31.870  75.662  0.00  0.00    +0.000 A 
ENDBRANCH   5  18
BRANCH   4  24
ATOM     24  C   UNL     1       9.090  35.227  81.503  0.00  0.00    +0.000 C 
ATOM     25  O   UNL     1       8.769  36.224  82.134  0.00  0.00    +0.000 OA
ATOM     26  O   UNL     1      10.275  34.594  81.765  0.00  0.00    +0.000 OA
ENDBRANCH   4  24
BRANCH   7  27
ATOM     27  C   UNL     1       9.167  31.084  79.300  0.00  0.00    +0.000 C 
ATOM     28  O   UNL     1       8.714  30.059  78.825  0.00  0.00    +0.000 OA
ATOM     29  O   UNL     1      10.378  31.090  79.905  0.00  0.00    +0.000 OA
ENDBRANCH   7  27
BRANCH   4  30
ATOM     30  C   UNL     1       6.620  34.694  80.448  0.00  0.00    +0.000 C 
BRANCH  30  31
ATOM     31  C   UNL     1       6.025  34.037  81.738  0.00  0.00    +0.000 C 
BRANCH  31  32
ATOM     32  C   UNL     1       5.319  34.729  82.861  0.00  0.00    +0.000 C 
BRANCH  32  33
ATOM     33  N   UNL     1       6.276  35.426  83.686  0.00  0.00    +0.000 N 
ATOM     34  H   UNL     1       5.904  36.343  83.937  0.00  0.00    +0.000 HD
ATOM     35  H   UNL     1       7.148  35.544  83.170  0.00  0.00    +0.000 HD
ATOM     36  H   UNL     1       6.452  34.887  84.533  0.00  0.00    +0.000 HD
ENDBRANCH  32  33
ENDBRANCH  31  32
ENDBRANCH  30  31
ENDBRANCH   4  30
TORSDOF 9
ENDMDL
MODEL 6
REMARK VINA RESULT:      -6.8      2.114      2.770
REMARK  Name = 
REMARK  9 active torsions:
REMARK  status: ('A' for Active; 'I' for Inactive)
REMARK    1  A    between atoms: C_2  and  C_5
REMARK    2  A    between atoms: C_10  and  C_11
REMARK    3  A    between atoms: C_14  and  C_16
REMARK    4  A    between atoms: C_14  and  C_18
REMARK    5  A    between atoms: C_15  and  C_19
REMARK    6  A    between atoms: C_18  and  C_23
REMARK    7  A    between atoms: C_20  and  C_26
REMARK    8  A    between atoms: C_23  and  C_27
REMARK    9  A    between atoms: C_27  and  N_32
REMARK                            x       y       z     vdW  Elec       q    Type
REMARK                         _______ _______ _______ _____ _____    ______ ____
ROOT
ATOM      1  C   UNL     1       7.298  32.533  76.938  0.00  0.00    +0.000 C 
ATOM      2  O   UNL     1       6.554  31.891  76.233  0.00  0.00    +0.000 OA
ATOM      3  N   UNL     1       6.827  33.224  78.111  0.00  0.00    +0.000 N 
ATOM      4  C   UNL     1       7.525  34.296  78.900  0.00  0.00    +0.000 C 
ATOM      5  C   UNL     1       5.339  33.479  78.201  0.00  0.00    +0.000 C 
ATOM      6  C   UNL     1       6.514  34.534  80.045  0.00  0.00    +0.000 C 
ATOM      7  C   UNL     1       5.146  34.437  79.408  0.00  0.00    +0.000 C 
ENDROOT
BRANCH   1  13
ATOM      8  C   UNL     1      11.252  32.775  75.099  0.00  0.00    +0.000 A 
ATOM      9  C   UNL     1      10.720  31.556  75.559  0.00  0.00    +0.000 A 
ATOM     10  C   UNL     1      10.508  33.912  75.275  0.00  0.00    +0.000 A 
ATOM     11  C   UNL     1       9.473  31.475  76.223  0.00  0.00    +0.000 A 
ATOM     12  C   UNL     1       9.333  33.799  75.985  0.00  0.00    +0.000 A 
ATOM     13  C   UNL     1       8.742  32.641  76.468  0.00  0.00    +0.000 A 
BRANCH   8  15
ATOM     14  F   UNL     1      12.556  33.875  73.447  0.00  0.00    +0.000 F 
ATOM     15  C   UNL     1      12.567  32.906  74.404  0.00  0.00    +0.000 C 
ATOM     16  F   UNL     1      12.909  31.751  73.771  0.00  0.00    +0.000 F 
ATOM     17  F   UNL     1      13.598  33.197  75.239  0.00  0.00    +0.000 F 
ENDBRANCH   8  15
ENDBRANCH   1  13
BRANCH   5  18
ATOM     18  C   UNL     1       4.447  32.269  78.301  0.00  0.00    +0.000 A 
ATOM     19  C   UNL     1       3.271  32.173  77.551  0.00  0.00    +0.000 A 
ATOM     20  C   UNL     1       4.895  31.138  79.016  0.00  0.00    +0.000 A 
ATOM     21  C   UNL     1       2.617  30.953  77.418  0.00  0.00    +0.000 A 
ATOM     22  C   UNL     1       4.229  29.920  78.893  0.00  0.00    +0.000 A 
ATOM     23  C   UNL     1       3.107  29.825  78.072  0.00  0.00    +0.000 A 
ENDBRANCH   5  18
BRANCH   4  24
ATOM     24  C   UNL     1       8.730  33.910  79.865  0.00  0.00    +0.000 C 
ATOM     25  O   UNL     1       8.587  33.510  81.012  0.00  0.00    +0.000 OA
ATOM     26  O   UNL     1       9.984  34.086  79.346  0.00  0.00    +0.000 OA
ENDBRANCH   4  24
BRANCH   7  27
ATOM     27  C   UNL     1       4.083  34.160  80.466  0.00  0.00    +0.000 C 
ATOM     28  O   UNL     1       4.334  33.542  81.484  0.00  0.00    +0.000 OA
ATOM     29  O   UNL     1       2.817  34.551  80.188  0.00  0.00    +0.000 OA
ENDBRANCH   7  27
BRANCH   4  30
ATOM     30  C   UNL     1       7.656  35.661  78.054  0.00  0.00    +0.000 C 
BRANCH  30  31
ATOM     31  C   UNL     1       7.908  36.944  78.915  0.00  0.00    +0.000 C 
BRANCH  31  32
ATOM     32  C   UNL     1       7.045  38.163  78.994  0.00  0.00    +0.000 C 
BRANCH  32  33
ATOM     33  N   UNL     1       5.942  38.044  78.072  0.00  0.00    +0.000 N 
ATOM     34  H   UNL     1       5.067  37.982  78.595  0.00  0.00    +0.000 HD
ATOM     35  H   UNL     1       6.060  37.202  77.508  0.00  0.00    +0.000 HD
ATOM     36  H   UNL     1       5.917  38.861  77.463  0.00  0.00    +0.000 HD
ENDBRANCH  32  33
ENDBRANCH  31  32
ENDBRANCH  30  31
ENDBRANCH   4  30
TORSDOF 9
ENDMDL
MODEL 7
REMARK VINA RESULT:      -6.6      4.604      6.954
REMARK  Name = 
REMARK  9 active torsions:
REMARK  status: ('A' for Active; 'I' for Inactive)
REMARK    1  A    between atoms: C_2  and  C_5
REMARK    2  A    between atoms: C_10  and  C_11
REMARK    3  A    between atoms: C_14  and  C_16
REMARK    4  A    between atoms: C_14  and  C_18
REMARK    5  A    between atoms: C_15  and  C_19
REMARK    6  A    between atoms: C_18  and  C_23
REMARK    7  A    between atoms: C_20  and  C_26
REMARK    8  A    between atoms: C_23  and  C_27
REMARK    9  A    between atoms: C_27  and  N_32
REMARK                            x       y       z     vdW  Elec       q    Type
REMARK                         _______ _______ _______ _____ _____    ______ ____
ROOT
ATOM      1  C   UNL     1       6.028  36.230  78.504  0.00  0.00    +0.000 C 
ATOM      2  O   UNL     1       5.470  37.283  78.295  0.00  0.00    +0.000 OA
ATOM      3  N   UNL     1       7.117  36.119  79.440  0.00  0.00    +0.000 N 
ATOM      4  C   UNL     1       8.105  34.996  79.586  0.00  0.00    +0.000 C 
ATOM      5  C   UNL     1       7.817  37.403  79.828  0.00  0.00    +0.000 C 
ATOM      6  C   UNL     1       8.933  35.478  80.800  0.00  0.00    +0.000 C 
ATOM      7  C   UNL     1       9.078  36.973  80.627  0.00  0.00    +0.000 C 
ENDROOT
BRANCH   1  13
ATOM      8  C   UNL     1       5.082  32.557  76.340  0.00  0.00    +0.000 A 
ATOM      9  C   UNL     1       6.023  33.485  75.853  0.00  0.00    +0.000 A 
ATOM     10  C   UNL     1       4.430  32.851  77.509  0.00  0.00    +0.000 A 
ATOM     11  C   UNL     1       6.284  34.712  76.506  0.00  0.00    +0.000 A 
ATOM     12  C   UNL     1       4.663  34.085  78.074  0.00  0.00    +0.000 A 
ATOM     13  C   UNL     1       5.571  35.050  77.660  0.00  0.00    +0.000 A 
BRANCH   8  15
ATOM     14  F   UNL     1       5.763  30.338  75.837  0.00  0.00    +0.000 F 
ATOM     15  C   UNL     1       4.769  31.257  75.677  0.00  0.00    +0.000 C 
ATOM     16  F   UNL     1       4.608  31.411  74.334  0.00  0.00    +0.000 F 
ATOM     17  F   UNL     1       3.627  30.675  76.129  0.00  0.00    +0.000 F 
ENDBRANCH   8  15
ENDBRANCH   1  13
BRANCH   5  18
ATOM     18  C   UNL     1       7.000  38.421  80.581  0.00  0.00    +0.000 A 
ATOM     19  C   UNL     1       6.146  38.036  81.620  0.00  0.00    +0.000 A 
ATOM     20  C   UNL     1       7.236  39.794  80.365  0.00  0.00    +0.000 A 
ATOM     21  C   UNL     1       5.630  38.985  82.497  0.00  0.00    +0.000 A 
ATOM     22  C   UNL     1       6.706  40.744  81.236  0.00  0.00    +0.000 A 
ATOM     23  C   UNL     1       5.926  40.333  82.316  0.00  0.00    +0.000 A 
ENDBRANCH   5  18
BRANCH   4  24
ATOM     24  C   UNL     1       7.654  33.630  80.266  0.00  0.00    +0.000 C 
ATOM     25  O   UNL     1       7.260  32.653  79.644  0.00  0.00    +0.000 OA
ATOM     26  O   UNL     1       7.695  33.608  81.633  0.00  0.00    +0.000 OA
ENDBRANCH   4  24
BRANCH   7  27
ATOM     27  C   UNL     1       9.425  37.633  81.957  0.00  0.00    +0.000 C 
ATOM     28  O   UNL     1      10.073  38.662  82.014  0.00  0.00    +0.000 OA
ATOM     29  O   UNL     1       9.064  36.979  83.086  0.00  0.00    +0.000 OA
ENDBRANCH   7  27
BRANCH   4  30
ATOM     30  C   UNL     1       9.088  34.906  78.313  0.00  0.00    +0.000 C 
BRANCH  30  31
ATOM     31  C   UNL     1      10.153  33.761  78.387  0.00  0.00    +0.000 C 
BRANCH  31  32
ATOM     32  C   UNL     1      10.301  32.602  77.452  0.00  0.00    +0.000 C 
BRANCH  32  33
ATOM     33  N   UNL     1      11.700  32.347  77.206  0.00  0.00    +0.000 N 
ATOM     34  H   UNL     1      11.803  31.850  76.320  0.00  0.00    +0.000 HD
ATOM     35  H   UNL     1      12.079  31.776  77.961  0.00  0.00    +0.000 HD
ATOM     36  H   UNL     1      12.205  33.232  77.161  0.00  0.00    +0.000 HD
ENDBRANCH  32  33
ENDBRANCH  31  32
ENDBRANCH  30  31
ENDBRANCH   4  30
TORSDOF 9
ENDMDL
MODEL 8
REMARK VINA RESULT:      -6.5      3.747      5.945
REMARK  Name = 
REMARK  9 active torsions:
REMARK  status: ('A' for Active; 'I' for Inactive)
REMARK    1  A    between atoms: C_2  and  C_5
REMARK    2  A    between atoms: C_10  and  C_11
REMARK    3  A    between atoms: C_14  and  C_16
REMARK    4  A    between atoms: C_14  and  C_18
REMARK    5  A    between atoms: C_15  and  C_19
REMARK    6  A    between atoms: C_18  and  C_23
REMARK    7  A    between atoms: C_20  and  C_26
REMARK    8  A    between atoms: C_23  and  C_27
REMARK    9  A    between atoms: C_27  and  N_32
REMARK                            x       y       z     vdW  Elec       q    Type
REMARK                         _______ _______ _______ _____ _____    ______ ____
ROOT
ATOM      1  C   UNL     1       7.064  33.876  79.981  0.00  0.00    +0.000 C 
ATOM      2  O   UNL     1       6.776  33.219  80.956  0.00  0.00    +0.000 OA
ATOM      3  N   UNL     1       7.082  33.306  78.659  0.00  0.00    +0.000 N 
ATOM      4  C   UNL     1       7.705  33.871  77.413  0.00  0.00    +0.000 C 
ATOM      5  C   UNL     1       7.151  31.798  78.566  0.00  0.00    +0.000 C 
ATOM      6  C   UNL     1       7.298  32.810  76.364  0.00  0.00    +0.000 C 
ATOM      7  C   UNL     1       7.409  31.477  77.069  0.00  0.00    +0.000 C 
ENDROOT
BRANCH   1  13
ATOM      8  C   UNL     1       8.178  37.907  81.241  0.00  0.00    +0.000 A 
ATOM      9  C   UNL     1       6.870  37.594  80.822  0.00  0.00    +0.000 A 
ATOM     10  C   UNL     1       9.121  36.913  81.211  0.00  0.00    +0.000 A 
ATOM     11  C   UNL     1       6.515  36.312  80.341  0.00  0.00    +0.000 A 
ATOM     12  C   UNL     1       8.750  35.701  80.673  0.00  0.00    +0.000 A 
ATOM     13  C   UNL     1       7.489  35.314  80.242  0.00  0.00    +0.000 A 
BRANCH   8  15
ATOM     14  F   UNL     1       7.674  39.801  82.581  0.00  0.00    +0.000 F 
ATOM     15  C   UNL     1       8.596  39.248  81.744  0.00  0.00    +0.000 C 
ATOM     16  F   UNL     1       8.760  40.132  80.722  0.00  0.00    +0.000 F 
ATOM     17  F   UNL     1       9.774  39.234  82.420  0.00  0.00    +0.000 F 
ENDBRANCH   8  15
ENDBRANCH   1  13
BRANCH   5  18
ATOM     18  C   UNL     1       5.973  31.030  79.107  0.00  0.00    +0.000 A 
ATOM     19  C   UNL     1       4.662  31.444  78.850  0.00  0.00    +0.000 A 
ATOM     20  C   UNL     1       6.185  29.778  79.719  0.00  0.00    +0.000 A 
ATOM     21  C   UNL     1       3.592  30.587  79.088  0.00  0.00    +0.000 A 
ATOM     22  C   UNL     1       5.110  28.927  79.971  0.00  0.00    +0.000 A 
ATOM     23  C   UNL     1       3.819  29.325  79.630  0.00  0.00    +0.000 A 
ENDBRANCH   5  18
BRANCH   4  24
ATOM     24  C   UNL     1       7.002  35.082  76.657  0.00  0.00    +0.000 C 
ATOM     25  O   UNL     1       6.114  34.948  75.826  0.00  0.00    +0.000 OA
ATOM     26  O   UNL     1       7.479  36.327  76.963  0.00  0.00    +0.000 OA
ENDBRANCH   4  24
BRANCH   7  27
ATOM     27  C   UNL     1       6.587  30.418  76.341  0.00  0.00    +0.000 C 
ATOM     28  O   UNL     1       6.961  29.264  76.250  0.00  0.00    +0.000 OA
ATOM     29  O   UNL     1       5.459  30.832  75.716  0.00  0.00    +0.000 OA
ENDBRANCH   7  27
BRANCH   4  30
ATOM     30  C   UNL     1       9.313  33.887  77.512  0.00  0.00    +0.000 C 
BRANCH  30  31
ATOM     31  C   UNL     1      10.054  33.909  76.134  0.00  0.00    +0.000 C 
BRANCH  31  32
ATOM     32  C   UNL     1      11.526  33.782  75.897  0.00  0.00    +0.000 C 
BRANCH  32  33
ATOM     33  N   UNL     1      12.155  33.163  77.038  0.00  0.00    +0.000 N 
ATOM     34  H   UNL     1      13.139  32.988  76.830  0.00  0.00    +0.000 HD
ATOM     35  H   UNL     1      11.689  32.279  77.244  0.00  0.00    +0.000 HD
ATOM     36  H   UNL     1      12.082  33.782  77.845  0.00  0.00    +0.000 HD
ENDBRANCH  32  33
ENDBRANCH  31  32
ENDBRANCH  30  31
ENDBRANCH   4  30
TORSDOF 9
ENDMDL
MODEL 9
REMARK VINA RESULT:      -6.5      1.571      2.231
REMARK  Name = 
REMARK  9 active torsions:
REMARK  status: ('A' for Active; 'I' for Inactive)
REMARK    1  A    between atoms: C_2  and  C_5
REMARK    2  A    between atoms: C_10  and  C_11
REMARK    3  A    between atoms: C_14  and  C_16
REMARK    4  A    between atoms: C_14  and  C_18
REMARK    5  A    between atoms: C_15  and  C_19
REMARK    6  A    between atoms: C_18  and  C_23
REMARK    7  A    between atoms: C_20  and  C_26
REMARK    8  A    between atoms: C_23  and  C_27
REMARK    9  A    between atoms: C_27  and  N_32
REMARK                            x       y       z     vdW  Elec       q    Type
REMARK                         _______ _______ _______ _____ _____    ______ ____
ROOT
ATOM      1  C   UNL     1       6.085  32.529  77.716  0.00  0.00    +0.000 C 
ATOM      2  O   UNL     1       5.120  33.028  77.183  0.00  0.00    +0.000 OA
ATOM      3  N   UNL     1       5.957  31.475  78.688  0.00  0.00    +0.000 N 
ATOM      4  C   UNL     1       6.991  30.973  79.656  0.00  0.00    +0.000 C 
ATOM      5  C   UNL     1       4.599  31.304  79.334  0.00  0.00    +0.000 C 
ATOM      6  C   UNL     1       6.231  29.810  80.334  0.00  0.00    +0.000 C 
ATOM      7  C   UNL     1       4.807  30.292  80.494  0.00  0.00    +0.000 C 
ENDROOT
BRANCH   1  13
ATOM      8  C   UNL     1       9.737  34.421  76.249  0.00  0.00    +0.000 A 
ATOM      9  C   UNL     1       9.473  33.055  76.038  0.00  0.00    +0.000 A 
ATOM     10  C   UNL     1       8.828  35.152  76.967  0.00  0.00    +0.000 A 
ATOM     11  C   UNL     1       8.330  32.413  76.571  0.00  0.00    +0.000 A 
ATOM     12  C   UNL     1       7.767  34.475  77.525  0.00  0.00    +0.000 A 
ATOM     13  C   UNL     1       7.435  33.137  77.364  0.00  0.00    +0.000 A 
BRANCH   8  15
ATOM     14  F   UNL     1      11.138  34.888  74.389  0.00  0.00    +0.000 F 
ATOM     15  C   UNL     1      10.935  35.133  75.714  0.00  0.00    +0.000 C 
ATOM     16  F   UNL     1      12.072  34.740  76.351  0.00  0.00    +0.000 F 
ATOM     17  F   UNL     1      10.874  36.483  75.852  0.00  0.00    +0.000 F 
ENDBRANCH   8  15
ENDBRANCH   1  13
BRANCH   5  18
ATOM     18  C   UNL     1       3.465  30.892  78.431  0.00  0.00    +0.000 A 
ATOM     19  C   UNL     1       2.225  31.535  78.489  0.00  0.00    +0.000 A 
ATOM     20  C   UNL     1       3.710  29.976  77.387  0.00  0.00    +0.000 A 
ATOM     21  C   UNL     1       1.292  31.363  77.471  0.00  0.00    +0.000 A 
ATOM     22  C   UNL     1       2.768  29.793  76.376  0.00  0.00    +0.000 A 
ATOM     23  C   UNL     1       1.573  30.509  76.408  0.00  0.00    +0.000 A 
ENDBRANCH   5  18
BRANCH   4  24
ATOM     24  C   UNL     1       8.188  30.063  79.133  0.00  0.00    +0.000 C 
ATOM     25  O   UNL     1       9.225  29.873  79.753  0.00  0.00    +0.000 OA
ATOM     26  O   UNL     1       8.012  29.509  77.894  0.00  0.00    +0.000 OA
ENDBRANCH   4  24
BRANCH   7  27
ATOM     27  C   UNL     1       3.861  29.110  80.681  0.00  0.00    +0.000 C 
ATOM     28  O   UNL     1       4.174  27.978  80.360  0.00  0.00    +0.000 OA
ATOM     29  O   UNL     1       2.615  29.380  81.136  0.00  0.00    +0.000 OA
ENDBRANCH   7  27
BRANCH   4  30
ATOM     30  C   UNL     1       7.330  32.075  80.781  0.00  0.00    +0.000 C 
BRANCH  30  31
ATOM     31  C   UNL     1       8.751  32.719  80.660  0.00  0.00    +0.000 C 
BRANCH  31  32
ATOM     32  C   UNL     1       9.095  34.173  80.745  0.00  0.00    +0.000 C 
BRANCH  32  33
ATOM     33  N   UNL     1      10.088  34.383  81.770  0.00  0.00    +0.000 N 
ATOM     34  H   UNL     1      10.636  33.530  81.892  0.00  0.00    +0.000 HD
ATOM     35  H   UNL     1       9.626  34.617  82.648  0.00  0.00    +0.000 HD
ATOM     36  H   UNL     1      10.705  35.147  81.495  0.00  0.00    +0.000 HD
ENDBRANCH  32  33
ENDBRANCH  31  32
ENDBRANCH  30  31
ENDBRANCH   4  30
TORSDOF 9
ENDMDL
