MODEL 1
REMARK VINA RESULT:      -7.3      0.000      0.000
REMARK  Name = 
REMARK  9 active torsions:
REMARK  status: ('A' for Active; 'I' for Inactive)
REMARK    1  A    between atoms: C_2  and  C_5
REMARK    2  A    between atoms: C_10  and  C_11
REMARK    3  A    between atoms: C_14  and  C_16
REMARK    4  A    between atoms: C_14  and  C_18
REMARK    5  A    between atoms: C_15  and  C_19
REMARK    6  A    between atoms: C_18  and  C_23
REMARK    7  A    between atoms: C_20  and  C_26
REMARK    8  A    between atoms: C_23  and  C_27
REMARK    9  A    between atoms: C_23  and  C_28
REMARK                            x       y       z     vdW  Elec       q    Type
REMARK                         _______ _______ _______ _____ _____    ______ ____
ROOT
ATOM      1  C   UNL     1       7.535  30.555  78.938  0.00  0.00    +0.000 C 
ATOM      2  O   UNL     1       7.781  29.380  79.196  0.00  0.00    +0.000 OA
ATOM      3  N   UNL     1       6.324  31.145  79.337  0.00  0.00    +0.000 N 
ATOM      4  C   UNL     1       5.361  30.473  80.282  0.00  0.00    +0.000 C 
ATOM      5  C   UNL     1       5.881  32.542  79.065  0.00  0.00    +0.000 C 
ATOM      6  C   UNL     1       4.056  31.276  79.936  0.00  0.00    +0.000 C 
ATOM      7  C   UNL     1       4.527  32.714  79.764  0.00  0.00    +0.000 C 
ENDROOT
BRANCH   1  13
ATOM      8  C   UNL     1      10.257  32.874  76.526  0.00  0.00    +0.000 A 
ATOM      9  C   UNL     1       9.540  31.808  75.963  0.00  0.00    +0.000 A 
ATOM     10  C   UNL     1      10.193  33.063  77.909  0.00  0.00    +0.000 A 
ATOM     11  C   UNL     1       8.685  31.030  76.762  0.00  0.00    +0.000 A 
ATOM     12  C   UNL     1       9.421  32.224  78.710  0.00  0.00    +0.000 A 
ATOM     13  C   UNL     1       8.565  31.289  78.136  0.00  0.00    +0.000 A 
BRANCH   8  15
ATOM     14  F   UNL     1      11.334  33.401  74.439  0.00  0.00    +0.000 F 
ATOM     15  C   UNL     1      11.081  33.834  75.703  0.00  0.00    +0.000 C 
ATOM     16  F   UNL     1      12.299  34.077  76.266  0.00  0.00    +0.000 F 
ATOM     17  F   UNL     1      10.486  35.053  75.577  0.00  0.00    +0.000 F 
ENDBRANCH   8  15
ENDBRANCH   1  13
BRANCH   5  18
ATOM     18  C   UNL     1       5.945  33.008  77.624  0.00  0.00    +0.000 A 
ATOM     19  C   UNL     1       5.368  32.298  76.566  0.00  0.00    +0.000 A 
ATOM     20  C   UNL     1       6.676  34.176  77.332  0.00  0.00    +0.000 A 
ATOM     21  C   UNL     1       5.586  32.710  75.244  0.00  0.00    +0.000 A 
ATOM     22  C   UNL     1       6.895  34.582  76.015  0.00  0.00    +0.000 A 
ATOM     23  C   UNL     1       6.357  33.840  74.972  0.00  0.00    +0.000 A 
ENDBRANCH   5  18
BRANCH   4  24
ATOM     24  C   UNL     1       4.945  28.974  80.138  0.00  0.00    +0.000 C 
ATOM     25  O   UNL     1       4.310  28.546  79.181  0.00  0.00    +0.000 OA
ATOM     26  O   UNL     1       5.150  28.190  81.213  0.00  0.00    +0.000 OA
ENDBRANCH   4  24
BRANCH   7  27
ATOM     27  C   UNL     1       3.544  33.625  79.077  0.00  0.00    +0.000 C 
ATOM     28  O   UNL     1       2.601  33.243  78.397  0.00  0.00    +0.000 OA
ATOM     29  O   UNL     1       3.777  34.938  79.321  0.00  0.00    +0.000 OA
ENDBRANCH   7  27
BRANCH   4  30
ATOM     30  C   UNL     1       5.664  30.751  81.801  0.00  0.00    +0.000 C 
BRANCH  30  31
ATOM     31  C   UNL     1       7.095  30.901  82.362  0.00  0.00    +0.000 C 
ATOM     32  C   UNL     1       7.614  32.336  82.413  0.00  0.00    +0.000 C 
ATOM     33  C   UNL     1       7.093  30.367  83.808  0.00  0.00    +0.000 C 
ENDBRANCH  30  31
ENDBRANCH   4  30
TORSDOF 7
ENDMDL
MODEL 2
REMARK VINA RESULT:      -6.8      3.947      6.388
REMARK  Name = 
REMARK  9 active torsions:
REMARK  status: ('A' for Active; 'I' for Inactive)
REMARK    1  A    between atoms: C_2  and  C_5
REMARK    2  A    between atoms: C_10  and  C_11
REMARK    3  A    between atoms: C_14  and  C_16
REMARK    4  A    between atoms: C_14  and  C_18
REMARK    5  A    between atoms: C_15  and  C_19
REMARK    6  A    between atoms: C_18  and  C_23
REMARK    7  A    between atoms: C_20  and  C_26
REMARK    8  A    between atoms: C_23  and  C_27
REMARK    9  A    between atoms: C_23  and  C_28
REMARK                            x       y       z     vdW  Elec       q    Type
REMARK                         _______ _______ _______ _____ _____    ______ ____
ROOT
ATOM      1  C   UNL     1       5.122  33.531  79.938  0.00  0.00    +0.000 C 
ATOM      2  O   UNL     1       4.158  34.102  80.442  0.00  0.00    +0.000 OA
ATOM      3  N   UNL     1       5.889  34.153  78.939  0.00  0.00    +0.000 N 
ATOM      4  C   UNL     1       5.736  35.609  78.581  0.00  0.00    +0.000 C 
ATOM      5  C   UNL     1       7.058  33.570  78.221  0.00  0.00    +0.000 C 
ATOM      6  C   UNL     1       6.383  35.592  77.149  0.00  0.00    +0.000 C 
ATOM      7  C   UNL     1       7.583  34.663  77.283  0.00  0.00    +0.000 C 
ENDROOT
BRANCH   1  13
ATOM      8  C   UNL     1       6.040  29.452  80.999  0.00  0.00    +0.000 A 
ATOM      9  C   UNL     1       4.872  29.755  80.284  0.00  0.00    +0.000 A 
ATOM     10  C   UNL     1       6.809  30.508  81.496  0.00  0.00    +0.000 A 
ATOM     11  C   UNL     1       4.556  31.089  79.976  0.00  0.00    +0.000 A 
ATOM     12  C   UNL     1       6.436  31.831  81.272  0.00  0.00    +0.000 A 
ATOM     13  C   UNL     1       5.388  32.134  80.408  0.00  0.00    +0.000 A 
BRANCH   8  15
ATOM     14  F   UNL     1       5.548  27.097  81.052  0.00  0.00    +0.000 F 
ATOM     15  C   UNL     1       6.510  28.038  81.240  0.00  0.00    +0.000 C 
ATOM     16  F   UNL     1       6.964  27.860  82.514  0.00  0.00    +0.000 F 
ATOM     17  F   UNL     1       7.548  27.691  80.430  0.00  0.00    +0.000 F 
ENDBRANCH   8  15
ENDBRANCH   1  13
BRANCH   5  18
ATOM     18  C   UNL     1       6.860  32.203  77.596  0.00  0.00    +0.000 A 
ATOM     19  C   UNL     1       5.766  31.885  76.785  0.00  0.00    +0.000 A 
ATOM     20  C   UNL     1       7.788  31.189  77.902  0.00  0.00    +0.000 A 
ATOM     21  C   UNL     1       5.570  30.565  76.357  0.00  0.00    +0.000 A 
ATOM     22  C   UNL     1       7.590  29.874  77.477  0.00  0.00    +0.000 A 
ATOM     23  C   UNL     1       6.472  29.564  76.714  0.00  0.00    +0.000 A 
ENDBRANCH   5  18
BRANCH   4  24
ATOM     24  C   UNL     1       4.344  36.286  78.371  0.00  0.00    +0.000 C 
ATOM     25  O   UNL     1       3.806  36.986  79.221  0.00  0.00    +0.000 OA
ATOM     26  O   UNL     1       3.657  35.914  77.274  0.00  0.00    +0.000 OA
ENDBRANCH   4  24
BRANCH   7  27
ATOM     27  C   UNL     1       8.164  34.188  75.978  0.00  0.00    +0.000 C 
ATOM     28  O   UNL     1       9.331  33.855  75.818  0.00  0.00    +0.000 OA
ATOM     29  O   UNL     1       7.248  34.118  74.981  0.00  0.00    +0.000 OA
ENDBRANCH   7  27
BRANCH   4  30
ATOM     30  C   UNL     1       6.620  36.574  79.455  0.00  0.00    +0.000 C 
BRANCH  30  31
ATOM     31  C   UNL     1       7.181  37.913  78.928  0.00  0.00    +0.000 C 
ATOM     32  C   UNL     1       6.958  39.107  79.852  0.00  0.00    +0.000 C 
ATOM     33  C   UNL     1       8.704  37.751  78.755  0.00  0.00    +0.000 C 
ENDBRANCH  30  31
ENDBRANCH   4  30
TORSDOF 7
ENDMDL
MODEL 3
REMARK VINA RESULT:      -6.8      4.202      6.694
REMARK  Name = 
REMARK  9 active torsions:
REMARK  status: ('A' for Active; 'I' for Inactive)
REMARK    1  A    between atoms: C_2  and  C_5
REMARK    2  A    between atoms: C_10  and  C_11
REMARK    3  A    between atoms: C_14  and  C_16
REMARK    4  A    between atoms: C_14  and  C_18
REMARK    5  A    between atoms: C_15  and  C_19
REMARK    6  A    between atoms: C_18  and  C_23
REMARK    7  A    between atoms: C_20  and  C_26
REMARK    8  A    between atoms: C_23  and  C_27
REMARK    9  A    between atoms: C_23  and  C_28
REMARK                            x       y       z     vdW  Elec       q    Type
REMARK                         _______ _______ _______ _____ _____    ______ ____
ROOT
ATOM      1  C   UNL     1       7.447  32.750  77.030  0.00  0.00    +0.000 C 
ATOM      2  O   UNL     1       8.089  32.859  75.988  0.00  0.00    +0.000 OA
ATOM      3  N   UNL     1       8.016  33.086  78.269  0.00  0.00    +0.000 N 
ATOM      4  C   UNL     1       9.338  33.801  78.393  0.00  0.00    +0.000 C 
ATOM      5  C   UNL     1       7.370  32.973  79.608  0.00  0.00    +0.000 C 
ATOM      6  C   UNL     1       9.697  33.425  79.876  0.00  0.00    +0.000 C 
ATOM      7  C   UNL     1       8.375  33.524  80.625  0.00  0.00    +0.000 C 
ENDROOT
BRANCH   1  13
ATOM      8  C   UNL     1       3.493  31.027  76.974  0.00  0.00    +0.000 A 
ATOM      9  C   UNL     1       4.608  30.258  76.612  0.00  0.00    +0.000 A 
ATOM     10  C   UNL     1       3.670  32.396  77.193  0.00  0.00    +0.000 A 
ATOM     11  C   UNL     1       5.889  30.835  76.592  0.00  0.00    +0.000 A 
ATOM     12  C   UNL     1       4.928  32.981  77.074  0.00  0.00    +0.000 A 
ATOM     13  C   UNL     1       6.062  32.193  76.902  0.00  0.00    +0.000 A 
BRANCH   8  15
ATOM     14  F   UNL     1       1.906  29.877  78.371  0.00  0.00    +0.000 F 
ATOM     15  C   UNL     1       2.114  30.439  77.151  0.00  0.00    +0.000 C 
ATOM     16  F   UNL     1       1.852  29.461  76.238  0.00  0.00    +0.000 F 
ATOM     17  F   UNL     1       1.129  31.367  76.986  0.00  0.00    +0.000 F 
ENDBRANCH   8  15
ENDBRANCH   1  13
BRANCH   5  18
ATOM     18  C   UNL     1       6.747  31.634  79.952  0.00  0.00    +0.000 A 
ATOM     19  C   UNL     1       7.416  30.416  79.787  0.00  0.00    +0.000 A 
ATOM     20  C   UNL     1       5.411  31.613  80.396  0.00  0.00    +0.000 A 
ATOM     21  C   UNL     1       6.734  29.209  79.989  0.00  0.00    +0.000 A 
ATOM     22  C   UNL     1       4.732  30.410  80.594  0.00  0.00    +0.000 A 
ATOM     23  C   UNL     1       5.394  29.209  80.378  0.00  0.00    +0.000 A 
ENDBRANCH   5  18
BRANCH   4  24
ATOM     24  C   UNL     1      10.601  33.389  77.571  0.00  0.00    +0.000 C 
ATOM     25  O   UNL     1      11.144  34.134  76.762  0.00  0.00    +0.000 OA
ATOM     26  O   UNL     1      10.968  32.096  77.645  0.00  0.00    +0.000 OA
ENDBRANCH   4  24
BRANCH   7  27
ATOM     27  C   UNL     1       8.365  32.868  81.981  0.00  0.00    +0.000 C 
ATOM     28  O   UNL     1       7.629  33.191  82.903  0.00  0.00    +0.000 OA
ATOM     29  O   UNL     1       9.236  31.833  82.078  0.00  0.00    +0.000 OA
ENDBRANCH   7  27
BRANCH   4  30
ATOM     30  C   UNL     1       9.218  35.369  78.349  0.00  0.00    +0.000 C 
BRANCH  30  31
ATOM     31  C   UNL     1       8.511  36.129  77.205  0.00  0.00    +0.000 C 
ATOM     32  C   UNL     1       7.126  36.666  77.555  0.00  0.00    +0.000 C 
ATOM     33  C   UNL     1       9.387  37.341  76.834  0.00  0.00    +0.000 C 
ENDBRANCH  30  31
ENDBRANCH   4  30
TORSDOF 7
ENDMDL
MODEL 4
REMARK VINA RESULT:      -6.7      2.648      4.100
REMARK  Name = 
REMARK  9 active torsions:
REMARK  status: ('A' for Active; 'I' for Inactive)
REMARK    1  A    between atoms: C_2  and  C_5
REMARK    2  A    between atoms: C_10  and  C_11
REMARK    3  A    between atoms: C_14  and  C_16
REMARK    4  A    between atoms: C_14  and  C_18
REMARK    5  A    between atoms: C_15  and  C_19
REMARK    6  A    between atoms: C_18  and  C_23
REMARK    7  A    between atoms: C_20  and  C_26
REMARK    8  A    between atoms: C_23  and  C_27
REMARK    9  A    between atoms: C_23  and  C_28
REMARK                            x       y       z     vdW  Elec       q    Type
REMARK                         _______ _______ _______ _____ _____    ______ ____
ROOT
ATOM      1  C   UNL     1       6.764  32.434  80.675  0.00  0.00    +0.000 C 
ATOM      2  O   UNL     1       6.986  32.027  81.813  0.00  0.00    +0.000 OA
ATOM      3  N   UNL     1       6.190  31.594  79.707  0.00  0.00    +0.000 N 
ATOM      4  C   UNL     1       5.608  30.244  80.038  0.00  0.00    +0.000 C 
ATOM      5  C   UNL     1       5.897  31.942  78.287  0.00  0.00    +0.000 C 
ATOM      6  C   UNL     1       5.636  29.592  78.608  0.00  0.00    +0.000 C 
ATOM      7  C   UNL     1       5.217  30.715  77.669  0.00  0.00    +0.000 C 
ENDROOT
BRANCH   1  13
ATOM      8  C   UNL     1       8.018  36.389  79.496  0.00  0.00    +0.000 A 
ATOM      9  C   UNL     1       8.968  35.409  79.818  0.00  0.00    +0.000 A 
ATOM     10  C   UNL     1       6.667  36.107  79.720  0.00  0.00    +0.000 A 
ATOM     11  C   UNL     1       8.554  34.134  80.242  0.00  0.00    +0.000 A 
ATOM     12  C   UNL     1       6.271  34.875  80.235  0.00  0.00    +0.000 A 
ATOM     13  C   UNL     1       7.189  33.838  80.377  0.00  0.00    +0.000 A 
BRANCH   8  15
ATOM     14  F   UNL     1       7.329  38.552  78.697  0.00  0.00    +0.000 F 
ATOM     15  C   UNL     1       8.389  37.726  78.903  0.00  0.00    +0.000 C 
ATOM     16  F   UNL     1       9.004  37.598  77.693  0.00  0.00    +0.000 F 
ATOM     17  F   UNL     1       9.263  38.417  79.687  0.00  0.00    +0.000 F 
ENDBRANCH   8  15
ENDBRANCH   1  13
BRANCH   5  18
ATOM     18  C   UNL     1       7.036  32.540  77.484  0.00  0.00    +0.000 A 
ATOM     19  C   UNL     1       8.315  31.977  77.437  0.00  0.00    +0.000 A 
ATOM     20  C   UNL     1       6.810  33.755  76.809  0.00  0.00    +0.000 A 
ATOM     21  C   UNL     1       9.357  32.656  76.792  0.00  0.00    +0.000 A 
ATOM     22  C   UNL     1       7.849  34.433  76.170  0.00  0.00    +0.000 A 
ATOM     23  C   UNL     1       9.125  33.885  76.174  0.00  0.00    +0.000 A 
ENDBRANCH   5  18
BRANCH   4  24
ATOM     24  C   UNL     1       6.341  29.210  80.951  0.00  0.00    +0.000 C 
ATOM     25  O   UNL     1       5.967  28.939  82.088  0.00  0.00    +0.000 OA
ATOM     26  O   UNL     1       7.527  28.755  80.508  0.00  0.00    +0.000 OA
ENDBRANCH   4  24
BRANCH   7  27
ATOM     27  C   UNL     1       5.508  30.464  76.213  0.00  0.00    +0.000 C 
ATOM     28  O   UNL     1       4.956  31.039  75.285  0.00  0.00    +0.000 OA
ATOM     29  O   UNL     1       6.492  29.552  76.017  0.00  0.00    +0.000 OA
ENDBRANCH   7  27
BRANCH   4  30
ATOM     30  C   UNL     1       4.096  30.294  80.473  0.00  0.00    +0.000 C 
BRANCH  30  31
ATOM     31  C   UNL     1       3.254  31.588  80.448  0.00  0.00    +0.000 C 
ATOM     32  C   UNL     1       1.793  31.392  80.050  0.00  0.00    +0.000 C 
ATOM     33  C   UNL     1       3.261  32.183  81.870  0.00  0.00    +0.000 C 
ENDBRANCH  30  31
ENDBRANCH   4  30
TORSDOF 7
ENDMDL
MODEL 5
REMARK VINA RESULT:      -6.7      4.211      6.546
REMARK  Name = 
REMARK  9 active torsions:
REMARK  status: ('A' for Active; 'I' for Inactive)
REMARK    1  A    between atoms: C_2  and  C_5
REMARK    2  A    between atoms: C_10  and  C_11
REMARK    3  A    between atoms: C_14  and  C_16
REMARK    4  A    between atoms: C_14  and  C_18
REMARK    5  A    between atoms: C_15  and  C_19
REMARK    6  A    between atoms: C_18  and  C_23
REMARK    7  A    between atoms: C_20  and  C_26
REMARK    8  A    between atoms: C_23  and  C_27
REMARK    9  A    between atoms: C_23  and  C_28
REMARK                            x       y       z     vdW  Elec       q    Type
REMARK                         _______ _______ _______ _____ _____    ______ ____
ROOT
ATOM      1  C   UNL     1       6.137  36.043  78.263  0.00  0.00    +0.000 C 
ATOM      2  O   UNL     1       5.858  37.133  77.770  0.00  0.00    +0.000 OA
ATOM      3  N   UNL     1       6.866  35.957  79.460  0.00  0.00    +0.000 N 
ATOM      4  C   UNL     1       7.156  37.155  80.328  0.00  0.00    +0.000 C 
ATOM      5  C   UNL     1       7.300  34.709  80.151  0.00  0.00    +0.000 C 
ATOM      6  C   UNL     1       8.375  36.593  81.145  0.00  0.00    +0.000 C 
ATOM      7  C   UNL     1       8.001  35.147  81.442  0.00  0.00    +0.000 C 
ENDROOT
BRANCH   1  13
ATOM      8  C   UNL     1       5.148  32.396  76.183  0.00  0.00    +0.000 A 
ATOM      9  C   UNL     1       6.095  33.284  75.651  0.00  0.00    +0.000 A 
ATOM     10  C   UNL     1       4.421  32.794  77.308  0.00  0.00    +0.000 A 
ATOM     11  C   UNL     1       6.384  34.490  76.311  0.00  0.00    +0.000 A 
ATOM     12  C   UNL     1       4.643  34.035  77.900  0.00  0.00    +0.000 A 
ATOM     13  C   UNL     1       5.706  34.835  77.491  0.00  0.00    +0.000 A 
BRANCH   8  15
ATOM     14  F   UNL     1       4.589  31.034  74.279  0.00  0.00    +0.000 F 
ATOM     15  C   UNL     1       4.893  31.026  75.604  0.00  0.00    +0.000 C 
ATOM     16  F   UNL     1       3.855  30.394  76.222  0.00  0.00    +0.000 F 
ATOM     17  F   UNL     1       5.963  30.195  75.745  0.00  0.00    +0.000 F 
ENDBRANCH   8  15
ENDBRANCH   1  13
BRANCH   5  18
ATOM     18  C   UNL     1       8.042  33.688  79.310  0.00  0.00    +0.000 A 
ATOM     19  C   UNL     1       9.134  34.016  78.500  0.00  0.00    +0.000 A 
ATOM     20  C   UNL     1       7.565  32.363  79.295  0.00  0.00    +0.000 A 
ATOM     21  C   UNL     1       9.683  33.054  77.641  0.00  0.00    +0.000 A 
ATOM     22  C   UNL     1       8.111  31.407  78.437  0.00  0.00    +0.000 A 
ATOM     23  C   UNL     1       9.163  31.760  77.602  0.00  0.00    +0.000 A 
ENDBRANCH   5  18
BRANCH   4  24
ATOM     24  C   UNL     1       7.669  38.512  79.748  0.00  0.00    +0.000 C 
ATOM     25  O   UNL     1       8.852  38.733  79.511  0.00  0.00    +0.000 OA
ATOM     26  O   UNL     1       6.774  39.515  79.693  0.00  0.00    +0.000 OA
ENDBRANCH   4  24
BRANCH   7  27
ATOM     27  C   UNL     1       9.144  34.278  81.898  0.00  0.00    +0.000 C 
ATOM     28  O   UNL     1      10.327  34.542  81.730  0.00  0.00    +0.000 OA
ATOM     29  O   UNL     1       8.736  33.170  82.565  0.00  0.00    +0.000 OA
ENDBRANCH   7  27
BRANCH   4  30
ATOM     30  C   UNL     1       6.026  37.468  81.377  0.00  0.00    +0.000 C 
BRANCH  30  31
ATOM     31  C   UNL     1       6.313  38.064  82.772  0.00  0.00    +0.000 C 
ATOM     32  C   UNL     1       5.656  39.417  83.037  0.00  0.00    +0.000 C 
ATOM     33  C   UNL     1       5.767  37.081  83.826  0.00  0.00    +0.000 C 
ENDBRANCH  30  31
ENDBRANCH   4  30
TORSDOF 7
ENDMDL
MODEL 6
REMARK VINA RESULT:      -6.6      3.168      4.754
REMARK  Name = 
REMARK  9 active torsions:
REMARK  status: ('A' for Active; 'I' for Inactive)
REMARK    1  A    between atoms: C_2  and  C_5
REMARK    2  A    between atoms: C_10  and  C_11
REMARK    3  A    between atoms: C_14  and  C_16
REMARK    4  A    between atoms: C_14  and  C_18
REMARK    5  A    between atoms: C_15  and  C_19
REMARK    6  A    between atoms: C_18  and  C_23
REMARK    7  A    between atoms: C_20  and  C_26
REMARK    8  A    between atoms: C_23  and  C_27
REMARK    9  A    between atoms: C_23  and  C_28
REMARK                            x       y       z     vdW  Elec       q    Type
REMARK                         _______ _______ _______ _____ _____    ______ ____
ROOT
ATOM      1  C   UNL     1       8.533  35.090  79.732  0.00  0.00    +0.000 C 
ATOM      2  O   UNL     1       9.078  35.297  80.814  0.00  0.00    +0.000 OA
ATOM      3  N   UNL     1       7.215  35.510  79.495  0.00  0.00    +0.000 N 
ATOM      4  C   UNL     1       6.467  36.421  80.434  0.00  0.00    +0.000 C 
ATOM      5  C   UNL     1       6.422  35.297  78.250  0.00  0.00    +0.000 C 
ATOM      6  C   UNL     1       4.995  36.106  79.983  0.00  0.00    +0.000 C 
ATOM      7  C   UNL     1       5.076  35.998  78.466  0.00  0.00    +0.000 C 
ENDROOT
BRANCH   1  13
ATOM      8  C   UNL     1      10.542  32.768  76.703  0.00  0.00    +0.000 A 
ATOM      9  C   UNL     1      10.209  32.190  77.936  0.00  0.00    +0.000 A 
ATOM     10  C   UNL     1      10.356  34.143  76.539  0.00  0.00    +0.000 A 
ATOM     11  C   UNL     1       9.592  32.961  78.936  0.00  0.00    +0.000 A 
ATOM     12  C   UNL     1       9.836  34.921  77.571  0.00  0.00    +0.000 A 
ATOM     13  C   UNL     1       9.331  34.324  78.723  0.00  0.00    +0.000 A 
BRANCH   8  15
ATOM     14  F   UNL     1      10.353  30.851  75.259  0.00  0.00    +0.000 F 
ATOM     15  C   UNL     1      11.076  31.967  75.540  0.00  0.00    +0.000 C 
ATOM     16  F   UNL     1      12.354  31.541  75.754  0.00  0.00    +0.000 F 
ATOM     17  F   UNL     1      11.122  32.693  74.388  0.00  0.00    +0.000 F 
ENDBRANCH   8  15
ENDBRANCH   1  13
BRANCH   5  18
ATOM     18  C   UNL     1       6.352  33.878  77.722  0.00  0.00    +0.000 A 
ATOM     19  C   UNL     1       6.030  32.780  78.526  0.00  0.00    +0.000 A 
ATOM     20  C   UNL     1       6.690  33.650  76.374  0.00  0.00    +0.000 A 
ATOM     21  C   UNL     1       6.121  31.481  78.008  0.00  0.00    +0.000 A 
ATOM     22  C   UNL     1       6.784  32.356  75.860  0.00  0.00    +0.000 A 
ATOM     23  C   UNL     1       6.510  31.272  76.684  0.00  0.00    +0.000 A 
ENDBRANCH   5  18
BRANCH   4  24
ATOM     24  C   UNL     1       6.452  36.210  81.982  0.00  0.00    +0.000 C 
ATOM     25  O   UNL     1       6.897  37.036  82.773  0.00  0.00    +0.000 OA
ATOM     26  O   UNL     1       6.097  34.987  82.416  0.00  0.00    +0.000 OA
ENDBRANCH   4  24
BRANCH   7  27
ATOM     27  C   UNL     1       3.884  35.348  77.813  0.00  0.00    +0.000 C 
ATOM     28  O   UNL     1       3.633  35.401  76.617  0.00  0.00    +0.000 OA
ATOM     29  O   UNL     1       3.117  34.647  78.683  0.00  0.00    +0.000 OA
ENDBRANCH   7  27
BRANCH   4  30
ATOM     30  C   UNL     1       6.699  37.952  80.152  0.00  0.00    +0.000 C 
BRANCH  30  31
ATOM     31  C   UNL     1       8.028  38.674  80.464  0.00  0.00    +0.000 C 
ATOM     32  C   UNL     1       9.066  38.610  79.346  0.00  0.00    +0.000 C 
ATOM     33  C   UNL     1       7.710  40.163  80.703  0.00  0.00    +0.000 C 
ENDBRANCH  30  31
ENDBRANCH   4  30
TORSDOF 7
ENDMDL
MODEL 7
REMARK VINA RESULT:      -6.6      1.811      4.515
REMARK  Name = 
REMARK  9 active torsions:
REMARK  status: ('A' for Active; 'I' for Inactive)
REMARK    1  A    between atoms: C_2  and  C_5
REMARK    2  A    between atoms: C_10  and  C_11
REMARK    3  A    between atoms: C_14  and  C_16
REMARK    4  A    between atoms: C_14  and  C_18
REMARK    5  A    between atoms: C_15  and  C_19
REMARK    6  A    between atoms: C_18  and  C_23
REMARK    7  A    between atoms: C_20  and  C_26
REMARK    8  A    between atoms: C_23  and  C_27
REMARK    9  A    between atoms: C_23  and  C_28
REMARK                            x       y       z     vdW  Elec       q    Type
REMARK                         _______ _______ _______ _____ _____    ______ ____
ROOT
ATOM      1  C   UNL     1       5.175  33.274  77.819  0.00  0.00    +0.000 C 
ATOM      2  O   UNL     1       4.253  33.960  77.385  0.00  0.00    +0.000 OA
ATOM      3  N   UNL     1       4.986  32.422  78.919  0.00  0.00    +0.000 N 
ATOM      4  C   UNL     1       3.626  32.116  79.491  0.00  0.00    +0.000 C 
ATOM      5  C   UNL     1       6.017  31.563  79.568  0.00  0.00    +0.000 C 
ATOM      6  C   UNL     1       4.051  31.617  80.919  0.00  0.00    +0.000 C 
ATOM      7  C   UNL     1       5.299  30.780  80.673  0.00  0.00    +0.000 C 
ENDROOT
BRANCH   1  13
ATOM      8  C   UNL     1       9.144  33.684  76.179  0.00  0.00    +0.000 A 
ATOM      9  C   UNL     1       8.531  34.761  76.836  0.00  0.00    +0.000 A 
ATOM     10  C   UNL     1       8.384  32.538  75.928  0.00  0.00    +0.000 A 
ATOM     11  C   UNL     1       7.222  34.637  77.332  0.00  0.00    +0.000 A 
ATOM     12  C   UNL     1       7.054  32.459  76.335  0.00  0.00    +0.000 A 
ATOM     13  C   UNL     1       6.503  33.445  77.148  0.00  0.00    +0.000 A 
BRANCH   8  15
ATOM     14  F   UNL     1      11.018  32.533  75.202  0.00  0.00    +0.000 F 
ATOM     15  C   UNL     1      10.590  33.702  75.747  0.00  0.00    +0.000 C 
ATOM     16  F   UNL     1      11.432  33.961  76.787  0.00  0.00    +0.000 F 
ATOM     17  F   UNL     1      10.843  34.669  74.821  0.00  0.00    +0.000 F 
ENDBRANCH   8  15
ENDBRANCH   1  13
BRANCH   5  18
ATOM     18  C   UNL     1       7.312  32.241  79.973  0.00  0.00    +0.000 A 
ATOM     19  C   UNL     1       7.353  33.433  80.703  0.00  0.00    +0.000 A 
ATOM     20  C   UNL     1       8.526  31.677  79.535  0.00  0.00    +0.000 A 
ATOM     21  C   UNL     1       8.576  34.081  80.921  0.00  0.00    +0.000 A 
ATOM     22  C   UNL     1       9.743  32.325  79.750  0.00  0.00    +0.000 A 
ATOM     23  C   UNL     1       9.763  33.533  80.433  0.00  0.00    +0.000 A 
ENDBRANCH   5  18
BRANCH   4  24
ATOM     24  C   UNL     1       2.559  33.223  79.768  0.00  0.00    +0.000 C 
ATOM     25  O   UNL     1       1.481  33.274  79.184  0.00  0.00    +0.000 OA
ATOM     26  O   UNL     1       2.947  34.246  80.551  0.00  0.00    +0.000 OA
ENDBRANCH   4  24
BRANCH   7  27
ATOM     27  C   UNL     1       6.114  30.483  81.905  0.00  0.00    +0.000 C 
ATOM     28  O   UNL     1       6.019  31.088  82.964  0.00  0.00    +0.000 OA
ATOM     29  O   UNL     1       6.954  29.430  81.745  0.00  0.00    +0.000 OA
ENDBRANCH   7  27
BRANCH   4  30
ATOM     30  C   UNL     1       2.901  30.905  78.795  0.00  0.00    +0.000 C 
BRANCH  30  31
ATOM     31  C   UNL     1       3.243  30.426  77.367  0.00  0.00    +0.000 C 
ATOM     32  C   UNL     1       4.102  29.165  77.304  0.00  0.00    +0.000 C 
ATOM     33  C   UNL     1       1.918  30.109  76.646  0.00  0.00    +0.000 C 
ENDBRANCH  30  31
ENDBRANCH   4  30
TORSDOF 7
ENDMDL
MODEL 8
REMARK VINA RESULT:      -6.5      4.448      7.046
REMARK  Name = 
REMARK  9 active torsions:
REMARK  status: ('A' for Active; 'I' for Inactive)
REMARK    1  A    between atoms: C_2  and  C_5
REMARK    2  A    between atoms: C_10  and  C_11
REMARK    3  A    between atoms: C_14  and  C_16
REMARK    4  A    between atoms: C_14  and  C_18
REMARK    5  A    between atoms: C_15  and  C_19
REMARK    6  A    between atoms: C_18  and  C_23
REMARK    7  A    between atoms: C_20  and  C_26
REMARK    8  A    between atoms: C_23  and  C_27
REMARK    9  A    between atoms: C_23  and  C_28
REMARK                            x       y       z     vdW  Elec       q    Type
REMARK                         _______ _______ _______ _____ _____    ______ ____
ROOT
ATOM      1  C   UNL     1       4.985  35.705  79.467  0.00  0.00    +0.000 C 
ATOM      2  O   UNL     1       4.367  36.717  79.791  0.00  0.00    +0.000 OA
ATOM      3  N   UNL     1       6.355  35.759  79.167  0.00  0.00    +0.000 N 
ATOM      4  C   UNL     1       7.201  36.978  79.433  0.00  0.00    +0.000 C 
ATOM      5  C   UNL     1       7.218  34.624  78.730  0.00  0.00    +0.000 C 
ATOM      6  C   UNL     1       8.398  36.681  78.458  0.00  0.00    +0.000 C 
ATOM      7  C   UNL     1       8.639  35.184  78.596  0.00  0.00    +0.000 C 
ENDROOT
BRANCH   1  13
ATOM      8  C   UNL     1       2.910  31.960  78.943  0.00  0.00    +0.000 A 
ATOM      9  C   UNL     1       2.685  33.026  78.061  0.00  0.00    +0.000 A 
ATOM     10  C   UNL     1       3.691  32.188  80.080  0.00  0.00    +0.000 A 
ATOM     11  C   UNL     1       3.331  34.258  78.259  0.00  0.00    +0.000 A 
ATOM     12  C   UNL     1       4.248  33.442  80.322  0.00  0.00    +0.000 A 
ATOM     13  C   UNL     1       4.184  34.444  79.359  0.00  0.00    +0.000 A 
BRANCH   8  15
ATOM     14  F   UNL     1       1.757  30.413  77.503  0.00  0.00    +0.000 F 
ATOM     15  C   UNL     1       2.360  30.573  78.711  0.00  0.00    +0.000 C 
ATOM     16  F   UNL     1       1.426  30.230  79.644  0.00  0.00    +0.000 F 
ATOM     17  F   UNL     1       3.323  29.613  78.788  0.00  0.00    +0.000 F 
ENDBRANCH   8  15
ENDBRANCH   1  13
BRANCH   5  18
ATOM     18  C   UNL     1       6.719  33.802  77.559  0.00  0.00    +0.000 A 
ATOM     19  C   UNL     1       6.306  34.368  76.348  0.00  0.00    +0.000 A 
ATOM     20  C   UNL     1       6.603  32.407  77.723  0.00  0.00    +0.000 A 
ATOM     21  C   UNL     1       5.723  33.564  75.360  0.00  0.00    +0.000 A 
ATOM     22  C   UNL     1       6.019  31.609  76.739  0.00  0.00    +0.000 A 
ATOM     23  C   UNL     1       5.569  32.193  75.563  0.00  0.00    +0.000 A 
ENDBRANCH   5  18
BRANCH   4  24
ATOM     24  C   UNL     1       6.743  38.423  79.055  0.00  0.00    +0.000 C 
ATOM     25  O   UNL     1       6.747  39.355  79.852  0.00  0.00    +0.000 OA
ATOM     26  O   UNL     1       6.155  38.570  77.853  0.00  0.00    +0.000 OA
ENDBRANCH   4  24
BRANCH   7  27
ATOM     27  C   UNL     1       9.486  34.575  77.509  0.00  0.00    +0.000 C 
ATOM     28  O   UNL     1       9.691  35.090  76.419  0.00  0.00    +0.000 OA
ATOM     29  O   UNL     1      10.050  33.397  77.872  0.00  0.00    +0.000 OA
ENDBRANCH   7  27
BRANCH   4  30
ATOM     30  C   UNL     1       7.812  37.023  80.882  0.00  0.00    +0.000 C 
BRANCH  30  31
ATOM     31  C   UNL     1       9.280  37.407  81.166  0.00  0.00    +0.000 C 
ATOM     32  C   UNL     1       9.463  38.719  81.926  0.00  0.00    +0.000 C 
ATOM     33  C   UNL     1       9.900  36.292  82.032  0.00  0.00    +0.000 C 
ENDBRANCH  30  31
ENDBRANCH   4  30
TORSDOF 7
ENDMDL
MODEL 9
REMARK VINA RESULT:      -6.3      2.056      2.961
REMARK  Name = 
REMARK  9 active torsions:
REMARK  status: ('A' for Active; 'I' for Inactive)
REMARK    1  A    between atoms: C_2  and  C_5
REMARK    2  A    between atoms: C_10  and  C_11
REMARK    3  A    between atoms: C_14  and  C_16
REMARK    4  A    between atoms: C_14  and  C_18
REMARK    5  A    between atoms: C_15  and  C_19
REMARK    6  A    between atoms: C_18  and  C_23
REMARK    7  A    between atoms: C_20  and  C_26
REMARK    8  A    between atoms: C_23  and  C_27
REMARK    9  A    between atoms: C_23  and  C_28
REMARK                            x       y       z     vdW  Elec       q    Type
REMARK                         _______ _______ _______ _____ _____    ______ ____
ROOT
ATOM      1  C   UNL     1       7.460  31.655  77.047  0.00  0.00    +0.000 C 
ATOM      2  O   UNL     1       7.168  30.873  76.146  0.00  0.00    +0.000 OA
ATOM      3  N   UNL     1       6.653  31.773  78.190  0.00  0.00    +0.000 N 
ATOM      4  C   UNL     1       5.528  30.818  78.498  0.00  0.00    +0.000 C 
ATOM      5  C   UNL     1       6.866  32.699  79.340  0.00  0.00    +0.000 C 
ATOM      6  C   UNL     1       4.703  31.705  79.500  0.00  0.00    +0.000 C 
ATOM      7  C   UNL     1       5.756  32.397  80.353  0.00  0.00    +0.000 C 
ENDROOT
BRANCH   1  13
ATOM      8  C   UNL     1      11.068  33.857  76.189  0.00  0.00    +0.000 A 
ATOM      9  C   UNL     1      11.068  32.843  77.157  0.00  0.00    +0.000 A 
ATOM     10  C   UNL     1       9.847  34.244  75.630  0.00  0.00    +0.000 A 
ATOM     11  C   UNL     1       9.881  32.156  77.463  0.00  0.00    +0.000 A 
ATOM     12  C   UNL     1       8.659  33.626  76.012  0.00  0.00    +0.000 A 
ATOM     13  C   UNL     1       8.677  32.498  76.827  0.00  0.00    +0.000 A 
BRANCH   8  15
ATOM     14  F   UNL     1      12.243  35.893  75.672  0.00  0.00    +0.000 F 
ATOM     15  C   UNL     1      12.329  34.537  75.713  0.00  0.00    +0.000 C 
ATOM     16  F   UNL     1      12.679  34.145  74.454  0.00  0.00    +0.000 F 
ATOM     17  F   UNL     1      13.403  34.246  76.498  0.00  0.00    +0.000 F 
ENDBRANCH   8  15
ENDBRANCH   1  13
BRANCH   5  18
ATOM     18  C   UNL     1       7.075  34.163  79.005  0.00  0.00    +0.000 A 
ATOM     19  C   UNL     1       6.220  34.883  78.163  0.00  0.00    +0.000 A 
ATOM     20  C   UNL     1       8.220  34.807  79.513  0.00  0.00    +0.000 A 
ATOM     21  C   UNL     1       6.550  36.191  77.783  0.00  0.00    +0.000 A 
ATOM     22  C   UNL     1       8.548  36.108  79.130  0.00  0.00    +0.000 A 
ATOM     23  C   UNL     1       7.716  36.793  78.255  0.00  0.00    +0.000 A 
ENDBRANCH   5  18
BRANCH   4  24
ATOM     24  C   UNL     1       4.485  30.368  77.426  0.00  0.00    +0.000 C 
ATOM     25  O   UNL     1       3.555  31.078  77.059  0.00  0.00    +0.000 OA
ATOM     26  O   UNL     1       4.534  29.078  77.048  0.00  0.00    +0.000 OA
ENDBRANCH   4  24
BRANCH   7  27
ATOM     27  C   UNL     1       5.253  33.574  81.148  0.00  0.00    +0.000 C 
ATOM     28  O   UNL     1       4.215  34.177  80.915  0.00  0.00    +0.000 OA
ATOM     29  O   UNL     1       6.053  33.887  82.198  0.00  0.00    +0.000 OA
ENDBRANCH   7  27
BRANCH   4  30
ATOM     30  C   UNL     1       5.980  29.544  79.304  0.00  0.00    +0.000 C 
BRANCH  30  31
ATOM     31  C   UNL     1       5.306  29.095  80.618  0.00  0.00    +0.000 C 
ATOM     32  C   UNL     1       4.070  28.216  80.435  0.00  0.00    +0.000 C 
ATOM     33  C   UNL     1       6.333  28.270  81.418  0.00  0.00    +0.000 C 
ENDBRANCH  30  31
ENDBRANCH   4  30
TORSDOF 7
ENDMDL
