REMARK  Name = 
REMARK  7 active torsions:
REMARK  status: ('A' for Active; 'I' for Inactive)
REMARK    1  A    between atoms: C_2  and  C_4
REMARK    2  A    between atoms: C_11  and  C_12
REMARK    3  A    between atoms: C_15  and  O_16
REMARK    4  A    between atoms: O_16  and  C_17
REMARK    5  A    between atoms: C_17  and  C_18
REMARK    6  A    between atoms: C_17  and  C_24
REMARK    7  A    between atoms: N_33  and  C_34
REMARK                            x       y       z     vdW  Elec       q    Type
REMARK                         _______ _______ _______ _____ _____    ______ ____
ROOT
ATOM      1  C   UNL     1       6.913  -5.269  -0.282  0.00  0.00    +0.053 A 
ATOM      2  C   UNL     1       8.115  -5.336  -0.992  0.00  0.00    +0.018 A 
ATOM      3  C   UNL     1       9.057  -6.320  -0.680  0.00  0.00    +0.046 A 
ATOM      4  C   UNL     1       8.828  -7.238   0.352  0.00  0.00    +0.125 A 
ATOM      5  C   UNL     1       7.635  -7.164   1.064  0.00  0.00    +0.084 A 
ATOM      6  C   UNL     1       6.687  -6.191   0.740  0.00  0.00    +0.137 A 
ATOM      7  F   UNL     1       5.540  -6.169   1.435  0.00  0.00    -0.205 F 
ENDROOT
BRANCH   1  15
ATOM      8  C   UNL     1       3.347  -0.519  -0.997  0.00  0.00    -0.001 A 
ATOM      9  C   UNL     1       2.821  -1.262  -2.067  0.00  0.00    +0.012 A 
ATOM     10  C   UNL     1       3.289  -2.543  -2.389  0.00  0.00    +0.028 A 
ATOM     11  C   UNL     1       4.316  -3.074  -1.599  0.00  0.00    +0.069 A 
ATOM     12  C   UNL     1       4.864  -2.365  -0.533  0.00  0.00    +0.090 A 
ATOM     13  C   UNL     1       4.380  -1.084  -0.225  0.00  0.00    +0.039 A 
ATOM     14  N   UNL     1       5.863  -3.086   0.072  0.00  0.00    -0.227 NA
ATOM     15  C   UNL     1       5.941  -4.226  -0.583  0.00  0.00    +0.145 A 
ATOM     16  N   UNL     1       5.012  -4.267  -1.610  0.00  0.00    -0.320 N 
BRANCH  16  17
ATOM     17  C   UNL     1       4.835  -5.373  -2.548  0.00  0.00    +0.089 C 
ATOM     18  C   UNL     1       3.439  -6.012  -2.475  0.00  0.00    +0.025 C 
ATOM     19  C   UNL     1       3.316  -7.188  -3.443  0.00  0.00    +0.002 C 
ATOM     20  C   UNL     1       3.687  -6.788  -4.868  0.00  0.00    +0.000 C 
ATOM     21  C   UNL     1       5.083  -6.176  -4.936  0.00  0.00    +0.002 C 
ATOM     22  C   UNL     1       5.225  -4.990  -3.985  0.00  0.00    +0.025 C 
ENDBRANCH  16  17
BRANCH   8  24
ATOM     23  O   UNL     1       1.881   1.306  -1.429  0.00  0.00    -0.545 OA
ATOM     24  C   UNL     1       2.814   0.865  -0.685  0.00  0.00    +0.072 C 
ATOM     25  O   UNL     1       3.338   1.485   0.293  0.00  0.00    -0.545 OA
ENDBRANCH   8  24
ENDBRANCH   1  15
BRANCH   4  26
ATOM     26  O   UNL     1       9.860  -8.104   0.560  0.00  0.00    -0.479 OA
BRANCH  26  27
ATOM     27  C   UNL     1       9.851  -9.137   1.567  0.00  0.00    +0.237 C 
BRANCH  27  28
ATOM     28  C   UNL     1      10.274  -8.670   2.953  0.00  0.00    +0.015 A 
ATOM     29  C   UNL     1      10.213  -7.343   3.391  0.00  0.00    +0.010 A 
ATOM     30  C   UNL     1      10.634  -7.009   4.677  0.00  0.00    +0.020 A 
ATOM     31  C   UNL     1      11.119  -8.014   5.494  0.00  0.00    +0.111 A 
ATOM     32  N   UNL     1      11.213  -9.303   5.113  0.00  0.00    -0.263 NA
ATOM     33  C   UNL     1      10.797  -9.597   3.859  0.00  0.00    +0.118 A 
ENDBRANCH  27  28
BRANCH  27  34
ATOM     34  C   UNL     1       8.693 -10.120   1.452  0.00  0.00    +0.015 A 
ATOM     35  C   UNL     1       8.434 -10.750   0.226  0.00  0.00    +0.010 A 
ATOM     36  C   UNL     1       7.383 -11.656   0.110  0.00  0.00    +0.020 A 
ATOM     37  C   UNL     1       6.618 -11.915   1.231  0.00  0.00    +0.111 A 
ATOM     38  N   UNL     1       6.833 -11.338   2.431  0.00  0.00    -0.263 NA
ATOM     39  C   UNL     1       7.856 -10.455   2.514  0.00  0.00    +0.118 A 
ENDBRANCH  27  34
ENDBRANCH  26  27
ENDBRANCH   4  26
TORSDOF 7
