REMARK  Name = 
REMARK  6 active torsions:
REMARK  status: ('A' for Active; 'I' for Inactive)
REMARK    1  A    between atoms: C_1  and  C_2
REMARK    2  A    between atoms: C_2  and  O_3
REMARK    3  A    between atoms: O_3  and  C_4
REMARK    4  A    between atoms: C_4  and  C_6
REMARK    5  A    between atoms: C_10  and  O_11
REMARK    6  A    between atoms: C_12  and  C_13
REMARK                            x       y       z     vdW  Elec       q    Type
REMARK                         _______ _______ _______ _____ _____    ______ ____
ROOT
ATOM      1  C   UNL     1       2.933   1.121   3.648  0.00  0.00    +0.216 A 
ATOM      2  C   UNL     1       2.059   1.266   4.654  0.00  0.00    +0.108 A 
ATOM      3  C   UNL     1       2.439   2.093   5.807  0.00  0.00    +0.228 A 
ATOM      4  O   UNL     1       1.676   2.252   6.758  0.00  0.00    -0.284 OA
ATOM      5  C   UNL     1       3.773   2.740   5.791  0.00  0.00    +0.209 A 
ATOM      6  C   UNL     1       4.554   2.512   4.728  0.00  0.00    +0.196 A 
ATOM      7  O   UNL     1       4.187   1.711   3.654  0.00  0.00    -0.443 OA
ENDROOT
BRANCH   6   8
ATOM      8  C   UNL     1       5.939   3.152   4.636  0.00  0.00    +0.111 C 
ATOM      9  O   UNL     1       6.881   2.461   5.121  0.00  0.00    -0.541 OA
ATOM     10  O   UNL     1       5.974   4.261   4.026  0.00  0.00    -0.541 OA
ENDBRANCH   6   8
BRANCH   1  11
ATOM     11  C   UNL     1       2.596   0.290   2.455  0.00  0.00    +0.375 C 
ATOM     12  O   UNL     1       3.394  -0.011   1.579  0.00  0.00    -0.241 OA
BRANCH  11  13
ATOM     13  O   UNL     1       1.283  -0.075   2.463  0.00  0.00    -0.459 OA
BRANCH  13  15
ATOM     14  C   UNL     1       0.473   0.041   0.181  0.00  0.00    +0.048 C 
ATOM     15  C   UNL     1       0.850  -0.859   1.343  0.00  0.00    +0.229 C 
ENDBRANCH  13  15
ENDBRANCH  11  13
ENDBRANCH   1  11
BRANCH   5  16
ATOM     16  O   UNL     1       4.113   3.531   6.869  0.00  0.00    -0.501 OA
ATOM     17  H   UNL     1       3.343   3.489   7.468  0.00  0.00    +0.292 HD
ENDBRANCH   5  16
TORSDOF 5
