
 OpenBabel09122222393D

 17 17  0  0  0  0  0  0  0  0999 V2000
    9.2410   -1.9270    3.5110 C   0  0  0  0  0  0  0  0  0  0  0  0
    9.3210   -2.6710    2.3980 C   0  0  0  0  0  3  0  0  0  0  0  0
    9.4500   -1.9920    1.1020 C   0  0  0  0  0  0  0  0  0  0  0  0
    9.5200   -2.6290    0.0520 O   0  0  0  0  0  0  0  0  0  0  0  0
    9.5000   -0.5110    1.0930 C   0  0  0  0  0  0  0  0  0  0  0  0
    9.4070    0.1150    2.2730 C   0  0  0  0  0  0  0  0  0  0  0  0
    9.2650   -0.5420    3.4890 O   0  0  0  0  0  0  0  0  0  0  0  0
    9.4600    1.6400    2.3450 C   0  0  0  0  0  0  0  0  0  0  0  0
    9.8190    2.1110    3.4630 O   0  0  0  0  0  1  0  0  0  0  0  0
    9.2030    2.2340    1.2560 O   0  0  0  0  0  0  0  0  0  0  0  0
    9.1070   -2.5680    4.8520 C   0  0  0  0  0  0  0  0  0  0  0  0
    9.9050   -2.4220    5.7670 O   0  0  0  0  0  0  0  0  0  0  0  0
    7.9910   -3.3480    4.9170 O   0  0  0  0  0  0  0  0  0  0  0  0
    5.7260   -3.6510    5.7240 C   0  0  0  0  0  1  0  0  0  0  0  0
    7.0960   -3.0610    6.0000 C   0  0  0  0  0  2  0  0  0  0  0  0
    9.6420    0.1170   -0.1270 O   0  0  0  0  0  0  0  0  0  0  0  0
    9.6750   -0.6060   -0.7830 H   0  0  0  0  0  0  0  0  0  0  0  0
  1 11  1  0  0  0  0
  2  1  2  0  0  0  0
  3  2  1  0  0  0  0
  4  3  2  0  0  0  0
  5  3  1  0  0  0  0
  5  6  2  0  0  0  0
  6  8  1  0  0  0  0
  6  7  1  0  0  0  0
  7  1  1  0  0  0  0
  8  9  1  0  0  0  0
 10  8  2  0  0  0  0
 11 13  1  0  0  0  0
 11 12  2  0  0  0  0
 13 15  1  0  0  0  0
 14 15  1  0  0  0  0
 16  5  1  0  0  0  0
 17 16  1  0  0  0  0
M  END
>  <minimizedAffinity>
-4.85903168

$$$$
