
 OpenBabel09122220403D

 17 17  0  0  0  0  0  0  0  0999 V2000
    9.5320   -0.6650    0.9260 C   0  0  0  0  0  0  0  0  0  0  0  0
   10.1980   -1.0720   -0.1630 C   0  0  0  0  0  3  0  0  0  0  0  0
   10.2340   -2.5080   -0.4740 C   0  0  0  0  0  0  0  0  0  0  0  0
   10.8360   -2.9330   -1.4580 O   0  0  0  0  0  0  0  0  0  0  0  0
    9.5140   -3.4350    0.4320 C   0  0  0  0  0  0  0  0  0  0  0  0
    8.8900   -2.9010    1.4890 C   0  0  0  0  0  0  0  0  0  0  0  0
    8.8830   -1.5420    1.7800 O   0  0  0  0  0  0  0  0  0  0  0  0
    8.1200   -3.7920    2.4630 C   0  0  0  0  0  0  0  0  0  0  0  0
    7.4920   -4.7510    1.9280 O   0  0  0  0  0  0  0  0  0  0  0  0
    8.2650   -3.4960    3.6850 O   0  0  0  0  0  1  0  0  0  0  0  0
    9.4670    0.7820    1.2870 C   0  0  0  0  0  0  0  0  0  0  0  0
    8.8340    1.2270    2.2340 O   0  0  0  0  0  0  0  0  0  0  0  0
   10.1920    1.5410    0.4170 O   0  0  0  0  0  0  0  0  0  0  0  0
    9.7820    3.9170    0.1700 C   0  0  0  0  0  1  0  0  0  0  0  0
   10.5700    2.8400    0.8920 C   0  0  0  0  0  2  0  0  0  0  0  0
    9.5360   -4.7790    0.1210 O   0  0  0  0  0  0  0  0  0  0  0  0
   10.0710   -4.8420   -0.6940 H   0  0  0  0  0  0  0  0  0  0  0  0
  1 11  1  0  0  0  0
  1  7  1  0  0  0  0
  2  1  2  0  0  0  0
  3  2  1  0  0  0  0
  3  5  1  0  0  0  0
  4  3  2  0  0  0  0
  5  6  2  0  0  0  0
  6  7  1  0  0  0  0
  6  8  1  0  0  0  0
  8 10  1  0  0  0  0
  9  8  2  0  0  0  0
 11 12  2  0  0  0  0
 13 15  1  0  0  0  0
 13 11  1  0  0  0  0
 14 15  1  0  0  0  0
 16  5  1  0  0  0  0
 17 16  1  0  0  0  0
M  END
>  <minimizedAffinity>
-5.83311129

$$$$

 OpenBabel09122220403D

 17 17  0  0  0  0  0  0  0  0999 V2000
    9.5910   -1.9180    2.8170 C   0  0  0  0  0  0  0  0  0  0  0  0
    9.3220   -0.6050    2.8370 C   0  0  0  0  0  3  0  0  0  0  0  0
    9.3750    0.1460    1.5760 C   0  0  0  0  0  0  0  0  0  0  0  0
    9.1440    1.3540    1.5420 O   0  0  0  0  0  0  0  0  0  0  0  0
    9.7110   -0.5950    0.3370 C   0  0  0  0  0  0  0  0  0  0  0  0
    9.9620   -1.9050    0.4530 C   0  0  0  0  0  0  0  0  0  0  0  0
    9.9270   -2.5970    1.6570 O   0  0  0  0  0  0  0  0  0  0  0  0
   10.3060   -2.7380   -0.7820 C   0  0  0  0  0  0  0  0  0  0  0  0
    9.8070   -3.9000   -0.7990 O   0  0  0  0  0  1  0  0  0  0  0  0
   10.9890   -2.1330   -1.6590 O   0  0  0  0  0  0  0  0  0  0  0  0
    9.5520   -2.7260    4.0720 C   0  0  0  0  0  0  0  0  0  0  0  0
    8.5940   -3.3960    4.4290 O   0  0  0  0  0  0  0  0  0  0  0  0
   10.7160   -2.6070    4.7710 O   0  0  0  0  0  0  0  0  0  0  0  0
   10.8630   -0.6650    6.2150 C   0  0  0  0  0  1  0  0  0  0  0  0
   10.5830   -2.1540    6.1250 C   0  0  0  0  0  2  0  0  0  0  0  0
    9.7380    0.1150   -0.8460 O   0  0  0  0  0  0  0  0  0  0  0  0
    9.5200    1.0330   -0.5960 H   0  0  0  0  0  0  0  0  0  0  0  0
  1  2  2  0  0  0  0
  1 11  1  0  0  0  0
  3  2  1  0  0  0  0
  4  3  2  0  0  0  0
  5  6  2  0  0  0  0
  5  3  1  0  0  0  0
  6  7  1  0  0  0  0
  7  1  1  0  0  0  0
  8  6  1  0  0  0  0
  9  8  1  0  0  0  0
 10  8  2  0  0  0  0
 11 12  2  0  0  0  0
 11 13  1  0  0  0  0
 13 15  1  0  0  0  0
 15 14  1  0  0  0  0
 16 17  1  0  0  0  0
 16  5  1  0  0  0  0
M  END
>  <minimizedAffinity>
-5.61436844

$$$$

 OpenBabel09122220403D

 17 17  0  0  0  0  0  0  0  0999 V2000
    9.4890   -3.2760    0.9130 C   0  0  0  0  0  0  0  0  0  0  0  0
    8.3730   -4.0140    0.9950 C   0  0  0  0  0  3  0  0  0  0  0  0
    7.6420   -4.0500    2.2680 C   0  0  0  0  0  0  0  0  0  0  0  0
    6.6170   -4.7160    2.3980 O   0  0  0  0  0  0  0  0  0  0  0  0
    8.1720   -3.2510    3.3990 C   0  0  0  0  0  0  0  0  0  0  0  0
    9.2990   -2.5600    3.1890 C   0  0  0  0  0  0  0  0  0  0  0  0
    9.9900   -2.5520    1.9830 O   0  0  0  0  0  0  0  0  0  0  0  0
    9.9010   -1.7060    4.3040 C   0  0  0  0  0  0  0  0  0  0  0  0
    9.2260   -0.6840    4.6200 O   0  0  0  0  0  0  0  0  0  0  0  0
   10.9640   -2.1690    4.8140 O   0  0  0  0  0  1  0  0  0  0  0  0
   10.2700   -3.2080   -0.3580 C   0  0  0  0  0  0  0  0  0  0  0  0
   10.2720   -4.0830   -1.2110 O   0  0  0  0  0  0  0  0  0  0  0  0
   10.9890   -2.0530   -0.4330 O   0  0  0  0  0  0  0  0  0  0  0  0
   10.2940    0.2370   -0.8200 C   0  0  0  0  0  1  0  0  0  0  0  0
   10.5640   -1.1220   -1.4380 C   0  0  0  0  0  2  0  0  0  0  0  0
    7.4680   -3.2750    4.5850 O   0  0  0  0  0  0  0  0  0  0  0  0
    6.7090   -3.8670    4.4180 H   0  0  0  0  0  0  0  0  0  0  0  0
  1  2  2  0  0  0  0
  1  7  1  0  0  0  0
  2  3  1  0  0  0  0
  3  4  2  0  0  0  0
  3  5  1  0  0  0  0
  5 16  1  0  0  0  0
  6  5  2  0  0  0  0
  6  8  1  0  0  0  0
  7  6  1  0  0  0  0
  8  9  2  0  0  0  0
  8 10  1  0  0  0  0
 11  1  1  0  0  0  0
 12 11  2  0  0  0  0
 13 11  1  0  0  0  0
 15 14  1  0  0  0  0
 15 13  1  0  0  0  0
 17 16  1  0  0  0  0
M  END
>  <minimizedAffinity>
-5.28023672

$$$$

 OpenBabel09122220403D

 17 17  0  0  0  0  0  0  0  0999 V2000
    8.9330   -2.3100    1.9090 C   0  0  0  0  0  0  0  0  0  0  0  0
    9.4050   -2.7110    0.7200 C   0  0  0  0  0  3  0  0  0  0  0  0
    9.9200   -1.7010   -0.2140 C   0  0  0  0  0  0  0  0  0  0  0  0
   10.3570   -2.0170   -1.3190 O   0  0  0  0  0  0  0  0  0  0  0  0
    9.9040   -0.2830    0.2160 C   0  0  0  0  0  0  0  0  0  0  0  0
    9.4030   -0.0130    1.4280 C   0  0  0  0  0  0  0  0  0  0  0  0
    8.9010   -0.9790    2.2910 O   0  0  0  0  0  0  0  0  0  0  0  0
    9.3620    1.4250    1.9440 C   0  0  0  0  0  0  0  0  0  0  0  0
    9.1370    2.3040    1.0620 O   0  0  0  0  0  0  0  0  0  0  0  0
    9.4910    1.5450    3.1980 O   0  0  0  0  0  1  0  0  0  0  0  0
    8.3970   -3.2970    2.8920 C   0  0  0  0  0  0  0  0  0  0  0  0
    7.4440   -4.0320    2.6780 O   0  0  0  0  0  0  0  0  0  0  0  0
    9.0970   -3.2590    4.0600 O   0  0  0  0  0  0  0  0  0  0  0  0
    9.0320   -1.5750    5.8030 C   0  0  0  0  0  1  0  0  0  0  0  0
    8.3680   -2.8020    5.2070 C   0  0  0  0  0  2  0  0  0  0  0  0
   10.4090    0.6570   -0.6590 O   0  0  0  0  0  0  0  0  0  0  0  0
   10.6860    0.1480   -1.4460 H   0  0  0  0  0  0  0  0  0  0  0  0
  1  7  1  0  0  0  0
  1 11  1  0  0  0  0
  2  1  2  0  0  0  0
  3  5  1  0  0  0  0
  3  2  1  0  0  0  0
  4  3  2  0  0  0  0
  5  6  2  0  0  0  0
  6  8  1  0  0  0  0
  6  7  1  0  0  0  0
  8 10  1  0  0  0  0
  9  8  2  0  0  0  0
 11 13  1  0  0  0  0
 12 11  2  0  0  0  0
 13 15  1  0  0  0  0
 15 14  1  0  0  0  0
 16  5  1  0  0  0  0
 17 16  1  0  0  0  0
M  END
>  <minimizedAffinity>
-5.23317671

$$$$

 OpenBabel09122220403D

 17 17  0  0  0  0  0  0  0  0999 V2000
    9.3650   -0.1020    2.1720 C   0  0  0  0  0  0  0  0  0  0  0  0
    9.3610   -0.8630    1.0680 C   0  0  0  0  0  3  0  0  0  0  0  0
    9.1500   -2.3100    1.2090 C   0  0  0  0  0  0  0  0  0  0  0  0
    9.1450   -3.0530    0.2290 O   0  0  0  0  0  0  0  0  0  0  0  0
    8.9370   -2.8540    2.5710 C   0  0  0  0  0  0  0  0  0  0  0  0
    8.9680   -1.9880    3.5910 C   0  0  0  0  0  0  0  0  0  0  0  0
    9.1880   -0.6240    3.4430 O   0  0  0  0  0  0  0  0  0  0  0  0
    8.7480   -2.4730    5.0240 C   0  0  0  0  0  0  0  0  0  0  0  0
    9.5170   -1.9600    5.8870 O   0  0  0  0  0  1  0  0  0  0  0  0
    7.7790   -3.2750    5.1710 O   0  0  0  0  0  0  0  0  0  0  0  0
    9.5770    1.3730    2.0830 C   0  0  0  0  0  0  0  0  0  0  0  0
    9.8510    1.9680    1.0510 O   0  0  0  0  0  0  0  0  0  0  0  0
    9.4390    1.9650    3.3030 O   0  0  0  0  0  0  0  0  0  0  0  0
   10.1990    3.7800    4.7190 C   0  0  0  0  0  1  0  0  0  0  0  0
   10.6020    2.6440    3.7980 C   0  0  0  0  0  2  0  0  0  0  0  0
    8.7200   -4.2110    2.6910 O   0  0  0  0  0  0  0  0  0  0  0  0
    8.7630   -4.5570    1.7790 H   0  0  0  0  0  0  0  0  0  0  0  0
  1  7  1  0  0  0  0
  2  3  1  0  0  0  0
  2  1  2  0  0  0  0
  3  5  1  0  0  0  0
  4  3  2  0  0  0  0
  5 16  1  0  0  0  0
  5  6  2  0  0  0  0
  6  8  1  0  0  0  0
  7  6  1  0  0  0  0
  8 10  2  0  0  0  0
  8  9  1  0  0  0  0
 11  1  1  0  0  0  0
 11 13  1  0  0  0  0
 12 11  2  0  0  0  0
 13 15  1  0  0  0  0
 15 14  1  0  0  0  0
 17 16  1  0  0  0  0
M  END
>  <minimizedAffinity>
-5.10261011

$$$$

 OpenBabel09122220403D

 17 17  0  0  0  0  0  0  0  0999 V2000
    8.5400   -2.9190    1.9320 C   0  0  0  0  0  0  0  0  0  0  0  0
    9.0550   -3.6660    0.9450 C   0  0  0  0  0  3  0  0  0  0  0  0
    9.8150   -3.0020   -0.1220 C   0  0  0  0  0  0  0  0  0  0  0  0
   10.3010   -3.6420   -1.0530 O   0  0  0  0  0  0  0  0  0  0  0  0
    9.9850   -1.5310   -0.0440 C   0  0  0  0  0  0  0  0  0  0  0  0
    9.4180   -0.9010    0.9910 C   0  0  0  0  0  0  0  0  0  0  0  0
    8.6850   -1.5420    1.9820 O   0  0  0  0  0  0  0  0  0  0  0  0
    9.5580    0.6140    1.1440 C   0  0  0  0  0  0  0  0  0  0  0  0
    9.0210    1.0990    2.1810 O   0  0  0  0  0  1  0  0  0  0  0  0
   10.2520    1.1780    0.2470 O   0  0  0  0  0  0  0  0  0  0  0  0
    7.7590   -3.5450    3.0390 C   0  0  0  0  0  0  0  0  0  0  0  0
    7.9350   -3.3080    4.2250 O   0  0  0  0  0  0  0  0  0  0  0  0
    6.8370   -4.4250    2.5550 O   0  0  0  0  0  0  0  0  0  0  0  0
    4.4620   -4.8610    2.3390 C   0  0  0  0  0  1  0  0  0  0  0  0
    5.5960   -4.4790    3.2720 C   0  0  0  0  0  2  0  0  0  0  0  0
   10.7170   -0.9190   -1.0400 O   0  0  0  0  0  0  0  0  0  0  0  0
   10.9850   -1.6410   -1.6400 H   0  0  0  0  0  0  0  0  0  0  0  0
  1  7  1  0  0  0  0
  1 11  1  0  0  0  0
  2  1  2  0  0  0  0
  3  5  1  0  0  0  0
  3  2  1  0  0  0  0
  4  3  2  0  0  0  0
  5  6  2  0  0  0  0
  6  8  1  0  0  0  0
  6  7  1  0  0  0  0
  8  9  1  0  0  0  0
 10  8  2  0  0  0  0
 11 12  2  0  0  0  0
 13 11  1  0  0  0  0
 13 15  1  0  0  0  0
 14 15  1  0  0  0  0
 16  5  1  0  0  0  0
 17 16  1  0  0  0  0
M  END
>  <minimizedAffinity>
-5.09327793

$$$$

 OpenBabel09122220403D

 17 17  0  0  0  0  0  0  0  0999 V2000
    9.2410   -1.9270    3.5110 C   0  0  0  0  0  0  0  0  0  0  0  0
    9.3210   -2.6710    2.3980 C   0  0  0  0  0  3  0  0  0  0  0  0
    9.4500   -1.9920    1.1020 C   0  0  0  0  0  0  0  0  0  0  0  0
    9.5200   -2.6290    0.0520 O   0  0  0  0  0  0  0  0  0  0  0  0
    9.5000   -0.5110    1.0930 C   0  0  0  0  0  0  0  0  0  0  0  0
    9.4070    0.1150    2.2730 C   0  0  0  0  0  0  0  0  0  0  0  0
    9.2650   -0.5420    3.4890 O   0  0  0  0  0  0  0  0  0  0  0  0
    9.4600    1.6400    2.3450 C   0  0  0  0  0  0  0  0  0  0  0  0
    9.8190    2.1110    3.4630 O   0  0  0  0  0  1  0  0  0  0  0  0
    9.2030    2.2340    1.2560 O   0  0  0  0  0  0  0  0  0  0  0  0
    9.1070   -2.5680    4.8520 C   0  0  0  0  0  0  0  0  0  0  0  0
    9.9050   -2.4220    5.7670 O   0  0  0  0  0  0  0  0  0  0  0  0
    7.9910   -3.3480    4.9170 O   0  0  0  0  0  0  0  0  0  0  0  0
    5.7260   -3.6510    5.7240 C   0  0  0  0  0  1  0  0  0  0  0  0
    7.0960   -3.0610    6.0000 C   0  0  0  0  0  2  0  0  0  0  0  0
    9.6420    0.1170   -0.1270 O   0  0  0  0  0  0  0  0  0  0  0  0
    9.6750   -0.6060   -0.7830 H   0  0  0  0  0  0  0  0  0  0  0  0
  1 11  1  0  0  0  0
  2  1  2  0  0  0  0
  3  2  1  0  0  0  0
  4  3  2  0  0  0  0
  5  3  1  0  0  0  0
  5  6  2  0  0  0  0
  6  8  1  0  0  0  0
  6  7  1  0  0  0  0
  7  1  1  0  0  0  0
  8  9  1  0  0  0  0
 10  8  2  0  0  0  0
 11 13  1  0  0  0  0
 11 12  2  0  0  0  0
 13 15  1  0  0  0  0
 14 15  1  0  0  0  0
 16  5  1  0  0  0  0
 17 16  1  0  0  0  0
M  END
>  <minimizedAffinity>
-4.85903168

$$$$

 OpenBabel09122220403D

 17 17  0  0  0  0  0  0  0  0999 V2000
    7.6280   -2.9800    5.8650 C   0  0  0  0  0  0  0  0  0  0  0  0
    8.7550   -2.4880    6.3990 C   0  0  0  0  0  3  0  0  0  0  0  0
    9.9300   -2.3160    5.5350 C   0  0  0  0  0  0  0  0  0  0  0  0
   10.9890   -1.8750    5.9780 O   0  0  0  0  0  0  0  0  0  0  0  0
    9.8030   -2.6840    4.1040 C   0  0  0  0  0  0  0  0  0  0  0  0
    8.6240   -3.1690    3.6970 C   0  0  0  0  0  0  0  0  0  0  0  0
    7.5270   -3.3440    4.5310 O   0  0  0  0  0  0  0  0  0  0  0  0
    8.4150   -3.5620    2.2340 C   0  0  0  0  0  0  0  0  0  0  0  0
    7.7160   -4.6010    2.0540 O   0  0  0  0  0  1  0  0  0  0  0  0
    8.9120   -2.7600    1.3910 O   0  0  0  0  0  0  0  0  0  0  0  0
    6.4070   -3.1760    6.7000 C   0  0  0  0  0  0  0  0  0  0  0  0
    6.1790   -4.1800    7.3610 O   0  0  0  0  0  0  0  0  0  0  0  0
    5.5750   -2.1000    6.6180 O   0  0  0  0  0  0  0  0  0  0  0  0
    3.9040   -2.9670    5.0900 C   0  0  0  0  0  1  0  0  0  0  0  0
    4.1810   -2.4030    6.4720 C   0  0  0  0  0  2  0  0  0  0  0  0
   10.9060   -2.5000    3.2970 O   0  0  0  0  0  0  0  0  0  0  0  0
   11.5970   -2.1430    3.8870 H   0  0  0  0  0  0  0  0  0  0  0  0
  1  2  2  0  0  0  0
  1 11  1  0  0  0  0
  3  4  2  0  0  0  0
  3  2  1  0  0  0  0
  5  3  1  0  0  0  0
  6  5  2  0  0  0  0
  6  7  1  0  0  0  0
  7  1  1  0  0  0  0
  8  6  1  0  0  0  0
  9  8  1  0  0  0  0
 10  8  2  0  0  0  0
 11 12  2  0  0  0  0
 13 11  1  0  0  0  0
 14 15  1  0  0  0  0
 15 13  1  0  0  0  0
 16 17  1  0  0  0  0
 16  5  1  0  0  0  0
M  END
>  <minimizedAffinity>
-4.84578657

$$$$

 OpenBabel09122220403D

 17 17  0  0  0  0  0  0  0  0999 V2000
    9.1270   -1.5860    3.2460 C   0  0  0  0  0  0  0  0  0  0  0  0
    9.2340   -2.3610    2.1570 C   0  0  0  0  0  3  0  0  0  0  0  0
    9.4940   -1.7250    0.8590 C   0  0  0  0  0  0  0  0  0  0  0  0
    9.5940   -2.3920   -0.1700 O   0  0  0  0  0  0  0  0  0  0  0  0
    9.6390   -0.2500    0.8220 C   0  0  0  0  0  0  0  0  0  0  0  0
    9.5060    0.4100    1.9790 C   0  0  0  0  0  0  0  0  0  0  0  0
    9.2410   -0.2060    3.1960 O   0  0  0  0  0  0  0  0  0  0  0  0
    9.6520    1.9300    2.0220 C   0  0  0  0  0  0  0  0  0  0  0  0
   10.2560    2.3820    3.0370 O   0  0  0  0  0  1  0  0  0  0  0  0
    9.2080    2.5370    1.0030 O   0  0  0  0  0  0  0  0  0  0  0  0
    8.8620   -2.1830    4.5880 C   0  0  0  0  0  0  0  0  0  0  0  0
    8.7220   -3.3800    4.7920 O   0  0  0  0  0  0  0  0  0  0  0  0
    8.7810   -1.2190    5.5480 O   0  0  0  0  0  0  0  0  0  0  0  0
   10.9890   -0.9280    6.5070 C   0  0  0  0  0  1  0  0  0  0  0  0
    9.5770   -1.4430    6.7200 C   0  0  0  0  0  2  0  0  0  0  0  0
    9.9030    0.3360   -0.3980 O   0  0  0  0  0  0  0  0  0  0  0  0
    9.9340   -0.4040   -1.0350 H   0  0  0  0  0  0  0  0  0  0  0  0
  1 11  1  0  0  0  0
  2  1  2  0  0  0  0
  3  2  1  0  0  0  0
  4  3  2  0  0  0  0
  5  3  1  0  0  0  0
  5  6  2  0  0  0  0
  6  8  1  0  0  0  0
  6  7  1  0  0  0  0
  7  1  1  0  0  0  0
  8  9  1  0  0  0  0
 10  8  2  0  0  0  0
 11 12  2  0  0  0  0
 11 13  1  0  0  0  0
 13 15  1  0  0  0  0
 14 15  1  0  0  0  0
 16  5  1  0  0  0  0
 17 16  1  0  0  0  0
M  END
>  <minimizedAffinity>
-4.80637407

$$$$

 OpenBabel09122220403D

 17 17  0  0  0  0  0  0  0  0999 V2000
    5.5420   -2.6680    6.6810 C   0  0  0  0  0  0  0  0  0  0  0  0
    5.2340   -1.7970    7.6520 C   0  0  0  0  0  3  0  0  0  0  0  0
    3.8930   -1.1970    7.6640 C   0  0  0  0  0  0  0  0  0  0  0  0
    3.5630   -0.3870    8.5290 O   0  0  0  0  0  0  0  0  0  0  0  0
    2.9400   -1.5990    6.6020 C   0  0  0  0  0  0  0  0  0  0  0  0
    3.3730   -2.4760    5.6880 C   0  0  0  0  0  0  0  0  0  0  0  0
    4.6520   -3.0190    5.6790 O   0  0  0  0  0  0  0  0  0  0  0  0
    2.4450   -2.9450    4.5680 C   0  0  0  0  0  0  0  0  0  0  0  0
    1.8510   -2.0200    3.9420 O   0  0  0  0  0  0  0  0  0  0  0  0
    2.4430   -4.1950    4.3670 O   0  0  0  0  0  1  0  0  0  0  0  0
    6.8910   -3.3040    6.6240 C   0  0  0  0  0  0  0  0  0  0  0  0
    7.4690   -3.7790    7.5910 O   0  0  0  0  0  0  0  0  0  0  0  0
    7.3980   -3.2720    5.3590 O   0  0  0  0  0  0  0  0  0  0  0  0
    9.3720   -3.0130    3.9760 C   0  0  0  0  0  1  0  0  0  0  0  0
    8.6120   -2.5250    5.1950 C   0  0  0  0  0  2  0  0  0  0  0  0
    1.6770   -1.0460    6.6330 O   0  0  0  0  0  0  0  0  0  0  0  0
    1.6790   -0.4510    7.4080 H   0  0  0  0  0  0  0  0  0  0  0  0
  1  2  2  0  0  0  0
  2  3  1  0  0  0  0
  3  4  2  0  0  0  0
  5 16  1  0  0  0  0
  5  3  1  0  0  0  0
  6  5  2  0  0  0  0
  7  6  1  0  0  0  0
  7  1  1  0  0  0  0
  8  6  1  0  0  0  0
  9  8  2  0  0  0  0
 10  8  1  0  0  0  0
 11  1  1  0  0  0  0
 11 12  2  0  0  0  0
 13 11  1  0  0  0  0
 14 15  1  0  0  0  0
 15 13  1  0  0  0  0
 16 17  1  0  0  0  0
M  END
>  <minimizedAffinity>
-4.74113274

$$$$
