
 OpenBabel09122222393D

 17 17  0  0  0  0  0  0  0  0999 V2000
    9.5320   -0.6650    0.9260 C   0  0  0  0  0  0  0  0  0  0  0  0
   10.1980   -1.0720   -0.1630 C   0  0  0  0  0  3  0  0  0  0  0  0
   10.2340   -2.5080   -0.4740 C   0  0  0  0  0  0  0  0  0  0  0  0
   10.8360   -2.9330   -1.4580 O   0  0  0  0  0  0  0  0  0  0  0  0
    9.5140   -3.4350    0.4320 C   0  0  0  0  0  0  0  0  0  0  0  0
    8.8900   -2.9010    1.4890 C   0  0  0  0  0  0  0  0  0  0  0  0
    8.8830   -1.5420    1.7800 O   0  0  0  0  0  0  0  0  0  0  0  0
    8.1200   -3.7920    2.4630 C   0  0  0  0  0  0  0  0  0  0  0  0
    7.4920   -4.7510    1.9280 O   0  0  0  0  0  0  0  0  0  0  0  0
    8.2650   -3.4960    3.6850 O   0  0  0  0  0  1  0  0  0  0  0  0
    9.4670    0.7820    1.2870 C   0  0  0  0  0  0  0  0  0  0  0  0
    8.8340    1.2270    2.2340 O   0  0  0  0  0  0  0  0  0  0  0  0
   10.1920    1.5410    0.4170 O   0  0  0  0  0  0  0  0  0  0  0  0
    9.7820    3.9170    0.1700 C   0  0  0  0  0  1  0  0  0  0  0  0
   10.5700    2.8400    0.8920 C   0  0  0  0  0  2  0  0  0  0  0  0
    9.5360   -4.7790    0.1210 O   0  0  0  0  0  0  0  0  0  0  0  0
   10.0710   -4.8420   -0.6940 H   0  0  0  0  0  0  0  0  0  0  0  0
  1 11  1  0  0  0  0
  1  7  1  0  0  0  0
  2  1  2  0  0  0  0
  3  2  1  0  0  0  0
  3  5  1  0  0  0  0
  4  3  2  0  0  0  0
  5  6  2  0  0  0  0
  6  7  1  0  0  0  0
  6  8  1  0  0  0  0
  8 10  1  0  0  0  0
  9  8  2  0  0  0  0
 11 12  2  0  0  0  0
 13 15  1  0  0  0  0
 13 11  1  0  0  0  0
 14 15  1  0  0  0  0
 16  5  1  0  0  0  0
 17 16  1  0  0  0  0
M  END
>  <minimizedAffinity>
-5.83311129

$$$$
