
 OpenBabel09122222393D

 17 17  0  0  0  0  0  0  0  0999 V2000
    8.5400   -2.9190    1.9320 C   0  0  0  0  0  0  0  0  0  0  0  0
    9.0550   -3.6660    0.9450 C   0  0  0  0  0  3  0  0  0  0  0  0
    9.8150   -3.0020   -0.1220 C   0  0  0  0  0  0  0  0  0  0  0  0
   10.3010   -3.6420   -1.0530 O   0  0  0  0  0  0  0  0  0  0  0  0
    9.9850   -1.5310   -0.0440 C   0  0  0  0  0  0  0  0  0  0  0  0
    9.4180   -0.9010    0.9910 C   0  0  0  0  0  0  0  0  0  0  0  0
    8.6850   -1.5420    1.9820 O   0  0  0  0  0  0  0  0  0  0  0  0
    9.5580    0.6140    1.1440 C   0  0  0  0  0  0  0  0  0  0  0  0
    9.0210    1.0990    2.1810 O   0  0  0  0  0  1  0  0  0  0  0  0
   10.2520    1.1780    0.2470 O   0  0  0  0  0  0  0  0  0  0  0  0
    7.7590   -3.5450    3.0390 C   0  0  0  0  0  0  0  0  0  0  0  0
    7.9350   -3.3080    4.2250 O   0  0  0  0  0  0  0  0  0  0  0  0
    6.8370   -4.4250    2.5550 O   0  0  0  0  0  0  0  0  0  0  0  0
    4.4620   -4.8610    2.3390 C   0  0  0  0  0  1  0  0  0  0  0  0
    5.5960   -4.4790    3.2720 C   0  0  0  0  0  2  0  0  0  0  0  0
   10.7170   -0.9190   -1.0400 O   0  0  0  0  0  0  0  0  0  0  0  0
   10.9850   -1.6410   -1.6400 H   0  0  0  0  0  0  0  0  0  0  0  0
  1  7  1  0  0  0  0
  1 11  1  0  0  0  0
  2  1  2  0  0  0  0
  3  5  1  0  0  0  0
  3  2  1  0  0  0  0
  4  3  2  0  0  0  0
  5  6  2  0  0  0  0
  6  8  1  0  0  0  0
  6  7  1  0  0  0  0
  8  9  1  0  0  0  0
 10  8  2  0  0  0  0
 11 12  2  0  0  0  0
 13 11  1  0  0  0  0
 13 15  1  0  0  0  0
 14 15  1  0  0  0  0
 16  5  1  0  0  0  0
 17 16  1  0  0  0  0
M  END
>  <minimizedAffinity>
-5.09327793

$$$$
