
 OpenBabel09122222393D

 17 17  0  0  0  0  0  0  0  0999 V2000
    8.9330   -2.3100    1.9090 C   0  0  0  0  0  0  0  0  0  0  0  0
    9.4050   -2.7110    0.7200 C   0  0  0  0  0  3  0  0  0  0  0  0
    9.9200   -1.7010   -0.2140 C   0  0  0  0  0  0  0  0  0  0  0  0
   10.3570   -2.0170   -1.3190 O   0  0  0  0  0  0  0  0  0  0  0  0
    9.9040   -0.2830    0.2160 C   0  0  0  0  0  0  0  0  0  0  0  0
    9.4030   -0.0130    1.4280 C   0  0  0  0  0  0  0  0  0  0  0  0
    8.9010   -0.9790    2.2910 O   0  0  0  0  0  0  0  0  0  0  0  0
    9.3620    1.4250    1.9440 C   0  0  0  0  0  0  0  0  0  0  0  0
    9.1370    2.3040    1.0620 O   0  0  0  0  0  0  0  0  0  0  0  0
    9.4910    1.5450    3.1980 O   0  0  0  0  0  1  0  0  0  0  0  0
    8.3970   -3.2970    2.8920 C   0  0  0  0  0  0  0  0  0  0  0  0
    7.4440   -4.0320    2.6780 O   0  0  0  0  0  0  0  0  0  0  0  0
    9.0970   -3.2590    4.0600 O   0  0  0  0  0  0  0  0  0  0  0  0
    9.0320   -1.5750    5.8030 C   0  0  0  0  0  1  0  0  0  0  0  0
    8.3680   -2.8020    5.2070 C   0  0  0  0  0  2  0  0  0  0  0  0
   10.4090    0.6570   -0.6590 O   0  0  0  0  0  0  0  0  0  0  0  0
   10.6860    0.1480   -1.4460 H   0  0  0  0  0  0  0  0  0  0  0  0
  1  7  1  0  0  0  0
  1 11  1  0  0  0  0
  2  1  2  0  0  0  0
  3  5  1  0  0  0  0
  3  2  1  0  0  0  0
  4  3  2  0  0  0  0
  5  6  2  0  0  0  0
  6  8  1  0  0  0  0
  6  7  1  0  0  0  0
  8 10  1  0  0  0  0
  9  8  2  0  0  0  0
 11 13  1  0  0  0  0
 12 11  2  0  0  0  0
 13 15  1  0  0  0  0
 15 14  1  0  0  0  0
 16  5  1  0  0  0  0
 17 16  1  0  0  0  0
M  END
>  <minimizedAffinity>
-5.23317671

$$$$
