REMARK  Name = 
REMARK  6 active torsions:
REMARK  status: ('A' for Active; 'I' for Inactive)
REMARK    1  A    between atoms: C_1  and  C_2
REMARK    2  A    between atoms: C_2  and  O_3
REMARK    3  A    between atoms: O_3  and  C_4
REMARK    4  A    between atoms: C_4  and  C_5
REMARK    5  A    between atoms: C_9  and  O_10
REMARK    6  A    between atoms: C_11  and  C_12
REMARK                            x       y       z     vdW  Elec       q    Type
REMARK                         _______ _______ _______ _____ _____    ______ ____
ROOT
ATOM      1  C   UNL     1       2.967   2.475  -1.734  0.00  0.00    +0.135 A 
ATOM      2  C   UNL     1       2.224   3.520  -2.126  0.00  0.00    +0.098 A 
ATOM      3  C   UNL     1       2.708   4.881  -1.852  0.00  0.00    +0.227 A 
ATOM      4  O   UNL     1       2.070   5.874  -2.198  0.00  0.00    -0.284 OA
ATOM      5  C   UNL     1       3.994   5.025  -1.125  0.00  0.00    +0.209 A 
ATOM      6  C   UNL     1       4.639   3.902  -0.785  0.00  0.00    +0.195 A 
ATOM      7  O   UNL     1       4.177   2.627  -1.075  0.00  0.00    -0.452 OA
ENDROOT
BRANCH   6   8
ATOM      8  C   UNL     1       5.962   3.960  -0.020  0.00  0.00    +0.111 C 
ATOM      9  O   UNL     1       7.001   3.981  -0.743  0.00  0.00    -0.541 OA
ATOM     10  O   UNL     1       5.855   3.882   1.239  0.00  0.00    -0.541 OA
ENDBRANCH   6   8
BRANCH   5  11
ATOM     11  O   UNL     1       4.431   6.304  -0.848  0.00  0.00    -0.501 OA
ATOM     12  H   UNL     1       3.749   6.889  -1.230  0.00  0.00    +0.292 HD
ENDBRANCH   5  11
BRANCH   1  13
ATOM     13  C   UNL     1       2.575   1.035  -1.927  0.00  0.00    +0.234 C 
BRANCH  13  14
ATOM     14  O   UNL     1       1.164   0.874  -2.110  0.00  0.00    -0.372 OA
BRANCH  14  16
ATOM     15  C   UNL     1       0.423  -0.661  -0.384  0.00  0.00    +0.034 C 
ATOM     16  C   UNL     1       0.446   0.774  -0.879  0.00  0.00    +0.157 C 
ENDBRANCH  14  16
ENDBRANCH  13  14
ENDBRANCH   1  13
TORSDOF 5
