
 OpenBabel09122222393D

 16 16  0  0  0  0  0  0  0  0999 V2000
    9.2440   -0.6870    1.6260 C   0  0  0  0  0  0  0  0  0  0  0  0
    8.6790   -1.5950    2.4340 C   0  0  0  0  0  3  0  0  0  0  0  0
    8.7530   -3.0170    2.0690 C   0  0  0  0  0  0  0  0  0  0  0  0
    8.2590   -3.8910    2.7800 O   0  0  0  0  0  0  0  0  0  0  0  0
    9.4330   -3.3710    0.7990 C   0  0  0  0  0  0  0  0  0  0  0  0
    9.9540   -2.3700    0.0780 C   0  0  0  0  0  0  0  0  0  0  0  0
    9.8950   -1.0360    0.4530 O   0  0  0  0  0  0  0  0  0  0  0  0
   10.6580   -2.6460   -1.2510 C   0  0  0  0  0  0  0  0  0  0  0  0
   10.6980   -1.6660   -2.0520 O   0  0  0  0  0  0  0  0  0  0  0  0
   11.0240   -3.8450   -1.4230 O   0  0  0  0  0  1  0  0  0  0  0  0
    9.4770   -4.7050    0.4480 O   0  0  0  0  0  0  0  0  0  0  0  0
    9.0220   -5.1700    1.1770 H   0  0  0  0  0  0  0  0  0  0  0  0
    9.2170    0.7980    1.8670 C   0  0  0  0  0  2  0  0  0  0  0  0
    9.5360    1.1360    3.2220 O   0  0  0  0  0  0  0  0  0  0  0  0
   10.6840    2.8690    1.9700 C   0  0  0  0  0  1  0  0  0  0  0  0
   10.2680    2.3580    3.3380 C   0  0  0  0  0  2  0  0  0  0  0  0
  1 13  1  0  0  0  0
  1  2  2  0  0  0  0
  3  2  1  0  0  0  0
  3  4  2  0  0  0  0
  5  3  1  0  0  0  0
  6  7  1  0  0  0  0
  6  5  2  0  0  0  0
  7  1  1  0  0  0  0
  8  6  1  0  0  0  0
  9  8  2  0  0  0  0
 10  8  1  0  0  0  0
 11  5  1  0  0  0  0
 11 12  1  0  0  0  0
 13 14  1  0  0  0  0
 14 16  1  0  0  0  0
 15 16  1  0  0  0  0
M  END
>  <minimizedAffinity>
-5.34582806

$$$$
