
 OpenBabel09122222393D

 16 16  0  0  0  0  0  0  0  0999 V2000
   10.1000    5.5120    0.9320 C   0  0  0  0  0  0  0  0  0  0  0  0
    9.7120    5.6860   -0.3400 C   0  0  0  0  0  3  0  0  0  0  0  0
    9.1500    6.9840   -0.7430 C   0  0  0  0  0  0  0  0  0  0  0  0
    8.7880    7.1980   -1.8980 O   0  0  0  0  0  0  0  0  0  0  0  0
    9.0180    8.0340    0.2980 C   0  0  0  0  0  0  0  0  0  0  0  0
    9.4390    7.7340    1.5330 C   0  0  0  0  0  0  0  0  0  0  0  0
    9.9890    6.5110    1.8870 O   0  0  0  0  0  0  0  0  0  0  0  0
    9.3240    8.7520    2.6680 C   0  0  0  0  0  0  0  0  0  0  0  0
   10.4210    9.0880    3.2030 O   0  0  0  0  0  1  0  0  0  0  0  0
    8.1390    9.0570    2.9940 O   0  0  0  0  0  0  0  0  0  0  0  0
    8.4670    9.2410   -0.0800 O   0  0  0  0  0  0  0  0  0  0  0  0
    8.2750    9.1410   -1.0320 H   0  0  0  0  0  0  0  0  0  0  0  0
   10.6630    4.2290    1.4790 C   0  0  0  0  0  2  0  0  0  0  0  0
    9.8670    3.0910    1.1290 O   0  0  0  0  0  0  0  0  0  0  0  0
    9.1930    0.8130    1.6200 C   0  0  0  0  0  1  0  0  0  0  0  0
    9.8800    2.0690    2.1270 C   0  0  0  0  0  2  0  0  0  0  0  0
  1 13  1  0  0  0  0
  1  7  1  0  0  0  0
  2  1  2  0  0  0  0
  3  2  1  0  0  0  0
  3  5  1  0  0  0  0
  4  3  2  0  0  0  0
  5  6  2  0  0  0  0
  6  7  1  0  0  0  0
  6  8  1  0  0  0  0
  8 10  2  0  0  0  0
  8  9  1  0  0  0  0
 11  5  1  0  0  0  0
 12 11  1  0  0  0  0
 14 13  1  0  0  0  0
 14 16  1  0  0  0  0
 15 16  1  0  0  0  0
M  END
>  <minimizedAffinity>
-4.65341902

$$$$
