
 OpenBabel09122222393D

 16 16  0  0  0  0  0  0  0  0999 V2000
    9.3440   -2.1550    2.7750 C   0  0  0  0  0  0  0  0  0  0  0  0
    9.1610   -0.8300    2.8600 C   0  0  0  0  0  3  0  0  0  0  0  0
    9.3350   -0.0080    1.6530 C   0  0  0  0  0  0  0  0  0  0  0  0
    9.1710    1.2110    1.6730 O   0  0  0  0  0  0  0  0  0  0  0  0
    9.7340   -0.6960    0.4000 C   0  0  0  0  0  0  0  0  0  0  0  0
    9.8890   -2.0250    0.4480 C   0  0  0  0  0  0  0  0  0  0  0  0
    9.6950   -2.7850    1.5910 O   0  0  0  0  0  0  0  0  0  0  0  0
   10.3150   -2.8090   -0.7940 C   0  0  0  0  0  0  0  0  0  0  0  0
   10.9530   -2.1410   -1.6600 O   0  0  0  0  0  0  0  0  0  0  0  0
    9.8920   -4.0010   -0.8440 O   0  0  0  0  0  1  0  0  0  0  0  0
    9.9210    0.0830   -0.7240 O   0  0  0  0  0  0  0  0  0  0  0  0
    9.7250    0.9940   -0.4320 H   0  0  0  0  0  0  0  0  0  0  0  0
    9.2240   -3.1040    3.9370 C   0  0  0  0  0  2  0  0  0  0  0  0
    7.8940   -3.6100    4.0940 O   0  0  0  0  0  0  0  0  0  0  0  0
    5.8080   -3.5990    5.3330 C   0  0  0  0  0  1  0  0  0  0  0  0
    7.2630   -3.1660    5.2960 C   0  0  0  0  0  2  0  0  0  0  0  0
  1  2  2  0  0  0  0
  1 13  1  0  0  0  0
  3  4  2  0  0  0  0
  3  2  1  0  0  0  0
  5  6  2  0  0  0  0
  5  3  1  0  0  0  0
  6  7  1  0  0  0  0
  7  1  1  0  0  0  0
  8  6  1  0  0  0  0
  9  8  2  0  0  0  0
 10  8  1  0  0  0  0
 11 12  1  0  0  0  0
 11  5  1  0  0  0  0
 13 14  1  0  0  0  0
 14 16  1  0  0  0  0
 16 15  1  0  0  0  0
M  END
>  <minimizedAffinity>
-4.79233122

$$$$
