
 OpenBabel09122222393D

 16 16  0  0  0  0  0  0  0  0999 V2000
    9.4900   -0.7650    1.2190 C   0  0  0  0  0  0  0  0  0  0  0  0
    9.0010   -1.0600    2.4320 C   0  0  0  0  0  3  0  0  0  0  0  0
    8.6350   -2.4520    2.7340 C   0  0  0  0  0  0  0  0  0  0  0  0
    8.1910   -2.7780    3.8330 O   0  0  0  0  0  0  0  0  0  0  0  0
    8.8050   -3.4600    1.6580 C   0  0  0  0  0  0  0  0  0  0  0  0
    9.3000   -3.0370    0.4880 C   0  0  0  0  0  0  0  0  0  0  0  0
    9.6620   -1.7230    0.2320 O   0  0  0  0  0  0  0  0  0  0  0  0
    9.4910   -4.0070   -0.6780 C   0  0  0  0  0  0  0  0  0  0  0  0
   10.6410   -3.9910   -1.2090 O   0  0  0  0  0  0  0  0  0  0  0  0
    8.4490   -4.6340   -1.0280 O   0  0  0  0  0  1  0  0  0  0  0  0
    8.4360   -4.7600    1.9380 O   0  0  0  0  0  0  0  0  0  0  0  0
    8.1270   -4.7380    2.8640 H   0  0  0  0  0  0  0  0  0  0  0  0
    9.8760    0.6200    0.7730 C   0  0  0  0  0  2  0  0  0  0  0  0
    9.3600    1.6350    1.6420 O   0  0  0  0  0  0  0  0  0  0  0  0
   10.2880    2.6590    3.6350 C   0  0  0  0  0  1  0  0  0  0  0  0
   10.3680    2.5250    2.1250 C   0  0  0  0  0  2  0  0  0  0  0  0
  1  2  2  0  0  0  0
  2  3  1  0  0  0  0
  3  4  2  0  0  0  0
  5 11  1  0  0  0  0
  5  3  1  0  0  0  0
  6  5  2  0  0  0  0
  7  6  1  0  0  0  0
  7  1  1  0  0  0  0
  8  6  1  0  0  0  0
  9  8  2  0  0  0  0
 10  8  1  0  0  0  0
 11 12  1  0  0  0  0
 13  1  1  0  0  0  0
 13 14  1  0  0  0  0
 14 16  1  0  0  0  0
 16 15  1  0  0  0  0
M  END
>  <minimizedAffinity>
-5.0203495

$$$$
