
 OpenBabel09122222393D

 16 16  0  0  0  0  0  0  0  0999 V2000
    9.4890   -0.5370    0.8900 C   0  0  0  0  0  0  0  0  0  0  0  0
   10.1680   -0.9510   -0.1890 C   0  0  0  0  0  3  0  0  0  0  0  0
   10.2360   -2.3900   -0.4790 C   0  0  0  0  0  0  0  0  0  0  0  0
   10.8380   -2.8230   -1.4610 O   0  0  0  0  0  0  0  0  0  0  0  0
    9.5640   -3.3190    0.4640 C   0  0  0  0  0  0  0  0  0  0  0  0
    8.9210   -2.7800    1.5070 C   0  0  0  0  0  0  0  0  0  0  0  0
    8.8480   -1.4160    1.7490 O   0  0  0  0  0  0  0  0  0  0  0  0
    8.2160   -3.6650    2.5350 C   0  0  0  0  0  0  0  0  0  0  0  0
    8.4700   -3.3910    3.7450 O   0  0  0  0  0  1  0  0  0  0  0  0
    7.5460   -4.6210    2.0470 O   0  0  0  0  0  0  0  0  0  0  0  0
    9.6530   -4.6710    0.2010 O   0  0  0  0  0  0  0  0  0  0  0  0
   10.1740   -4.7310   -0.6230 H   0  0  0  0  0  0  0  0  0  0  0  0
    9.3650    0.9010    1.3150 C   0  0  0  0  0  2  0  0  0  0  0  0
    9.2580    1.0430    2.7360 O   0  0  0  0  0  0  0  0  0  0  0  0
   10.7350    2.8910    2.2000 C   0  0  0  0  0  1  0  0  0  0  0  0
   10.2010    1.9680    3.2800 C   0  0  0  0  0  2  0  0  0  0  0  0
  1 13  1  0  0  0  0
  1  7  1  0  0  0  0
  2  1  2  0  0  0  0
  3  2  1  0  0  0  0
  3  5  1  0  0  0  0
  4  3  2  0  0  0  0
  5  6  2  0  0  0  0
  6  7  1  0  0  0  0
  6  8  1  0  0  0  0
  8  9  1  0  0  0  0
 10  8  2  0  0  0  0
 11  5  1  0  0  0  0
 12 11  1  0  0  0  0
 13 14  1  0  0  0  0
 14 16  1  0  0  0  0
 15 16  1  0  0  0  0
M  END
>  <minimizedAffinity>
-5.51041889

$$$$
