REMARK  Name = 
REMARK  10 active torsions:
REMARK  status: ('A' for Active; 'I' for Inactive)
REMARK    1  A    between atoms: C_1  and  C_2
REMARK    2  A    between atoms: C_2  and  C_3
REMARK    3  A    between atoms: C_2  and  C_4
REMARK    4  A    between atoms: C_4  and  C_5
REMARK    5  A    between atoms: C_5  and  N_6
REMARK    6  A    between atoms: C_9  and  C_10
REMARK    7  A    between atoms: C_17  and  O_18
REMARK    8  A    between atoms: O_18  and  C_19
REMARK    9  A    between atoms: C_19  and  C_20
REMARK   10  A    between atoms: C_27  and  O_28
REMARK                            x       y       z     vdW  Elec       q    Type
REMARK                         _______ _______ _______ _____ _____    ______ ____
ROOT
ATOM      1  C   UNL     1      -0.960  -4.952  -3.655  0.00  0.00    +0.308 C 
ATOM      2  N   UNL     1      -1.947  -5.655  -3.100  0.00  0.00    -0.131 N 
ATOM      3  S   UNL     1      -2.307  -5.428  -1.509  0.00  0.00    +0.141 S 
ATOM      4  O   UNL     1      -3.740  -5.470  -1.327  0.00  0.00    -0.129 OA
ATOM      5  O   UNL     1      -1.439  -6.200  -0.646  0.00  0.00    -0.129 OA
ATOM      6  C   UNL     1      -1.797  -3.740  -1.344  0.00  0.00    +0.178 A 
ATOM      7  C   UNL     1      -2.869  -2.313  -1.039  0.00  0.00    +0.080 A 
ATOM      8  C   UNL     1      -2.217  -0.651  -1.272  0.00  0.00    +0.123 A 
ATOM      9  C   UNL     1      -0.469  -0.397  -1.761  0.00  0.00    +0.050 A 
ATOM     10  C   UNL     1       0.546  -1.840  -2.211  0.00  0.00    +0.054 A 
ATOM     11  C   UNL     1      -0.130  -3.507  -1.983  0.00  0.00    +0.148 A 
ATOM     12  N   UNL     1       0.208  -4.579  -2.893  0.00  0.00    -0.200 N 
ATOM     13  H   UNL     1      -2.805  -5.755  -3.626  0.00  0.00    +0.339 HD
ATOM     14  H   UNL     1       1.068  -4.382  -3.403  0.00  0.00    +0.298 HD
ENDROOT
BRANCH   1  18
ATOM     15  N   UNL     1      -1.471  -2.058  -2.619  0.00  0.00    -0.292 N 
ATOM     16  C   UNL     1      -2.338  -2.944  -3.536  0.00  0.00    +0.271 A 
ATOM     17  O   UNL     1      -3.499  -3.322  -3.411  0.00  0.00    -0.267 OA
ATOM     18  C   UNL     1      -1.431  -3.762  -4.455  0.00  0.00    +0.170 A 
ATOM     19  C   UNL     1      -0.655  -2.991  -5.229  0.00  0.00    +0.148 A 
ATOM     20  C   UNL     1      -0.865  -1.547  -5.147  0.00  0.00    +0.060 A 
ATOM     21  C   UNL     1      -0.705  -0.721  -6.263  0.00  0.00    +0.016 A 
ATOM     22  C   UNL     1      -1.001   0.630  -6.154  0.00  0.00    +0.021 A 
ATOM     23  C   UNL     1      -1.449   1.101  -4.934  0.00  0.00    +0.113 A 
ATOM     24  N   UNL     1      -1.586   0.330  -3.832  0.00  0.00    -0.237 NA
ATOM     25  C   UNL     1      -1.248  -0.985  -3.901  0.00  0.00    +0.147 A 
BRANCH  19  26
ATOM     26  O   UNL     1       0.438  -3.417  -5.944  0.00  0.00    -0.505 OA
ATOM     27  H   UNL     1       0.344  -4.360  -6.165  0.00  0.00    +0.292 HD
ENDBRANCH  19  26
BRANCH  15  28
ATOM     28  C   UNL     1      -0.798  -2.039  -0.619  0.00  0.00    +0.127 C 
BRANCH  28  29
ATOM     29  C   UNL     1       0.748  -2.446   0.148  0.00  0.00    +0.025 C 
BRANCH  29  31
ATOM     30  C   UNL     1       1.024  -0.309   1.565  0.00  0.00    +0.007 C 
ATOM     31  C   UNL     1       1.671  -1.266   0.561  0.00  0.00    -0.016 C 
ATOM     32  C   UNL     1       2.958  -1.836   1.174  0.00  0.00    +0.007 C 
ENDBRANCH  29  31
ENDBRANCH  28  29
ENDBRANCH  15  28
ENDBRANCH   1  18
BRANCH   8  33
ATOM     33  O   UNL     1      -2.993   0.454  -1.075  0.00  0.00    -0.483 OA
BRANCH  33  34
ATOM     34  C   UNL     1      -3.353   0.621   0.284  0.00  0.00    +0.324 C 
BRANCH  34  35
ATOM     35  C   UNL     1      -4.690   0.019   0.729  0.00  0.00    +0.248 C 
ATOM     36  N   UNL     1      -5.007   0.240   2.043  0.00  0.00    -0.327 N 
ATOM     37  O   UNL     1      -5.446  -0.630   0.016  0.00  0.00    -0.272 OA
ATOM     38  H   UNL     1      -5.885  -0.136   2.379  0.00  0.00    +0.145 HD
ATOM     39  H   UNL     1      -4.444   0.793   2.674  0.00  0.00    +0.145 HD
ENDBRANCH  34  35
ENDBRANCH  33  34
ENDBRANCH   8  33
TORSDOF 8
