REMARK  Name = 
REMARK  3 active torsions:
REMARK  status: ('A' for Active; 'I' for Inactive)
REMARK    1  A    between atoms: C_2  and  C_4
REMARK    2  A    between atoms: C_8  and  C_9
REMARK    3  A    between atoms: C_15  and  C_16
REMARK                            x       y       z     vdW  Elec       q    Type
REMARK                         _______ _______ _______ _____ _____    ______ ____
ROOT
ATOM      1  C   UNL     1       3.128  -0.918   0.885  0.00  0.00    +0.015 A 
ATOM      2  C   UNL     1       2.774  -2.218   0.820  0.00  0.00    +0.092 A 
ATOM      3  N   UNL     1       3.509  -3.221   1.424  0.00  0.00    -0.359 N 
ATOM      4  C   UNL     1       4.656  -2.936   2.121  0.00  0.00    +0.070 A 
ATOM      5  C   UNL     1       5.531  -3.702   2.787  0.00  0.00    +0.007 A 
ATOM      6  C   UNL     1       6.484  -2.669   3.267  0.00  0.00    +0.077 A 
ATOM      7  N   UNL     1       6.201  -1.432   2.959  0.00  0.00    -0.245 NA
ATOM      8  C   UNL     1       5.057  -1.533   2.215  0.00  0.00    +0.089 A 
ATOM      9  C   UNL     1       4.339  -0.562   1.630  0.00  0.00    +0.041 A 
ATOM     10  H   UNL     1       3.190  -4.172   1.332  0.00  0.00    +0.165 HD
ENDROOT
BRANCH   5  11
ATOM     11  C   UNL     1       5.547  -5.170   3.061  0.00  0.00    +0.023 C 
ATOM     12  C   UNL     1       4.294  -5.631   3.826  0.00  0.00    +0.008 C 
ATOM     13  C   UNL     1       4.331  -7.134   4.103  0.00  0.00    +0.001 C 
ATOM     14  C   UNL     1       4.519  -7.937   2.820  0.00  0.00    +0.000 C 
ATOM     15  C   UNL     1       5.757  -7.486   2.051  0.00  0.00    +0.001 C 
ATOM     16  C   UNL     1       5.732  -5.985   1.769  0.00  0.00    +0.008 C 
ENDBRANCH   5  11
BRANCH   6  17
ATOM     17  C   UNL     1       7.668  -3.013   4.066  0.00  0.00    +0.001 A 
ATOM     18  C   UNL     1       8.621  -3.917   3.589  0.00  0.00    +0.010 A 
ATOM     19  C   UNL     1       9.742  -4.213   4.365  0.00  0.00    +0.001 A 
ATOM     20  C   UNL     1       9.916  -3.596   5.605  0.00  0.00    +0.000 A 
ATOM     21  C   UNL     1       8.976  -2.673   6.068  0.00  0.00    +0.001 A 
ATOM     22  C   UNL     1       7.854  -2.373   5.295  0.00  0.00    +0.010 A 
ENDBRANCH   6  17
BRANCH   1  24
ATOM     23  O   UNL     1       1.254  -0.218  -0.410  0.00  0.00    -0.545 OA
ATOM     24  C   UNL     1       2.291   0.184   0.200  0.00  0.00    +0.073 C 
ATOM     25  O   UNL     1       2.724   1.367   0.318  0.00  0.00    -0.545 OA
ENDBRANCH   1  24
TORSDOF 3
