
 OpenBabel09132204463D

 25 28  0  0  0  0  0  0  0  0999 V2000
    5.1450   -6.5510    0.8300 C   0  0  0  0  0  0  0  0  0  0  0  0
    4.7770   -7.5380    1.6720 C   0  0  0  0  0  3  0  0  0  0  0  0
    4.3040   -7.2920    2.9470 N   0  0  0  0  0  0  0  0  0  0  0  0
    4.1930   -6.0100    3.4250 C   0  0  0  0  0  0  0  0  0  0  0  0
    3.7710   -5.5080    4.5930 C   0  0  0  0  0  0  0  0  0  0  0  0
    3.9430   -4.0550    4.3410 C   0  0  0  0  0  0  0  0  0  0  0  0
    4.3800   -3.7200    3.1570 N   0  0  0  0  0  0  0  0  0  0  0  0
    4.5750   -4.9200    2.5290 C   0  0  0  0  0  0  0  0  0  0  0  0
    5.0320   -5.1640    1.2900 C   0  0  0  0  0  3  0  0  0  0  0  0
    4.0510   -8.0770    3.5250 H   0  0  0  0  0  0  0  0  0  0  0  0
    3.2080   -6.1730    5.8070 C   0  0  0  0  0  3  0  0  0  0  0  0
    3.8020   -5.6050    7.1070 C   0  0  0  0  0  2  0  0  0  0  0  0
    3.2200   -6.3020    8.3370 C   0  0  0  0  0  2  0  0  0  0  0  0
    1.6960   -6.2330    8.3530 C   0  0  0  0  0  2  0  0  0  0  0  0
    1.0950   -6.7900    7.0660 C   0  0  0  0  0  2  0  0  0  0  0  0
    1.6710   -6.1020    5.8290 C   0  0  0  0  0  2  0  0  0  0  0  0
    3.6160   -3.0440    5.3550 C   0  0  0  0  0  0  0  0  0  0  0  0
    4.5920   -2.5590    6.2300 C   0  0  0  0  0  3  0  0  0  0  0  0
    4.2540   -1.5890    7.1740 C   0  0  0  0  0  3  0  0  0  0  0  0
    2.9500   -1.0950    7.2320 C   0  0  0  0  0  3  0  0  0  0  0  0
    1.9830   -1.5610    6.3390 C   0  0  0  0  0  3  0  0  0  0  0  0
    2.3160   -2.5300    5.3930 C   0  0  0  0  0  3  0  0  0  0  0  0
    6.3580   -5.9280   -1.1250 O   0  0  0  0  0  0  0  0  0  0  0  0
    5.6730   -6.8520   -0.5900 C   0  0  0  0  0  0  0  0  0  0  0  0
    5.3700   -7.9830   -1.0690 O   0  0  0  0  0  1  0  0  0  0  0  0
  1  9  1  0  0  0  0
  1  2  2  0  0  0  0
  2  3  1  0  0  0  0
  3  4  1  0  0  0  0
  3 10  1  0  0  0  0
  4  5  2  0  0  0  0
  5 11  1  0  0  0  0
  6  5  1  0  0  0  0
  6 17  1  0  0  0  0
  7  6  2  0  0  0  0
  8  7  1  0  0  0  0
  8  4  1  0  0  0  0
  9  8  2  0  0  0  0
 11 16  1  0  0  0  0
 11 12  1  0  0  0  0
 12 13  1  0  0  0  0
 13 14  1  0  0  0  0
 15 14  1  0  0  0  0
 16 15  1  0  0  0  0
 17 22  2  0  0  0  0
 17 18  1  0  0  0  0
 18 19  2  0  0  0  0
 19 20  1  0  0  0  0
 21 20  2  0  0  0  0
 22 21  1  0  0  0  0
 23 24  2  0  0  0  0
 24  1  1  0  0  0  0
 25 24  1  0  0  0  0
M  END
>  <minimizedAffinity>
-7.31872892

$$$$
