
 OpenBabel09132204463D

 25 28  0  0  0  0  0  0  0  0999 V2000
    8.9350   -3.8810    0.8540 C   0  0  0  0  0  0  0  0  0  0  0  0
    8.3880   -3.1070    1.8130 C   0  0  0  0  0  3  0  0  0  0  0  0
    7.2520   -3.4750    2.5110 N   0  0  0  0  0  0  0  0  0  0  0  0
    6.6140   -4.6620    2.2480 C   0  0  0  0  0  0  0  0  0  0  0  0
    5.5250   -5.2450    2.7680 C   0  0  0  0  0  0  0  0  0  0  0  0
    5.4840   -6.4980    1.9720 C   0  0  0  0  0  0  0  0  0  0  0  0
    6.4470   -6.6660    1.1060 N   0  0  0  0  0  0  0  0  0  0  0  0
    7.1930   -5.5250    1.2190 C   0  0  0  0  0  0  0  0  0  0  0  0
    8.2970   -5.1650    0.5470 C   0  0  0  0  0  3  0  0  0  0  0  0
    6.8940   -2.8470    3.2110 H   0  0  0  0  0  0  0  0  0  0  0  0
    4.6210   -4.8290    3.8810 C   0  0  0  0  0  3  0  0  0  0  0  0
    5.3980   -4.2230    5.0630 C   0  0  0  0  0  2  0  0  0  0  0  0
    4.4570   -3.8090    6.1950 C   0  0  0  0  0  2  0  0  0  0  0  0
    3.3710   -2.8580    5.7040 C   0  0  0  0  0  2  0  0  0  0  0  0
    2.5970   -3.4470    4.5290 C   0  0  0  0  0  2  0  0  0  0  0  0
    3.5260   -3.8650    3.3920 C   0  0  0  0  0  2  0  0  0  0  0  0
    4.4340   -7.5080    2.1640 C   0  0  0  0  0  0  0  0  0  0  0  0
    3.9510   -7.8120    3.4390 C   0  0  0  0  0  3  0  0  0  0  0  0
    2.9440   -8.7650    3.5880 C   0  0  0  0  0  3  0  0  0  0  0  0
    2.4120   -9.4000    2.4640 C   0  0  0  0  0  3  0  0  0  0  0  0
    2.8770   -9.0750    1.1880 C   0  0  0  0  0  3  0  0  0  0  0  0
    3.8830   -8.1220    1.0350 C   0  0  0  0  0  3  0  0  0  0  0  0
   11.0180   -2.7310    0.7450 O   0  0  0  0  0  1  0  0  0  0  0  0
   10.2030   -3.4460    0.0880 C   0  0  0  0  0  0  0  0  0  0  0  0
   10.2960   -3.8470   -1.1090 O   0  0  0  0  0  0  0  0  0  0  0  0
  1  2  2  0  0  0  0
  2  3  1  0  0  0  0
  3 10  1  0  0  0  0
  4  3  1  0  0  0  0
  4  5  2  0  0  0  0
  5 11  1  0  0  0  0
  6 17  1  0  0  0  0
  6  5  1  0  0  0  0
  7  8  1  0  0  0  0
  7  6  2  0  0  0  0
  8  4  1  0  0  0  0
  9  1  1  0  0  0  0
  9  8  2  0  0  0  0
 11 12  1  0  0  0  0
 12 13  1  0  0  0  0
 14 13  1  0  0  0  0
 15 14  1  0  0  0  0
 16 11  1  0  0  0  0
 16 15  1  0  0  0  0
 17 18  1  0  0  0  0
 18 19  2  0  0  0  0
 20 19  1  0  0  0  0
 21 20  2  0  0  0  0
 22 21  1  0  0  0  0
 22 17  2  0  0  0  0
 24 23  1  0  0  0  0
 24  1  1  0  0  0  0
 25 24  2  0  0  0  0
M  END
>  <minimizedAffinity>
-6.91370964

$$$$
