
 OpenBabel09132204463D

 25 28  0  0  0  0  0  0  0  0999 V2000
    3.2940   -4.8160    6.4530 C   0  0  0  0  0  0  0  0  0  0  0  0
    3.0130   -6.1250    6.2890 C   0  0  0  0  0  3  0  0  0  0  0  0
    3.4560   -6.8510    5.1990 N   0  0  0  0  0  0  0  0  0  0  0  0
    4.2070   -6.2620    4.2140 C   0  0  0  0  0  0  0  0  0  0  0  0
    4.7520   -6.7280    3.0820 C   0  0  0  0  0  0  0  0  0  0  0  0
    5.4080   -5.4980    2.5710 C   0  0  0  0  0  0  0  0  0  0  0  0
    5.3020   -4.4320    3.3180 N   0  0  0  0  0  0  0  0  0  0  0  0
    4.5350   -4.8450    4.3730 C   0  0  0  0  0  0  0  0  0  0  0  0
    4.1050   -4.1450    5.4340 C   0  0  0  0  0  3  0  0  0  0  0  0
    3.2050   -7.8250    5.1370 H   0  0  0  0  0  0  0  0  0  0  0  0
    4.7830   -8.1010    2.4960 C   0  0  0  0  0  3  0  0  0  0  0  0
    5.1180   -9.1730    3.5470 C   0  0  0  0  0  2  0  0  0  0  0  0
    5.1510  -10.5710    2.9280 C   0  0  0  0  0  2  0  0  0  0  0  0
    3.8480  -10.8960    2.2060 C   0  0  0  0  0  2  0  0  0  0  0  0
    3.5030   -9.8370    1.1630 C   0  0  0  0  0  2  0  0  0  0  0  0
    3.4680   -8.4360    1.7700 C   0  0  0  0  0  2  0  0  0  0  0  0
    6.1580   -5.4820    1.3080 C   0  0  0  0  0  0  0  0  0  0  0  0
    5.5420   -5.8240    0.1010 C   0  0  0  0  0  3  0  0  0  0  0  0
    6.2770   -5.7860   -1.0850 C   0  0  0  0  0  3  0  0  0  0  0  0
    7.6170   -5.3940   -1.0640 C   0  0  0  0  0  3  0  0  0  0  0  0
    8.2230   -5.0280    0.1390 C   0  0  0  0  0  3  0  0  0  0  0  0
    7.4920   -5.0630    1.3270 C   0  0  0  0  0  3  0  0  0  0  0  0
    2.5090   -4.7240    8.7010 O   0  0  0  0  0  1  0  0  0  0  0  0
    2.7860   -4.0270    7.6790 C   0  0  0  0  0  0  0  0  0  0  0  0
    2.6990   -2.7720    7.5370 O   0  0  0  0  0  0  0  0  0  0  0  0
  1 24  1  0  0  0  0
  2  1  2  0  0  0  0
  3  2  1  0  0  0  0
  4  8  1  0  0  0  0
  4  3  1  0  0  0  0
  5  4  2  0  0  0  0
  6  5  1  0  0  0  0
  6  7  2  0  0  0  0
  7  8  1  0  0  0  0
  8  9  2  0  0  0  0
  9  1  1  0  0  0  0
 10  3  1  0  0  0  0
 11  5  1  0  0  0  0
 11 12  1  0  0  0  0
 13 12  1  0  0  0  0
 14 13  1  0  0  0  0
 15 16  1  0  0  0  0
 15 14  1  0  0  0  0
 16 11  1  0  0  0  0
 17 22  1  0  0  0  0
 17  6  1  0  0  0  0
 18 17  2  0  0  0  0
 19 20  2  0  0  0  0
 19 18  1  0  0  0  0
 20 21  1  0  0  0  0
 21 22  2  0  0  0  0
 24 23  1  0  0  0  0
 25 24  2  0  0  0  0
M  END
>  <minimizedAffinity>
-6.64911842

$$$$
