
 OpenBabel09132204463D

 25 28  0  0  0  0  0  0  0  0999 V2000
    5.3250   -6.8340    1.9940 C   0  0  0  0  0  0  0  0  0  0  0  0
    4.4910   -7.6420    2.6800 C   0  0  0  0  0  3  0  0  0  0  0  0
    3.6970   -7.1870    3.7160 N   0  0  0  0  0  0  0  0  0  0  0  0
    3.7290   -5.8720    4.1070 C   0  0  0  0  0  0  0  0  0  0  0  0
    3.0760   -5.1880    5.0560 C   0  0  0  0  0  0  0  0  0  0  0  0
    3.6450   -3.8310    4.8520 C   0  0  0  0  0  0  0  0  0  0  0  0
    4.5070   -3.7050    3.8790 N   0  0  0  0  0  0  0  0  0  0  0  0
    4.6180   -4.9720    3.3740 C   0  0  0  0  0  0  0  0  0  0  0  0
    5.3840   -5.4170    2.3660 C   0  0  0  0  0  3  0  0  0  0  0  0
    3.1000   -7.8460    4.1890 H   0  0  0  0  0  0  0  0  0  0  0  0
    2.0150   -5.6080    6.0200 C   0  0  0  0  0  3  0  0  0  0  0  0
    1.2060   -6.8100    5.5040 C   0  0  0  0  0  2  0  0  0  0  0  0
    0.1210   -7.2210    6.5000 C   0  0  0  0  0  2  0  0  0  0  0  0
    0.7040   -7.5010    7.8810 C   0  0  0  0  0  2  0  0  0  0  0  0
    1.5120   -6.3160    8.4020 C   0  0  0  0  0  2  0  0  0  0  0  0
    2.5990   -5.8960    7.4140 C   0  0  0  0  0  2  0  0  0  0  0  0
    3.2440   -2.6860    5.6790 C   0  0  0  0  0  0  0  0  0  0  0  0
    2.0180   -2.0460    5.4780 C   0  0  0  0  0  3  0  0  0  0  0  0
    1.6590   -0.9690    6.2900 C   0  0  0  0  0  3  0  0  0  0  0  0
    2.5150   -0.5450    7.3070 C   0  0  0  0  0  3  0  0  0  0  0  0
    3.7280   -1.2030    7.5240 C   0  0  0  0  0  3  0  0  0  0  0  0
    4.0900   -2.2810    6.7160 C   0  0  0  0  0  3  0  0  0  0  0  0
    7.4190   -7.5770    1.1330 O   0  0  0  0  0  1  0  0  0  0  0  0
    6.2020   -7.3670    0.8410 C   0  0  0  0  0  0  0  0  0  0  0  0
    5.6200   -7.5380   -0.2690 O   0  0  0  0  0  0  0  0  0  0  0  0
  1  9  1  0  0  0  0
  1  2  2  0  0  0  0
  2  3  1  0  0  0  0
  3  4  1  0  0  0  0
  3 10  1  0  0  0  0
  4  5  2  0  0  0  0
  5 11  1  0  0  0  0
  6  5  1  0  0  0  0
  6 17  1  0  0  0  0
  7  6  2  0  0  0  0
  8  7  1  0  0  0  0
  8  4  1  0  0  0  0
  9  8  2  0  0  0  0
 11 16  1  0  0  0  0
 12 11  1  0  0  0  0
 12 13  1  0  0  0  0
 13 14  1  0  0  0  0
 14 15  1  0  0  0  0
 16 15  1  0  0  0  0
 17 22  1  0  0  0  0
 18 17  2  0  0  0  0
 18 19  1  0  0  0  0
 19 20  2  0  0  0  0
 20 21  1  0  0  0  0
 22 21  2  0  0  0  0
 24 23  1  0  0  0  0
 24  1  1  0  0  0  0
 25 24  2  0  0  0  0
M  END
>  <minimizedAffinity>
-6.72682762

$$$$
