
 OpenBabel09132204463D

 25 28  0  0  0  0  0  0  0  0999 V2000
    2.8040   -3.1910    4.7690 C   0  0  0  0  0  0  0  0  0  0  0  0
    3.6630   -2.8430    3.7890 C   0  0  0  0  0  3  0  0  0  0  0  0
    4.3350   -3.7750    3.0210 N   0  0  0  0  0  0  0  0  0  0  0  0
    4.1620   -5.1200    3.2300 C   0  0  0  0  0  0  0  0  0  0  0  0
    4.6780   -6.2070    2.6390 C   0  0  0  0  0  0  0  0  0  0  0  0
    4.0050   -7.2810    3.4150 C   0  0  0  0  0  0  0  0  0  0  0  0
    3.1640   -6.8910    4.3340 N   0  0  0  0  0  0  0  0  0  0  0  0
    3.2290   -5.5260    4.2800 C   0  0  0  0  0  0  0  0  0  0  0  0
    2.5760   -4.6170    5.0210 C   0  0  0  0  0  3  0  0  0  0  0  0
    4.9660   -3.4460    2.3080 H   0  0  0  0  0  0  0  0  0  0  0  0
    5.6080   -6.3510    1.4800 C   0  0  0  0  0  3  0  0  0  0  0  0
    4.8870   -6.1730    0.1320 C   0  0  0  0  0  2  0  0  0  0  0  0
    5.8520   -6.3300   -1.0430 C   0  0  0  0  0  2  0  0  0  0  0  0
    7.0400   -5.3800   -0.9240 C   0  0  0  0  0  2  0  0  0  0  0  0
    7.7610   -5.5460    0.4100 C   0  0  0  0  0  2  0  0  0  0  0  0
    6.8060   -5.3920    1.5920 C   0  0  0  0  0  2  0  0  0  0  0  0
    4.2520   -8.7050    3.1480 C   0  0  0  0  0  0  0  0  0  0  0  0
    5.2310   -9.4100    3.8520 C   0  0  0  0  0  3  0  0  0  0  0  0
    5.4320  -10.7650    3.5870 C   0  0  0  0  0  3  0  0  0  0  0  0
    4.6460  -11.4140    2.6320 C   0  0  0  0  0  3  0  0  0  0  0  0
    3.6510  -10.7130    1.9490 C   0  0  0  0  0  3  0  0  0  0  0  0
    3.4450   -9.3590    2.2120 C   0  0  0  0  0  3  0  0  0  0  0  0
    2.3770   -2.1000    6.8440 O   0  0  0  0  0  1  0  0  0  0  0  0
    2.0670   -2.1300    5.6140 C   0  0  0  0  0  0  0  0  0  0  0  0
    1.2340   -1.4050    4.9960 O   0  0  0  0  0  0  0  0  0  0  0  0
  1  9  1  0  0  0  0
  1 24  1  0  0  0  0
  2  1  2  0  0  0  0
  3  4  1  0  0  0  0
  3  2  1  0  0  0  0
  4  8  1  0  0  0  0
  5  4  2  0  0  0  0
  5  6  1  0  0  0  0
  6  7  2  0  0  0  0
  8  7  1  0  0  0  0
  8  9  2  0  0  0  0
 10  3  1  0  0  0  0
 11 16  1  0  0  0  0
 11  5  1  0  0  0  0
 12 11  1  0  0  0  0
 13 14  1  0  0  0  0
 13 12  1  0  0  0  0
 14 15  1  0  0  0  0
 15 16  1  0  0  0  0
 17  6  1  0  0  0  0
 17 18  1  0  0  0  0
 19 18  2  0  0  0  0
 20 19  1  0  0  0  0
 21 22  1  0  0  0  0
 21 20  2  0  0  0  0
 22 17  2  0  0  0  0
 24 23  1  0  0  0  0
 25 24  2  0  0  0  0
M  END
>  <minimizedAffinity>
-7.83801603

$$$$
