REMARK  Name = 
REMARK  7 active torsions:
REMARK  status: ('A' for Active; 'I' for Inactive)
REMARK    1  A    between atoms: C_2  and  C_4
REMARK    2  A    between atoms: C_4  and  C_5
REMARK    3  A    between atoms: C_4  and  N_12
REMARK    4  A    between atoms: C_5  and  C_6
REMARK    5  A    between atoms: N_12  and  C_13
REMARK    6  A    between atoms: C_13  and  C_14
REMARK    7  A    between atoms: C_21  and  C_23
REMARK                            x       y       z     vdW  Elec       q    Type
REMARK                         _______ _______ _______ _____ _____    ______ ____
ROOT
ATOM      1  N   UNL     1       2.815   0.453  -2.574  0.00  0.00    -0.285 N 
ATOM      2  C   UNL     1       1.471   0.393  -2.944  0.00  0.00    +0.249 C 
ATOM      3  O   UNL     1       0.606  -0.275  -2.384  0.00  0.00    -0.270 OA
ENDROOT
BRANCH   2   4
ATOM      4  C   UNL     1       0.991   1.295  -4.013  0.00  0.00    +0.055 A 
ATOM      5  C   UNL     1       1.056   2.678  -3.781  0.00  0.00    +0.016 A 
ATOM      6  C   UNL     1       0.588   3.574  -4.743  0.00  0.00    +0.021 A 
ATOM      7  C   UNL     1       0.041   3.085  -5.928  0.00  0.00    +0.042 A 
ATOM      8 CL   UNL     1      -0.525   4.188  -7.121  0.00  0.00    -0.083 Cl
ATOM      9  C   UNL     1      -0.059   1.712  -6.151  0.00  0.00    +0.040 A 
ATOM     10  C   UNL     1       0.403   0.811  -5.187  0.00  0.00    +0.054 A 
ATOM     11 CL   UNL     1       0.226  -0.872  -5.529  0.00  0.00    -0.083 Cl
ENDBRANCH   2   4
BRANCH   1  12
ATOM     12  C   UNL     1       3.256  -0.163  -1.270  0.00  0.00    +0.127 C 
BRANCH  12  14
ATOM     13  O   UNL     1       3.124  -2.409  -0.395  0.00  0.00    -0.548 OA
ATOM     14  C   UNL     1       3.587  -1.688  -1.323  0.00  0.00    +0.062 C 
ATOM     15  O   UNL     1       4.392  -2.019  -2.248  0.00  0.00    -0.548 OA
ENDBRANCH  12  14
BRANCH  12  16
ATOM     16  C   UNL     1       2.367   0.196  -0.059  0.00  0.00    +0.063 C 
BRANCH  16  17
ATOM     17  C   UNL     1       2.118   1.684   0.122  0.00  0.00    -0.045 A 
ATOM     18  C   UNL     1       3.175   2.566   0.387  0.00  0.00    +0.004 A 
ATOM     19  C   UNL     1       2.934   3.932   0.547  0.00  0.00    +0.000 A 
ATOM     20  C   UNL     1       1.635   4.428   0.451  0.00  0.00    +0.000 A 
ATOM     21  C   UNL     1       0.575   3.559   0.199  0.00  0.00    +0.000 A 
ATOM     22  C   UNL     1       0.816   2.194   0.037  0.00  0.00    +0.004 A 
ENDBRANCH  16  17
ENDBRANCH  12  16
ENDBRANCH   1  12
BRANCH   1  23
ATOM     23  C   UNL     1       3.875   1.105  -3.363  0.00  0.00    +0.145 C 
BRANCH  23  24
ATOM     24  C   UNL     1       3.933   0.760  -4.838  0.00  0.00    -0.016 A 
ATOM     25  C   UNL     1       3.828  -0.588  -5.228  0.00  0.00    +0.006 A 
ATOM     26  C   UNL     1       3.886  -0.967  -6.570  0.00  0.00    +0.000 A 
ATOM     27  C   UNL     1       4.070  -0.006  -7.557  0.00  0.00    +0.001 A 
ATOM     28  C   UNL     1       4.212   1.332  -7.195  0.00  0.00    +0.015 A 
ATOM     29  C   UNL     1       4.158   1.713  -5.847  0.00  0.00    +0.023 A 
ATOM     30 BR   UNL     1       4.420   3.562  -5.484  0.00  0.00    -0.050 Br
ENDBRANCH  23  24
ENDBRANCH   1  23
TORSDOF 7
