
 OpenBabel09122222393D

 30 32  0  0  1  0  0  0  0  0999 V2000
    4.7020   -5.7430    1.3870 N   0  0  0  0  0  0  0  0  0  0  0  0
    4.9000   -5.4870    0.0300 C   0  0  0  0  0  0  0  0  0  0  0  0
    5.9850   -5.4820   -0.5450 O   0  0  0  0  0  0  0  0  0  0  0  0
    3.7140   -5.3330   -0.8410 C   0  0  0  0  0  0  0  0  0  0  0  0
    2.9580   -6.4810   -1.1250 C   0  0  0  0  0  3  0  0  0  0  0  0
    1.8470   -6.3990   -1.9660 C   0  0  0  0  0  3  0  0  0  0  0  0
    1.5050   -5.1730   -2.5340 C   0  0  0  0  0  0  0  0  0  0  0  0
    0.1280   -5.0670   -3.5610 Cl  0  0  0  0  0  0  0  0  0  0  0  0
    2.2720   -4.0350   -2.2840 C   0  0  0  0  0  3  0  0  0  0  0  0
    3.3890   -4.1140   -1.4470 C   0  0  0  0  0  0  0  0  0  0  0  0
    4.2980   -2.6670   -1.2030 Cl  0  0  0  0  0  0  0  0  0  0  0  0
    5.8460   -6.2640    2.2200 C   0  0  2  0  0  3  0  0  0  0  0  0
    4.7780   -6.2570    4.3850 O   0  0  0  0  0  1  0  0  0  0  0  0
    5.7990   -5.8940    3.7360 C   0  0  0  0  0  0  0  0  0  0  0  0
    6.7580   -5.1590    4.1270 O   0  0  0  0  0  0  0  0  0  0  0  0
    7.2440   -6.0280    1.6080 C   0  0  0  0  0  2  0  0  0  0  0  0
    7.6670   -4.5700    1.5450 C   0  0  0  0  0  0  0  0  0  0  0  0
    8.0520   -3.9820    0.3320 C   0  0  0  0  0  3  0  0  0  0  0  0
    8.4340   -2.6390    0.2860 C   0  0  0  0  0  3  0  0  0  0  0  0
    8.4420   -1.8750    1.4510 C   0  0  0  0  0  3  0  0  0  0  0  0
    8.0710   -2.4520    2.6640 C   0  0  0  0  0  3  0  0  0  0  0  0
    7.6870   -3.7930    2.7100 C   0  0  0  0  0  3  0  0  0  0  0  0
    3.4250   -5.5600    2.0990 C   0  0  0  0  0  2  0  0  0  0  0  0
    3.2410   -4.2500    2.8390 C   0  0  0  0  0  0  0  0  0  0  0  0
    4.0610   -3.1570    2.5040 C   0  0  0  0  0  3  0  0  0  0  0  0
    3.9450   -1.9290    3.1590 C   0  0  0  0  0  3  0  0  0  0  0  0
    3.0160   -1.7700    4.1800 C   0  0  0  0  0  3  0  0  0  0  0  0
    2.2160   -2.8480    4.5540 C   0  0  0  0  0  3  0  0  0  0  0  0
    2.3340   -4.0820    3.9000 C   0  0  0  0  0  0  0  0  0  0  0  0
    1.2220   -5.4850    4.5430 Br  0  0  0  0  0  0  0  0  0  0  0  0
  1 23  1  0  0  0  0
  1 12  1  0  0  0  0
  2  1  1  0  0  0  0
  3  2  2  0  0  0  0
  4  2  1  0  0  0  0
  5  4  1  0  0  0  0
  6  5  2  0  0  0  0
  7  9  2  0  0  0  0
  7  6  1  0  0  0  0
  8  7  1  0  0  0  0
  9 10  1  0  0  0  0
 10 11  1  0  0  0  0
 10  4  2  0  0  0  0
 12 16  1  6  0  0  0
 12 14  1  0  0  0  0
 14 15  2  0  0  0  0
 14 13  1  0  0  0  0
 17 16  1  0  0  0  0
 17 22  1  0  0  0  0
 18 17  2  0  0  0  0
 19 18  1  0  0  0  0
 19 20  2  0  0  0  0
 20 21  1  0  0  0  0
 21 22  2  0  0  0  0
 23 24  1  0  0  0  0
 24 29  1  0  0  0  0
 25 24  2  0  0  0  0
 25 26  1  0  0  0  0
 26 27  2  0  0  0  0
 27 28  1  0  0  0  0
 29 30  1  0  0  0  0
 29 28  2  0  0  0  0
M  END
>  <minimizedAffinity>
30.1097374

$$$$
