REMARK  Name = 
REMARK  6 active torsions:
REMARK  status: ('A' for Active; 'I' for Inactive)
REMARK    1  A    between atoms: C_2  and  C_3
REMARK    2  A    between atoms: C_4  and  C_5
REMARK    3  A    between atoms: C_14  and  S_15
REMARK    4  A    between atoms: S_15  and  C_16
REMARK    5  A    between atoms: C_16  and  C_17
REMARK    6  A    between atoms: C_21  and  N_22
REMARK                            x       y       z     vdW  Elec       q    Type
REMARK                         _______ _______ _______ _____ _____    ______ ____
ROOT
ATOM      1  C   UNL     1       3.720   0.077  -0.019  0.00  0.00    +0.142 A 
ATOM      2  C   UNL     1       4.471   1.166   0.224  0.00  0.00    +0.099 A 
ATOM      3  N   UNL     1       5.849   1.169   0.221  0.00  0.00    -0.222 NA
ATOM      4  C   UNL     1       6.447   0.083  -0.135  0.00  0.00    +0.170 A 
ATOM      5  N   UNL     1       5.792  -1.059  -0.469  0.00  0.00    -0.301 N 
ATOM      6  C   UNL     1       4.434  -1.164  -0.376  0.00  0.00    +0.270 A 
ATOM      7  O   UNL     1       3.863  -2.227  -0.586  0.00  0.00    -0.266 OA
ATOM      8  H   UNL     1       6.288  -1.884  -0.763  0.00  0.00    +0.171 HD
ENDROOT
BRANCH   2   9
ATOM      9  C   UNL     1       3.836   2.476   0.465  0.00  0.00    +0.037 A 
ATOM     10  C   UNL     1       3.811   3.034   1.750  0.00  0.00    +0.016 A 
ATOM     11  C   UNL     1       3.211   4.280   1.956  0.00  0.00    +0.039 A 
ATOM     12  C   UNL     1       2.650   4.966   0.881  0.00  0.00    +0.126 A 
ATOM     13  F   UNL     1       2.081   6.160   1.088  0.00  0.00    -0.205 F 
ATOM     14  C   UNL     1       2.674   4.435  -0.400  0.00  0.00    +0.077 A 
ATOM     15  C   UNL     1       3.268   3.195  -0.599  0.00  0.00    +0.135 A 
ATOM     16  F   UNL     1       3.290   2.683  -1.839  0.00  0.00    -0.205 F 
ENDBRANCH   2   9
BRANCH   1  18
ATOM     17  N   UNL     1       0.939   0.077  -0.019  0.00  0.00    -0.191 NA
ATOM     18  C   UNL     1       2.200   0.077  -0.019  0.00  0.00    +0.107 C 
ENDBRANCH   1  18
BRANCH   4  19
ATOM     19  S   UNL     1       8.177   0.075  -0.252  0.00  0.00    -0.083 S 
BRANCH  19  20
ATOM     20  C   UNL     1       8.689  -1.552   0.330  0.00  0.00    +0.112 C 
BRANCH  20  21
ATOM     21  C   UNL     1       8.026  -2.085   1.578  0.00  0.00    -0.031 A 
ATOM     22  C   UNL     1       7.676  -3.447   1.634  0.00  0.00    +0.005 A 
ATOM     23  C   UNL     1       7.100  -4.000   2.780  0.00  0.00    +0.007 A 
ATOM     24  C   UNL     1       6.866  -3.203   3.898  0.00  0.00    +0.084 A 
ATOM     25  C   UNL     1       7.223  -1.850   3.861  0.00  0.00    +0.273 A 
ATOM     26  C   UNL     1       7.813  -1.291   2.716  0.00  0.00    +0.088 A 
BRANCH  25  27
ATOM     27  N   UNL     1       6.971  -1.006   5.033  0.00  0.00    +0.080 N 
ATOM     28  O   UNL     1       6.745  -1.572   6.112  0.00  0.00    +0.041 OA
ATOM     29  O   UNL     1       6.990   0.222   4.869  0.00  0.00    -0.576 OA
ENDBRANCH  25  27
ENDBRANCH  20  21
ENDBRANCH  19  20
ENDBRANCH   4  19
TORSDOF 6
