
 OpenBabel09132204463D

 29 31  0  0  0  0  0  0  0  0999 V2000
    4.0310   -2.9160    5.3660 C   0  0  0  0  0  0  0  0  0  0  0  0
    5.1500   -3.6610    5.3180 C   0  0  0  0  0  0  0  0  0  0  0  0
    5.4740   -4.5020    4.2760 N   0  0  0  0  0  0  0  0  0  0  0  0
    4.7020   -4.4940    3.2420 C   0  0  0  0  0  0  0  0  0  0  0  0
    3.5820   -3.7310    3.1480 N   0  0  0  0  0  0  0  0  0  0  0  0
    3.1430   -2.9650    4.1890 C   0  0  0  0  0  0  0  0  0  0  0  0
    2.0810   -2.3580    4.1270 O   0  0  0  0  0  0  0  0  0  0  0  0
    3.0120   -3.7320    2.3180 H   0  0  0  0  0  0  0  0  0  0  0  0
    6.1540   -3.5750    6.3970 C   0  0  0  0  0  0  0  0  0  0  0  0
    7.2970   -2.7780    6.2490 C   0  0  0  0  0  3  0  0  0  0  0  0
    8.2330   -2.7040    7.2860 C   0  0  0  0  0  3  0  0  0  0  0  0
    8.0190   -3.4150    8.4650 C   0  0  0  0  0  0  0  0  0  0  0  0
    8.9190   -3.3350    9.4530 F   0  0  0  0  0  0  0  0  0  0  0  0
    6.8890   -4.2010    8.6340 C   0  0  0  0  0  3  0  0  0  0  0  0
    5.9640   -4.2740    7.5990 C   0  0  0  0  0  0  0  0  0  0  0  0
    4.8720   -5.0350    7.7650 F   0  0  0  0  0  0  0  0  0  0  0  0
    3.3870   -1.2140    7.4690 N   0  0  0  0  0  1  0  0  0  0  0  0
    3.6790   -1.9860    6.5150 C   0  0  0  0  0  2  0  0  0  0  0  0
    5.1290   -5.4600    1.8670 S   0  0  0  0  0  0  0  0  0  0  0  0
    6.8990   -5.7610    2.0240 C   0  0  0  0  0  2  0  0  0  0  0  0
    7.8350   -4.6830    1.5330 C   0  0  0  0  0  0  0  0  0  0  0  0
    8.4390   -4.8280    0.2710 C   0  0  0  0  0  3  0  0  0  0  0  0
    9.2790   -3.8400   -0.2480 C   0  0  0  0  0  3  0  0  0  0  0  0
    9.5290   -2.6820    0.4830 C   0  0  0  0  0  3  0  0  0  0  0  0
    8.9230   -2.5170    1.7330 C   0  0  0  0  0  0  0  0  0  0  0  0
    8.0680   -3.5020    2.2550 C   0  0  0  0  0  3  0  0  0  0  0  0
    9.1900   -1.3020    2.5090 N   0  0  0  0  0  0  0  0  0  0  0  0
    9.6070   -1.4390    3.6680 O   0  0  0  0  0  0  0  0  0  0  0  0
    8.9710   -0.2130    1.9610 O   0  0  0  0  0  0  0  0  0  0  0  0
  1 18  1  0  0  0  0
  2  1  2  0  0  0  0
  2  9  1  0  0  0  0
  3  2  1  0  0  0  0
  4  3  2  0  0  0  0
  5  4  1  0  0  0  0
  5  6  1  0  0  0  0
  6  1  1  0  0  0  0
  7  6  2  0  0  0  0
  8  5  1  0  0  0  0
  9 15  1  0  0  0  0
 10  9  2  0  0  0  0
 10 11  1  0  0  0  0
 11 12  2  0  0  0  0
 12 14  1  0  0  0  0
 12 13  1  0  0  0  0
 15 16  1  0  0  0  0
 15 14  2  0  0  0  0
 18 17  1  0  0  0  0
 19 20  1  0  0  0  0
 19  4  1  0  0  0  0
 21 20  1  0  0  0  0
 21 26  1  0  0  0  0
 22 21  2  0  0  0  0
 23 22  1  0  0  0  0
 23 24  2  0  0  0  0
 24 25  1  0  0  0  0
 25 26  2  0  0  0  0
 25 27  1  0  0  0  0
 27 28  2  0  0  0  0
 29 27  2  0  0  0  0
M  END
>  <minimizedAffinity>
-7.5213027

$$$$
