
 OpenBabel09132204463D

 29 31  0  0  0  0  0  0  0  0999 V2000
    9.0730   -3.6790    0.7120 C   0  0  0  0  0  0  0  0  0  0  0  0
    8.5220   -3.5110    1.9270 C   0  0  0  0  0  0  0  0  0  0  0  0
    7.3950   -4.1750    2.3620 N   0  0  0  0  0  0  0  0  0  0  0  0
    6.9040   -5.0840    1.5900 C   0  0  0  0  0  0  0  0  0  0  0  0
    7.4160   -5.3890    0.3690 N   0  0  0  0  0  0  0  0  0  0  0  0
    8.4590   -4.6910   -0.1690 C   0  0  0  0  0  0  0  0  0  0  0  0
    8.8500   -4.9100   -1.3090 O   0  0  0  0  0  0  0  0  0  0  0  0
    7.0220   -6.1190   -0.2010 H   0  0  0  0  0  0  0  0  0  0  0  0
    9.1470   -2.6120    2.9160 C   0  0  0  0  0  0  0  0  0  0  0  0
    9.8280   -3.1300    4.0260 C   0  0  0  0  0  3  0  0  0  0  0  0
   10.4200   -2.2600    4.9470 C   0  0  0  0  0  3  0  0  0  0  0  0
   10.3390   -0.8830    4.7530 C   0  0  0  0  0  0  0  0  0  0  0  0
   10.9110   -0.0590    5.6390 F   0  0  0  0  0  0  0  0  0  0  0  0
    9.6780   -0.3510    3.6550 C   0  0  0  0  0  3  0  0  0  0  0  0
    9.0880   -1.2190    2.7440 C   0  0  0  0  0  0  0  0  0  0  0  0
    8.4490   -0.7030    1.6840 F   0  0  0  0  0  0  0  0  0  0  0  0
   11.3510   -2.3410   -0.1580 N   0  0  0  0  0  1  0  0  0  0  0  0
   10.3180   -2.9480    0.2360 C   0  0  0  0  0  2  0  0  0  0  0  0
    5.5490   -6.0150    2.1420 S   0  0  0  0  0  0  0  0  0  0  0  0
    4.2420   -4.8150    2.4610 C   0  0  0  0  0  2  0  0  0  0  0  0
    4.2240   -4.1510    3.8180 C   0  0  0  0  0  0  0  0  0  0  0  0
    3.2640   -3.1540    4.0740 C   0  0  0  0  0  3  0  0  0  0  0  0
    3.1750   -2.5390    5.3250 C   0  0  0  0  0  3  0  0  0  0  0  0
    4.0430   -2.9110    6.3490 C   0  0  0  0  0  3  0  0  0  0  0  0
    4.9920   -3.9120    6.1120 C   0  0  0  0  0  0  0  0  0  0  0  0
    5.0780   -4.5420    4.8600 C   0  0  0  0  0  3  0  0  0  0  0  0
    5.9120   -4.3010    7.1850 N   0  0  0  0  0  0  0  0  0  0  0  0
    7.0250   -3.7560    7.2150 O   0  0  0  0  0  0  0  0  0  0  0  0
    5.5230   -5.1580    7.9900 O   0  0  0  0  0  0  0  0  0  0  0  0
  1  2  2  0  0  0  0
  2  3  1  0  0  0  0
  2  9  1  0  0  0  0
  4 19  1  0  0  0  0
  4  3  2  0  0  0  0
  5  4  1  0  0  0  0
  6  5  1  0  0  0  0
  6  1  1  0  0  0  0
  7  6  2  0  0  0  0
  8  5  1  0  0  0  0
  9 10  1  0  0  0  0
 10 11  2  0  0  0  0
 12 11  1  0  0  0  0
 12 13  1  0  0  0  0
 14 12  2  0  0  0  0
 15  9  2  0  0  0  0
 15 14  1  0  0  0  0
 16 15  1  0  0  0  0
 17 18  1  0  0  0  0
 18  1  1  0  0  0  0
 19 20  1  0  0  0  0
 20 21  1  0  0  0  0
 21 22  2  0  0  0  0
 21 26  1  0  0  0  0
 22 23  1  0  0  0  0
 23 24  2  0  0  0  0
 25 24  1  0  0  0  0
 25 27  1  0  0  0  0
 26 25  2  0  0  0  0
 27 28  2  0  0  0  0
 27 29  2  0  0  0  0
M  END
>  <minimizedAffinity>
-7.69849825

$$$$
