
 OpenBabel09132204463D

 29 31  0  0  0  0  0  0  0  0999 V2000
    3.8410   -3.0640    5.8440 C   0  0  0  0  0  0  0  0  0  0  0  0
    4.7390   -4.0590    5.9590 C   0  0  0  0  0  0  0  0  0  0  0  0
    4.8000   -5.1450    5.1130 N   0  0  0  0  0  0  0  0  0  0  0  0
    4.0100   -5.1510    4.0930 C   0  0  0  0  0  0  0  0  0  0  0  0
    3.1090   -4.1670    3.8360 N   0  0  0  0  0  0  0  0  0  0  0  0
    2.9180   -3.1230    4.6940 C   0  0  0  0  0  0  0  0  0  0  0  0
    2.0370   -2.2950    4.5020 O   0  0  0  0  0  0  0  0  0  0  0  0
    2.5220   -4.1910    3.0190 H   0  0  0  0  0  0  0  0  0  0  0  0
    5.7790   -4.0140    7.0050 C   0  0  0  0  0  0  0  0  0  0  0  0
    5.6230   -4.7280    8.2000 C   0  0  0  0  0  3  0  0  0  0  0  0
    6.6240   -4.6780    9.1760 C   0  0  0  0  0  3  0  0  0  0  0  0
    7.7750   -3.9260    8.9510 C   0  0  0  0  0  0  0  0  0  0  0  0
    8.7280   -3.8870    9.8910 F   0  0  0  0  0  0  0  0  0  0  0  0
    7.9510   -3.2200    7.7710 C   0  0  0  0  0  3  0  0  0  0  0  0
    6.9530   -3.2700    6.8060 C   0  0  0  0  0  0  0  0  0  0  0  0
    7.1260   -2.5860    5.6640 F   0  0  0  0  0  0  0  0  0  0  0  0
    3.7270   -0.8710    7.5500 N   0  0  0  0  0  1  0  0  0  0  0  0
    3.7790   -1.8650    6.7760 C   0  0  0  0  0  2  0  0  0  0  0  0
    4.1260   -6.4470    2.9470 S   0  0  0  0  0  0  0  0  0  0  0  0
    5.8900   -6.6650    2.6460 C   0  0  0  0  0  2  0  0  0  0  0  0
    6.4390   -6.1620    1.3320 C   0  0  0  0  0  0  0  0  0  0  0  0
    5.7200   -6.4220    0.1500 C   0  0  0  0  0  3  0  0  0  0  0  0
    6.1610   -5.9430   -1.0860 C   0  0  0  0  0  3  0  0  0  0  0  0
    7.3290   -5.1890   -1.1650 C   0  0  0  0  0  3  0  0  0  0  0  0
    8.0460   -4.9100    0.0040 C   0  0  0  0  0  0  0  0  0  0  0  0
    7.6010   -5.3790    1.2510 C   0  0  0  0  0  3  0  0  0  0  0  0
    9.2800   -4.1230   -0.0770 N   0  0  0  0  0  0  0  0  0  0  0  0
    9.9260   -4.1730   -1.1330 O   0  0  0  0  0  0  0  0  0  0  0  0
    9.6050   -3.4630    0.9210 O   0  0  0  0  0  0  0  0  0  0  0  0
  1  2  2  0  0  0  0
  1 18  1  0  0  0  0
  2  9  1  0  0  0  0
  3  2  1  0  0  0  0
  4  3  2  0  0  0  0
  5  4  1  0  0  0  0
  5  6  1  0  0  0  0
  6  1  1  0  0  0  0
  7  6  2  0  0  0  0
  8  5  1  0  0  0  0
  9 10  1  0  0  0  0
 10 11  2  0  0  0  0
 12 11  1  0  0  0  0
 12 13  1  0  0  0  0
 14 12  2  0  0  0  0
 15  9  2  0  0  0  0
 15 14  1  0  0  0  0
 16 15  1  0  0  0  0
 18 17  1  0  0  0  0
 19  4  1  0  0  0  0
 20 19  1  0  0  0  0
 21 20  1  0  0  0  0
 22 21  2  0  0  0  0
 23 22  1  0  0  0  0
 24 23  2  0  0  0  0
 24 25  1  0  0  0  0
 25 26  2  0  0  0  0
 26 21  1  0  0  0  0
 27 25  1  0  0  0  0
 27 29  2  0  0  0  0
 28 27  2  0  0  0  0
M  END
>  <minimizedAffinity>
-7.6725564

$$$$
