
 OpenBabel09132204463D

 29 31  0  0  0  0  0  0  0  0999 V2000
    3.6970   -6.0350    4.9510 C   0  0  0  0  0  0  0  0  0  0  0  0
    4.4820   -5.0020    4.5940 C   0  0  0  0  0  0  0  0  0  0  0  0
    5.1470   -4.9190    3.3900 N   0  0  0  0  0  0  0  0  0  0  0  0
    4.9200   -5.8410    2.5180 C   0  0  0  0  0  0  0  0  0  0  0  0
    4.0930   -6.8960    2.7400 N   0  0  0  0  0  0  0  0  0  0  0  0
    3.4950   -7.1000    3.9500 C   0  0  0  0  0  0  0  0  0  0  0  0
    2.8300   -8.1050    4.1690 O   0  0  0  0  0  0  0  0  0  0  0  0
    3.9200   -7.5880    2.0300 H   0  0  0  0  0  0  0  0  0  0  0  0
    4.6380   -3.8360    5.4850 C   0  0  0  0  0  0  0  0  0  0  0  0
    5.8060   -3.6630    6.2400 C   0  0  0  0  0  3  0  0  0  0  0  0
    5.9370   -2.5470    7.0720 C   0  0  0  0  0  3  0  0  0  0  0  0
    4.9110   -1.6080    7.1400 C   0  0  0  0  0  0  0  0  0  0  0  0
    5.0470   -0.5410    7.9380 F   0  0  0  0  0  0  0  0  0  0  0  0
    3.7510   -1.7570    6.3930 C   0  0  0  0  0  3  0  0  0  0  0  0
    3.6240   -2.8690    5.5700 C   0  0  0  0  0  0  0  0  0  0  0  0
    2.5020   -3.0110    4.8480 F   0  0  0  0  0  0  0  0  0  0  0  0
    2.3510   -6.1960    7.3790 N   0  0  0  0  0  1  0  0  0  0  0  0
    2.9620   -6.1230    6.2780 C   0  0  0  0  0  2  0  0  0  0  0  0
    5.6560   -5.7190    0.9530 S   0  0  0  0  0  0  0  0  0  0  0  0
    7.4310   -5.8220    1.2490 C   0  0  0  0  0  2  0  0  0  0  0  0
    8.2360   -4.5530    1.1000 C   0  0  0  0  0  0  0  0  0  0  0  0
    8.1690   -3.5820    2.1160 C   0  0  0  0  0  3  0  0  0  0  0  0
    8.9260   -2.4100    2.0490 C   0  0  0  0  0  3  0  0  0  0  0  0
    9.7710   -2.1860    0.9640 C   0  0  0  0  0  3  0  0  0  0  0  0
    9.8590   -3.1510   -0.0460 C   0  0  0  0  0  0  0  0  0  0  0  0
    9.1090   -4.3360    0.0220 C   0  0  0  0  0  3  0  0  0  0  0  0
   10.7410   -2.9160   -1.1930 N   0  0  0  0  0  0  0  0  0  0  0  0
   10.6720   -1.8130   -1.7550 O   0  0  0  0  0  0  0  0  0  0  0  0
   11.4940   -3.8380   -1.5350 O   0  0  0  0  0  0  0  0  0  0  0  0
  1 18  1  0  0  0  0
  2  1  2  0  0  0  0
  2  9  1  0  0  0  0
  3  2  1  0  0  0  0
  4  5  1  0  0  0  0
  4  3  2  0  0  0  0
  5  6  1  0  0  0  0
  6  7  2  0  0  0  0
  6  1  1  0  0  0  0
  8  5  1  0  0  0  0
  9 15  2  0  0  0  0
  9 10  1  0  0  0  0
 10 11  2  0  0  0  0
 11 12  1  0  0  0  0
 12 13  1  0  0  0  0
 14 12  2  0  0  0  0
 15 14  1  0  0  0  0
 16 15  1  0  0  0  0
 18 17  1  0  0  0  0
 19 20  1  0  0  0  0
 19  4  1  0  0  0  0
 21 20  1  0  0  0  0
 21 22  1  0  0  0  0
 23 22  2  0  0  0  0
 24 23  1  0  0  0  0
 25 26  1  0  0  0  0
 25 24  2  0  0  0  0
 26 21  2  0  0  0  0
 27 25  1  0  0  0  0
 28 27  2  0  0  0  0
 29 27  2  0  0  0  0
M  END
>  <minimizedAffinity>
-7.56538725

$$$$
