REMARK  Name = 
REMARK  8 active torsions:
REMARK  status: ('A' for Active; 'I' for Inactive)
REMARK    1  A    between atoms: C_2  and  O_20
REMARK    2  A    between atoms: N_3  and  C_4
REMARK    3  A    between atoms: C_8  and  C_9
REMARK    4  A    between atoms: C_11  and  O_12
REMARK    5  A    between atoms: C_13  and  O_14
REMARK    6  A    between atoms: C_15  and  C_16
REMARK    7  A    between atoms: O_20  and  C_21
REMARK    8  A    between atoms: C_21  and  C_22
REMARK                            x       y       z     vdW  Elec       q    Type
REMARK                         _______ _______ _______ _____ _____    ______ ____
ROOT
ATOM      1  C   UNK A   0       4.576   0.919   0.353  0.00  0.00    +0.054 A 
ATOM      2  C   UNK A   0       5.918  -0.229   1.217  0.00  0.00    +0.032 A 
ATOM      3  C   UNK A   0       7.364  -0.434   0.238  0.00  0.00    +0.048 A 
ATOM      4  S   UNK A   0       7.382   0.931  -1.616  0.00  0.00    -0.092 S 
ATOM      5  C   UNK A   0       5.202   1.653  -1.152  0.00  0.00    +0.078 A 
ENDROOT
BRANCH   5   6
ATOM      6  C   UNK A   0       4.683   2.720  -2.003  0.00  0.00    +0.173 A 
ATOM      7  N   UNK A   1       5.294   2.956  -3.171  0.00  0.00    -0.190 NA
ATOM      8  C   UNK A   1       4.748   3.959  -3.869  0.00  0.00    +0.259 A 
ATOM      9  C   UNK A   1       3.663   4.712  -3.468  0.00  0.00    +0.206 A 
ATOM     10  C   UNK A   1       3.103   4.385  -2.244  0.00  0.00    +0.135 A 
ATOM     11  N   UNK A   1       3.614   3.360  -1.503  0.00  0.00    -0.222 NA
BRANCH  10  12
ATOM     12  C   UNK A   1       1.918   5.195  -1.732  0.00  0.00    +0.094 C 
ATOM     13  O   UNK A   1       1.508   6.119  -2.519  0.00  0.00    -0.543 OA
ATOM     14  O   UNK A   1       1.438   4.916  -0.592  0.00  0.00    -0.543 OA
ENDBRANCH  10  12
BRANCH   8  15
ATOM     15  O   UNK A   1       5.335   4.238  -5.079  0.00  0.00    -0.490 OA
ATOM     16  H   UNK A   1       4.804   4.991  -5.406  0.00  0.00    +0.294 HD
ENDBRANCH   8  15
BRANCH   9  17
ATOM     17  O   UNK A   1       3.219   5.717  -4.287  0.00  0.00    -0.501 OA
ATOM     18  H   UNK A   1       2.442   6.123  -3.802  0.00  0.00    +0.292 HD
ENDBRANCH   9  17
ENDBRANCH   5   6
BRANCH   1  21
ATOM     19  O   UNK A   0       1.227   0.510   1.438  0.00  0.00    -0.226 OA
ATOM     20  C   UNK A   0       2.344   0.236   1.014  0.00  0.00    +0.405 C 
ATOM     21  N   UNK A   0       3.314   1.193   0.846  0.00  0.00    -0.250 N 
ATOM     22  H   UNK A   0       2.921   2.117   0.652  0.00  0.00    +0.158 HD
BRANCH  20  23
ATOM     23  O   UNK A   0       2.598  -1.003   0.501  0.00  0.00    -0.445 OA
BRANCH  23  24
ATOM     24  C   UNK A   0       3.808  -1.666   0.879  0.00  0.00    +0.272 C 
BRANCH  24  25
ATOM     25  C   UNK A   0       4.868  -1.642  -0.285  0.00  0.00    +0.026 A 
ATOM     26  C   UNK A   0       5.598  -0.344  -0.839  0.00  0.00    +0.049 A 
ATOM     27 CL   UNK A   0       6.583   1.594   0.446  0.00  0.00    -0.083 Cl
ATOM     28  C   UNK A   0       5.444  -0.482  -2.363  0.00  0.00    +0.020 A 
ATOM     29  C   UNK A   0       5.184  -1.656  -3.093  0.00  0.00    +0.003 A 
ATOM     30  C   UNK A   0       4.980  -2.847  -2.440  0.00  0.00    +0.020 A 
ATOM     31  C   UNK A   0       4.793  -2.845  -1.066  0.00  0.00    +0.049 A 
ATOM     32 CL   UNK A   0       4.465  -4.407  -0.371  0.00  0.00    -0.083 Cl
ENDBRANCH  24  25
ENDBRANCH  23  24
ENDBRANCH  20  23
ENDBRANCH   1  21
TORSDOF 8
