
 OpenBabel09132204463D

 32 31  0  0  1  0  0  0  0  0999 V2000
    8.9890   -3.0570    2.1530 C   0  0  0  0  0  0  0  0  0  0  0  0
   10.1240   -2.7640    0.5750 C   0  0  0  0  0  2  0  0  0  0  0  0
    9.7720   -3.8880   -0.7300 C   0  0  0  0  0  1  0  0  0  0  0  0
    7.9000   -5.1660   -0.3200 S   0  0  0  0  0 15  0  0  0  0  0  0
    7.7220   -4.2780    1.8410 C   0  0  0  0  0  2  0  0  0  0  0  0
    6.5360   -4.6650    2.6000 C   0  0  0  0  0  0  0  0  0  0  0  0
    6.1510   -3.8870    3.6190 N   0  0  0  0  0  0  0  0  0  0  0  0
    5.0610   -4.3350    4.2540 C   0  0  0  0  0  0  0  0  0  0  0  0
    4.3660   -5.4830    3.9330 C   0  0  0  0  0  0  0  0  0  0  0  0
    4.8460   -6.2150    2.8590 C   0  0  0  0  0  0  0  0  0  0  0  0
    5.9440   -5.7910    2.1700 N   0  0  0  0  0  0  0  0  0  0  0  0
    4.1380   -7.5070    2.4680 C   0  0  0  0  0  0  0  0  0  0  0  0
    3.7880   -8.2550    3.4480 O   0  0  0  0  0  1  0  0  0  0  0  0
    3.9560   -7.7520    1.2380 O   0  0  0  0  0  0  0  0  0  0  0  0
    4.6220   -3.5690    5.3060 O   0  0  0  0  0  0  0  0  0  0  0  0
    3.8460   -4.0700    5.6270 H   0  0  0  0  0  0  0  0  0  0  0  0
    3.2690   -5.8210    4.6820 O   0  0  0  0  0  0  0  0  0  0  0  0
    2.9330   -6.6750    4.2790 H   0  0  0  0  0  0  0  0  0  0  0  0
    9.4550   -0.4660    4.5270 O   0  0  0  0  0  0  0  0  0  0  0  0
    9.3520   -1.0360    3.4470 C   0  0  0  0  0  0  0  0  0  0  0  0
    9.0920   -2.3810    3.3550 N   0  0  0  0  0  4  0  0  0  0  0  0
    9.4450   -2.9030    4.1620 H   0  0  0  0  0  0  0  0  0  0  0  0
    9.6950   -0.3900    2.2940 O   0  0  0  0  0  0  0  0  0  0  0  0
    9.1110    0.8880    2.0270 C   0  0  0  0  0  2  0  0  0  0  0  0
   10.2130    1.9910    1.8020 C   0  0  2  0  0  3  0  0  0  0  0  0
   10.6470    3.0880    2.8660 C   0  0  0  0  0  2  0  0  0  0  0  0
   11.0480    2.8240    5.3460 Cl  0  0  0  0  0 15  0  0  0  0  0  0
   10.6370    4.3900    2.0480 C   0  0  0  0  0  2  0  0  0  0  0  0
   10.7160    4.5210    0.6490 C   0  0  0  0  0  3  0  0  0  0  0  0
   10.7590    3.4050   -0.1500 C   0  0  0  0  0  3  0  0  0  0  0  0
   10.4820    2.1630    0.4020 C   0  0  1  0  0  3  0  0  0  0  0  0
   10.4900    0.8420   -0.7310 Cl  0  0  0  0  0  0  0  0  0  0  0  0
  1 21  2  0  0  0  0
  2  1  1  0  0  0  0
  3  2  1  0  0  0  0
  5  1  1  0  0  0  0
  5  6  1  0  0  0  0
  6  7  1  0  0  0  0
  7  8  2  0  0  0  0
  8 15  1  0  0  0  0
  9  8  1  0  0  0  0
  9 17  1  0  0  0  0
 10  9  2  0  0  0  0
 11  6  2  0  0  0  0
 11 10  1  0  0  0  0
 12 10  1  0  0  0  0
 12 13  1  0  0  0  0
 14 12  2  0  0  0  0
 15 16  1  0  0  0  0
 18 17  1  0  0  0  0
 20 19  2  0  0  0  0
 21 20  1  0  0  0  0
 21 22  1  0  0  0  0
 23 20  1  0  0  0  0
 24 23  1  0  0  0  0
 25 24  1  6  0  0  0
 25 26  1  0  0  0  0
 28 26  1  0  0  0  0
 29 28  1  0  0  0  0
 30 31  1  0  0  0  0
 30 29  2  0  0  0  0
 31 32  1  1  0  0  0
 31 25  1  0  0  0  0
M  END
>  <minimizedAffinity>
-6.95686197

$$$$
