
 OpenBabel09132204463D

 32 31  0  0  1  0  0  0  0  0999 V2000
    8.5180   -2.7090    2.1960 C   0  0  0  0  0  0  0  0  0  0  0  0
    8.7330   -4.2520    0.9970 C   0  0  0  0  0  2  0  0  0  0  0  0
    9.4360   -3.8120   -0.5530 C   0  0  0  0  0  1  0  0  0  0  0  0
   10.1670   -1.6290   -0.6090 S   0  0  0  0  0 15  0  0  0  0  0  0
    9.2610   -1.2320    1.5150 C   0  0  0  0  0  2  0  0  0  0  0  0
    9.5520    0.0720    2.1050 C   0  0  0  0  0  0  0  0  0  0  0  0
    9.6400    0.1610    3.4380 N   0  0  0  0  0  0  0  0  0  0  0  0
    9.8990    1.3990    3.8770 C   0  0  0  0  0  0  0  0  0  0  0  0
   10.0640    2.5110    3.0760 C   0  0  0  0  0  0  0  0  0  0  0  0
    9.9550    2.3090    1.7100 C   0  0  0  0  0  0  0  0  0  0  0  0
    9.7080    1.0630    1.2140 N   0  0  0  0  0  0  0  0  0  0  0  0
   10.1020    3.5020    0.7720 C   0  0  0  0  0  0  0  0  0  0  0  0
   11.2920    3.9620    0.6570 O   0  0  0  0  0  1  0  0  0  0  0  0
    9.0660    3.9520    0.1940 O   0  0  0  0  0  0  0  0  0  0  0  0
   10.0050    1.5430    5.2390 O   0  0  0  0  0  0  0  0  0  0  0  0
   10.1770    2.5000    5.3400 H   0  0  0  0  0  0  0  0  0  0  0  0
   10.3160    3.7190    3.6710 O   0  0  0  0  0  0  0  0  0  0  0  0
   10.3940    4.3700    2.9130 H   0  0  0  0  0  0  0  0  0  0  0  0
    6.4030   -3.6050    4.8940 O   0  0  0  0  0  0  0  0  0  0  0  0
    6.9260   -3.6150    3.7860 C   0  0  0  0  0  0  0  0  0  0  0  0
    7.9220   -2.7350    3.4430 N   0  0  0  0  0  4  0  0  0  0  0  0
    7.8550   -1.8510    3.9540 H   0  0  0  0  0  0  0  0  0  0  0  0
    6.3930   -4.3720    2.7830 O   0  0  0  0  0  0  0  0  0  0  0  0
    5.0210   -4.7670    2.8770 C   0  0  0  0  0  2  0  0  0  0  0  0
    4.8820   -6.2700    3.3270 C   0  0  2  0  0  3  0  0  0  0  0  0
    5.4890   -7.5210    2.5580 C   0  0  0  0  0  2  0  0  0  0  0  0
    7.7640   -7.7800    1.4930 Cl  0  0  0  0  0 15  0  0  0  0  0  0
    4.3040   -8.4990    2.4970 C   0  0  0  0  0  2  0  0  0  0  0  0
    3.1620   -8.5110    3.3180 C   0  0  0  0  0  3  0  0  0  0  0  0
    2.9860   -7.5400    4.2740 C   0  0  0  0  0  3  0  0  0  0  0  0
    3.8060   -6.4220    4.2650 C   0  0  1  0  0  3  0  0  0  0  0  0
    3.4280   -5.2300    5.4770 Cl  0  0  0  0  0  0  0  0  0  0  0  0
  1 21  2  0  0  0  0
  2  1  1  0  0  0  0
  3  2  1  0  0  0  0
  5  6  1  0  0  0  0
  5  1  1  0  0  0  0
  6  7  1  0  0  0  0
  7  8  2  0  0  0  0
  8 15  1  0  0  0  0
  9 17  1  0  0  0  0
  9  8  1  0  0  0  0
 10  9  2  0  0  0  0
 11 10  1  0  0  0  0
 11  6  2  0  0  0  0
 12 10  1  0  0  0  0
 13 12  1  0  0  0  0
 14 12  2  0  0  0  0
 15 16  1  0  0  0  0
 18 17  1  0  0  0  0
 20 19  2  0  0  0  0
 21 20  1  0  0  0  0
 21 22  1  0  0  0  0
 23 24  1  0  0  0  0
 23 20  1  0  0  0  0
 25 24  1  6  0  0  0
 25 31  1  0  0  0  0
 26 25  1  0  0  0  0
 28 26  1  0  0  0  0
 28 29  1  0  0  0  0
 29 30  2  0  0  0  0
 31 30  1  0  0  0  0
 31 32  1  1  0  0  0
M  END
>  <minimizedAffinity>
-7.26385975

$$$$
