
 OpenBabel09122223183D

 32 31  0  0  1  0  0  0  0  0999 V2000
    8.0860   -3.2550    2.2970 C   0  0  0  0  0  0  0  0  0  0  0  0
    8.2350   -4.8750    1.1920 C   0  0  0  0  0  2  0  0  0  0  0  0
    9.0410   -4.5760   -0.3410 C   0  0  0  0  0  1  0  0  0  0  0  0
    9.9420   -2.4620   -0.4740 S   0  0  0  0  0 15  0  0  0  0  0  0
    8.9730   -1.8790    1.5780 C   0  0  0  0  0  2  0  0  0  0  0  0
    9.3370   -0.5700    2.1130 C   0  0  0  0  0  0  0  0  0  0  0  0
    9.4480   -0.4340    3.4400 N   0  0  0  0  0  0  0  0  0  0  0  0
    9.7750    0.8050    3.8270 C   0  0  0  0  0  0  0  0  0  0  0  0
    9.9850    1.8750    2.9810 C   0  0  0  0  0  0  0  0  0  0  0  0
    9.8480    1.6270    1.6260 C   0  0  0  0  0  0  0  0  0  0  0  0
    9.5310    0.3770    1.1810 N   0  0  0  0  0  0  0  0  0  0  0  0
   10.0420    2.7730    0.6400 C   0  0  0  0  0  0  0  0  0  0  0  0
   11.0010    2.6180   -0.1950 O   0  0  0  0  0  0  0  0  0  0  0  0
    9.2720    3.7780    0.7160 O   0  0  0  0  0  1  0  0  0  0  0  0
    9.9070    0.9960    5.1810 O   0  0  0  0  0  0  0  0  0  0  0  0
   10.1290    1.9460    5.2420 H   0  0  0  0  0  0  0  0  0  0  0  0
   10.3070    3.0910    3.5250 O   0  0  0  0  0  0  0  0  0  0  0  0
   10.4070    3.7080    2.7410 H   0  0  0  0  0  0  0  0  0  0  0  0
    5.6160   -3.5730    4.8180 O   0  0  0  0  0  0  0  0  0  0  0  0
    6.1790   -3.6810    3.7350 C   0  0  0  0  0  0  0  0  0  0  0  0
    7.4320   -3.1660    3.5110 N   0  0  0  0  0  4  0  0  0  0  0  0
    7.6290   -2.3500    4.0950 H   0  0  0  0  0  0  0  0  0  0  0  0
    5.4940   -4.1420    2.6480 O   0  0  0  0  0  0  0  0  0  0  0  0
    4.2290   -4.7780    2.8550 C   0  0  0  0  0  2  0  0  0  0  0  0
    4.2980   -6.3180    2.5340 C   0  0  2  0  0  3  0  0  0  0  0  0
    4.1530   -7.4880    3.5990 C   0  0  0  0  0  2  0  0  0  0  0  0
    2.5210   -7.6960    5.5160 Cl  0  0  0  0  0 15  0  0  0  0  0  0
    5.3380   -8.4090    3.2670 C   0  0  0  0  0  2  0  0  0  0  0  0
    6.0530   -8.4800    2.0580 C   0  0  0  0  0  3  0  0  0  0  0  0
    5.7540   -7.6260    1.0250 C   0  0  0  0  0  3  0  0  0  0  0  0
    4.9180   -6.5440    1.2590 C   0  0  1  0  0  3  0  0  0  0  0  0
    4.6830   -5.4940   -0.1100 Cl  0  0  0  0  0  0  0  0  0  0  0  0
  1 21  2  0  0  0  0
  2  1  1  0  0  0  0
  3  2  1  0  0  0  0
  5  6  1  0  0  0  0
  5  1  1  0  0  0  0
  6  7  1  0  0  0  0
  7  8  2  0  0  0  0
  8 15  1  0  0  0  0
  9 17  1  0  0  0  0
  9  8  1  0  0  0  0
 10  9  2  0  0  0  0
 11 10  1  0  0  0  0
 11  6  2  0  0  0  0
 12 14  1  0  0  0  0
 12 10  1  0  0  0  0
 13 12  2  0  0  0  0
 15 16  1  0  0  0  0
 18 17  1  0  0  0  0
 20 19  2  0  0  0  0
 21 20  1  0  0  0  0
 21 22  1  0  0  0  0
 23 24  1  0  0  0  0
 23 20  1  0  0  0  0
 25 24  1  1  0  0  0
 25 26  1  0  0  0  0
 28 26  1  0  0  0  0
 29 28  1  0  0  0  0
 30 31  1  0  0  0  0
 30 29  2  0  0  0  0
 31 32  1  6  0  0  0
 31 25  1  0  0  0  0
M  END
>  <minimizedAffinity>
-7.49845171

$$$$

 OpenBabel09122223183D

 32 31  0  0  1  0  0  0  0  0999 V2000
    8.1700   -3.6800    2.1320 C   0  0  0  0  0  0  0  0  0  0  0  0
    9.1580   -3.5400    0.4380 C   0  0  0  0  0  2  0  0  0  0  0  0
    8.5950   -4.6870   -0.7700 C   0  0  0  0  0  1  0  0  0  0  0  0
    6.6880   -5.7990   -0.1170 S   0  0  0  0  0 15  0  0  0  0  0  0
    6.7940   -4.8130    2.0050 C   0  0  0  0  0  2  0  0  0  0  0  0
    5.6650   -5.0760    2.8940 C   0  0  0  0  0  0  0  0  0  0  0  0
    5.3630   -6.3500    3.1770 N   0  0  0  0  0  0  0  0  0  0  0  0
    4.3080   -6.4820    3.9900 C   0  0  0  0  0  0  0  0  0  0  0  0
    3.5660   -5.4410    4.5110 C   0  0  0  0  0  0  0  0  0  0  0  0
    3.9640   -4.1620    4.1580 C   0  0  0  0  0  0  0  0  0  0  0  0
    5.0430   -3.9750    3.3440 N   0  0  0  0  0  0  0  0  0  0  0  0
    3.1710   -2.9700    4.6790 C   0  0  0  0  0  0  0  0  0  0  0  0
    3.7940   -2.2240    5.5140 O   0  0  0  0  0  1  0  0  0  0  0  0
    1.9810   -2.8070    4.2730 O   0  0  0  0  0  0  0  0  0  0  0  0
    3.9590   -7.7700    4.3170 O   0  0  0  0  0  0  0  0  0  0  0  0
    3.1790   -7.6420    4.8910 H   0  0  0  0  0  0  0  0  0  0  0  0
    2.5030   -5.7320    5.3250 O   0  0  0  0  0  0  0  0  0  0  0  0
    2.1180   -4.8420    5.5770 H   0  0  0  0  0  0  0  0  0  0  0  0
    9.1870   -1.0810    4.3170 O   0  0  0  0  0  0  0  0  0  0  0  0
    8.9390   -1.6850    3.2800 C   0  0  0  0  0  0  0  0  0  0  0  0
    8.4430   -2.9650    3.2840 N   0  0  0  0  0  4  0  0  0  0  0  0
    8.7330   -3.4930    4.1100 H   0  0  0  0  0  0  0  0  0  0  0  0
    9.3400   -1.1780    2.0780 O   0  0  0  0  0  0  0  0  0  0  0  0
    8.8100    0.0820    1.6550 C   0  0  0  0  0  2  0  0  0  0  0  0
    9.9420    1.1660    1.5090 C   0  0  2  0  0  3  0  0  0  0  0  0
   10.3090    2.2670    2.5940 C   0  0  0  0  0  2  0  0  0  0  0  0
   10.5090    2.0220    5.0990 Cl  0  0  0  0  0 15  0  0  0  0  0  0
   10.3830    3.5600    1.7660 C   0  0  0  0  0  2  0  0  0  0  0  0
   10.5750    3.6760    0.3770 C   0  0  0  0  0  3  0  0  0  0  0  0
   10.6620    2.5520   -0.4070 C   0  0  0  0  0  3  0  0  0  0  0  0
   10.3240    1.3200    0.1330 C   0  0  2  0  0  3  0  0  0  0  0  0
   10.4000   -0.0130   -0.9850 Cl  0  0  0  0  0  0  0  0  0  0  0  0
  1 21  2  0  0  0  0
  2  1  1  0  0  0  0
  3  2  1  0  0  0  0
  5  1  1  0  0  0  0
  5  6  1  0  0  0  0
  6  7  1  0  0  0  0
  6 11  2  0  0  0  0
  7  8  2  0  0  0  0
  8 15  1  0  0  0  0
  8  9  1  0  0  0  0
  9 17  1  0  0  0  0
 10  9  2  0  0  0  0
 10 12  1  0  0  0  0
 11 10  1  0  0  0  0
 12 13  1  0  0  0  0
 14 12  2  0  0  0  0
 15 16  1  0  0  0  0
 17 18  1  0  0  0  0
 20 21  1  0  0  0  0
 20 19  2  0  0  0  0
 21 22  1  0  0  0  0
 23 20  1  0  0  0  0
 24 23  1  0  0  0  0
 25 24  1  6  0  0  0
 25 26  1  0  0  0  0
 28 26  1  0  0  0  0
 29 28  1  0  0  0  0
 30 31  1  0  0  0  0
 30 29  2  0  0  0  0
 31 32  1  6  0  0  0
 31 25  1  0  0  0  0
M  END
>  <minimizedAffinity>
-7.33232021

$$$$

 OpenBabel09122223183D

 32 31  0  0  1  0  0  0  0  0999 V2000
    9.5560   -2.0990    1.5460 C   0  0  0  0  0  0  0  0  0  0  0  0
   10.0310   -3.4610    0.2110 C   0  0  0  0  0  2  0  0  0  0  0  0
   10.4910   -2.7610   -1.3350 C   0  0  0  0  0  1  0  0  0  0  0  0
   10.6890   -0.4690   -1.2480 S   0  0  0  0  0 15  0  0  0  0  0  0
    9.8810   -0.4450    0.9510 C   0  0  0  0  0  2  0  0  0  0  0  0
    9.9060    0.8460    1.6310 C   0  0  0  0  0  0  0  0  0  0  0  0
    9.8490    0.8620    2.9690 N   0  0  0  0  0  0  0  0  0  0  0  0
    9.8680    2.0930    3.4930 C   0  0  0  0  0  0  0  0  0  0  0  0
    9.9330    3.2670    2.7690 C   0  0  0  0  0  0  0  0  0  0  0  0
    9.9900    3.1400    1.3910 C   0  0  0  0  0  0  0  0  0  0  0  0
    9.9900    1.9060    0.8110 N   0  0  0  0  0  0  0  0  0  0  0  0
   10.0380    4.3990    0.5330 C   0  0  0  0  0  0  0  0  0  0  0  0
   11.1180    5.0820    0.6270 O   0  0  0  0  0  1  0  0  0  0  0  0
    9.0340    4.6830   -0.1870 O   0  0  0  0  0  0  0  0  0  0  0  0
    9.8180    2.1640    4.8630 O   0  0  0  0  0  0  0  0  0  0  0  0
    9.8280    3.1280    5.0280 H   0  0  0  0  0  0  0  0  0  0  0  0
    9.9350    4.4590    3.4450 O   0  0  0  0  0  0  0  0  0  0  0  0
    9.9820    5.1620    2.7320 H   0  0  0  0  0  0  0  0  0  0  0  0
    7.6580   -3.4380    4.2230 O   0  0  0  0  0  0  0  0  0  0  0  0
    8.0720   -3.2460    3.0850 C   0  0  0  0  0  0  0  0  0  0  0  0
    9.0800   -2.3520    2.8190 N   0  0  0  0  0  4  0  0  0  0  0  0
    9.1110   -1.5860    3.4960 H   0  0  0  0  0  0  0  0  0  0  0  0
    7.4050   -3.7680    2.0150 O   0  0  0  0  0  0  0  0  0  0  0  0
    7.3600   -5.1890    1.8630 C   0  0  0  0  0  2  0  0  0  0  0  0
    5.9940   -5.6610    1.2380 C   0  0  2  0  0  3  0  0  0  0  0  0
    4.7200   -6.1330    2.0620 C   0  0  0  0  0  2  0  0  0  0  0  0
    3.7150   -5.1260    4.1480 Cl  0  0  0  0  0 15  0  0  0  0  0  0
    4.3150   -7.4390    1.3580 C   0  0  0  0  0  2  0  0  0  0  0  0
    4.6520   -7.8480    0.0550 C   0  0  0  0  0  3  0  0  0  0  0  0
    5.4760   -7.0720   -0.7230 C   0  0  0  0  0  3  0  0  0  0  0  0
    6.1620   -6.0160   -0.1430 C   0  0  1  0  0  3  0  0  0  0  0  0
    7.2320   -5.1610   -1.2180 Cl  0  0  0  0  0  0  0  0  0  0  0  0
  1 21  2  0  0  0  0
  2  1  1  0  0  0  0
  3  2  1  0  0  0  0
  5  1  1  0  0  0  0
  5  6  1  0  0  0  0
  6  7  1  0  0  0  0
  7  8  2  0  0  0  0
  8 15  1  0  0  0  0
  9 17  1  0  0  0  0
  9  8  1  0  0  0  0
 10  9  2  0  0  0  0
 11 10  1  0  0  0  0
 11  6  2  0  0  0  0
 12 13  1  0  0  0  0
 12 10  1  0  0  0  0
 14 12  2  0  0  0  0
 15 16  1  0  0  0  0
 18 17  1  0  0  0  0
 20 19  2  0  0  0  0
 21 20  1  0  0  0  0
 21 22  1  0  0  0  0
 23 20  1  0  0  0  0
 24 23  1  0  0  0  0
 25 24  1  1  0  0  0
 25 26  1  0  0  0  0
 28 26  1  0  0  0  0
 29 28  1  0  0  0  0
 30 31  1  0  0  0  0
 30 29  2  0  0  0  0
 31 32  1  6  0  0  0
 31 25  1  0  0  0  0
M  END
>  <minimizedAffinity>
-7.28239775

$$$$

 OpenBabel09122223183D

 32 31  0  0  1  0  0  0  0  0999 V2000
    8.5180   -2.7090    2.1960 C   0  0  0  0  0  0  0  0  0  0  0  0
    8.7330   -4.2520    0.9970 C   0  0  0  0  0  2  0  0  0  0  0  0
    9.4360   -3.8120   -0.5530 C   0  0  0  0  0  1  0  0  0  0  0  0
   10.1670   -1.6290   -0.6090 S   0  0  0  0  0 15  0  0  0  0  0  0
    9.2610   -1.2320    1.5150 C   0  0  0  0  0  2  0  0  0  0  0  0
    9.5520    0.0720    2.1050 C   0  0  0  0  0  0  0  0  0  0  0  0
    9.6400    0.1610    3.4380 N   0  0  0  0  0  0  0  0  0  0  0  0
    9.8990    1.3990    3.8770 C   0  0  0  0  0  0  0  0  0  0  0  0
   10.0640    2.5110    3.0760 C   0  0  0  0  0  0  0  0  0  0  0  0
    9.9550    2.3090    1.7100 C   0  0  0  0  0  0  0  0  0  0  0  0
    9.7080    1.0630    1.2140 N   0  0  0  0  0  0  0  0  0  0  0  0
   10.1020    3.5020    0.7720 C   0  0  0  0  0  0  0  0  0  0  0  0
   11.2920    3.9620    0.6570 O   0  0  0  0  0  1  0  0  0  0  0  0
    9.0660    3.9520    0.1940 O   0  0  0  0  0  0  0  0  0  0  0  0
   10.0050    1.5430    5.2390 O   0  0  0  0  0  0  0  0  0  0  0  0
   10.1770    2.5000    5.3400 H   0  0  0  0  0  0  0  0  0  0  0  0
   10.3160    3.7190    3.6710 O   0  0  0  0  0  0  0  0  0  0  0  0
   10.3940    4.3700    2.9130 H   0  0  0  0  0  0  0  0  0  0  0  0
    6.4030   -3.6050    4.8940 O   0  0  0  0  0  0  0  0  0  0  0  0
    6.9260   -3.6150    3.7860 C   0  0  0  0  0  0  0  0  0  0  0  0
    7.9220   -2.7350    3.4430 N   0  0  0  0  0  4  0  0  0  0  0  0
    7.8550   -1.8510    3.9540 H   0  0  0  0  0  0  0  0  0  0  0  0
    6.3930   -4.3720    2.7830 O   0  0  0  0  0  0  0  0  0  0  0  0
    5.0210   -4.7670    2.8770 C   0  0  0  0  0  2  0  0  0  0  0  0
    4.8820   -6.2700    3.3270 C   0  0  2  0  0  3  0  0  0  0  0  0
    5.4890   -7.5210    2.5580 C   0  0  0  0  0  2  0  0  0  0  0  0
    7.7640   -7.7800    1.4930 Cl  0  0  0  0  0 15  0  0  0  0  0  0
    4.3040   -8.4990    2.4970 C   0  0  0  0  0  2  0  0  0  0  0  0
    3.1620   -8.5110    3.3180 C   0  0  0  0  0  3  0  0  0  0  0  0
    2.9860   -7.5400    4.2740 C   0  0  0  0  0  3  0  0  0  0  0  0
    3.8060   -6.4220    4.2650 C   0  0  1  0  0  3  0  0  0  0  0  0
    3.4280   -5.2300    5.4770 Cl  0  0  0  0  0  0  0  0  0  0  0  0
  1 21  2  0  0  0  0
  2  1  1  0  0  0  0
  3  2  1  0  0  0  0
  5  6  1  0  0  0  0
  5  1  1  0  0  0  0
  6  7  1  0  0  0  0
  7  8  2  0  0  0  0
  8 15  1  0  0  0  0
  9 17  1  0  0  0  0
  9  8  1  0  0  0  0
 10  9  2  0  0  0  0
 11 10  1  0  0  0  0
 11  6  2  0  0  0  0
 12 10  1  0  0  0  0
 13 12  1  0  0  0  0
 14 12  2  0  0  0  0
 15 16  1  0  0  0  0
 18 17  1  0  0  0  0
 20 19  2  0  0  0  0
 21 20  1  0  0  0  0
 21 22  1  0  0  0  0
 23 24  1  0  0  0  0
 23 20  1  0  0  0  0
 25 24  1  6  0  0  0
 25 31  1  0  0  0  0
 26 25  1  0  0  0  0
 28 26  1  0  0  0  0
 28 29  1  0  0  0  0
 29 30  2  0  0  0  0
 31 30  1  0  0  0  0
 31 32  1  1  0  0  0
M  END
>  <minimizedAffinity>
-7.26385975

$$$$

 OpenBabel09122223183D

 32 31  0  0  1  0  0  0  0  0999 V2000
    8.4610   -2.8820    2.3890 C   0  0  0  0  0  0  0  0  0  0  0  0
    8.5790   -4.5100    1.2930 C   0  0  0  0  0  2  0  0  0  0  0  0
    9.1620   -4.1890   -0.3350 C   0  0  0  0  0  1  0  0  0  0  0  0
    9.8910   -2.0220   -0.6050 S   0  0  0  0  0 15  0  0  0  0  0  0
    9.1520   -1.4650    1.5470 C   0  0  0  0  0  2  0  0  0  0  0  0
    9.4910   -0.1240    2.0170 C   0  0  0  0  0  0  0  0  0  0  0  0
    9.5850    0.0820    3.3360 N   0  0  0  0  0  0  0  0  0  0  0  0
    9.8890    1.3450    3.6610 C   0  0  0  0  0  0  0  0  0  0  0  0
   10.0920    2.3730    2.7630 C   0  0  0  0  0  0  0  0  0  0  0  0
    9.9720    2.0530    1.4210 C   0  0  0  0  0  0  0  0  0  0  0  0
    9.6800    0.7760    1.0390 N   0  0  0  0  0  0  0  0  0  0  0  0
   10.1590    3.1490    0.3780 C   0  0  0  0  0  0  0  0  0  0  0  0
    9.2860    4.0860    0.4100 O   0  0  0  0  0  1  0  0  0  0  0  0
   11.1300    3.0580   -0.4320 O   0  0  0  0  0  0  0  0  0  0  0  0
   10.0040    1.6080    5.0040 O   0  0  0  0  0  0  0  0  0  0  0  0
   10.2110    2.5640    5.0180 H   0  0  0  0  0  0  0  0  0  0  0  0
   10.3890    3.6210    3.2450 O   0  0  0  0  0  0  0  0  0  0  0  0
   10.4870    4.1970    2.4310 H   0  0  0  0  0  0  0  0  0  0  0  0
    6.5220   -3.5300    5.2840 O   0  0  0  0  0  0  0  0  0  0  0  0
    6.9560   -3.6240    4.1420 C   0  0  0  0  0  0  0  0  0  0  0  0
    7.9620   -2.8140    3.6770 N   0  0  0  0  0  4  0  0  0  0  0  0
    7.9760   -1.9020    4.1410 H   0  0  0  0  0  0  0  0  0  0  0  0
    6.3130   -4.4050    3.2260 O   0  0  0  0  0  0  0  0  0  0  0  0
    5.0240   -3.9950    2.7610 C   0  0  0  0  0  2  0  0  0  0  0  0
    3.8790   -4.8820    3.3800 C   0  0  2  0  0  3  0  0  0  0  0  0
    2.9380   -4.4590    4.5880 C   0  0  0  0  0  2  0  0  0  0  0  0
    1.8090   -2.2420    5.0220 Cl  0  0  0  0  0 15  0  0  0  0  0  0
    2.9840   -5.6890    5.5110 C   0  0  0  0  0  2  0  0  0  0  0  0
    3.3390   -7.0050    5.1640 C   0  0  0  0  0  3  0  0  0  0  0  0
    3.7540   -7.2970    3.8880 C   0  0  0  0  0  3  0  0  0  0  0  0
    4.0510   -6.2610    3.0160 C   0  0  1  0  0  3  0  0  0  0  0  0
    4.6420   -6.7630    1.4580 Cl  0  0  0  0  0  0  0  0  0  0  0  0
  1 21  2  0  0  0  0
  2  1  1  0  0  0  0
  3  2  1  0  0  0  0
  5  6  1  0  0  0  0
  5  1  1  0  0  0  0
  6  7  1  0  0  0  0
  7  8  2  0  0  0  0
  8 15  1  0  0  0  0
  9 17  1  0  0  0  0
  9  8  1  0  0  0  0
 10  9  2  0  0  0  0
 11 10  1  0  0  0  0
 11  6  2  0  0  0  0
 12 13  1  0  0  0  0
 12 10  1  0  0  0  0
 14 12  2  0  0  0  0
 15 16  1  0  0  0  0
 18 17  1  0  0  0  0
 20 19  2  0  0  0  0
 21 22  1  0  0  0  0
 21 20  1  0  0  0  0
 23 20  1  0  0  0  0
 24 23  1  0  0  0  0
 25 24  1  1  0  0  0
 25 26  1  0  0  0  0
 26 28  1  0  0  0  0
 29 28  1  0  0  0  0
 30 29  2  0  0  0  0
 31 32  1  6  0  0  0
 31 25  1  0  0  0  0
 31 30  1  0  0  0  0
M  END
>  <minimizedAffinity>
-7.18654585

$$$$

 OpenBabel09122223183D

 32 31  0  0  1  0  0  0  0  0999 V2000
    8.9890   -3.0570    2.1530 C   0  0  0  0  0  0  0  0  0  0  0  0
   10.1240   -2.7640    0.5750 C   0  0  0  0  0  2  0  0  0  0  0  0
    9.7720   -3.8880   -0.7300 C   0  0  0  0  0  1  0  0  0  0  0  0
    7.9000   -5.1660   -0.3200 S   0  0  0  0  0 15  0  0  0  0  0  0
    7.7220   -4.2780    1.8410 C   0  0  0  0  0  2  0  0  0  0  0  0
    6.5360   -4.6650    2.6000 C   0  0  0  0  0  0  0  0  0  0  0  0
    6.1510   -3.8870    3.6190 N   0  0  0  0  0  0  0  0  0  0  0  0
    5.0610   -4.3350    4.2540 C   0  0  0  0  0  0  0  0  0  0  0  0
    4.3660   -5.4830    3.9330 C   0  0  0  0  0  0  0  0  0  0  0  0
    4.8460   -6.2150    2.8590 C   0  0  0  0  0  0  0  0  0  0  0  0
    5.9440   -5.7910    2.1700 N   0  0  0  0  0  0  0  0  0  0  0  0
    4.1380   -7.5070    2.4680 C   0  0  0  0  0  0  0  0  0  0  0  0
    3.7880   -8.2550    3.4480 O   0  0  0  0  0  1  0  0  0  0  0  0
    3.9560   -7.7520    1.2380 O   0  0  0  0  0  0  0  0  0  0  0  0
    4.6220   -3.5690    5.3060 O   0  0  0  0  0  0  0  0  0  0  0  0
    3.8460   -4.0700    5.6270 H   0  0  0  0  0  0  0  0  0  0  0  0
    3.2690   -5.8210    4.6820 O   0  0  0  0  0  0  0  0  0  0  0  0
    2.9330   -6.6750    4.2790 H   0  0  0  0  0  0  0  0  0  0  0  0
    9.4550   -0.4660    4.5270 O   0  0  0  0  0  0  0  0  0  0  0  0
    9.3520   -1.0360    3.4470 C   0  0  0  0  0  0  0  0  0  0  0  0
    9.0920   -2.3810    3.3550 N   0  0  0  0  0  4  0  0  0  0  0  0
    9.4450   -2.9030    4.1620 H   0  0  0  0  0  0  0  0  0  0  0  0
    9.6950   -0.3900    2.2940 O   0  0  0  0  0  0  0  0  0  0  0  0
    9.1110    0.8880    2.0270 C   0  0  0  0  0  2  0  0  0  0  0  0
   10.2130    1.9910    1.8020 C   0  0  2  0  0  3  0  0  0  0  0  0
   10.6470    3.0880    2.8660 C   0  0  0  0  0  2  0  0  0  0  0  0
   11.0480    2.8240    5.3460 Cl  0  0  0  0  0 15  0  0  0  0  0  0
   10.6370    4.3900    2.0480 C   0  0  0  0  0  2  0  0  0  0  0  0
   10.7160    4.5210    0.6490 C   0  0  0  0  0  3  0  0  0  0  0  0
   10.7590    3.4050   -0.1500 C   0  0  0  0  0  3  0  0  0  0  0  0
   10.4820    2.1630    0.4020 C   0  0  1  0  0  3  0  0  0  0  0  0
   10.4900    0.8420   -0.7310 Cl  0  0  0  0  0  0  0  0  0  0  0  0
  1 21  2  0  0  0  0
  2  1  1  0  0  0  0
  3  2  1  0  0  0  0
  5  1  1  0  0  0  0
  5  6  1  0  0  0  0
  6  7  1  0  0  0  0
  7  8  2  0  0  0  0
  8 15  1  0  0  0  0
  9  8  1  0  0  0  0
  9 17  1  0  0  0  0
 10  9  2  0  0  0  0
 11  6  2  0  0  0  0
 11 10  1  0  0  0  0
 12 10  1  0  0  0  0
 12 13  1  0  0  0  0
 14 12  2  0  0  0  0
 15 16  1  0  0  0  0
 18 17  1  0  0  0  0
 20 19  2  0  0  0  0
 21 20  1  0  0  0  0
 21 22  1  0  0  0  0
 23 20  1  0  0  0  0
 24 23  1  0  0  0  0
 25 24  1  6  0  0  0
 25 26  1  0  0  0  0
 28 26  1  0  0  0  0
 29 28  1  0  0  0  0
 30 31  1  0  0  0  0
 30 29  2  0  0  0  0
 31 32  1  1  0  0  0
 31 25  1  0  0  0  0
M  END
>  <minimizedAffinity>
-6.95686197

$$$$

 OpenBabel09122223183D

 32 31  0  0  1  0  0  0  0  0999 V2000
   10.0590    0.8690    0.6260 C   0  0  0  0  0  0  0  0  0  0  0  0
   10.7360    2.2240   -0.6270 C   0  0  0  0  0  2  0  0  0  0  0  0
   11.4290    1.5160   -2.0790 C   0  0  0  0  0  1  0  0  0  0  0  0
   11.0720   -0.7550   -2.2180 S   0  0  0  0  0 15  0  0  0  0  0  0
   10.1260   -0.7750   -0.0740 C   0  0  0  0  0  2  0  0  0  0  0  0
    9.5500   -2.0430    0.3630 C   0  0  0  0  0  0  0  0  0  0  0  0
    9.4070   -3.0210   -0.5400 N   0  0  0  0  0  0  0  0  0  0  0  0
    8.8600   -4.1360   -0.0410 C   0  0  0  0  0  0  0  0  0  0  0  0
    8.4610   -4.3120    1.2680 C   0  0  0  0  0  0  0  0  0  0  0  0
    8.6550   -3.2390    2.1220 C   0  0  0  0  0  0  0  0  0  0  0  0
    9.2230   -2.0870    1.6640 N   0  0  0  0  0  0  0  0  0  0  0  0
    8.2130   -3.3600    3.5750 C   0  0  0  0  0  0  0  0  0  0  0  0
    6.9780   -3.6550    3.7470 O   0  0  0  0  0  0  0  0  0  0  0  0
    9.0670   -3.1570    4.4900 O   0  0  0  0  0  1  0  0  0  0  0  0
    8.6970   -5.1730   -0.9270 O   0  0  0  0  0  0  0  0  0  0  0  0
    8.2810   -5.8640   -0.3740 H   0  0  0  0  0  0  0  0  0  0  0  0
    7.9070   -5.5110    1.6330 O   0  0  0  0  0  0  0  0  0  0  0  0
    7.6930   -5.4130    2.6070 H   0  0  0  0  0  0  0  0  0  0  0  0
    9.3970    2.4190    3.7440 O   0  0  0  0  0  0  0  0  0  0  0  0
    9.8630    2.2270    2.6270 C   0  0  0  0  0  0  0  0  0  0  0  0
    9.5360    1.1220    1.8810 N   0  0  0  0  0  4  0  0  0  0  0  0
    9.2900    0.3170    2.4620 H   0  0  0  0  0  0  0  0  0  0  0  0
   10.8850    3.0070    2.1670 O   0  0  0  0  0  0  0  0  0  0  0  0
   11.4290    4.0040    3.0360 C   0  0  0  0  0  2  0  0  0  0  0  0
   10.7770    5.4140    2.7770 C   0  0  2  0  0  3  0  0  0  0  0  0
   10.2570    5.9440    1.3730 C   0  0  0  0  0  2  0  0  0  0  0  0
    8.9350    4.7200   -0.3960 Cl  0  0  0  0  0 15  0  0  0  0  0  0
   10.8700    7.3520    1.2840 C   0  0  0  0  0  2  0  0  0  0  0  0
   11.3360    8.1500    2.3450 C   0  0  0  0  0  3  0  0  0  0  0  0
   11.3250    7.6680    3.6310 C   0  0  0  0  0  3  0  0  0  0  0  0
   11.0820    6.3200    3.8490 C   0  0  1  0  0  3  0  0  0  0  0  0
   11.1750    5.8210    5.5140 Cl  0  0  0  0  0  0  0  0  0  0  0  0
  1 21  2  0  0  0  0
  2  1  1  0  0  0  0
  3  2  1  0  0  0  0
  5  6  1  0  0  0  0
  5  1  1  0  0  0  0
  6 11  2  0  0  0  0
  7  8  2  0  0  0  0
  7  6  1  0  0  0  0
  8  9  1  0  0  0  0
  9 17  1  0  0  0  0
  9 10  2  0  0  0  0
 10 12  1  0  0  0  0
 11 10  1  0  0  0  0
 12 13  2  0  0  0  0
 12 14  1  0  0  0  0
 15 16  1  0  0  0  0
 15  8  1  0  0  0  0
 17 18  1  0  0  0  0
 20 19  2  0  0  0  0
 21 22  1  0  0  0  0
 21 20  1  0  0  0  0
 23 20  1  0  0  0  0
 23 24  1  0  0  0  0
 25 24  1  6  0  0  0
 25 31  1  0  0  0  0
 26 25  1  0  0  0  0
 28 26  1  0  0  0  0
 28 29  1  0  0  0  0
 29 30  2  0  0  0  0
 30 31  1  0  0  0  0
 31 32  1  1  0  0  0
M  END
>  <minimizedAffinity>
-6.92721844

$$$$

 OpenBabel09122223183D

 32 31  0  0  1  0  0  0  0  0999 V2000
    7.7500   -4.5490    1.4960 C   0  0  0  0  0  0  0  0  0  0  0  0
    8.4410   -4.3860   -0.3370 C   0  0  0  0  0  2  0  0  0  0  0  0
    7.5610   -5.3880   -1.4830 C   0  0  0  0  0  1  0  0  0  0  0  0
    5.6870   -6.3560   -0.5600 S   0  0  0  0  0 15  0  0  0  0  0  0
    6.2590   -5.5340    1.5580 C   0  0  0  0  0  2  0  0  0  0  0  0
    5.2790   -5.7500    2.6180 C   0  0  0  0  0  0  0  0  0  0  0  0
    5.2150   -6.9610    3.1880 N   0  0  0  0  0  0  0  0  0  0  0  0
    4.2780   -7.0570    4.1390 C   0  0  0  0  0  0  0  0  0  0  0  0
    3.4320   -6.0400    4.5310 C   0  0  0  0  0  0  0  0  0  0  0  0
    3.5820   -4.8260    3.8800 C   0  0  0  0  0  0  0  0  0  0  0  0
    4.5330   -4.6740    2.9140 N   0  0  0  0  0  0  0  0  0  0  0  0
    2.6610   -3.6690    4.2480 C   0  0  0  0  0  0  0  0  0  0  0  0
    3.1430   -2.5010    4.0410 O   0  0  0  0  0  0  0  0  0  0  0  0
    1.5180   -3.9320    4.7310 O   0  0  0  0  0  1  0  0  0  0  0  0
    4.1750   -8.2780    4.7590 O   0  0  0  0  0  0  0  0  0  0  0  0
    3.4430   -8.1360    5.3910 H   0  0  0  0  0  0  0  0  0  0  0  0
    2.5130   -6.2890    5.5160 O   0  0  0  0  0  0  0  0  0  0  0  0
    2.0150   -5.4280    5.6310 H   0  0  0  0  0  0  0  0  0  0  0  0
    9.6600   -2.4000    3.5680 O   0  0  0  0  0  0  0  0  0  0  0  0
    9.1840   -2.9050    2.5580 C   0  0  0  0  0  0  0  0  0  0  0  0
    8.2900   -3.9460    2.6170 N   0  0  0  0  0  4  0  0  0  0  0  0
    8.4190   -4.5250    3.4500 H   0  0  0  0  0  0  0  0  0  0  0  0
    9.6830   -2.5840    1.3290 O   0  0  0  0  0  0  0  0  0  0  0  0
    9.2100   -1.3970    0.6870 C   0  0  0  0  0  2  0  0  0  0  0  0
   10.3520   -0.6870   -0.1320 C   0  0  2  0  0  3  0  0  0  0  0  0
   10.5170    0.8830   -0.3130 C   0  0  0  0  0  2  0  0  0  0  0  0
   10.2560    2.7150    1.4060 Cl  0  0  0  0  0 15  0  0  0  0  0  0
   10.7440    1.0370   -1.8260 C   0  0  0  0  0  2  0  0  0  0  0  0
   11.1860    0.0520   -2.7290 C   0  0  0  0  0  3  0  0  0  0  0  0
   11.4130   -1.2320   -2.2970 C   0  0  0  0  0  3  0  0  0  0  0  0
   10.9790   -1.6110   -1.0360 C   0  0  1  0  0  3  0  0  0  0  0  0
   11.2550   -3.2840   -0.6410 Cl  0  0  0  0  0  0  0  0  0  0  0  0
  1  5  1  0  0  0  0
  1 21  2  0  0  0  0
  2  1  1  0  0  0  0
  3  2  1  0  0  0  0
  5  6  1  0  0  0  0
  6 11  2  0  0  0  0
  6  7  1  0  0  0  0
  7  8  2  0  0  0  0
  8  9  1  0  0  0  0
  8 15  1  0  0  0  0
  9 17  1  0  0  0  0
 10 12  1  0  0  0  0
 10  9  2  0  0  0  0
 11 10  1  0  0  0  0
 12 14  1  0  0  0  0
 13 12  2  0  0  0  0
 15 16  1  0  0  0  0
 17 18  1  0  0  0  0
 20 21  1  0  0  0  0
 20 19  2  0  0  0  0
 21 22  1  0  0  0  0
 23 20  1  0  0  0  0
 24 23  1  0  0  0  0
 25 24  1  6  0  0  0
 26 25  1  0  0  0  0
 28 26  1  0  0  0  0
 29 30  2  0  0  0  0
 29 28  1  0  0  0  0
 30 31  1  0  0  0  0
 31 32  1  1  0  0  0
 31 25  1  0  0  0  0
M  END
>  <minimizedAffinity>
-6.70237255

$$$$

 OpenBabel09122223183D

 32 31  0  0  1  0  0  0  0  0999 V2000
    8.4190   -3.2670    2.6450 C   0  0  0  0  0  0  0  0  0  0  0  0
    9.3330   -2.1980    4.0200 C   0  0  0  0  0  2  0  0  0  0  0  0
    8.4020   -2.0690    5.5060 C   0  0  0  0  0  1  0  0  0  0  0  0
    6.5410   -3.4250    5.5080 S   0  0  0  0  0 15  0  0  0  0  0  0
    6.9300   -4.0270    3.2780 C   0  0  0  0  0  2  0  0  0  0  0  0
    6.0560   -5.0600    2.7290 C   0  0  0  0  0  0  0  0  0  0  0  0
    5.1300   -5.6010    3.5300 N   0  0  0  0  0  0  0  0  0  0  0  0
    4.3890   -6.5440    2.9340 C   0  0  0  0  0  0  0  0  0  0  0  0
    4.5290   -6.9590    1.6250 C   0  0  0  0  0  0  0  0  0  0  0  0
    5.5160   -6.3340    0.8810 C   0  0  0  0  0  0  0  0  0  0  0  0
    6.2860   -5.3560    1.4400 N   0  0  0  0  0  0  0  0  0  0  0  0
    5.7390   -6.7640   -0.5640 C   0  0  0  0  0  0  0  0  0  0  0  0
    6.2520   -5.8710   -1.3260 O   0  0  0  0  0  0  0  0  0  0  0  0
    5.4020   -7.9370   -0.9070 O   0  0  0  0  0  1  0  0  0  0  0  0
    3.4190   -7.1270    3.7120 O   0  0  0  0  0  0  0  0  0  0  0  0
    3.0180   -7.7770    3.1020 H   0  0  0  0  0  0  0  0  0  0  0  0
    3.7020   -7.9440    1.1540 O   0  0  0  0  0  0  0  0  0  0  0  0
    3.9800   -8.0840    0.2020 H   0  0  0  0  0  0  0  0  0  0  0  0
   10.0690   -2.7990   -0.4560 O   0  0  0  0  0  0  0  0  0  0  0  0
    9.6980   -2.5990    0.6950 C   0  0  0  0  0  0  0  0  0  0  0  0
    8.8700   -3.4730    1.3550 N   0  0  0  0  0  4  0  0  0  0  0  0
    8.2580   -3.9880    0.7170 H   0  0  0  0  0  0  0  0  0  0  0  0
    9.9330   -1.3950    1.2920 O   0  0  0  0  0  0  0  0  0  0  0  0
    9.2960   -0.2300    0.7590 C   0  0  0  0  0  2  0  0  0  0  0  0
   10.2040    1.0470    0.9160 C   0  0  2  0  0  3  0  0  0  0  0  0
   10.2530    1.9900    2.1940 C   0  0  0  0  0  2  0  0  0  0  0  0
   10.2830    1.3520    4.6370 Cl  0  0  0  0  0 15  0  0  0  0  0  0
   10.1440    3.4000    1.5910 C   0  0  0  0  0  2  0  0  0  0  0  0
   10.4270    3.7890    0.2690 C   0  0  0  0  0  3  0  0  0  0  0  0
   10.8000    2.8520   -0.6640 C   0  0  0  0  0  3  0  0  0  0  0  0
   10.6640    1.5050   -0.3650 C   0  0  1  0  0  3  0  0  0  0  0  0
   11.0950    0.4220   -1.6590 Cl  0  0  0  0  0  0  0  0  0  0  0  0
  1  5  1  0  0  0  0
  1  2  1  0  0  0  0
  2  3  1  0  0  0  0
  6  5  1  0  0  0  0
  6  7  1  0  0  0  0
  8  7  2  0  0  0  0
  8 15  1  0  0  0  0
  9  8  1  0  0  0  0
 10 11  1  0  0  0  0
 10  9  2  0  0  0  0
 11  6  2  0  0  0  0
 12 10  1  0  0  0  0
 13 12  2  0  0  0  0
 14 12  1  0  0  0  0
 16 15  1  0  0  0  0
 17  9  1  0  0  0  0
 18 17  1  0  0  0  0
 19 20  2  0  0  0  0
 20 23  1  0  0  0  0
 20 21  1  0  0  0  0
 21  1  2  0  0  0  0
 22 21  1  0  0  0  0
 24 23  1  0  0  0  0
 25 24  1  6  0  0  0
 25 26  1  0  0  0  0
 28 26  1  0  0  0  0
 29 28  1  0  0  0  0
 30 31  1  0  0  0  0
 30 29  2  0  0  0  0
 31 32  1  1  0  0  0
 31 25  1  0  0  0  0
M  END
>  <minimizedAffinity>
-6.64899826

$$$$

 OpenBabel09122223183D

 32 31  0  0  1  0  0  0  0  0999 V2000
    8.7340   -3.3860    2.2990 C   0  0  0  0  0  0  0  0  0  0  0  0
    8.0790   -3.6300    4.1370 C   0  0  0  0  0  2  0  0  0  0  0  0
    8.5690   -2.3250    5.2090 C   0  0  0  0  0  1  0  0  0  0  0  0
    9.5710   -0.5830    4.0860 S   0  0  0  0  0 15  0  0  0  0  0  0
    9.5230   -1.7960    2.0830 C   0  0  0  0  0  2  0  0  0  0  0  0
    9.9540   -1.0800    0.8860 C   0  0  0  0  0  0  0  0  0  0  0  0
   10.2990   -1.7930   -0.1930 N   0  0  0  0  0  0  0  0  0  0  0  0
   10.6880   -1.0430   -1.2310 C   0  0  0  0  0  0  0  0  0  0  0  0
   10.7510    0.3360   -1.2390 C   0  0  0  0  0  0  0  0  0  0  0  0
   10.3710    0.9780   -0.0730 C   0  0  0  0  0  0  0  0  0  0  0  0
    9.9510    0.2580    1.0070 N   0  0  0  0  0  0  0  0  0  0  0  0
   10.4420    2.4990   -0.0080 C   0  0  0  0  0  0  0  0  0  0  0  0
    9.5950    3.0520    0.7780 O   0  0  0  0  0  1  0  0  0  0  0  0
   11.3010    3.0990   -0.7230 O   0  0  0  0  0  0  0  0  0  0  0  0
   11.0480   -1.7280   -2.3660 O   0  0  0  0  0  0  0  0  0  0  0  0
   11.3040   -1.0090   -2.9780 H   0  0  0  0  0  0  0  0  0  0  0  0
   11.1800    0.9690   -2.3760 O   0  0  0  0  0  0  0  0  0  0  0  0
   11.1500    1.9460   -2.1560 H   0  0  0  0  0  0  0  0  0  0  0  0
    7.3860   -5.9240    0.2260 O   0  0  0  0  0  0  0  0  0  0  0  0
    7.4940   -5.1240    1.1480 C   0  0  0  0  0  0  0  0  0  0  0  0
    8.5750   -4.2860    1.2620 N   0  0  0  0  0  4  0  0  0  0  0  0
    9.4210   -4.6810    0.8460 H   0  0  0  0  0  0  0  0  0  0  0  0
    6.6360   -5.1790    2.2080 O   0  0  0  0  0  0  0  0  0  0  0  0
    5.2750   -4.7860    2.0090 C   0  0  0  0  0  2  0  0  0  0  0  0
    4.2740   -5.8810    2.5370 C   0  0  2  0  0  3  0  0  0  0  0  0
    3.6770   -5.9510    4.0080 C   0  0  0  0  0  2  0  0  0  0  0  0
    2.7930   -4.0770    5.4530 Cl  0  0  0  0  0 15  0  0  0  0  0  0
    3.8880   -7.4230    4.4000 C   0  0  0  0  0  2  0  0  0  0  0  0
    4.0850   -8.5170    3.5380 C   0  0  0  0  0  3  0  0  0  0  0  0
    4.1630   -8.3240    2.1800 C   0  0  0  0  0  3  0  0  0  0  0  0
    4.2870   -7.0360    1.6830 C   0  0  1  0  0  3  0  0  0  0  0  0
    4.4570   -6.9340   -0.0460 Cl  0  0  0  0  0  0  0  0  0  0  0  0
  1  2  1  0  0  0  0
  2  3  1  0  0  0  0
  5  1  1  0  0  0  0
  6 11  2  0  0  0  0
  6  5  1  0  0  0  0
  7  6  1  0  0  0  0
  8  7  2  0  0  0  0
  9  8  1  0  0  0  0
  9 10  2  0  0  0  0
 10 12  1  0  0  0  0
 10 11  1  0  0  0  0
 12 13  1  0  0  0  0
 14 12  2  0  0  0  0
 15  8  1  0  0  0  0
 16 15  1  0  0  0  0
 17 18  1  0  0  0  0
 17  9  1  0  0  0  0
 19 20  2  0  0  0  0
 20 21  1  0  0  0  0
 20 23  1  0  0  0  0
 21  1  2  0  0  0  0
 22 21  1  0  0  0  0
 24 23  1  0  0  0  0
 25 24  1  1  0  0  0
 25 26  1  0  0  0  0
 26 28  1  0  0  0  0
 29 28  1  0  0  0  0
 30 29  2  0  0  0  0
 31 32  1  6  0  0  0
 31 30  1  0  0  0  0
 31 25  1  0  0  0  0
M  END
>  <minimizedAffinity>
-6.40206099

$$$$
