
 OpenBabel09122222393D

 39 44  0  0  1  0  0  0  0  0999 V2000
    5.2880   -7.2850    1.3050 C   0  0  0  0  0  0  0  0  0  0  0  0
    4.2020   -7.2510    0.4250 C   0  0  0  0  0  3  0  0  0  0  0  0
    3.2320   -8.2550    0.4730 C   0  0  0  0  0  3  0  0  0  0  0  0
    3.3340   -9.3160    1.3810 C   0  0  0  0  0  0  0  0  0  0  0  0
    4.4200   -9.3540    2.2500 C   0  0  0  0  0  3  0  0  0  0  0  0
    5.3800   -8.3400    2.2120 C   0  0  0  0  0  0  0  0  0  0  0  0
    6.3990   -8.4020    3.0830 F   0  0  0  0  0  0  0  0  0  0  0  0
    9.7170   -3.3900    0.3060 C   0  0  0  0  0  0  0  0  0  0  0  0
    9.1720   -2.7150    1.4110 C   0  0  0  0  0  3  0  0  0  0  0  0
    8.0580   -3.2000    2.1080 C   0  0  0  0  0  3  0  0  0  0  0  0
    7.4890   -4.4010    1.6640 C   0  0  0  0  0  0  0  0  0  0  0  0
    8.0000   -5.0950    0.5700 C   0  0  0  0  0  0  0  0  0  0  0  0
    9.1190   -4.5940   -0.1130 C   0  0  0  0  0  3  0  0  0  0  0  0
    7.2640   -6.2270    0.3220 N   0  0  0  0  0  0  0  0  0  0  0  0
    6.3180   -6.2580    1.2380 C   0  0  0  0  0  0  0  0  0  0  0  0
    6.4180   -5.1650    2.0840 N   0  0  0  0  0  0  0  0  0  0  0  0
    5.5210   -4.8730    3.2000 C   0  0  0  0  0  3  0  0  0  0  0  0
    6.1700   -4.0010    4.2870 C   0  0  0  0  0  2  0  0  0  0  0  0
    5.2090   -3.7580    5.4500 C   0  0  0  0  0  2  0  0  0  0  0  0
    3.8790   -3.1810    4.9730 C   0  0  0  0  0  2  0  0  0  0  0  0
    3.2300   -4.0650    3.9110 C   0  0  0  0  0  2  0  0  0  0  0  0
    4.1690   -4.3110    2.7330 C   0  0  0  0  0  2  0  0  0  0  0  0
   12.0650   -3.0680    0.0830 O   0  0  0  0  0  1  0  0  0  0  0  0
   10.9220   -2.8290   -0.4220 C   0  0  0  0  0  0  0  0  0  0  0  0
   10.7050   -2.1590   -1.4800 O   0  0  0  0  0  0  0  0  0  0  0  0
    2.3320  -10.2340    1.2720 O   0  0  0  0  0  0  0  0  0  0  0  0
    2.4700  -11.6210    1.6460 C   0  0  1  0  0  3  0  0  0  0  0  0
    1.7880  -11.9920    2.9560 C   0  0  0  0  0  0  0  0  0  0  0  0
    2.3960  -12.7220    3.9820 C   0  0  0  0  0  3  0  0  0  0  0  0
    1.6860  -13.0240    5.1430 C   0  0  0  0  0  3  0  0  0  0  0  0
    0.3750  -12.5950    5.2450 C   0  0  0  0  0  3  0  0  0  0  0  0
   -0.2590  -11.9030    4.2780 N   0  0  0  0  0  0  0  0  0  0  0  0
    0.4550  -11.6250    3.1620 C   0  0  0  0  0  3  0  0  0  0  0  0
    2.3900  -12.5990    0.4810 C   0  0  0  0  0  0  0  0  0  0  0  0
    2.3750  -13.9790    0.7310 C   0  0  0  0  0  3  0  0  0  0  0  0
    2.2940  -14.8830   -0.3250 C   0  0  0  0  0  3  0  0  0  0  0  0
    2.2240  -14.3810   -1.6100 C   0  0  0  0  0  3  0  0  0  0  0  0
    2.2300  -13.0630   -1.8980 N   0  0  0  0  0  0  0  0  0  0  0  0
    2.3180  -12.2070   -0.8540 C   0  0  0  0  0  3  0  0  0  0  0  0
  1  6  1  0  0  0  0
  2  3  1  0  0  0  0
  2  1  2  0  0  0  0
  3  4  2  0  0  0  0
  4  5  1  0  0  0  0
  6  5  2  0  0  0  0
  6  7  1  0  0  0  0
  8  9  1  0  0  0  0
  9 10  2  0  0  0  0
 11 16  1  0  0  0  0
 11 10  1  0  0  0  0
 12 11  2  0  0  0  0
 13  8  2  0  0  0  0
 13 12  1  0  0  0  0
 14 12  1  0  0  0  0
 14 15  2  0  0  0  0
 15  1  1  0  0  0  0
 15 16  1  0  0  0  0
 16 17  1  0  0  0  0
 17 18  1  0  0  0  0
 18 19  1  0  0  0  0
 20 19  1  0  0  0  0
 21 20  1  0  0  0  0
 22 17  1  0  0  0  0
 22 21  1  0  0  0  0
 24 23  1  0  0  0  0
 24  8  1  0  0  0  0
 25 24  2  0  0  0  0
 26  4  1  0  0  0  0
 27 26  1  6  0  0  0
 27 28  1  0  0  0  0
 28 33  2  0  0  0  0
 28 29  1  0  0  0  0
 29 30  2  0  0  0  0
 30 31  1  0  0  0  0
 32 31  2  0  0  0  0
 33 32  1  0  0  0  0
 34 35  1  0  0  0  0
 34 27  1  0  0  0  0
 36 35  2  0  0  0  0
 37 36  1  0  0  0  0
 38 37  2  0  0  0  0
 38 39  1  0  0  0  0
 39 34  2  0  0  0  0
M  END
>  <minimizedAffinity>
-8.81283283

$$$$
