
 OpenBabel09122222393D

 39 44  0  0  1  0  0  0  0  0999 V2000
    5.9510   -7.1800    1.5030 C   0  0  0  0  0  0  0  0  0  0  0  0
    6.2940   -8.2160    2.3760 C   0  0  0  0  0  3  0  0  0  0  0  0
    5.4510   -9.3220    2.5130 C   0  0  0  0  0  3  0  0  0  0  0  0
    4.2480   -9.4070    1.8020 C   0  0  0  0  0  0  0  0  0  0  0  0
    3.9040   -8.3700    0.9400 C   0  0  0  0  0  3  0  0  0  0  0  0
    4.7550   -7.2740    0.7900 C   0  0  0  0  0  0  0  0  0  0  0  0
    4.3980   -6.3070   -0.0680 F   0  0  0  0  0  0  0  0  0  0  0  0
    9.7360   -2.7090    0.2880 C   0  0  0  0  0  0  0  0  0  0  0  0
    9.0830   -2.0660    1.3530 C   0  0  0  0  0  3  0  0  0  0  0  0
    8.0500   -2.6780    2.0750 C   0  0  0  0  0  3  0  0  0  0  0  0
    7.6780   -3.9750    1.7000 C   0  0  0  0  0  0  0  0  0  0  0  0
    8.3000   -4.6420    0.6470 C   0  0  0  0  0  0  0  0  0  0  0  0
    9.3340   -4.0130   -0.0630 C   0  0  0  0  0  3  0  0  0  0  0  0
    7.7490   -5.8850    0.4620 N   0  0  0  0  0  0  0  0  0  0  0  0
    6.8120   -6.0110    1.3790 C   0  0  0  0  0  0  0  0  0  0  0  0
    6.7340   -4.8710    2.1620 N   0  0  0  0  0  0  0  0  0  0  0  0
    5.7930   -4.6600    3.2590 C   0  0  0  0  0  3  0  0  0  0  0  0
    6.3610   -3.7800    4.3840 C   0  0  0  0  0  2  0  0  0  0  0  0
    5.3570   -3.6220    5.5250 C   0  0  0  0  0  2  0  0  0  0  0  0
    4.0090   -3.1110    5.0260 C   0  0  0  0  0  2  0  0  0  0  0  0
    3.4410   -4.0020    3.9260 C   0  0  0  0  0  2  0  0  0  0  0  0
    4.4230   -4.1640    2.7680 C   0  0  0  0  0  2  0  0  0  0  0  0
   11.9450   -2.6400   -0.5970 O   0  0  0  0  0  1  0  0  0  0  0  0
   10.8460   -2.0100   -0.4700 C   0  0  0  0  0  0  0  0  0  0  0  0
   10.6030   -0.8460   -0.9200 O   0  0  0  0  0  0  0  0  0  0  0  0
    3.5200  -10.5250    2.0790 O   0  0  0  0  0  0  0  0  0  0  0  0
    3.9930  -11.8690    1.8510 C   0  0  1  0  0  3  0  0  0  0  0  0
    4.0760  -12.7290    3.1040 C   0  0  0  0  0  0  0  0  0  0  0  0
    5.2710  -13.1910    3.6660 C   0  0  0  0  0  3  0  0  0  0  0  0
    5.2470  -13.9850    4.8110 C   0  0  0  0  0  3  0  0  0  0  0  0
    4.0210  -14.3080    5.3640 C   0  0  0  0  0  3  0  0  0  0  0  0
    2.8430  -13.9010    4.8520 N   0  0  0  0  0  0  0  0  0  0  0  0
    2.8980  -13.1320    3.7390 C   0  0  0  0  0  3  0  0  0  0  0  0
    3.4860  -12.5060    0.5640 C   0  0  0  0  0  0  0  0  0  0  0  0
    4.1210  -13.6480    0.0550 C   0  0  0  0  0  3  0  0  0  0  0  0
    3.6630  -14.2440   -1.1170 C   0  0  0  0  0  3  0  0  0  0  0  0
    2.5700  -13.6830   -1.7500 C   0  0  0  0  0  3  0  0  0  0  0  0
    1.9250  -12.5890   -1.2960 N   0  0  0  0  0  0  0  0  0  0  0  0
    2.3960  -12.0250   -0.1590 C   0  0  0  0  0  3  0  0  0  0  0  0
  1  2  1  0  0  0  0
  2  3  2  0  0  0  0
  4 26  1  0  0  0  0
  4  3  1  0  0  0  0
  5  4  2  0  0  0  0
  6  5  1  0  0  0  0
  6  1  2  0  0  0  0
  7  6  1  0  0  0  0
  8  9  1  0  0  0  0
  9 10  2  0  0  0  0
 11 10  1  0  0  0  0
 11 16  1  0  0  0  0
 12 11  2  0  0  0  0
 13  8  2  0  0  0  0
 13 12  1  0  0  0  0
 14 12  1  0  0  0  0
 14 15  2  0  0  0  0
 15  1  1  0  0  0  0
 15 16  1  0  0  0  0
 16 17  1  0  0  0  0
 17 18  1  0  0  0  0
 18 19  1  0  0  0  0
 20 19  1  0  0  0  0
 21 20  1  0  0  0  0
 22 17  1  0  0  0  0
 22 21  1  0  0  0  0
 23 24  1  0  0  0  0
 24  8  1  0  0  0  0
 25 24  2  0  0  0  0
 27 26  1  1  0  0  0
 27 28  1  0  0  0  0
 28 29  2  0  0  0  0
 28 33  1  0  0  0  0
 29 30  1  0  0  0  0
 30 31  2  0  0  0  0
 32 31  1  0  0  0  0
 33 32  2  0  0  0  0
 34 27  1  0  0  0  0
 35 34  1  0  0  0  0
 36 35  2  0  0  0  0
 37 38  2  0  0  0  0
 37 36  1  0  0  0  0
 38 39  1  0  0  0  0
 39 34  2  0  0  0  0
M  END
>  <minimizedAffinity>
-9.22617722

$$$$
