REMARK  Name = 
REMARK  7 active torsions:
REMARK  status: ('A' for Active; 'I' for Inactive)
REMARK    1  A    between atoms: C_1  and  N_2
REMARK    2  A    between atoms: N_2  and  C_3
REMARK    3  A    between atoms: C_4  and  C_6
REMARK    4  A    between atoms: C_6  and  N_7
REMARK    5  A    between atoms: C_8  and  C_9
REMARK    6  A    between atoms: C_15  and  C_16
REMARK    7  A    between atoms: C_24  and  C_25
REMARK                            x       y       z     vdW  Elec       q    Type
REMARK                         _______ _______ _______ _____ _____    ______ ____
ROOT
ATOM      1  N   UNL     1       1.502   4.086   1.430  0.00  0.00    -0.330 N 
ATOM      2  C   UNL     1       2.238   4.182   0.263  0.00  0.00    +0.055 A 
ATOM      3  C   UNL     1       2.081   5.467  -0.253  0.00  0.00    -0.005 A 
ATOM      4  C   UNL     1       1.207   6.149   0.651  0.00  0.00    +0.042 A 
ATOM      5  S   UNL     1       0.451   7.699   0.839  0.00  0.00    -0.085 S 
ATOM      6  C   UNL     1      -0.294   7.175   2.296  0.00  0.00    +0.037 A 
ATOM      7  C   UNL     1       0.038   5.877   2.645  0.00  0.00    +0.043 A 
ATOM      8  C   UNL     1       0.890   5.299   1.665  0.00  0.00    +0.058 A 
ENDROOT
BRANCH   2   9
ATOM      9  C   UNL     1       3.017   3.065  -0.268  0.00  0.00    -0.001 A 
ATOM     10  C   UNL     1       2.502   2.276  -1.302  0.00  0.00    +0.010 A 
ATOM     11  C   UNL     1       3.241   1.205  -1.807  0.00  0.00    +0.001 A 
ATOM     12  C   UNL     1       4.499   0.918  -1.280  0.00  0.00    +0.000 A 
ATOM     13  C   UNL     1       5.019   1.699  -0.248  0.00  0.00    +0.001 A 
ATOM     14  C   UNL     1       4.280   2.770   0.258  0.00  0.00    +0.010 A 
ENDBRANCH   2   9
BRANCH   3  15
ATOM     15  C   UNL     1       2.634   6.147  -1.472  0.00  0.00    +0.022 C 
ATOM     16  C   UNL     1       4.161   6.022  -1.602  0.00  0.00    +0.008 C 
ATOM     17  C   UNL     1       4.681   6.786  -2.819  0.00  0.00    +0.001 C 
ATOM     18  C   UNL     1       3.983   6.337  -4.100  0.00  0.00    +0.000 C 
ATOM     19  C   UNL     1       2.465   6.444  -3.983  0.00  0.00    +0.001 C 
ATOM     20  C   UNL     1       1.936   5.690  -2.763  0.00  0.00    +0.008 C 
ENDBRANCH   3  15
BRANCH   6  21
ATOM     21  C   UNL     1      -1.213   8.017   3.119  0.00  0.00    +0.078 C 
ATOM     22  O   UNL     1      -1.692   7.468   4.162  0.00  0.00    -0.544 OA
ATOM     23  O   UNL     1      -1.452   9.197   2.717  0.00  0.00    -0.544 OA
ENDBRANCH   6  21
BRANCH   1  24
ATOM     24  C   UNL     1       1.393   2.962   2.351  0.00  0.00    +0.218 C 
BRANCH  24  28
ATOM     25  C   UNL     1      -0.678   0.392   0.378  0.00  0.00    +0.131 C 
ATOM     26  N   UNL     1      -0.316   1.588   1.117  0.00  0.00    -0.306 N 
ATOM     27  C   UNL     1      -1.285   2.673   1.097  0.00  0.00    +0.131 C 
ATOM     28  C   UNL     1       0.932   1.653   1.729  0.00  0.00    +0.235 C 
ATOM     29  O   UNL     1       1.647   0.649   1.833  0.00  0.00    -0.274 OA
ENDBRANCH  24  28
ENDBRANCH   1  24
TORSDOF 5
