REMARK  Name = 
REMARK  5 active torsions:
REMARK  status: ('A' for Active; 'I' for Inactive)
REMARK    1  A    between atoms: C_2  and  C_4
REMARK    2  A    between atoms: C_4  and  C_6
REMARK    3  A    between atoms: C_7  and  C_9
REMARK    4  A    between atoms: C_13  and  C_14
REMARK    5  A    between atoms: C_14  and  C_15
REMARK                            x       y       z     vdW  Elec       q    Type
REMARK                         _______ _______ _______ _____ _____    ______ ____
ROOT
ATOM      1  C   UNL     1       6.833  -0.574  -0.019  0.00  0.00    -0.022 A 
ATOM      2  C   UNL     1       7.493  -1.613   0.713  0.00  0.00    +0.015 A 
ATOM      3  C   UNL     1       8.826  -1.344   0.918  0.00  0.00    +0.046 A 
ATOM      4  S   UNL     1       9.290   0.150   0.233  0.00  0.00    -0.101 S 
ATOM      5  C   UNL     1       7.694   0.472  -0.327  0.00  0.00    +0.001 A 
ENDROOT
BRANCH   1   7
ATOM      6  C   UNL     1       4.576   0.026   0.487  0.00  0.00    +0.045 C 
ATOM      7  C   UNL     1       5.422  -0.599  -0.364  0.00  0.00    -0.097 C 
ATOM      8  O   UNL     1       5.265  -1.218  -1.453  0.00  0.00    -0.873 OA
BRANCH   6   9
ATOM      9  C   UNL     1       3.086   0.214   0.423  0.00  0.00    +0.201 C 
ATOM     10  O   UNL     1       2.308  -0.389  -0.313  0.00  0.00    -0.286 OA
BRANCH   9  12
ATOM     11  O   UNL     1       1.182   1.226   1.577  0.00  0.00    -0.541 OA
ATOM     12  C   UNL     1       2.449   1.243   1.406  0.00  0.00    +0.111 C 
ATOM     13  O   UNL     1       3.252   2.046   2.002  0.00  0.00    -0.541 OA
ENDBRANCH   9  12
ENDBRANCH   6   9
ENDBRANCH   1   7
BRANCH   5  14
ATOM     14  C   UNL     1       7.395   1.727  -1.099  0.00  0.00    +0.078 C 
BRANCH  14  15
ATOM     15  C   UNL     1       7.537   3.001  -0.285  0.00  0.00    -0.042 A 
ATOM     16  C   UNL     1       8.705   3.777  -0.362  0.00  0.00    +0.007 A 
ATOM     17  C   UNL     1       8.831   4.939   0.401  0.00  0.00    +0.038 A 
ATOM     18  C   UNL     1       7.793   5.325   1.243  0.00  0.00    +0.123 A 
ATOM     19  F   UNL     1       7.924   6.442   1.973  0.00  0.00    -0.205 F 
ATOM     20  C   UNL     1       6.632   4.570   1.337  0.00  0.00    +0.038 A 
ATOM     21  C   UNL     1       6.504   3.410   0.574  0.00  0.00    +0.007 A 
ENDBRANCH  14  15
ENDBRANCH   5  14
TORSDOF 5
