
 OpenBabel09132204463D

 21 22  0  0  0  0  0  0  0  0999 V2000
   11.8910    4.6250    1.2190 C   0  0  0  0  0  0  0  0  0  0  0  0
   12.5090    4.7930    2.5000 C   0  0  0  0  0  3  0  0  0  0  0  0
   12.1380    3.8160    3.3940 C   0  0  0  0  0  3  0  0  0  0  0  0
   11.0480    2.6980    2.7020 S   0  0  0  0  0  0  0  0  0  0  0  0
   11.0810    3.4970    1.1780 C   0  0  0  0  0  0  0  0  0  0  0  0
   11.1780    6.4570   -0.1390 C   0  0  0  0  0  2  0  0  0  0  0  0
   12.1170    5.5100    0.0900 C   0  0  0  0  0  0  0  0  0  0  0  0
   13.2090    5.2110   -0.4690 O   0  0  0  0  0  0  0  0  0  0  0  0
   11.1110    7.5350   -1.1840 C   0  0  0  0  0  0  0  0  0  0  0  0
   12.0590    7.9980   -1.8140 O   0  0  0  0  0  0  0  0  0  0  0  0
    9.3110    8.0560   -2.7570 O   0  0  0  0  0  0  0  0  0  0  0  0
    9.7030    8.1030   -1.5400 C   0  0  0  0  0  0  0  0  0  0  0  0
    9.0090    8.5770   -0.5710 O   0  0  0  0  0  1  0  0  0  0  0  0
   10.2480    2.9910    0.0330 C   0  0  0  0  0  2  0  0  0  0  0  0
   10.8880    1.8530   -0.7410 C   0  0  0  0  0  0  0  0  0  0  0  0
   12.0490    2.0650   -1.5030 C   0  0  0  0  0  3  0  0  0  0  0  0
   12.6220    1.0140   -2.2220 C   0  0  0  0  0  3  0  0  0  0  0  0
   12.0350   -0.2470   -2.1830 C   0  0  0  0  0  0  0  0  0  0  0  0
   12.5920   -1.2490   -2.8780 F   0  0  0  0  0  0  0  0  0  0  0  0
   10.8860   -0.4760   -1.4390 C   0  0  0  0  0  3  0  0  0  0  0  0
   10.3140    0.5710   -0.7190 C   0  0  0  0  0  3  0  0  0  0  0  0
  1  2  1  0  0  0  0
  2  3  2  0  0  0  0
  4  3  1  0  0  0  0
  5  1  2  0  0  0  0
  5  4  1  0  0  0  0
  6  7  1  0  0  0  0
  7  1  1  0  0  0  0
  8  7  2  0  0  0  0
  9  6  1  0  0  0  0
 10  9  2  0  0  0  0
 11 12  2  0  0  0  0
 12  9  1  0  0  0  0
 12 13  1  0  0  0  0
 14  5  1  0  0  0  0
 15 21  1  0  0  0  0
 15 14  1  0  0  0  0
 16 15  2  0  0  0  0
 17 18  2  0  0  0  0
 17 16  1  0  0  0  0
 18 20  1  0  0  0  0
 19 18  1  0  0  0  0
 20 21  2  0  0  0  0
M  END
>  <minimizedAffinity>
-5.56554079

$$$$
