
 OpenBabel09132204463D

 21 22  0  0  0  0  0  0  0  0999 V2000
   10.7280    4.8320    1.2700 C   0  0  0  0  0  0  0  0  0  0  0  0
   10.7010    4.9380    2.6980 C   0  0  0  0  0  3  0  0  0  0  0  0
   11.6870    4.1900    3.2970 C   0  0  0  0  0  3  0  0  0  0  0  0
   12.6450    3.3590    2.1530 S   0  0  0  0  0  0  0  0  0  0  0  0
   11.7620    4.0160    0.8290 C   0  0  0  0  0  0  0  0  0  0  0  0
    9.9900    6.8580    0.2390 C   0  0  0  0  0  2  0  0  0  0  0  0
    9.8030    5.5260    0.3900 C   0  0  0  0  0  0  0  0  0  0  0  0
    8.9790    4.7000   -0.0930 O   0  0  0  0  0  0  0  0  0  0  0  0
    9.2500    7.8600   -0.6010 C   0  0  0  0  0  0  0  0  0  0  0  0
    8.3650    8.6210   -0.2140 O   0  0  0  0  0  0  0  0  0  0  0  0
   10.8840    8.2160   -2.3850 O   0  0  0  0  0  1  0  0  0  0  0  0
    9.6590    7.9830   -2.1000 C   0  0  0  0  0  0  0  0  0  0  0  0
    8.7290    7.8260   -2.9680 O   0  0  0  0  0  0  0  0  0  0  0  0
   12.1100    3.6360   -0.5840 C   0  0  0  0  0  2  0  0  0  0  0  0
   11.7010    2.2240   -0.9620 C   0  0  0  0  0  0  0  0  0  0  0  0
   12.3670    1.5310   -1.9850 C   0  0  0  0  0  3  0  0  0  0  0  0
   11.9740    0.2380   -2.3340 C   0  0  0  0  0  3  0  0  0  0  0  0
   10.9130   -0.3630   -1.6640 C   0  0  0  0  0  0  0  0  0  0  0  0
   10.5410   -1.6040   -2.0070 F   0  0  0  0  0  0  0  0  0  0  0  0
   10.2380    0.3060   -0.6520 C   0  0  0  0  0  3  0  0  0  0  0  0
   10.6310    1.5970   -0.3010 C   0  0  0  0  0  3  0  0  0  0  0  0
  1  2  1  0  0  0  0
  2  3  2  0  0  0  0
  4  3  1  0  0  0  0
  5  1  2  0  0  0  0
  5  4  1  0  0  0  0
  6  7  1  0  0  0  0
  7  1  1  0  0  0  0
  8  7  2  0  0  0  0
  9 10  2  0  0  0  0
  9  6  1  0  0  0  0
 11 12  1  0  0  0  0
 12  9  1  0  0  0  0
 13 12  2  0  0  0  0
 14  5  1  0  0  0  0
 15 14  1  0  0  0  0
 15 21  1  0  0  0  0
 16 15  2  0  0  0  0
 17 16  1  0  0  0  0
 17 18  2  0  0  0  0
 18 20  1  0  0  0  0
 19 18  1  0  0  0  0
 20 21  2  0  0  0  0
M  END
>  <minimizedAffinity>
-5.72206497

$$$$
