
 OpenBabel09132204463D

 21 22  0  0  0  0  0  0  0  0999 V2000
   11.1450   -2.7530   -0.9590 C   0  0  0  0  0  0  0  0  0  0  0  0
   12.3840   -3.4460   -1.1470 C   0  0  0  0  0  3  0  0  0  0  0  0
   13.2970   -2.7030   -1.8580 C   0  0  0  0  0  3  0  0  0  0  0  0
   12.6730   -1.1780   -2.3040 S   0  0  0  0  0  0  0  0  0  0  0  0
   11.1700   -1.4830   -1.5210 C   0  0  0  0  0  0  0  0  0  0  0  0
    9.9070   -2.9740    1.0730 C   0  0  0  0  0  2  0  0  0  0  0  0
   10.0120   -3.3040   -0.2350 C   0  0  0  0  0  0  0  0  0  0  0  0
    9.3110   -4.0030   -1.0180 O   0  0  0  0  0  0  0  0  0  0  0  0
    8.8650   -3.3380    2.0930 C   0  0  0  0  0  0  0  0  0  0  0  0
    7.9610   -4.1570    1.9480 O   0  0  0  0  0  0  0  0  0  0  0  0
    9.4620   -1.4740    3.5590 O   0  0  0  0  0  0  0  0  0  0  0  0
    8.9500   -2.6430    3.4860 C   0  0  0  0  0  0  0  0  0  0  0  0
    8.4800   -3.2950    4.4860 O   0  0  0  0  0  1  0  0  0  0  0  0
   10.0680   -0.4600   -1.5590 C   0  0  0  0  0  2  0  0  0  0  0  0
   10.2050    0.6330   -0.5150 C   0  0  0  0  0  0  0  0  0  0  0  0
    9.5800    0.5130    0.7370 C   0  0  0  0  0  3  0  0  0  0  0  0
    9.7000    1.5300    1.6860 C   0  0  0  0  0  3  0  0  0  0  0  0
   10.4410    2.6680    1.3830 C   0  0  0  0  0  0  0  0  0  0  0  0
   10.5490    3.6410    2.3000 F   0  0  0  0  0  0  0  0  0  0  0  0
   11.0630    2.8080    0.1500 C   0  0  0  0  0  3  0  0  0  0  0  0
   10.9450    1.7920   -0.7970 C   0  0  0  0  0  3  0  0  0  0  0  0
  1  7  1  0  0  0  0
  2  1  1  0  0  0  0
  3  2  2  0  0  0  0
  4  3  1  0  0  0  0
  4  5  1  0  0  0  0
  5  1  2  0  0  0  0
  6  9  1  0  0  0  0
  7  6  1  0  0  0  0
  8  7  2  0  0  0  0
  9 12  1  0  0  0  0
 10  9  2  0  0  0  0
 12 11  2  0  0  0  0
 12 13  1  0  0  0  0
 14  5  1  0  0  0  0
 14 15  1  0  0  0  0
 15 16  1  0  0  0  0
 16 17  2  0  0  0  0
 18 17  1  0  0  0  0
 18 19  1  0  0  0  0
 20 18  2  0  0  0  0
 21 15  2  0  0  0  0
 21 20  1  0  0  0  0
M  END
>  <minimizedAffinity>
-6.54374218

$$$$
