
 OpenBabel09122223313D

 21 22  0  0  0  0  0  0  0  0999 V2000
   11.1450   -2.7530   -0.9590 C   0  0  0  0  0  0  0  0  0  0  0  0
   12.3840   -3.4460   -1.1470 C   0  0  0  0  0  3  0  0  0  0  0  0
   13.2970   -2.7030   -1.8580 C   0  0  0  0  0  3  0  0  0  0  0  0
   12.6730   -1.1780   -2.3040 S   0  0  0  0  0  0  0  0  0  0  0  0
   11.1700   -1.4830   -1.5210 C   0  0  0  0  0  0  0  0  0  0  0  0
    9.9070   -2.9740    1.0730 C   0  0  0  0  0  2  0  0  0  0  0  0
   10.0120   -3.3040   -0.2350 C   0  0  0  0  0  0  0  0  0  0  0  0
    9.3110   -4.0030   -1.0180 O   0  0  0  0  0  0  0  0  0  0  0  0
    8.8650   -3.3380    2.0930 C   0  0  0  0  0  0  0  0  0  0  0  0
    7.9610   -4.1570    1.9480 O   0  0  0  0  0  0  0  0  0  0  0  0
    9.4620   -1.4740    3.5590 O   0  0  0  0  0  0  0  0  0  0  0  0
    8.9500   -2.6430    3.4860 C   0  0  0  0  0  0  0  0  0  0  0  0
    8.4800   -3.2950    4.4860 O   0  0  0  0  0  1  0  0  0  0  0  0
   10.0680   -0.4600   -1.5590 C   0  0  0  0  0  2  0  0  0  0  0  0
   10.2050    0.6330   -0.5150 C   0  0  0  0  0  0  0  0  0  0  0  0
    9.5800    0.5130    0.7370 C   0  0  0  0  0  3  0  0  0  0  0  0
    9.7000    1.5300    1.6860 C   0  0  0  0  0  3  0  0  0  0  0  0
   10.4410    2.6680    1.3830 C   0  0  0  0  0  0  0  0  0  0  0  0
   10.5490    3.6410    2.3000 F   0  0  0  0  0  0  0  0  0  0  0  0
   11.0630    2.8080    0.1500 C   0  0  0  0  0  3  0  0  0  0  0  0
   10.9450    1.7920   -0.7970 C   0  0  0  0  0  3  0  0  0  0  0  0
  1  7  1  0  0  0  0
  2  1  1  0  0  0  0
  3  2  2  0  0  0  0
  4  3  1  0  0  0  0
  4  5  1  0  0  0  0
  5  1  2  0  0  0  0
  6  9  1  0  0  0  0
  7  6  1  0  0  0  0
  8  7  2  0  0  0  0
  9 12  1  0  0  0  0
 10  9  2  0  0  0  0
 12 11  2  0  0  0  0
 12 13  1  0  0  0  0
 14  5  1  0  0  0  0
 14 15  1  0  0  0  0
 15 16  1  0  0  0  0
 16 17  2  0  0  0  0
 18 17  1  0  0  0  0
 18 19  1  0  0  0  0
 20 18  2  0  0  0  0
 21 15  2  0  0  0  0
 21 20  1  0  0  0  0
M  END
>  <minimizedAffinity>
-6.54374218

$$$$

 OpenBabel09122223313D

 21 22  0  0  0  0  0  0  0  0999 V2000
    9.9270   -2.2700    2.1450 C   0  0  0  0  0  0  0  0  0  0  0  0
   10.4560   -3.0310    3.2360 C   0  0  0  0  0  3  0  0  0  0  0  0
   10.2870   -2.4000    4.4460 C   0  0  0  0  0  3  0  0  0  0  0  0
    9.4980   -0.8950    4.2780 S   0  0  0  0  0  0  0  0  0  0  0  0
    9.3460   -1.0830    2.5730 C   0  0  0  0  0  0  0  0  0  0  0  0
   11.0700   -2.3890    0.0500 C   0  0  0  0  0  2  0  0  0  0  0  0
    9.9640   -2.7080    0.7600 C   0  0  0  0  0  0  0  0  0  0  0  0
    8.9070   -3.3440    0.4910 O   0  0  0  0  0  0  0  0  0  0  0  0
   11.4440   -2.7030   -1.3720 C   0  0  0  0  0  0  0  0  0  0  0  0
   11.5500   -3.8230   -1.8650 O   0  0  0  0  0  0  0  0  0  0  0  0
   12.8900   -1.1380   -2.5730 O   0  0  0  0  0  1  0  0  0  0  0  0
   11.6870   -1.4990   -2.3330 C   0  0  0  0  0  0  0  0  0  0  0  0
   10.6470   -0.9480   -2.8430 O   0  0  0  0  0  0  0  0  0  0  0  0
    8.7060   -0.0060    1.7410 C   0  0  0  0  0  2  0  0  0  0  0  0
    9.6730    1.0650    1.2690 C   0  0  0  0  0  0  0  0  0  0  0  0
   10.0980    2.0840    2.1380 C   0  0  0  0  0  3  0  0  0  0  0  0
   10.9760    3.0710    1.6890 C   0  0  0  0  0  3  0  0  0  0  0  0
   11.4280    3.0450    0.3740 C   0  0  0  0  0  0  0  0  0  0  0  0
   12.2700    3.9990   -0.0480 F   0  0  0  0  0  0  0  0  0  0  0  0
   11.0160    2.0500   -0.5020 C   0  0  0  0  0  3  0  0  0  0  0  0
   10.1410    1.0610   -0.0550 C   0  0  0  0  0  3  0  0  0  0  0  0
  1  5  2  0  0  0  0
  1  2  1  0  0  0  0
  2  3  2  0  0  0  0
  4  3  1  0  0  0  0
  5  4  1  0  0  0  0
  6  7  1  0  0  0  0
  7  1  1  0  0  0  0
  8  7  2  0  0  0  0
  9  6  1  0  0  0  0
 10  9  2  0  0  0  0
 11 12  1  0  0  0  0
 12  9  1  0  0  0  0
 13 12  2  0  0  0  0
 14  5  1  0  0  0  0
 15 14  1  0  0  0  0
 15 16  1  0  0  0  0
 17 16  2  0  0  0  0
 18 17  1  0  0  0  0
 19 18  1  0  0  0  0
 20 21  1  0  0  0  0
 20 18  2  0  0  0  0
 21 15  2  0  0  0  0
M  END
>  <minimizedAffinity>
-5.82367992

$$$$

 OpenBabel09122223313D

 21 22  0  0  0  0  0  0  0  0999 V2000
   10.7280    4.8320    1.2700 C   0  0  0  0  0  0  0  0  0  0  0  0
   10.7010    4.9380    2.6980 C   0  0  0  0  0  3  0  0  0  0  0  0
   11.6870    4.1900    3.2970 C   0  0  0  0  0  3  0  0  0  0  0  0
   12.6450    3.3590    2.1530 S   0  0  0  0  0  0  0  0  0  0  0  0
   11.7620    4.0160    0.8290 C   0  0  0  0  0  0  0  0  0  0  0  0
    9.9900    6.8580    0.2390 C   0  0  0  0  0  2  0  0  0  0  0  0
    9.8030    5.5260    0.3900 C   0  0  0  0  0  0  0  0  0  0  0  0
    8.9790    4.7000   -0.0930 O   0  0  0  0  0  0  0  0  0  0  0  0
    9.2500    7.8600   -0.6010 C   0  0  0  0  0  0  0  0  0  0  0  0
    8.3650    8.6210   -0.2140 O   0  0  0  0  0  0  0  0  0  0  0  0
   10.8840    8.2160   -2.3850 O   0  0  0  0  0  1  0  0  0  0  0  0
    9.6590    7.9830   -2.1000 C   0  0  0  0  0  0  0  0  0  0  0  0
    8.7290    7.8260   -2.9680 O   0  0  0  0  0  0  0  0  0  0  0  0
   12.1100    3.6360   -0.5840 C   0  0  0  0  0  2  0  0  0  0  0  0
   11.7010    2.2240   -0.9620 C   0  0  0  0  0  0  0  0  0  0  0  0
   12.3670    1.5310   -1.9850 C   0  0  0  0  0  3  0  0  0  0  0  0
   11.9740    0.2380   -2.3340 C   0  0  0  0  0  3  0  0  0  0  0  0
   10.9130   -0.3630   -1.6640 C   0  0  0  0  0  0  0  0  0  0  0  0
   10.5410   -1.6040   -2.0070 F   0  0  0  0  0  0  0  0  0  0  0  0
   10.2380    0.3060   -0.6520 C   0  0  0  0  0  3  0  0  0  0  0  0
   10.6310    1.5970   -0.3010 C   0  0  0  0  0  3  0  0  0  0  0  0
  1  2  1  0  0  0  0
  2  3  2  0  0  0  0
  4  3  1  0  0  0  0
  5  1  2  0  0  0  0
  5  4  1  0  0  0  0
  6  7  1  0  0  0  0
  7  1  1  0  0  0  0
  8  7  2  0  0  0  0
  9 10  2  0  0  0  0
  9  6  1  0  0  0  0
 11 12  1  0  0  0  0
 12  9  1  0  0  0  0
 13 12  2  0  0  0  0
 14  5  1  0  0  0  0
 15 14  1  0  0  0  0
 15 21  1  0  0  0  0
 16 15  2  0  0  0  0
 17 16  1  0  0  0  0
 17 18  2  0  0  0  0
 18 20  1  0  0  0  0
 19 18  1  0  0  0  0
 20 21  2  0  0  0  0
M  END
>  <minimizedAffinity>
-5.72206497

$$$$

 OpenBabel09122223313D

 21 22  0  0  0  0  0  0  0  0999 V2000
   11.3590    2.8840    1.4210 C   0  0  0  0  0  0  0  0  0  0  0  0
   12.3790    3.4790    2.2330 C   0  0  0  0  0  3  0  0  0  0  0  0
   12.1380    3.3190    3.5770 C   0  0  0  0  0  3  0  0  0  0  0  0
   10.6910    2.4610    3.8700 S   0  0  0  0  0  0  0  0  0  0  0  0
   10.3800    2.2660    2.1880 C   0  0  0  0  0  0  0  0  0  0  0  0
   12.0590    1.9060   -0.6440 C   0  0  0  0  0  2  0  0  0  0  0  0
   11.3720    2.8980   -0.0310 C   0  0  0  0  0  0  0  0  0  0  0  0
   10.6910    3.8750   -0.4500 O   0  0  0  0  0  0  0  0  0  0  0  0
   12.2510    1.6060   -2.1040 C   0  0  0  0  0  0  0  0  0  0  0  0
   12.6230    2.4000   -2.9660 O   0  0  0  0  0  0  0  0  0  0  0  0
   12.8760   -0.7480   -2.3230 O   0  0  0  0  0  1  0  0  0  0  0  0
   11.9950    0.1430   -2.5770 C   0  0  0  0  0  0  0  0  0  0  0  0
   10.8910   -0.0810   -3.1890 O   0  0  0  0  0  0  0  0  0  0  0  0
    9.1410    1.5550    1.7190 C   0  0  0  0  0  2  0  0  0  0  0  0
    9.3390    0.0710    1.4650 C   0  0  0  0  0  0  0  0  0  0  0  0
    9.1760   -0.8630    2.5010 C   0  0  0  0  0  3  0  0  0  0  0  0
    9.3740   -2.2240    2.2610 C   0  0  0  0  0  3  0  0  0  0  0  0
    9.7370   -2.6520    0.9880 C   0  0  0  0  0  0  0  0  0  0  0  0
    9.9260   -3.9610    0.7670 F   0  0  0  0  0  0  0  0  0  0  0  0
    9.9070   -1.7440   -0.0490 C   0  0  0  0  0  3  0  0  0  0  0  0
    9.7080   -0.3850    0.1890 C   0  0  0  0  0  3  0  0  0  0  0  0
  1  5  2  0  0  0  0
  1  2  1  0  0  0  0
  2  3  2  0  0  0  0
  3  4  1  0  0  0  0
  5  4  1  0  0  0  0
  6  7  1  0  0  0  0
  7  1  1  0  0  0  0
  8  7  2  0  0  0  0
  9  6  1  0  0  0  0
 10  9  2  0  0  0  0
 12 11  1  0  0  0  0
 12  9  1  0  0  0  0
 13 12  2  0  0  0  0
 14  5  1  0  0  0  0
 15 14  1  0  0  0  0
 15 16  1  0  0  0  0
 17 16  2  0  0  0  0
 18 17  1  0  0  0  0
 19 18  1  0  0  0  0
 20 21  1  0  0  0  0
 20 18  2  0  0  0  0
 21 15  2  0  0  0  0
M  END
>  <minimizedAffinity>
-5.7164464

$$$$

 OpenBabel09122223313D

 21 22  0  0  0  0  0  0  0  0999 V2000
   10.7380    4.8230    1.3900 C   0  0  0  0  0  0  0  0  0  0  0  0
   10.7380    4.8800    2.8210 C   0  0  0  0  0  3  0  0  0  0  0  0
   11.7620    4.1470    3.3750 C   0  0  0  0  0  3  0  0  0  0  0  0
   12.7210    3.3880    2.1830 S   0  0  0  0  0  0  0  0  0  0  0  0
   11.7890    4.0580    0.9010 C   0  0  0  0  0  0  0  0  0  0  0  0
    9.8560    6.8650    0.5160 C   0  0  0  0  0  2  0  0  0  0  0  0
    9.7720    5.5150    0.5540 C   0  0  0  0  0  0  0  0  0  0  0  0
    9.0210    4.6710   -0.0090 O   0  0  0  0  0  0  0  0  0  0  0  0
    9.0490    7.8740   -0.2520 C   0  0  0  0  0  0  0  0  0  0  0  0
    8.5330    7.7050   -1.3550 O   0  0  0  0  0  0  0  0  0  0  0  0
    7.6180    9.7350    0.4340 O   0  0  0  0  0  0  0  0  0  0  0  0
    8.8050    9.2600    0.4190 C   0  0  0  0  0  0  0  0  0  0  0  0
    9.8260    9.8390    0.9360 O   0  0  0  0  0  1  0  0  0  0  0  0
   12.1190    3.7380   -0.5310 C   0  0  0  0  0  2  0  0  0  0  0  0
   11.6680    2.3570   -0.9740 C   0  0  0  0  0  0  0  0  0  0  0  0
   10.6900    1.6540   -0.2520 C   0  0  0  0  0  3  0  0  0  0  0  0
   10.2920    0.3800   -0.6600 C   0  0  0  0  0  3  0  0  0  0  0  0
   10.8730   -0.1940   -1.7860 C   0  0  0  0  0  0  0  0  0  0  0  0
   10.4860   -1.4190   -2.1700 F   0  0  0  0  0  0  0  0  0  0  0  0
   11.8450    0.4820   -2.5110 C   0  0  0  0  0  3  0  0  0  0  0  0
   12.2410    1.7560   -2.1060 C   0  0  0  0  0  3  0  0  0  0  0  0
  1  2  1  0  0  0  0
  2  3  2  0  0  0  0
  4  3  1  0  0  0  0
  5  1  2  0  0  0  0
  5  4  1  0  0  0  0
  6  7  1  0  0  0  0
  7  1  1  0  0  0  0
  8  7  2  0  0  0  0
  9 12  1  0  0  0  0
  9  6  1  0  0  0  0
 10  9  2  0  0  0  0
 12 11  2  0  0  0  0
 12 13  1  0  0  0  0
 14  5  1  0  0  0  0
 15 14  1  0  0  0  0
 15 16  1  0  0  0  0
 17 16  2  0  0  0  0
 18 17  1  0  0  0  0
 19 18  1  0  0  0  0
 20 21  1  0  0  0  0
 20 18  2  0  0  0  0
 21 15  2  0  0  0  0
M  END
>  <minimizedAffinity>
-5.69527817

$$$$

 OpenBabel09122223313D

 21 22  0  0  0  0  0  0  0  0999 V2000
   11.8910    4.6250    1.2190 C   0  0  0  0  0  0  0  0  0  0  0  0
   12.5090    4.7930    2.5000 C   0  0  0  0  0  3  0  0  0  0  0  0
   12.1380    3.8160    3.3940 C   0  0  0  0  0  3  0  0  0  0  0  0
   11.0480    2.6980    2.7020 S   0  0  0  0  0  0  0  0  0  0  0  0
   11.0810    3.4970    1.1780 C   0  0  0  0  0  0  0  0  0  0  0  0
   11.1780    6.4570   -0.1390 C   0  0  0  0  0  2  0  0  0  0  0  0
   12.1170    5.5100    0.0900 C   0  0  0  0  0  0  0  0  0  0  0  0
   13.2090    5.2110   -0.4690 O   0  0  0  0  0  0  0  0  0  0  0  0
   11.1110    7.5350   -1.1840 C   0  0  0  0  0  0  0  0  0  0  0  0
   12.0590    7.9980   -1.8140 O   0  0  0  0  0  0  0  0  0  0  0  0
    9.3110    8.0560   -2.7570 O   0  0  0  0  0  0  0  0  0  0  0  0
    9.7030    8.1030   -1.5400 C   0  0  0  0  0  0  0  0  0  0  0  0
    9.0090    8.5770   -0.5710 O   0  0  0  0  0  1  0  0  0  0  0  0
   10.2480    2.9910    0.0330 C   0  0  0  0  0  2  0  0  0  0  0  0
   10.8880    1.8530   -0.7410 C   0  0  0  0  0  0  0  0  0  0  0  0
   12.0490    2.0650   -1.5030 C   0  0  0  0  0  3  0  0  0  0  0  0
   12.6220    1.0140   -2.2220 C   0  0  0  0  0  3  0  0  0  0  0  0
   12.0350   -0.2470   -2.1830 C   0  0  0  0  0  0  0  0  0  0  0  0
   12.5920   -1.2490   -2.8780 F   0  0  0  0  0  0  0  0  0  0  0  0
   10.8860   -0.4760   -1.4390 C   0  0  0  0  0  3  0  0  0  0  0  0
   10.3140    0.5710   -0.7190 C   0  0  0  0  0  3  0  0  0  0  0  0
  1  2  1  0  0  0  0
  2  3  2  0  0  0  0
  4  3  1  0  0  0  0
  5  1  2  0  0  0  0
  5  4  1  0  0  0  0
  6  7  1  0  0  0  0
  7  1  1  0  0  0  0
  8  7  2  0  0  0  0
  9  6  1  0  0  0  0
 10  9  2  0  0  0  0
 11 12  2  0  0  0  0
 12  9  1  0  0  0  0
 12 13  1  0  0  0  0
 14  5  1  0  0  0  0
 15 21  1  0  0  0  0
 15 14  1  0  0  0  0
 16 15  2  0  0  0  0
 17 18  2  0  0  0  0
 17 16  1  0  0  0  0
 18 20  1  0  0  0  0
 19 18  1  0  0  0  0
 20 21  2  0  0  0  0
M  END
>  <minimizedAffinity>
-5.56554079

$$$$

 OpenBabel09122223313D

 21 22  0  0  0  0  0  0  0  0999 V2000
    9.2050   -3.1250    1.9240 C   0  0  0  0  0  0  0  0  0  0  0  0
    7.8940   -3.6780    2.0870 C   0  0  0  0  0  3  0  0  0  0  0  0
    7.5830   -4.5870    1.1030 C   0  0  0  0  0  3  0  0  0  0  0  0
    8.8580   -4.7780   -0.0170 S   0  0  0  0  0  0  0  0  0  0  0  0
    9.8610   -3.6590    0.8220 C   0  0  0  0  0  0  0  0  0  0  0  0
    9.3680   -0.8700    2.6980 C   0  0  0  0  0  2  0  0  0  0  0  0
    9.7890   -2.1490    2.8280 C   0  0  0  0  0  0  0  0  0  0  0  0
   10.6020   -2.7250    3.6030 O   0  0  0  0  0  0  0  0  0  0  0  0
    9.7350    0.3650    3.4720 C   0  0  0  0  0  0  0  0  0  0  0  0
    9.9380    0.4310    4.6820 O   0  0  0  0  0  0  0  0  0  0  0  0
   10.7550    2.5560    3.0930 O   0  0  0  0  0  1  0  0  0  0  0  0
    9.9150    1.6890    2.6690 C   0  0  0  0  0  0  0  0  0  0  0  0
    9.2080    1.8220    1.6070 O   0  0  0  0  0  0  0  0  0  0  0  0
   11.2310   -3.3240    0.3020 C   0  0  0  0  0  2  0  0  0  0  0  0
   11.2450   -2.2130   -0.7330 C   0  0  0  0  0  0  0  0  0  0  0  0
   12.1470   -2.2440   -1.8090 C   0  0  0  0  0  3  0  0  0  0  0  0
   12.1600   -1.2100   -2.7470 C   0  0  0  0  0  3  0  0  0  0  0  0
   11.2770   -0.1440   -2.6090 C   0  0  0  0  0  0  0  0  0  0  0  0
   11.2990    0.8450   -3.5140 F   0  0  0  0  0  0  0  0  0  0  0  0
   10.3810   -0.0920   -1.5500 C   0  0  0  0  0  3  0  0  0  0  0  0
   10.3650   -1.1250   -0.6130 C   0  0  0  0  0  3  0  0  0  0  0  0
  1  2  1  0  0  0  0
  1  7  1  0  0  0  0
  3  2  2  0  0  0  0
  4  5  1  0  0  0  0
  4  3  1  0  0  0  0
  5  1  2  0  0  0  0
  6  7  1  0  0  0  0
  6  9  1  0  0  0  0
  7  8  2  0  0  0  0
  9 10  2  0  0  0  0
 12 11  1  0  0  0  0
 12  9  1  0  0  0  0
 13 12  2  0  0  0  0
 14  5  1  0  0  0  0
 15 21  1  0  0  0  0
 15 14  1  0  0  0  0
 16 15  2  0  0  0  0
 17 18  2  0  0  0  0
 17 16  1  0  0  0  0
 18 20  1  0  0  0  0
 19 18  1  0  0  0  0
 20 21  2  0  0  0  0
M  END
>  <minimizedAffinity>
-5.54590082

$$$$

 OpenBabel09122223313D

 21 22  0  0  0  0  0  0  0  0999 V2000
    9.4980   -1.3610    3.7420 C   0  0  0  0  0  0  0  0  0  0  0  0
   10.2090   -1.1930    4.9740 C   0  0  0  0  0  3  0  0  0  0  0  0
   10.6250    0.1030    5.1660 C   0  0  0  0  0  3  0  0  0  0  0  0
   10.1690    1.1200    3.8710 S   0  0  0  0  0  0  0  0  0  0  0  0
    9.3780   -0.1660    3.0440 C   0  0  0  0  0  0  0  0  0  0  0  0
    9.0200   -2.8950    1.9730 C   0  0  0  0  0  2  0  0  0  0  0  0
    8.9400   -2.6270    3.2970 C   0  0  0  0  0  0  0  0  0  0  0  0
    8.4840   -3.2590    4.2900 O   0  0  0  0  0  0  0  0  0  0  0  0
    8.5770   -4.1010    1.1910 C   0  0  0  0  0  0  0  0  0  0  0  0
    7.7450   -4.9320    1.5460 O   0  0  0  0  0  0  0  0  0  0  0  0
   10.4370   -4.0400   -0.3960 O   0  0  0  0  0  1  0  0  0  0  0  0
    9.1980   -4.3060   -0.2240 C   0  0  0  0  0  0  0  0  0  0  0  0
    8.4160   -4.7500   -1.1390 O   0  0  0  0  0  0  0  0  0  0  0  0
    8.7280    0.0710    1.7090 C   0  0  0  0  0  2  0  0  0  0  0  0
    9.6860    0.5450    0.6310 C   0  0  0  0  0  0  0  0  0  0  0  0
   10.1670    1.8650    0.6270 C   0  0  0  0  0  3  0  0  0  0  0  0
   11.0370    2.2950   -0.3770 C   0  0  0  0  0  3  0  0  0  0  0  0
   11.4250    1.4090   -1.3770 C   0  0  0  0  0  0  0  0  0  0  0  0
   12.2600    1.8320   -2.3370 F   0  0  0  0  0  0  0  0  0  0  0  0
   10.9580    0.1020   -1.3930 C   0  0  0  0  0  3  0  0  0  0  0  0
   10.0910   -0.3290   -0.3900 C   0  0  0  0  0  3  0  0  0  0  0  0
  1  2  1  0  0  0  0
  2  3  2  0  0  0  0
  4  3  1  0  0  0  0
  5  1  2  0  0  0  0
  5  4  1  0  0  0  0
  6  7  1  0  0  0  0
  7  1  1  0  0  0  0
  7  8  2  0  0  0  0
  9 10  2  0  0  0  0
  9  6  1  0  0  0  0
 11 12  1  0  0  0  0
 12  9  1  0  0  0  0
 13 12  2  0  0  0  0
 14  5  1  0  0  0  0
 15 14  1  0  0  0  0
 16 15  1  0  0  0  0
 17 16  2  0  0  0  0
 18 17  1  0  0  0  0
 19 18  1  0  0  0  0
 20 18  2  0  0  0  0
 20 21  1  0  0  0  0
 21 15  2  0  0  0  0
M  END
>  <minimizedAffinity>
-5.42911148

$$$$

 OpenBabel09122223313D

 21 22  0  0  0  0  0  0  0  0999 V2000
    7.9240   -4.1660    1.7550 C   0  0  0  0  0  0  0  0  0  0  0  0
    7.1850   -5.2790    1.2390 C   0  0  0  0  0  3  0  0  0  0  0  0
    7.5420   -5.5920   -0.0510 C   0  0  0  0  0  3  0  0  0  0  0  0
    8.7590   -4.5540   -0.6490 S   0  0  0  0  0  0  0  0  0  0  0  0
    8.8450   -3.6820    0.8340 C   0  0  0  0  0  0  0  0  0  0  0  0
    8.8250   -3.0220    3.6490 C   0  0  0  0  0  2  0  0  0  0  0  0
    7.7530   -3.6320    3.0950 C   0  0  0  0  0  0  0  0  0  0  0  0
    6.5710   -3.8450    3.4860 O   0  0  0  0  0  0  0  0  0  0  0  0
    8.9860   -2.3470    4.9830 C   0  0  0  0  0  0  0  0  0  0  0  0
    8.3820   -2.6250    6.0160 O   0  0  0  0  0  0  0  0  0  0  0  0
   11.1490   -1.4480    5.6850 O   0  0  0  0  0  1  0  0  0  0  0  0
   10.0450   -1.2070    5.0880 C   0  0  0  0  0  0  0  0  0  0  0  0
    9.7410   -0.0850    4.5460 O   0  0  0  0  0  0  0  0  0  0  0  0
    9.7860   -2.5190    0.9820 C   0  0  0  0  0  2  0  0  0  0  0  0
   10.7260   -2.3320   -0.1960 C   0  0  0  0  0  0  0  0  0  0  0  0
   11.8470   -3.1620   -0.3610 C   0  0  0  0  0  3  0  0  0  0  0  0
   12.7120   -2.9730   -1.4400 C   0  0  0  0  0  3  0  0  0  0  0  0
   12.4610   -1.9540   -2.3530 C   0  0  0  0  0  0  0  0  0  0  0  0
   13.2980   -1.7790   -3.3850 F   0  0  0  0  0  0  0  0  0  0  0  0
   11.3610   -1.1200   -2.2060 C   0  0  0  0  0  3  0  0  0  0  0  0
   10.4940   -1.3090   -1.1300 C   0  0  0  0  0  3  0  0  0  0  0  0
  1  7  1  0  0  0  0
  2  1  1  0  0  0  0
  3  2  2  0  0  0  0
  4  3  1  0  0  0  0
  4  5  1  0  0  0  0
  5 14  1  0  0  0  0
  5  1  2  0  0  0  0
  6  9  1  0  0  0  0
  7  8  2  0  0  0  0
  7  6  1  0  0  0  0
  9 12  1  0  0  0  0
  9 10  2  0  0  0  0
 12 11  1  0  0  0  0
 13 12  2  0  0  0  0
 15 14  1  0  0  0  0
 16 15  1  0  0  0  0
 17 16  2  0  0  0  0
 18 20  2  0  0  0  0
 18 17  1  0  0  0  0
 19 18  1  0  0  0  0
 20 21  1  0  0  0  0
 21 15  2  0  0  0  0
M  END
>  <minimizedAffinity>
-5.39238167

$$$$

 OpenBabel09122223313D

 21 22  0  0  0  0  0  0  0  0999 V2000
   11.2860    3.2670    1.8790 C   0  0  0  0  0  0  0  0  0  0  0  0
   11.1850    2.9700    3.2760 C   0  0  0  0  0  3  0  0  0  0  0  0
   10.2690    1.9780    3.5360 C   0  0  0  0  0  3  0  0  0  0  0  0
    9.5260    1.4030    2.1100 S   0  0  0  0  0  0  0  0  0  0  0  0
   10.4490    2.4630    1.1150 C   0  0  0  0  0  0  0  0  0  0  0  0
   11.7010    5.5250    1.2160 C   0  0  0  0  0  2  0  0  0  0  0  0
   12.1850    4.2660    1.3280 C   0  0  0  0  0  0  0  0  0  0  0  0
   13.2980    3.7330    1.0660 O   0  0  0  0  0  0  0  0  0  0  0  0
   12.3570    6.7850    0.7240 C   0  0  0  0  0  0  0  0  0  0  0  0
   12.7340    7.7270    1.4170 O   0  0  0  0  0  0  0  0  0  0  0  0
   12.1890    7.9350   -1.4280 O   0  0  0  0  0  0  0  0  0  0  0  0
   12.6230    6.9040   -0.8080 C   0  0  0  0  0  0  0  0  0  0  0  0
   13.2840    5.9520   -1.3560 O   0  0  0  0  0  1  0  0  0  0  0  0
   10.2460    2.4810   -0.3740 C   0  0  0  0  0  2  0  0  0  0  0  0
   11.0000    1.3880   -1.1120 C   0  0  0  0  0  0  0  0  0  0  0  0
   12.3030    1.6080   -1.5860 C   0  0  0  0  0  3  0  0  0  0  0  0
   12.9820    0.6010   -2.2750 C   0  0  0  0  0  3  0  0  0  0  0  0
   12.3580   -0.6230   -2.4950 C   0  0  0  0  0  0  0  0  0  0  0  0
   13.0180   -1.5830   -3.1600 F   0  0  0  0  0  0  0  0  0  0  0  0
   11.0690   -0.8590   -2.0390 C   0  0  0  0  0  3  0  0  0  0  0  0
   10.3900    0.1450   -1.3480 C   0  0  0  0  0  3  0  0  0  0  0  0
  1  2  1  0  0  0  0
  2  3  2  0  0  0  0
  4  3  1  0  0  0  0
  5  1  2  0  0  0  0
  5  4  1  0  0  0  0
  6  7  1  0  0  0  0
  7  1  1  0  0  0  0
  8  7  2  0  0  0  0
  9  6  1  0  0  0  0
  9 10  2  0  0  0  0
 11 12  2  0  0  0  0
 12  9  1  0  0  0  0
 13 12  1  0  0  0  0
 14  5  1  0  0  0  0
 15 14  1  0  0  0  0
 16 15  2  0  0  0  0
 17 16  1  0  0  0  0
 18 17  2  0  0  0  0
 18 20  1  0  0  0  0
 19 18  1  0  0  0  0
 20 21  2  0  0  0  0
 21 15  1  0  0  0  0
M  END
>  <minimizedAffinity>
-5.38953352

$$$$
