
 OpenBabel09132204463D

 21 22  0  0  0  0  0  0  0  0999 V2000
    9.4980   -1.3610    3.7420 C   0  0  0  0  0  0  0  0  0  0  0  0
   10.2090   -1.1930    4.9740 C   0  0  0  0  0  3  0  0  0  0  0  0
   10.6250    0.1030    5.1660 C   0  0  0  0  0  3  0  0  0  0  0  0
   10.1690    1.1200    3.8710 S   0  0  0  0  0  0  0  0  0  0  0  0
    9.3780   -0.1660    3.0440 C   0  0  0  0  0  0  0  0  0  0  0  0
    9.0200   -2.8950    1.9730 C   0  0  0  0  0  2  0  0  0  0  0  0
    8.9400   -2.6270    3.2970 C   0  0  0  0  0  0  0  0  0  0  0  0
    8.4840   -3.2590    4.2900 O   0  0  0  0  0  0  0  0  0  0  0  0
    8.5770   -4.1010    1.1910 C   0  0  0  0  0  0  0  0  0  0  0  0
    7.7450   -4.9320    1.5460 O   0  0  0  0  0  0  0  0  0  0  0  0
   10.4370   -4.0400   -0.3960 O   0  0  0  0  0  1  0  0  0  0  0  0
    9.1980   -4.3060   -0.2240 C   0  0  0  0  0  0  0  0  0  0  0  0
    8.4160   -4.7500   -1.1390 O   0  0  0  0  0  0  0  0  0  0  0  0
    8.7280    0.0710    1.7090 C   0  0  0  0  0  2  0  0  0  0  0  0
    9.6860    0.5450    0.6310 C   0  0  0  0  0  0  0  0  0  0  0  0
   10.1670    1.8650    0.6270 C   0  0  0  0  0  3  0  0  0  0  0  0
   11.0370    2.2950   -0.3770 C   0  0  0  0  0  3  0  0  0  0  0  0
   11.4250    1.4090   -1.3770 C   0  0  0  0  0  0  0  0  0  0  0  0
   12.2600    1.8320   -2.3370 F   0  0  0  0  0  0  0  0  0  0  0  0
   10.9580    0.1020   -1.3930 C   0  0  0  0  0  3  0  0  0  0  0  0
   10.0910   -0.3290   -0.3900 C   0  0  0  0  0  3  0  0  0  0  0  0
  1  2  1  0  0  0  0
  2  3  2  0  0  0  0
  4  3  1  0  0  0  0
  5  1  2  0  0  0  0
  5  4  1  0  0  0  0
  6  7  1  0  0  0  0
  7  1  1  0  0  0  0
  7  8  2  0  0  0  0
  9 10  2  0  0  0  0
  9  6  1  0  0  0  0
 11 12  1  0  0  0  0
 12  9  1  0  0  0  0
 13 12  2  0  0  0  0
 14  5  1  0  0  0  0
 15 14  1  0  0  0  0
 16 15  1  0  0  0  0
 17 16  2  0  0  0  0
 18 17  1  0  0  0  0
 19 18  1  0  0  0  0
 20 18  2  0  0  0  0
 20 21  1  0  0  0  0
 21 15  2  0  0  0  0
M  END
>  <minimizedAffinity>
-5.42911148

$$$$
