
 OpenBabel09132204463D

 21 22  0  0  0  0  0  0  0  0999 V2000
   11.2860    3.2670    1.8790 C   0  0  0  0  0  0  0  0  0  0  0  0
   11.1850    2.9700    3.2760 C   0  0  0  0  0  3  0  0  0  0  0  0
   10.2690    1.9780    3.5360 C   0  0  0  0  0  3  0  0  0  0  0  0
    9.5260    1.4030    2.1100 S   0  0  0  0  0  0  0  0  0  0  0  0
   10.4490    2.4630    1.1150 C   0  0  0  0  0  0  0  0  0  0  0  0
   11.7010    5.5250    1.2160 C   0  0  0  0  0  2  0  0  0  0  0  0
   12.1850    4.2660    1.3280 C   0  0  0  0  0  0  0  0  0  0  0  0
   13.2980    3.7330    1.0660 O   0  0  0  0  0  0  0  0  0  0  0  0
   12.3570    6.7850    0.7240 C   0  0  0  0  0  0  0  0  0  0  0  0
   12.7340    7.7270    1.4170 O   0  0  0  0  0  0  0  0  0  0  0  0
   12.1890    7.9350   -1.4280 O   0  0  0  0  0  0  0  0  0  0  0  0
   12.6230    6.9040   -0.8080 C   0  0  0  0  0  0  0  0  0  0  0  0
   13.2840    5.9520   -1.3560 O   0  0  0  0  0  1  0  0  0  0  0  0
   10.2460    2.4810   -0.3740 C   0  0  0  0  0  2  0  0  0  0  0  0
   11.0000    1.3880   -1.1120 C   0  0  0  0  0  0  0  0  0  0  0  0
   12.3030    1.6080   -1.5860 C   0  0  0  0  0  3  0  0  0  0  0  0
   12.9820    0.6010   -2.2750 C   0  0  0  0  0  3  0  0  0  0  0  0
   12.3580   -0.6230   -2.4950 C   0  0  0  0  0  0  0  0  0  0  0  0
   13.0180   -1.5830   -3.1600 F   0  0  0  0  0  0  0  0  0  0  0  0
   11.0690   -0.8590   -2.0390 C   0  0  0  0  0  3  0  0  0  0  0  0
   10.3900    0.1450   -1.3480 C   0  0  0  0  0  3  0  0  0  0  0  0
  1  2  1  0  0  0  0
  2  3  2  0  0  0  0
  4  3  1  0  0  0  0
  5  1  2  0  0  0  0
  5  4  1  0  0  0  0
  6  7  1  0  0  0  0
  7  1  1  0  0  0  0
  8  7  2  0  0  0  0
  9  6  1  0  0  0  0
  9 10  2  0  0  0  0
 11 12  2  0  0  0  0
 12  9  1  0  0  0  0
 13 12  1  0  0  0  0
 14  5  1  0  0  0  0
 15 14  1  0  0  0  0
 16 15  2  0  0  0  0
 17 16  1  0  0  0  0
 18 17  2  0  0  0  0
 18 20  1  0  0  0  0
 19 18  1  0  0  0  0
 20 21  2  0  0  0  0
 21 15  1  0  0  0  0
M  END
>  <minimizedAffinity>
-5.38953352

$$$$
