REMARK  Name = 
REMARK  8 active torsions:
REMARK  status: ('A' for Active; 'I' for Inactive)
REMARK    1  A    between atoms: C_2  and  C_4
REMARK    2  A    between atoms: C_11  and  C_12
REMARK    3  A    between atoms: C_15  and  O_16
REMARK    4  A    between atoms: O_16  and  C_17
REMARK    5  A    between atoms: C_17  and  C_18
REMARK    6  A    between atoms: C_20  and  C_21
REMARK    7  A    between atoms: C_31  and  C_32
REMARK    8  A    between atoms: N_42  and  C_43
REMARK                            x       y       z     vdW  Elec       q    Type
REMARK                         _______ _______ _______ _____ _____    ______ ____
ROOT
ATOM      1  C   UNL     1       7.083  -5.652   1.828  0.00  0.00    +0.053 A 
ATOM      2  C   UNL     1       8.433  -5.313   1.664  0.00  0.00    +0.018 A 
ATOM      3  C   UNL     1       9.430  -6.026   2.334  0.00  0.00    +0.046 A 
ATOM      4  C   UNL     1       9.073  -7.048   3.213  0.00  0.00    +0.124 A 
ATOM      5  C   UNL     1       7.746  -7.456   3.319  0.00  0.00    +0.084 A 
ATOM      6  C   UNL     1       6.761  -6.746   2.638  0.00  0.00    +0.137 A 
ATOM      7  F   UNL     1       5.483  -7.109   2.821  0.00  0.00    -0.205 F 
ENDROOT
BRANCH   1  15
ATOM      8  C   UNL     1       3.246  -1.386   0.147  0.00  0.00    -0.001 A 
ATOM      9  C   UNL     1       2.624  -2.419  -0.573  0.00  0.00    +0.012 A 
ATOM     10  C   UNL     1       3.118  -3.731  -0.576  0.00  0.00    +0.028 A 
ATOM     11  C   UNL     1       4.270  -3.991   0.178  0.00  0.00    +0.069 A 
ATOM     12  C   UNL     1       4.913  -2.989   0.898  0.00  0.00    +0.090 A 
ATOM     13  C   UNL     1       4.406  -1.681   0.887  0.00  0.00    +0.039 A 
ATOM     14  N   UNL     1       6.015  -3.483   1.544  0.00  0.00    -0.227 NA
ATOM     15  C   UNL     1       6.056  -4.773   1.273  0.00  0.00    +0.145 A 
ATOM     16  N   UNL     1       5.028  -5.124   0.411  0.00  0.00    -0.320 N 
BRANCH  16  17
ATOM     17  C   UNL     1       4.822  -6.441  -0.186  0.00  0.00    +0.089 C 
ATOM     18  C   UNL     1       3.503  -7.098   0.251  0.00  0.00    +0.025 C 
ATOM     19  C   UNL     1       3.358  -8.497  -0.343  0.00  0.00    +0.002 C 
ATOM     20  C   UNL     1       3.506  -8.482  -1.862  0.00  0.00    +0.000 C 
ATOM     21  C   UNL     1       4.821  -7.839  -2.296  0.00  0.00    +0.002 C 
ATOM     22  C   UNL     1       4.981  -6.434  -1.716  0.00  0.00    +0.025 C 
ENDBRANCH  16  17
BRANCH   8  24
ATOM     23  O   UNL     1       1.639   0.214  -0.577  0.00  0.00    -0.545 OA
ATOM     24  C   UNL     1       2.678   0.019   0.130  0.00  0.00    +0.072 C 
ATOM     25  O   UNL     1       3.279   0.897   0.825  0.00  0.00    -0.545 OA
ENDBRANCH   8  24
ENDBRANCH   1  15
BRANCH   4  26
ATOM     26  O   UNL     1      10.064  -7.581   3.995  0.00  0.00    -0.487 OA
BRANCH  26  27
ATOM     27  C   UNL     1       9.842  -7.356   5.402  0.00  0.00    +0.265 C 
BRANCH  27  28
ATOM     28  C   UNL     1      10.449  -6.048   5.885  0.00  0.00    -0.002 A 
ATOM     29  C   UNL     1       9.830  -4.840   5.494  0.00  0.00    +0.020 A 
ATOM     30  C   UNL     1      10.313  -3.593   5.900  0.00  0.00    +0.037 A 
ATOM     31  C   UNL     1      11.442  -3.544   6.717  0.00  0.00    +0.013 A 
ATOM     32  C   UNL     1      12.066  -4.727   7.123  0.00  0.00    +0.009 A 
ATOM     33  C   UNL     1      11.594  -5.990   6.710  0.00  0.00    -0.011 A 
BRANCH  30  34
ATOM     34  C   UNL     1       9.774  -2.324   5.336  0.00  0.00    +0.247 C 
ATOM     35  O   UNL     1      10.603  -1.457   5.054  0.00  0.00    -0.270 OA
ATOM     36  N   UNL     1       8.410  -2.173   5.094  0.00  0.00    -0.298 N 
ATOM     37  C   UNL     1       7.982  -1.168   4.116  0.00  0.00    +0.108 C 
ATOM     38  C   UNL     1       6.877  -0.272   4.664  0.00  0.00    +0.019 C 
ATOM     39  C   UNL     1       5.713  -1.103   5.195  0.00  0.00    +0.003 C 
ATOM     40  C   UNL     1       6.209  -2.107   6.230  0.00  0.00    +0.019 C 
ATOM     41  C   UNL     1       7.334  -2.978   5.674  0.00  0.00    +0.108 C 
ENDBRANCH  30  34
BRANCH  33  42
ATOM     42  C   UNL     1      12.332  -7.188   7.133  0.00  0.00    -0.017 A 
ATOM     43  C   UNL     1      13.132  -7.895   6.219  0.00  0.00    +0.010 A 
ATOM     44  C   UNL     1      13.840  -9.032   6.619  0.00  0.00    +0.020 A 
ATOM     45  C   UNL     1      13.756  -9.469   7.939  0.00  0.00    +0.041 A 
ATOM     46 CL   UNL     1      14.627 -10.868   8.434  0.00  0.00    -0.084 Cl
ATOM     47  C   UNL     1      12.973  -8.779   8.861  0.00  0.00    +0.020 A 
ATOM     48  C   UNL     1      12.265  -7.643   8.459  0.00  0.00    +0.010 A 
ENDBRANCH  33  42
ENDBRANCH  27  28
ENDBRANCH  26  27
ENDBRANCH   4  26
TORSDOF 8
