
 OpenBabel09122222393D

 48 54  0  0  0  0  0  0  0  0999 V2000
    3.7990   -3.4780    5.7530 C   0  0  0  0  0  0  0  0  0  0  0  0
    4.8020   -3.2640    6.7090 C   0  0  0  0  0  3  0  0  0  0  0  0
    4.6690   -2.2500    7.6610 C   0  0  0  0  0  3  0  0  0  0  0  0
    3.5560   -1.4120    7.6240 C   0  0  0  0  0  0  0  0  0  0  0  0
    2.5110   -1.6660    6.7400 C   0  0  0  0  0  3  0  0  0  0  0  0
    2.6470   -2.6870    5.8030 C   0  0  0  0  0  0  0  0  0  0  0  0
    1.6610   -2.8580    4.9100 F   0  0  0  0  0  0  0  0  0  0  0  0
    5.1870   -6.5300    0.8030 C   0  0  0  0  0  0  0  0  0  0  0  0
    4.5000   -7.5850    1.4240 C   0  0  0  0  0  3  0  0  0  0  0  0
    3.9280   -7.4580    2.6980 C   0  0  0  0  0  3  0  0  0  0  0  0
    4.0590   -6.2230    3.3460 C   0  0  0  0  0  0  0  0  0  0  0  0
    4.7380   -5.1590    2.7600 C   0  0  0  0  0  0  0  0  0  0  0  0
    5.3070   -5.3060    1.4860 C   0  0  0  0  0  3  0  0  0  0  0  0
    4.7390   -4.0670    3.5860 N   0  0  0  0  0  0  0  0  0  0  0  0
    4.0500   -4.4110    4.6560 C   0  0  0  0  0  0  0  0  0  0  0  0
    3.6430   -5.7330    4.5710 N   0  0  0  0  0  0  0  0  0  0  0  0
    2.9510   -6.4860    5.6130 C   0  0  0  0  0  3  0  0  0  0  0  0
    3.5940   -6.3220    7.0000 C   0  0  0  0  0  2  0  0  0  0  0  0
    2.8810   -7.1750    8.0460 C   0  0  0  0  0  2  0  0  0  0  0  0
    1.3820   -6.8870    8.0810 C   0  0  0  0  0  2  0  0  0  0  0  0
    0.7410   -7.0600    6.7060 C   0  0  0  0  0  2  0  0  0  0  0  0
    1.4380   -6.2080    5.6460 C   0  0  0  0  0  2  0  0  0  0  0  0
    6.5680   -5.7890   -0.9890 O   0  0  0  0  0  1  0  0  0  0  0  0
    5.7870   -6.7050   -0.5780 C   0  0  0  0  0  0  0  0  0  0  0  0
    5.4680   -7.7530   -1.2220 O   0  0  0  0  0  0  0  0  0  0  0  0
    3.5660   -0.3140    8.4430 O   0  0  0  0  0  0  0  0  0  0  0  0
    2.9840   -0.5800    9.7350 C   0  0  0  0  0  2  0  0  0  0  0  0
    3.9490   -0.2980   10.8770 C   0  0  0  0  0  0  0  0  0  0  0  0
    4.4680    1.0090   11.0060 C   0  0  0  0  0  3  0  0  0  0  0  0
    5.3510    1.3600   12.0300 C   0  0  0  0  0  0  0  0  0  0  0  0
    5.7290    0.3850   12.9530 C   0  0  0  0  0  3  0  0  0  0  0  0
    5.2210   -0.9130   12.8500 C   0  0  0  0  0  3  0  0  0  0  0  0
    4.3390   -1.2810   11.8140 C   0  0  0  0  0  0  0  0  0  0  0  0
    6.0390    2.6810   12.0520 C   0  0  0  0  0  0  0  0  0  0  0  0
    5.6280    3.4960   12.8800 O   0  0  0  0  0  0  0  0  0  0  0  0
    7.1230    2.9350   11.2150 N   0  0  0  0  0  0  0  0  0  0  0  0
    8.0610    3.9980   11.5910 C   0  0  0  0  0  2  0  0  0  0  0  0
    8.3360    4.9510   10.4330 C   0  0  0  0  0  2  0  0  0  0  0  0
    8.7860    4.1870    9.1920 C   0  0  0  0  0  2  0  0  0  0  0  0
    7.7620    3.1180    8.8280 C   0  0  0  0  0  2  0  0  0  0  0  0
    7.4770    2.1890   10.0060 C   0  0  0  0  0  2  0  0  0  0  0  0
    3.8870   -2.6770   11.7380 C   0  0  0  0  0  0  0  0  0  0  0  0
    4.6240   -3.6280   11.0120 C   0  0  0  0  0  3  0  0  0  0  0  0
    4.2010   -4.9590   10.9420 C   0  0  0  0  0  3  0  0  0  0  0  0
    3.0380   -5.3490   11.6020 C   0  0  0  0  0  0  0  0  0  0  0  0
    2.5150   -6.9860   11.5180 Cl  0  0  0  0  0  0  0  0  0  0  0  0
    2.2970   -4.4220   12.3310 C   0  0  0  0  0  3  0  0  0  0  0  0
    2.7210   -3.0920   12.3990 C   0  0  0  0  0  3  0  0  0  0  0  0
  1  6  2  0  0  0  0
  1  2  1  0  0  0  0
  2  3  2  0  0  0  0
  4  3  1  0  0  0  0
  4 26  1  0  0  0  0
  5  4  2  0  0  0  0
  6  5  1  0  0  0  0
  7  6  1  0  0  0  0
  8  9  2  0  0  0  0
  8 13  1  0  0  0  0
  9 10  1  0  0  0  0
 10 11  2  0  0  0  0
 11 16  1  0  0  0  0
 12 11  1  0  0  0  0
 12 14  1  0  0  0  0
 13 12  2  0  0  0  0
 14 15  2  0  0  0  0
 15  1  1  0  0  0  0
 16 15  1  0  0  0  0
 16 17  1  0  0  0  0
 17 22  1  0  0  0  0
 17 18  1  0  0  0  0
 18 19  1  0  0  0  0
 19 20  1  0  0  0  0
 21 20  1  0  0  0  0
 22 21  1  0  0  0  0
 23 24  1  0  0  0  0
 24  8  1  0  0  0  0
 25 24  2  0  0  0  0
 26 27  1  0  0  0  0
 27 28  1  0  0  0  0
 28 29  2  0  0  0  0
 28 33  1  0  0  0  0
 29 30  1  0  0  0  0
 30 34  1  0  0  0  0
 30 31  2  0  0  0  0
 32 31  1  0  0  0  0
 33 32  2  0  0  0  0
 34 35  2  0  0  0  0
 36 37  1  0  0  0  0
 36 34  1  0  0  0  0
 38 37  1  0  0  0  0
 39 38  1  0  0  0  0
 40 39  1  0  0  0  0
 40 41  1  0  0  0  0
 41 36  1  0  0  0  0
 42 33  1  0  0  0  0
 42 48  1  0  0  0  0
 43 42  2  0  0  0  0
 44 43  1  0  0  0  0
 44 45  2  0  0  0  0
 45 47  1  0  0  0  0
 46 45  1  0  0  0  0
 47 48  2  0  0  0  0
M  END
>  <minimizedAffinity>
-9.31197739

$$$$
