
 OpenBabel09122222393D

 48 54  0  0  0  0  0  0  0  0999 V2000
    3.6720   -5.2250    4.6460 C   0  0  0  0  0  0  0  0  0  0  0  0
    2.3570   -4.7990    4.8790 C   0  0  0  0  0  3  0  0  0  0  0  0
    2.1020   -3.5100    5.3510 C   0  0  0  0  0  3  0  0  0  0  0  0
    3.1680   -2.6600    5.6430 C   0  0  0  0  0  0  0  0  0  0  0  0
    4.4730   -3.0330    5.3330 C   0  0  0  0  0  3  0  0  0  0  0  0
    4.7160   -4.3170    4.8520 C   0  0  0  0  0  0  0  0  0  0  0  0
    5.9900   -4.6790    4.6390 F   0  0  0  0  0  0  0  0  0  0  0  0
    4.3630  -11.1530    4.2870 C   0  0  0  0  0  0  0  0  0  0  0  0
    4.9970  -10.8680    3.0670 C   0  0  0  0  0  3  0  0  0  0  0  0
    5.1310   -9.5600    2.5800 C   0  0  0  0  0  3  0  0  0  0  0  0
    4.6080   -8.5220    3.3630 C   0  0  0  0  0  0  0  0  0  0  0  0
    3.9690   -8.7710    4.5730 C   0  0  0  0  0  0  0  0  0  0  0  0
    3.8420  -10.0860    5.0430 C   0  0  0  0  0  3  0  0  0  0  0  0
    3.5380   -7.6030    5.1460 N   0  0  0  0  0  0  0  0  0  0  0  0
    3.9220   -6.6320    4.3410 C   0  0  0  0  0  0  0  0  0  0  0  0
    4.5500   -7.1480    3.2170 N   0  0  0  0  0  0  0  0  0  0  0  0
    5.0120   -6.3790    2.0650 C   0  0  0  0  0  3  0  0  0  0  0  0
    6.5340   -6.4550    1.8650 C   0  0  0  0  0  2  0  0  0  0  0  0
    6.9820   -5.5870    0.6910 C   0  0  0  0  0  2  0  0  0  0  0  0
    6.2250   -5.9350   -0.5880 C   0  0  0  0  0  2  0  0  0  0  0  0
    4.7130   -5.8500   -0.3920 C   0  0  0  0  0  2  0  0  0  0  0  0
    4.2450   -6.7180    0.7750 C   0  0  0  0  0  2  0  0  0  0  0  0
    3.6290  -13.4030    4.0310 O   0  0  0  0  0  0  0  0  0  0  0  0
    4.2430  -12.5800    4.7820 C   0  0  0  0  0  0  0  0  0  0  0  0
    4.7680  -12.8510    5.9070 O   0  0  0  0  0  1  0  0  0  0  0  0
    2.8790   -1.4860    6.2890 O   0  0  0  0  0  0  0  0  0  0  0  0
    2.1100   -1.6900    7.4910 C   0  0  0  0  0  2  0  0  0  0  0  0
    2.9600   -1.5980    8.7490 C   0  0  0  0  0  0  0  0  0  0  0  0
    3.4300   -0.3260    9.1460 C   0  0  0  0  0  3  0  0  0  0  0  0
    4.2070   -0.1470   10.2930 C   0  0  0  0  0  0  0  0  0  0  0  0
    4.5270   -1.2610   11.0680 C   0  0  0  0  0  3  0  0  0  0  0  0
    4.0660   -2.5280   10.6990 C   0  0  0  0  0  3  0  0  0  0  0  0
    3.2900   -2.7220    9.5380 C   0  0  0  0  0  0  0  0  0  0  0  0
    4.8550    1.1580   10.6030 C   0  0  0  0  0  0  0  0  0  0  0  0
    4.1460    2.0000   11.1570 O   0  0  0  0  0  0  0  0  0  0  0  0
    6.2040    1.3690   10.3260 N   0  0  0  0  0  0  0  0  0  0  0  0
    6.9120    2.4190   11.0660 C   0  0  0  0  0  2  0  0  0  0  0  0
    7.6970    3.3400   10.1390 C   0  0  0  0  0  2  0  0  0  0  0  0
    8.6240    2.5400    9.2290 C   0  0  0  0  0  2  0  0  0  0  0  0
    7.8320    1.4870    8.4620 C   0  0  0  0  0  2  0  0  0  0  0  0
    7.0300    0.5900    9.4030 C   0  0  0  0  0  2  0  0  0  0  0  0
    2.8850   -4.0890    9.1840 C   0  0  0  0  0  0  0  0  0  0  0  0
    3.7710   -4.9450    8.5060 C   0  0  0  0  0  3  0  0  0  0  0  0
    3.3910   -6.2480    8.1730 C   0  0  0  0  0  3  0  0  0  0  0  0
    2.1220   -6.7080    8.5190 C   0  0  0  0  0  0  0  0  0  0  0  0
    1.6530   -8.3120    8.1110 Cl  0  0  0  0  0  0  0  0  0  0  0  0
    1.2330   -5.8770    9.1960 C   0  0  0  0  0  3  0  0  0  0  0  0
    1.6140   -4.5740    9.5270 C   0  0  0  0  0  3  0  0  0  0  0  0
  1  6  2  0  0  0  0
  1  2  1  0  0  0  0
  2  3  2  0  0  0  0
  3  4  1  0  0  0  0
  4 26  1  0  0  0  0
  5  4  2  0  0  0  0
  6  5  1  0  0  0  0
  7  6  1  0  0  0  0
  8 24  1  0  0  0  0
  8 13  1  0  0  0  0
  9  8  2  0  0  0  0
 10  9  1  0  0  0  0
 10 11  2  0  0  0  0
 11 12  1  0  0  0  0
 12 13  2  0  0  0  0
 12 14  1  0  0  0  0
 15  1  1  0  0  0  0
 15 14  2  0  0  0  0
 16 11  1  0  0  0  0
 16 15  1  0  0  0  0
 17 16  1  0  0  0  0
 18 17  1  0  0  0  0
 19 18  1  0  0  0  0
 20 21  1  0  0  0  0
 20 19  1  0  0  0  0
 21 22  1  0  0  0  0
 22 17  1  0  0  0  0
 23 24  2  0  0  0  0
 24 25  1  0  0  0  0
 26 27  1  0  0  0  0
 27 28  1  0  0  0  0
 28 29  2  0  0  0  0
 28 33  1  0  0  0  0
 29 30  1  0  0  0  0
 30 34  1  0  0  0  0
 30 31  2  0  0  0  0
 32 31  1  0  0  0  0
 33 32  2  0  0  0  0
 34 35  2  0  0  0  0
 36 34  1  0  0  0  0
 36 37  1  0  0  0  0
 38 37  1  0  0  0  0
 39 38  1  0  0  0  0
 40 39  1  0  0  0  0
 40 41  1  0  0  0  0
 41 36  1  0  0  0  0
 42 48  1  0  0  0  0
 42 33  1  0  0  0  0
 43 42  2  0  0  0  0
 44 43  1  0  0  0  0
 44 45  2  0  0  0  0
 45 47  1  0  0  0  0
 46 45  1  0  0  0  0
 47 48  2  0  0  0  0
M  END
>  <minimizedAffinity>
-9.02371216

$$$$
