
 OpenBabel09122222393D

 48 54  0  0  0  0  0  0  0  0999 V2000
    3.9410   -3.6020    5.7350 C   0  0  0  0  0  0  0  0  0  0  0  0
    5.0080   -3.3430    6.6050 C   0  0  0  0  0  3  0  0  0  0  0  0
    4.9170   -2.3240    7.5560 C   0  0  0  0  0  3  0  0  0  0  0  0
    3.7740   -1.5260    7.6020 C   0  0  0  0  0  0  0  0  0  0  0  0
    2.6710   -1.8260    6.8080 C   0  0  0  0  0  3  0  0  0  0  0  0
    2.7680   -2.8510    5.8710 C   0  0  0  0  0  0  0  0  0  0  0  0
    1.7200   -3.0670    5.0630 F   0  0  0  0  0  0  0  0  0  0  0  0
    5.1350   -6.6800    0.7500 C   0  0  0  0  0  0  0  0  0  0  0  0
    4.3990   -7.7040    1.3680 C   0  0  0  0  0  3  0  0  0  0  0  0
    3.8440   -7.5580    2.6480 C   0  0  0  0  0  3  0  0  0  0  0  0
    4.0430   -6.3360    3.3040 C   0  0  0  0  0  0  0  0  0  0  0  0
    4.7710   -5.3040    2.7210 C   0  0  0  0  0  0  0  0  0  0  0  0
    5.3210   -5.4690    1.4420 C   0  0  0  0  0  3  0  0  0  0  0  0
    4.8330   -4.2200    3.5560 N   0  0  0  0  0  0  0  0  0  0  0  0
    4.1350   -4.5370    4.6290 C   0  0  0  0  0  0  0  0  0  0  0  0
    3.6610   -5.8370    4.5360 N   0  0  0  0  0  0  0  0  0  0  0  0
    2.9390   -6.5620    5.5780 C   0  0  0  0  0  3  0  0  0  0  0  0
    3.5690   -6.3960    6.9710 C   0  0  0  0  0  2  0  0  0  0  0  0
    2.8230   -7.2210    8.0170 C   0  0  0  0  0  2  0  0  0  0  0  0
    1.3310   -6.9000    8.0290 C   0  0  0  0  0  2  0  0  0  0  0  0
    0.7040   -7.0750    6.6490 C   0  0  0  0  0  2  0  0  0  0  0  0
    1.4330   -6.2510    5.5880 C   0  0  0  0  0  2  0  0  0  0  0  0
    6.4130   -5.9220   -1.1100 O   0  0  0  0  0  1  0  0  0  0  0  0
    5.7150   -6.8730   -0.6370 C   0  0  0  0  0  0  0  0  0  0  0  0
    5.4630   -7.9730   -1.2230 O   0  0  0  0  0  0  0  0  0  0  0  0
    3.8110   -0.4190    8.4090 O   0  0  0  0  0  0  0  0  0  0  0  0
    2.8050   -0.4510    9.4420 C   0  0  0  0  0  2  0  0  0  0  0  0
    3.2150   -1.3120   10.6270 C   0  0  0  0  0  0  0  0  0  0  0  0
    2.4910   -2.5000   10.8710 C   0  0  0  0  0  3  0  0  0  0  0  0
    2.8050   -3.3560   11.9300 C   0  0  0  0  0  0  0  0  0  0  0  0
    3.8670   -3.0230   12.7700 C   0  0  0  0  0  3  0  0  0  0  0  0
    4.6030   -1.8570   12.5430 C   0  0  0  0  0  3  0  0  0  0  0  0
    4.2870   -0.9800   11.4840 C   0  0  0  0  0  0  0  0  0  0  0  0
    1.9270   -4.5020   12.2960 C   0  0  0  0  0  0  0  0  0  0  0  0
    0.9580   -4.2410   13.0110 O   0  0  0  0  0  0  0  0  0  0  0  0
    2.1740   -5.7790   11.7950 N   0  0  0  0  0  0  0  0  0  0  0  0
    1.0670   -6.7390   11.7530 C   0  0  0  0  0  2  0  0  0  0  0  0
    1.4540   -8.0840   12.3580 C   0  0  0  0  0  2  0  0  0  0  0  0
    2.7240   -8.6290   11.7110 C   0  0  0  0  0  2  0  0  0  0  0  0
    3.8490   -7.6050   11.8110 C   0  0  0  0  0  2  0  0  0  0  0  0
    3.4360   -6.2560   11.2260 C   0  0  0  0  0  2  0  0  0  0  0  0
    5.0710    0.2540   11.3380 C   0  0  0  0  0  0  0  0  0  0  0  0
    4.6600    1.4410   11.9680 C   0  0  0  0  0  3  0  0  0  0  0  0
    5.4060    2.6160   11.8350 C   0  0  0  0  0  3  0  0  0  0  0  0
    6.5720    2.6120   11.0730 C   0  0  0  0  0  0  0  0  0  0  0  0
    7.4920    4.0560   10.9090 Cl  0  0  0  0  0  0  0  0  0  0  0  0
    6.9990    1.4440   10.4460 C   0  0  0  0  0  3  0  0  0  0  0  0
    6.2510    0.2710   10.5780 C   0  0  0  0  0  3  0  0  0  0  0  0
  1  6  2  0  0  0  0
  1  2  1  0  0  0  0
  2  3  2  0  0  0  0
  3  4  1  0  0  0  0
  4 26  1  0  0  0  0
  5  4  2  0  0  0  0
  6  5  1  0  0  0  0
  7  6  1  0  0  0  0
  8  9  2  0  0  0  0
  8 13  1  0  0  0  0
  9 10  1  0  0  0  0
 10 11  2  0  0  0  0
 11 16  1  0  0  0  0
 12 11  1  0  0  0  0
 12 14  1  0  0  0  0
 13 12  2  0  0  0  0
 14 15  2  0  0  0  0
 15  1  1  0  0  0  0
 16 15  1  0  0  0  0
 16 17  1  0  0  0  0
 17 22  1  0  0  0  0
 17 18  1  0  0  0  0
 18 19  1  0  0  0  0
 19 20  1  0  0  0  0
 21 20  1  0  0  0  0
 22 21  1  0  0  0  0
 23 24  1  0  0  0  0
 24  8  1  0  0  0  0
 25 24  2  0  0  0  0
 26 27  1  0  0  0  0
 27 28  1  0  0  0  0
 28 29  2  0  0  0  0
 28 33  1  0  0  0  0
 29 30  1  0  0  0  0
 30 34  1  0  0  0  0
 30 31  2  0  0  0  0
 32 31  1  0  0  0  0
 33 32  2  0  0  0  0
 34 35  2  0  0  0  0
 36 34  1  0  0  0  0
 37 36  1  0  0  0  0
 37 38  1  0  0  0  0
 39 40  1  0  0  0  0
 39 38  1  0  0  0  0
 41 36  1  0  0  0  0
 41 40  1  0  0  0  0
 42 33  1  0  0  0  0
 42 43  1  0  0  0  0
 44 43  2  0  0  0  0
 45 44  1  0  0  0  0
 46 45  1  0  0  0  0
 47 48  1  0  0  0  0
 47 45  2  0  0  0  0
 48 42  2  0  0  0  0
M  END
>  <minimizedAffinity>
-9.20418167

$$$$
