
 OpenBabel09122221523D

 48 54  0  0  0  0  0  0  0  0999 V2000
    3.5470   -5.6340    4.5240 C   0  0  0  0  0  0  0  0  0  0  0  0
    2.2230   -5.3180    4.8590 C   0  0  0  0  0  3  0  0  0  0  0  0
    1.8640   -4.0050    5.1710 C   0  0  0  0  0  3  0  0  0  0  0  0
    2.8420   -3.0120    5.2010 C   0  0  0  0  0  0  0  0  0  0  0  0
    4.1420   -3.2900    4.7840 C   0  0  0  0  0  3  0  0  0  0  0  0
    4.4870   -4.6000    4.4640 C   0  0  0  0  0  0  0  0  0  0  0  0
    5.7640   -4.8540    4.1440 F   0  0  0  0  0  0  0  0  0  0  0  0
    4.9300  -11.4360    4.9300 C   0  0  0  0  0  0  0  0  0  0  0  0
    5.3720  -11.2840    3.6060 C   0  0  0  0  0  3  0  0  0  0  0  0
    5.2810  -10.0630    2.9220 C   0  0  0  0  0  3  0  0  0  0  0  0
    4.7290   -8.9750    3.6120 C   0  0  0  0  0  0  0  0  0  0  0  0
    4.2760   -9.0940    4.9220 C   0  0  0  0  0  0  0  0  0  0  0  0
    4.3730  -10.3250    5.5890 C   0  0  0  0  0  3  0  0  0  0  0  0
    3.7740   -7.9030    5.3750 N   0  0  0  0  0  0  0  0  0  0  0  0
    3.9330   -7.0370    4.3930 C   0  0  0  0  0  0  0  0  0  0  0  0
    4.4810   -7.6560    3.2800 N   0  0  0  0  0  0  0  0  0  0  0  0
    4.7010   -7.0350    1.9760 C   0  0  0  0  0  3  0  0  0  0  0  0
    6.1890   -6.8230    1.6560 C   0  0  0  0  0  2  0  0  0  0  0  0
    6.3720   -6.1150    0.3160 C   0  0  0  0  0  2  0  0  0  0  0  0
    5.6510   -6.8480   -0.8120 C   0  0  0  0  0  2  0  0  0  0  0  0
    4.1700   -7.0490   -0.4990 C   0  0  0  0  0  2  0  0  0  0  0  0
    3.9670   -7.7640    0.8370 C   0  0  0  0  0  2  0  0  0  0  0  0
    4.0580  -13.5610    5.5550 O   0  0  0  0  0  0  0  0  0  0  0  0
    5.0510  -12.7710    5.6370 C   0  0  0  0  0  0  0  0  0  0  0  0
    6.1370  -13.0050    6.2550 O   0  0  0  0  0  1  0  0  0  0  0  0
    2.4840   -1.7890    5.7050 O   0  0  0  0  0  0  0  0  0  0  0  0
    2.3740   -1.7930    7.1430 C   0  0  0  0  0  2  0  0  0  0  0  0
    3.7100   -2.0360    7.8280 C   0  0  0  0  0  0  0  0  0  0  0  0
    4.8090   -1.2310    7.4530 C   0  0  0  0  0  3  0  0  0  0  0  0
    6.0700   -1.3780    8.0370 C   0  0  0  0  0  0  0  0  0  0  0  0
    6.2450   -2.3510    9.0210 C   0  0  0  0  0  3  0  0  0  0  0  0
    5.1700   -3.1530    9.4140 C   0  0  0  0  0  3  0  0  0  0  0  0
    3.8960   -3.0210    8.8230 C   0  0  0  0  0  0  0  0  0  0  0  0
    7.2650   -0.6610    7.5100 C   0  0  0  0  0  0  0  0  0  0  0  0
    7.3510    0.5360    7.7910 O   0  0  0  0  0  0  0  0  0  0  0  0
    8.2460   -1.3410    6.7920 N   0  0  0  0  0  0  0  0  0  0  0  0
    9.5910   -0.7600    6.7260 C   0  0  0  0  0  2  0  0  0  0  0  0
   10.1210   -0.7080    5.2980 C   0  0  0  0  0  2  0  0  0  0  0  0
   10.0450   -2.0810    4.6360 C   0  0  0  0  0  2  0  0  0  0  0  0
    8.6210   -2.6220    4.7050 C   0  0  0  0  0  2  0  0  0  0  0  0
    8.0950   -2.6420    6.1390 C   0  0  0  0  0  2  0  0  0  0  0  0
    2.8270   -3.9340    9.2480 C   0  0  0  0  0  0  0  0  0  0  0  0
    2.6210   -5.1540    8.5820 C   0  0  0  0  0  3  0  0  0  0  0  0
    1.6080   -6.0280    8.9870 C   0  0  0  0  0  3  0  0  0  0  0  0
    0.7950   -5.6900   10.0660 C   0  0  0  0  0  0  0  0  0  0  0  0
   -0.4520   -6.7640   10.5680 Cl  0  0  0  0  0  0  0  0  0  0  0  0
    0.9870   -4.4880   10.7430 C   0  0  0  0  0  3  0  0  0  0  0  0
    1.9990   -3.6150   10.3360 C   0  0  0  0  0  3  0  0  0  0  0  0
  1  2  1  0  0  0  0
  2  3  2  0  0  0  0
  3  4  1  0  0  0  0
  4 26  1  0  0  0  0
  5  4  2  0  0  0  0
  6  1  2  0  0  0  0
  6  5  1  0  0  0  0
  7  6  1  0  0  0  0
  8 13  1  0  0  0  0
  8 24  1  0  0  0  0
  9  8  2  0  0  0  0
 10  9  1  0  0  0  0
 10 11  2  0  0  0  0
 11 12  1  0  0  0  0
 12 14  1  0  0  0  0
 12 13  2  0  0  0  0
 15  1  1  0  0  0  0
 15 14  2  0  0  0  0
 16 11  1  0  0  0  0
 16 15  1  0  0  0  0
 17 16  1  0  0  0  0
 18 17  1  0  0  0  0
 19 18  1  0  0  0  0
 20 21  1  0  0  0  0
 20 19  1  0  0  0  0
 21 22  1  0  0  0  0
 22 17  1  0  0  0  0
 23 24  2  0  0  0  0
 24 25  1  0  0  0  0
 26 27  1  0  0  0  0
 27 28  1  0  0  0  0
 28 33  1  0  0  0  0
 29 28  2  0  0  0  0
 29 30  1  0  0  0  0
 30 31  2  0  0  0  0
 31 32  1  0  0  0  0
 33 42  1  0  0  0  0
 33 32  2  0  0  0  0
 34 35  2  0  0  0  0
 34 30  1  0  0  0  0
 36 34  1  0  0  0  0
 37 36  1  0  0  0  0
 38 37  1  0  0  0  0
 39 40  1  0  0  0  0
 39 38  1  0  0  0  0
 40 41  1  0  0  0  0
 41 36  1  0  0  0  0
 42 48  1  0  0  0  0
 43 44  1  0  0  0  0
 43 42  2  0  0  0  0
 44 45  2  0  0  0  0
 45 46  1  0  0  0  0
 45 47  1  0  0  0  0
 48 47  2  0  0  0  0
M  END
>  <minimizedAffinity>
-9.44268608

$$$$

 OpenBabel09122221523D

 48 54  0  0  0  0  0  0  0  0999 V2000
    4.9310   -4.0190    4.3060 C   0  0  0  0  0  0  0  0  0  0  0  0
    5.1290   -4.6140    5.5590 C   0  0  0  0  0  3  0  0  0  0  0  0
    4.2570   -4.3450    6.6180 C   0  0  0  0  0  3  0  0  0  0  0  0
    3.2150   -3.4360    6.4370 C   0  0  0  0  0  0  0  0  0  0  0  0
    2.9510   -2.9060    5.1770 C   0  0  0  0  0  3  0  0  0  0  0  0
    3.8190   -3.1900    4.1260 C   0  0  0  0  0  0  0  0  0  0  0  0
    3.5880   -2.6020    2.9430 F   0  0  0  0  0  0  0  0  0  0  0  0
    9.5160   -3.8020    0.4750 C   0  0  0  0  0  0  0  0  0  0  0  0
    8.8660   -4.8770   -0.1530 C   0  0  0  0  0  3  0  0  0  0  0  0
    7.6680   -5.4160    0.3370 C   0  0  0  0  0  3  0  0  0  0  0  0
    7.1220   -4.8380    1.4910 C   0  0  0  0  0  0  0  0  0  0  0  0
    7.7440   -3.7760    2.1400 C   0  0  0  0  0  0  0  0  0  0  0  0
    8.9440   -3.2520    1.6370 C   0  0  0  0  0  3  0  0  0  0  0  0
    7.0290   -3.3920    3.2430 N   0  0  0  0  0  0  0  0  0  0  0  0
    5.9610   -4.1640    3.2790 C   0  0  0  0  0  0  0  0  0  0  0  0
    5.9920   -5.0890    2.2470 N   0  0  0  0  0  0  0  0  0  0  0  0
    5.0310   -6.1690    2.0350 C   0  0  0  0  0  3  0  0  0  0  0  0
    4.7750   -6.4600    0.5470 C   0  0  0  0  0  2  0  0  0  0  0  0
    3.7190   -7.5490    0.3710 C   0  0  0  0  0  2  0  0  0  0  0  0
    4.0820   -8.8160    1.1400 C   0  0  0  0  0  2  0  0  0  0  0  0
    4.3270   -8.5290    2.6200 C   0  0  0  0  0  2  0  0  0  0  0  0
    5.3860   -7.4460    2.8170 C   0  0  0  0  0  2  0  0  0  0  0  0
   11.8470   -3.3490    0.6350 O   0  0  0  0  0  1  0  0  0  0  0  0
   10.8070   -3.2440   -0.0890 C   0  0  0  0  0  0  0  0  0  0  0  0
   10.7560   -2.7160   -1.2440 O   0  0  0  0  0  0  0  0  0  0  0  0
    2.5140   -3.0520    7.5500 O   0  0  0  0  0  0  0  0  0  0  0  0
    2.7630   -1.6800    7.9180 C   0  0  0  0  0  2  0  0  0  0  0  0
    4.0970   -1.5000    8.6260 C   0  0  0  0  0  0  0  0  0  0  0  0
    5.1230   -0.8030    7.9500 C   0  0  0  0  0  3  0  0  0  0  0  0
    6.3750   -0.5810    8.5290 C   0  0  0  0  0  0  0  0  0  0  0  0
    6.6160   -1.0660    9.8140 C   0  0  0  0  0  3  0  0  0  0  0  0
    5.6130   -1.7520   10.5040 C   0  0  0  0  0  3  0  0  0  0  0  0
    4.3500   -1.9910    9.9260 C   0  0  0  0  0  0  0  0  0  0  0  0
    7.5090   -0.0140    7.7460 C   0  0  0  0  0  0  0  0  0  0  0  0
    7.5240    1.2120    7.6180 O   0  0  0  0  0  0  0  0  0  0  0  0
    8.5170   -0.8380    7.2500 N   0  0  0  0  0  0  0  0  0  0  0  0
    9.8190   -0.2400    6.9410 C   0  0  0  0  0  2  0  0  0  0  0  0
   10.3130   -0.6310    5.5520 C   0  0  0  0  0  2  0  0  0  0  0  0
   10.3110   -2.1470    5.3790 C   0  0  0  0  0  2  0  0  0  0  0  0
    8.9270   -2.7120    5.6810 C   0  0  0  0  0  2  0  0  0  0  0  0
    8.4360   -2.2880    7.0640 C   0  0  0  0  0  2  0  0  0  0  0  0
    3.3630   -2.7650   10.6900 C   0  0  0  0  0  0  0  0  0  0  0  0
    2.3910   -2.1140   11.4700 C   0  0  0  0  0  3  0  0  0  0  0  0
    1.4470   -2.8470   12.1940 C   0  0  0  0  0  3  0  0  0  0  0  0
    1.4640   -4.2390   12.1420 C   0  0  0  0  0  0  0  0  0  0  0  0
    0.3030   -5.1430   13.0320 Cl  0  0  0  0  0  0  0  0  0  0  0  0
    2.4160   -4.9020   11.3710 C   0  0  0  0  0  3  0  0  0  0  0  0
    3.3600   -4.1680   10.6480 C   0  0  0  0  0  3  0  0  0  0  0  0
  1  2  1  0  0  0  0
  2  3  2  0  0  0  0
  4  3  1  0  0  0  0
  4 26  1  0  0  0  0
  5  4  2  0  0  0  0
  6  1  2  0  0  0  0
  6  5  1  0  0  0  0
  7  6  1  0  0  0  0
  8 13  1  0  0  0  0
  9 10  1  0  0  0  0
  9  8  2  0  0  0  0
 10 11  2  0  0  0  0
 11 12  1  0  0  0  0
 11 16  1  0  0  0  0
 12 14  1  0  0  0  0
 13 12  2  0  0  0  0
 14 15  2  0  0  0  0
 15  1  1  0  0  0  0
 16 15  1  0  0  0  0
 17 16  1  0  0  0  0
 17 22  1  0  0  0  0
 18 17  1  0  0  0  0
 19 18  1  0  0  0  0
 19 20  1  0  0  0  0
 20 21  1  0  0  0  0
 21 22  1  0  0  0  0
 24  8  1  0  0  0  0
 24 23  1  0  0  0  0
 25 24  2  0  0  0  0
 26 27  1  0  0  0  0
 27 28  1  0  0  0  0
 28 33  1  0  0  0  0
 29 30  1  0  0  0  0
 29 28  2  0  0  0  0
 30 31  2  0  0  0  0
 31 32  1  0  0  0  0
 33 32  2  0  0  0  0
 33 42  1  0  0  0  0
 34 30  1  0  0  0  0
 35 34  2  0  0  0  0
 36 34  1  0  0  0  0
 37 36  1  0  0  0  0
 38 37  1  0  0  0  0
 39 38  1  0  0  0  0
 39 40  1  0  0  0  0
 40 41  1  0  0  0  0
 41 36  1  0  0  0  0
 42 43  1  0  0  0  0
 43 44  2  0  0  0  0
 45 44  1  0  0  0  0
 45 46  1  0  0  0  0
 47 45  2  0  0  0  0
 48 42  2  0  0  0  0
 48 47  1  0  0  0  0
M  END
>  <minimizedAffinity>
-9.42314148

$$$$

 OpenBabel09122221523D

 48 54  0  0  0  0  0  0  0  0999 V2000
    3.7990   -3.4780    5.7530 C   0  0  0  0  0  0  0  0  0  0  0  0
    4.8020   -3.2640    6.7090 C   0  0  0  0  0  3  0  0  0  0  0  0
    4.6690   -2.2500    7.6610 C   0  0  0  0  0  3  0  0  0  0  0  0
    3.5560   -1.4120    7.6240 C   0  0  0  0  0  0  0  0  0  0  0  0
    2.5110   -1.6660    6.7400 C   0  0  0  0  0  3  0  0  0  0  0  0
    2.6470   -2.6870    5.8030 C   0  0  0  0  0  0  0  0  0  0  0  0
    1.6610   -2.8580    4.9100 F   0  0  0  0  0  0  0  0  0  0  0  0
    5.1870   -6.5300    0.8030 C   0  0  0  0  0  0  0  0  0  0  0  0
    4.5000   -7.5850    1.4240 C   0  0  0  0  0  3  0  0  0  0  0  0
    3.9280   -7.4580    2.6980 C   0  0  0  0  0  3  0  0  0  0  0  0
    4.0590   -6.2230    3.3460 C   0  0  0  0  0  0  0  0  0  0  0  0
    4.7380   -5.1590    2.7600 C   0  0  0  0  0  0  0  0  0  0  0  0
    5.3070   -5.3060    1.4860 C   0  0  0  0  0  3  0  0  0  0  0  0
    4.7390   -4.0670    3.5860 N   0  0  0  0  0  0  0  0  0  0  0  0
    4.0500   -4.4110    4.6560 C   0  0  0  0  0  0  0  0  0  0  0  0
    3.6430   -5.7330    4.5710 N   0  0  0  0  0  0  0  0  0  0  0  0
    2.9510   -6.4860    5.6130 C   0  0  0  0  0  3  0  0  0  0  0  0
    3.5940   -6.3220    7.0000 C   0  0  0  0  0  2  0  0  0  0  0  0
    2.8810   -7.1750    8.0460 C   0  0  0  0  0  2  0  0  0  0  0  0
    1.3820   -6.8870    8.0810 C   0  0  0  0  0  2  0  0  0  0  0  0
    0.7410   -7.0600    6.7060 C   0  0  0  0  0  2  0  0  0  0  0  0
    1.4380   -6.2080    5.6460 C   0  0  0  0  0  2  0  0  0  0  0  0
    6.5680   -5.7890   -0.9890 O   0  0  0  0  0  1  0  0  0  0  0  0
    5.7870   -6.7050   -0.5780 C   0  0  0  0  0  0  0  0  0  0  0  0
    5.4680   -7.7530   -1.2220 O   0  0  0  0  0  0  0  0  0  0  0  0
    3.5660   -0.3140    8.4430 O   0  0  0  0  0  0  0  0  0  0  0  0
    2.9840   -0.5800    9.7350 C   0  0  0  0  0  2  0  0  0  0  0  0
    3.9490   -0.2980   10.8770 C   0  0  0  0  0  0  0  0  0  0  0  0
    4.4680    1.0090   11.0060 C   0  0  0  0  0  3  0  0  0  0  0  0
    5.3510    1.3600   12.0300 C   0  0  0  0  0  0  0  0  0  0  0  0
    5.7290    0.3850   12.9530 C   0  0  0  0  0  3  0  0  0  0  0  0
    5.2210   -0.9130   12.8500 C   0  0  0  0  0  3  0  0  0  0  0  0
    4.3390   -1.2810   11.8140 C   0  0  0  0  0  0  0  0  0  0  0  0
    6.0390    2.6810   12.0520 C   0  0  0  0  0  0  0  0  0  0  0  0
    5.6280    3.4960   12.8800 O   0  0  0  0  0  0  0  0  0  0  0  0
    7.1230    2.9350   11.2150 N   0  0  0  0  0  0  0  0  0  0  0  0
    8.0610    3.9980   11.5910 C   0  0  0  0  0  2  0  0  0  0  0  0
    8.3360    4.9510   10.4330 C   0  0  0  0  0  2  0  0  0  0  0  0
    8.7860    4.1870    9.1920 C   0  0  0  0  0  2  0  0  0  0  0  0
    7.7620    3.1180    8.8280 C   0  0  0  0  0  2  0  0  0  0  0  0
    7.4770    2.1890   10.0060 C   0  0  0  0  0  2  0  0  0  0  0  0
    3.8870   -2.6770   11.7380 C   0  0  0  0  0  0  0  0  0  0  0  0
    4.6240   -3.6280   11.0120 C   0  0  0  0  0  3  0  0  0  0  0  0
    4.2010   -4.9590   10.9420 C   0  0  0  0  0  3  0  0  0  0  0  0
    3.0380   -5.3490   11.6020 C   0  0  0  0  0  0  0  0  0  0  0  0
    2.5150   -6.9860   11.5180 Cl  0  0  0  0  0  0  0  0  0  0  0  0
    2.2970   -4.4220   12.3310 C   0  0  0  0  0  3  0  0  0  0  0  0
    2.7210   -3.0920   12.3990 C   0  0  0  0  0  3  0  0  0  0  0  0
  1  6  2  0  0  0  0
  1  2  1  0  0  0  0
  2  3  2  0  0  0  0
  4  3  1  0  0  0  0
  4 26  1  0  0  0  0
  5  4  2  0  0  0  0
  6  5  1  0  0  0  0
  7  6  1  0  0  0  0
  8  9  2  0  0  0  0
  8 13  1  0  0  0  0
  9 10  1  0  0  0  0
 10 11  2  0  0  0  0
 11 16  1  0  0  0  0
 12 11  1  0  0  0  0
 12 14  1  0  0  0  0
 13 12  2  0  0  0  0
 14 15  2  0  0  0  0
 15  1  1  0  0  0  0
 16 15  1  0  0  0  0
 16 17  1  0  0  0  0
 17 22  1  0  0  0  0
 17 18  1  0  0  0  0
 18 19  1  0  0  0  0
 19 20  1  0  0  0  0
 21 20  1  0  0  0  0
 22 21  1  0  0  0  0
 23 24  1  0  0  0  0
 24  8  1  0  0  0  0
 25 24  2  0  0  0  0
 26 27  1  0  0  0  0
 27 28  1  0  0  0  0
 28 29  2  0  0  0  0
 28 33  1  0  0  0  0
 29 30  1  0  0  0  0
 30 34  1  0  0  0  0
 30 31  2  0  0  0  0
 32 31  1  0  0  0  0
 33 32  2  0  0  0  0
 34 35  2  0  0  0  0
 36 37  1  0  0  0  0
 36 34  1  0  0  0  0
 38 37  1  0  0  0  0
 39 38  1  0  0  0  0
 40 39  1  0  0  0  0
 40 41  1  0  0  0  0
 41 36  1  0  0  0  0
 42 33  1  0  0  0  0
 42 48  1  0  0  0  0
 43 42  2  0  0  0  0
 44 43  1  0  0  0  0
 44 45  2  0  0  0  0
 45 47  1  0  0  0  0
 46 45  1  0  0  0  0
 47 48  2  0  0  0  0
M  END
>  <minimizedAffinity>
-9.31197739

$$$$

 OpenBabel09122221523D

 48 54  0  0  0  0  0  0  0  0999 V2000
    3.9410   -3.6020    5.7350 C   0  0  0  0  0  0  0  0  0  0  0  0
    5.0080   -3.3430    6.6050 C   0  0  0  0  0  3  0  0  0  0  0  0
    4.9170   -2.3240    7.5560 C   0  0  0  0  0  3  0  0  0  0  0  0
    3.7740   -1.5260    7.6020 C   0  0  0  0  0  0  0  0  0  0  0  0
    2.6710   -1.8260    6.8080 C   0  0  0  0  0  3  0  0  0  0  0  0
    2.7680   -2.8510    5.8710 C   0  0  0  0  0  0  0  0  0  0  0  0
    1.7200   -3.0670    5.0630 F   0  0  0  0  0  0  0  0  0  0  0  0
    5.1350   -6.6800    0.7500 C   0  0  0  0  0  0  0  0  0  0  0  0
    4.3990   -7.7040    1.3680 C   0  0  0  0  0  3  0  0  0  0  0  0
    3.8440   -7.5580    2.6480 C   0  0  0  0  0  3  0  0  0  0  0  0
    4.0430   -6.3360    3.3040 C   0  0  0  0  0  0  0  0  0  0  0  0
    4.7710   -5.3040    2.7210 C   0  0  0  0  0  0  0  0  0  0  0  0
    5.3210   -5.4690    1.4420 C   0  0  0  0  0  3  0  0  0  0  0  0
    4.8330   -4.2200    3.5560 N   0  0  0  0  0  0  0  0  0  0  0  0
    4.1350   -4.5370    4.6290 C   0  0  0  0  0  0  0  0  0  0  0  0
    3.6610   -5.8370    4.5360 N   0  0  0  0  0  0  0  0  0  0  0  0
    2.9390   -6.5620    5.5780 C   0  0  0  0  0  3  0  0  0  0  0  0
    3.5690   -6.3960    6.9710 C   0  0  0  0  0  2  0  0  0  0  0  0
    2.8230   -7.2210    8.0170 C   0  0  0  0  0  2  0  0  0  0  0  0
    1.3310   -6.9000    8.0290 C   0  0  0  0  0  2  0  0  0  0  0  0
    0.7040   -7.0750    6.6490 C   0  0  0  0  0  2  0  0  0  0  0  0
    1.4330   -6.2510    5.5880 C   0  0  0  0  0  2  0  0  0  0  0  0
    6.4130   -5.9220   -1.1100 O   0  0  0  0  0  1  0  0  0  0  0  0
    5.7150   -6.8730   -0.6370 C   0  0  0  0  0  0  0  0  0  0  0  0
    5.4630   -7.9730   -1.2230 O   0  0  0  0  0  0  0  0  0  0  0  0
    3.8110   -0.4190    8.4090 O   0  0  0  0  0  0  0  0  0  0  0  0
    2.8050   -0.4510    9.4420 C   0  0  0  0  0  2  0  0  0  0  0  0
    3.2150   -1.3120   10.6270 C   0  0  0  0  0  0  0  0  0  0  0  0
    2.4910   -2.5000   10.8710 C   0  0  0  0  0  3  0  0  0  0  0  0
    2.8050   -3.3560   11.9300 C   0  0  0  0  0  0  0  0  0  0  0  0
    3.8670   -3.0230   12.7700 C   0  0  0  0  0  3  0  0  0  0  0  0
    4.6030   -1.8570   12.5430 C   0  0  0  0  0  3  0  0  0  0  0  0
    4.2870   -0.9800   11.4840 C   0  0  0  0  0  0  0  0  0  0  0  0
    1.9270   -4.5020   12.2960 C   0  0  0  0  0  0  0  0  0  0  0  0
    0.9580   -4.2410   13.0110 O   0  0  0  0  0  0  0  0  0  0  0  0
    2.1740   -5.7790   11.7950 N   0  0  0  0  0  0  0  0  0  0  0  0
    1.0670   -6.7390   11.7530 C   0  0  0  0  0  2  0  0  0  0  0  0
    1.4540   -8.0840   12.3580 C   0  0  0  0  0  2  0  0  0  0  0  0
    2.7240   -8.6290   11.7110 C   0  0  0  0  0  2  0  0  0  0  0  0
    3.8490   -7.6050   11.8110 C   0  0  0  0  0  2  0  0  0  0  0  0
    3.4360   -6.2560   11.2260 C   0  0  0  0  0  2  0  0  0  0  0  0
    5.0710    0.2540   11.3380 C   0  0  0  0  0  0  0  0  0  0  0  0
    4.6600    1.4410   11.9680 C   0  0  0  0  0  3  0  0  0  0  0  0
    5.4060    2.6160   11.8350 C   0  0  0  0  0  3  0  0  0  0  0  0
    6.5720    2.6120   11.0730 C   0  0  0  0  0  0  0  0  0  0  0  0
    7.4920    4.0560   10.9090 Cl  0  0  0  0  0  0  0  0  0  0  0  0
    6.9990    1.4440   10.4460 C   0  0  0  0  0  3  0  0  0  0  0  0
    6.2510    0.2710   10.5780 C   0  0  0  0  0  3  0  0  0  0  0  0
  1  6  2  0  0  0  0
  1  2  1  0  0  0  0
  2  3  2  0  0  0  0
  3  4  1  0  0  0  0
  4 26  1  0  0  0  0
  5  4  2  0  0  0  0
  6  5  1  0  0  0  0
  7  6  1  0  0  0  0
  8  9  2  0  0  0  0
  8 13  1  0  0  0  0
  9 10  1  0  0  0  0
 10 11  2  0  0  0  0
 11 16  1  0  0  0  0
 12 11  1  0  0  0  0
 12 14  1  0  0  0  0
 13 12  2  0  0  0  0
 14 15  2  0  0  0  0
 15  1  1  0  0  0  0
 16 15  1  0  0  0  0
 16 17  1  0  0  0  0
 17 22  1  0  0  0  0
 17 18  1  0  0  0  0
 18 19  1  0  0  0  0
 19 20  1  0  0  0  0
 21 20  1  0  0  0  0
 22 21  1  0  0  0  0
 23 24  1  0  0  0  0
 24  8  1  0  0  0  0
 25 24  2  0  0  0  0
 26 27  1  0  0  0  0
 27 28  1  0  0  0  0
 28 29  2  0  0  0  0
 28 33  1  0  0  0  0
 29 30  1  0  0  0  0
 30 34  1  0  0  0  0
 30 31  2  0  0  0  0
 32 31  1  0  0  0  0
 33 32  2  0  0  0  0
 34 35  2  0  0  0  0
 36 34  1  0  0  0  0
 37 36  1  0  0  0  0
 37 38  1  0  0  0  0
 39 40  1  0  0  0  0
 39 38  1  0  0  0  0
 41 36  1  0  0  0  0
 41 40  1  0  0  0  0
 42 33  1  0  0  0  0
 42 43  1  0  0  0  0
 44 43  2  0  0  0  0
 45 44  1  0  0  0  0
 46 45  1  0  0  0  0
 47 48  1  0  0  0  0
 47 45  2  0  0  0  0
 48 42  2  0  0  0  0
M  END
>  <minimizedAffinity>
-9.20418167

$$$$

 OpenBabel09122221523D

 48 54  0  0  0  0  0  0  0  0999 V2000
    4.3180   -2.3370    6.6010 C   0  0  0  0  0  0  0  0  0  0  0  0
    5.2960   -3.1690    6.0380 C   0  0  0  0  0  3  0  0  0  0  0  0
    5.0560   -3.8280    4.8300 C   0  0  0  0  0  3  0  0  0  0  0  0
    3.8150   -3.6970    4.2080 C   0  0  0  0  0  0  0  0  0  0  0  0
    2.8670   -2.8060    4.7050 C   0  0  0  0  0  3  0  0  0  0  0  0
    3.1200   -2.1450    5.9040 C   0  0  0  0  0  0  0  0  0  0  0  0
    2.1580   -1.3550    6.4030 F   0  0  0  0  0  0  0  0  0  0  0  0
    5.6650    0.4680   11.7060 C   0  0  0  0  0  0  0  0  0  0  0  0
    5.0340   -0.6270   12.3160 C   0  0  0  0  0  3  0  0  0  0  0  0
    4.4660   -1.6720   11.5730 C   0  0  0  0  0  3  0  0  0  0  0  0
    4.5510   -1.5950   10.1770 C   0  0  0  0  0  0  0  0  0  0  0  0
    5.1650   -0.5200    9.5410 C   0  0  0  0  0  0  0  0  0  0  0  0
    5.7260    0.5180   10.3010 C   0  0  0  0  0  3  0  0  0  0  0  0
    5.1160   -0.6650    8.1800 N   0  0  0  0  0  0  0  0  0  0  0  0
    4.5170   -1.8180    7.9520 C   0  0  0  0  0  0  0  0  0  0  0  0
    4.1210   -2.4070    9.1440 N   0  0  0  0  0  0  0  0  0  0  0  0
    3.3400   -3.6340    9.2750 C   0  0  0  0  0  3  0  0  0  0  0  0
    4.1500   -4.8000    9.8640 C   0  0  0  0  0  2  0  0  0  0  0  0
    3.3170   -6.0780    9.9240 C   0  0  0  0  0  2  0  0  0  0  0  0
    2.0070   -5.8620   10.6770 C   0  0  0  0  0  2  0  0  0  0  0  0
    1.1980   -4.7110   10.0850 C   0  0  0  0  0  2  0  0  0  0  0  0
    2.0140   -3.4200   10.0240 C   0  0  0  0  0  2  0  0  0  0  0  0
    5.5570    2.6070   12.7460 O   0  0  0  0  0  0  0  0  0  0  0  0
    6.2730    1.5760   12.5440 C   0  0  0  0  0  0  0  0  0  0  0  0
    7.4510    1.3910   12.9840 O   0  0  0  0  0  1  0  0  0  0  0  0
    3.5560   -4.5140    3.1390 O   0  0  0  0  0  0  0  0  0  0  0  0
    4.6840   -4.6350    2.2480 C   0  0  0  0  0  2  0  0  0  0  0  0
    5.2750   -6.0360    2.2450 C   0  0  0  0  0  0  0  0  0  0  0  0
    4.4870   -7.0950    2.7480 C   0  0  0  0  0  3  0  0  0  0  0  0
    4.9460   -8.4150    2.7740 C   0  0  0  0  0  0  0  0  0  0  0  0
    6.2230   -8.6910    2.2870 C   0  0  0  0  0  3  0  0  0  0  0  0
    7.0180   -7.6600    1.7780 C   0  0  0  0  0  3  0  0  0  0  0  0
    6.5690   -6.3240    1.7570 C   0  0  0  0  0  0  0  0  0  0  0  0
    4.1910   -9.4920    3.4730 C   0  0  0  0  0  0  0  0  0  0  0  0
    4.6220   -9.8320    4.5760 O   0  0  0  0  0  0  0  0  0  0  0  0
    3.0300  -10.0270    2.9170 N   0  0  0  0  0  0  0  0  0  0  0  0
    2.0700  -10.6860    3.8070 C   0  0  0  0  0  2  0  0  0  0  0  0
    1.6510  -12.0550    3.2820 C   0  0  0  0  0  2  0  0  0  0  0  0
    1.1450  -11.9580    1.8460 C   0  0  0  0  0  2  0  0  0  0  0  0
    2.1950  -11.2950    0.9590 C   0  0  0  0  0  2  0  0  0  0  0  0
    2.6230   -9.9380    1.5140 C   0  0  0  0  0  2  0  0  0  0  0  0
    7.4800   -5.2850    1.2550 C   0  0  0  0  0  0  0  0  0  0  0  0
    7.9080   -4.2430    2.0950 C   0  0  0  0  0  3  0  0  0  0  0  0
    8.7780   -3.2560    1.6230 C   0  0  0  0  0  3  0  0  0  0  0  0
    9.2310   -3.3070    0.3070 C   0  0  0  0  0  0  0  0  0  0  0  0
   10.3020   -2.0940   -0.2770 Cl  0  0  0  0  0  0  0  0  0  0  0  0
    8.8220   -4.3340   -0.5400 C   0  0  0  0  0  3  0  0  0  0  0  0
    7.9510   -5.3200   -0.0660 C   0  0  0  0  0  3  0  0  0  0  0  0
  1 15  1  0  0  0  0
  2  1  1  0  0  0  0
  3  2  2  0  0  0  0
  4  5  2  0  0  0  0
  4  3  1  0  0  0  0
  5  6  1  0  0  0  0
  6  7  1  0  0  0  0
  6  1  2  0  0  0  0
  8  9  1  0  0  0  0
  8 24  1  0  0  0  0
 10  9  2  0  0  0  0
 11 10  1  0  0  0  0
 12 11  2  0  0  0  0
 12 13  1  0  0  0  0
 13  8  2  0  0  0  0
 14 12  1  0  0  0  0
 15 14  2  0  0  0  0
 15 16  1  0  0  0  0
 16 17  1  0  0  0  0
 16 11  1  0  0  0  0
 17 18  1  0  0  0  0
 17 22  1  0  0  0  0
 18 19  1  0  0  0  0
 19 20  1  0  0  0  0
 21 20  1  0  0  0  0
 22 21  1  0  0  0  0
 24 23  2  0  0  0  0
 24 25  1  0  0  0  0
 26  4  1  0  0  0  0
 27 26  1  0  0  0  0
 28 27  1  0  0  0  0
 28 29  1  0  0  0  0
 29 30  2  0  0  0  0
 30 34  1  0  0  0  0
 31 30  1  0  0  0  0
 32 31  2  0  0  0  0
 33 32  1  0  0  0  0
 33 28  2  0  0  0  0
 34 35  2  0  0  0  0
 36 34  1  0  0  0  0
 36 37  1  0  0  0  0
 38 37  1  0  0  0  0
 39 38  1  0  0  0  0
 40 41  1  0  0  0  0
 40 39  1  0  0  0  0
 41 36  1  0  0  0  0
 42 33  1  0  0  0  0
 42 43  1  0  0  0  0
 44 43  2  0  0  0  0
 45 44  1  0  0  0  0
 46 45  1  0  0  0  0
 47 48  1  0  0  0  0
 47 45  2  0  0  0  0
 48 42  2  0  0  0  0
M  END
>  <minimizedAffinity>
-9.16269302

$$$$

 OpenBabel09122221523D

 48 54  0  0  0  0  0  0  0  0999 V2000
    3.6720   -5.2250    4.6460 C   0  0  0  0  0  0  0  0  0  0  0  0
    2.3570   -4.7990    4.8790 C   0  0  0  0  0  3  0  0  0  0  0  0
    2.1020   -3.5100    5.3510 C   0  0  0  0  0  3  0  0  0  0  0  0
    3.1680   -2.6600    5.6430 C   0  0  0  0  0  0  0  0  0  0  0  0
    4.4730   -3.0330    5.3330 C   0  0  0  0  0  3  0  0  0  0  0  0
    4.7160   -4.3170    4.8520 C   0  0  0  0  0  0  0  0  0  0  0  0
    5.9900   -4.6790    4.6390 F   0  0  0  0  0  0  0  0  0  0  0  0
    4.3630  -11.1530    4.2870 C   0  0  0  0  0  0  0  0  0  0  0  0
    4.9970  -10.8680    3.0670 C   0  0  0  0  0  3  0  0  0  0  0  0
    5.1310   -9.5600    2.5800 C   0  0  0  0  0  3  0  0  0  0  0  0
    4.6080   -8.5220    3.3630 C   0  0  0  0  0  0  0  0  0  0  0  0
    3.9690   -8.7710    4.5730 C   0  0  0  0  0  0  0  0  0  0  0  0
    3.8420  -10.0860    5.0430 C   0  0  0  0  0  3  0  0  0  0  0  0
    3.5380   -7.6030    5.1460 N   0  0  0  0  0  0  0  0  0  0  0  0
    3.9220   -6.6320    4.3410 C   0  0  0  0  0  0  0  0  0  0  0  0
    4.5500   -7.1480    3.2170 N   0  0  0  0  0  0  0  0  0  0  0  0
    5.0120   -6.3790    2.0650 C   0  0  0  0  0  3  0  0  0  0  0  0
    6.5340   -6.4550    1.8650 C   0  0  0  0  0  2  0  0  0  0  0  0
    6.9820   -5.5870    0.6910 C   0  0  0  0  0  2  0  0  0  0  0  0
    6.2250   -5.9350   -0.5880 C   0  0  0  0  0  2  0  0  0  0  0  0
    4.7130   -5.8500   -0.3920 C   0  0  0  0  0  2  0  0  0  0  0  0
    4.2450   -6.7180    0.7750 C   0  0  0  0  0  2  0  0  0  0  0  0
    3.6290  -13.4030    4.0310 O   0  0  0  0  0  0  0  0  0  0  0  0
    4.2430  -12.5800    4.7820 C   0  0  0  0  0  0  0  0  0  0  0  0
    4.7680  -12.8510    5.9070 O   0  0  0  0  0  1  0  0  0  0  0  0
    2.8790   -1.4860    6.2890 O   0  0  0  0  0  0  0  0  0  0  0  0
    2.1100   -1.6900    7.4910 C   0  0  0  0  0  2  0  0  0  0  0  0
    2.9600   -1.5980    8.7490 C   0  0  0  0  0  0  0  0  0  0  0  0
    3.4300   -0.3260    9.1460 C   0  0  0  0  0  3  0  0  0  0  0  0
    4.2070   -0.1470   10.2930 C   0  0  0  0  0  0  0  0  0  0  0  0
    4.5270   -1.2610   11.0680 C   0  0  0  0  0  3  0  0  0  0  0  0
    4.0660   -2.5280   10.6990 C   0  0  0  0  0  3  0  0  0  0  0  0
    3.2900   -2.7220    9.5380 C   0  0  0  0  0  0  0  0  0  0  0  0
    4.8550    1.1580   10.6030 C   0  0  0  0  0  0  0  0  0  0  0  0
    4.1460    2.0000   11.1570 O   0  0  0  0  0  0  0  0  0  0  0  0
    6.2040    1.3690   10.3260 N   0  0  0  0  0  0  0  0  0  0  0  0
    6.9120    2.4190   11.0660 C   0  0  0  0  0  2  0  0  0  0  0  0
    7.6970    3.3400   10.1390 C   0  0  0  0  0  2  0  0  0  0  0  0
    8.6240    2.5400    9.2290 C   0  0  0  0  0  2  0  0  0  0  0  0
    7.8320    1.4870    8.4620 C   0  0  0  0  0  2  0  0  0  0  0  0
    7.0300    0.5900    9.4030 C   0  0  0  0  0  2  0  0  0  0  0  0
    2.8850   -4.0890    9.1840 C   0  0  0  0  0  0  0  0  0  0  0  0
    3.7710   -4.9450    8.5060 C   0  0  0  0  0  3  0  0  0  0  0  0
    3.3910   -6.2480    8.1730 C   0  0  0  0  0  3  0  0  0  0  0  0
    2.1220   -6.7080    8.5190 C   0  0  0  0  0  0  0  0  0  0  0  0
    1.6530   -8.3120    8.1110 Cl  0  0  0  0  0  0  0  0  0  0  0  0
    1.2330   -5.8770    9.1960 C   0  0  0  0  0  3  0  0  0  0  0  0
    1.6140   -4.5740    9.5270 C   0  0  0  0  0  3  0  0  0  0  0  0
  1  6  2  0  0  0  0
  1  2  1  0  0  0  0
  2  3  2  0  0  0  0
  3  4  1  0  0  0  0
  4 26  1  0  0  0  0
  5  4  2  0  0  0  0
  6  5  1  0  0  0  0
  7  6  1  0  0  0  0
  8 24  1  0  0  0  0
  8 13  1  0  0  0  0
  9  8  2  0  0  0  0
 10  9  1  0  0  0  0
 10 11  2  0  0  0  0
 11 12  1  0  0  0  0
 12 13  2  0  0  0  0
 12 14  1  0  0  0  0
 15  1  1  0  0  0  0
 15 14  2  0  0  0  0
 16 11  1  0  0  0  0
 16 15  1  0  0  0  0
 17 16  1  0  0  0  0
 18 17  1  0  0  0  0
 19 18  1  0  0  0  0
 20 21  1  0  0  0  0
 20 19  1  0  0  0  0
 21 22  1  0  0  0  0
 22 17  1  0  0  0  0
 23 24  2  0  0  0  0
 24 25  1  0  0  0  0
 26 27  1  0  0  0  0
 27 28  1  0  0  0  0
 28 29  2  0  0  0  0
 28 33  1  0  0  0  0
 29 30  1  0  0  0  0
 30 34  1  0  0  0  0
 30 31  2  0  0  0  0
 32 31  1  0  0  0  0
 33 32  2  0  0  0  0
 34 35  2  0  0  0  0
 36 34  1  0  0  0  0
 36 37  1  0  0  0  0
 38 37  1  0  0  0  0
 39 38  1  0  0  0  0
 40 39  1  0  0  0  0
 40 41  1  0  0  0  0
 41 36  1  0  0  0  0
 42 48  1  0  0  0  0
 42 33  1  0  0  0  0
 43 42  2  0  0  0  0
 44 43  1  0  0  0  0
 44 45  2  0  0  0  0
 45 47  1  0  0  0  0
 46 45  1  0  0  0  0
 47 48  2  0  0  0  0
M  END
>  <minimizedAffinity>
-9.02371216

$$$$

 OpenBabel09122221523D

 48 54  0  0  0  0  0  0  0  0999 V2000
    3.3920   -7.6910    4.9620 C   0  0  0  0  0  0  0  0  0  0  0  0
    2.3290   -6.8240    5.2520 C   0  0  0  0  0  3  0  0  0  0  0  0
    1.4830   -7.0760    6.3340 C   0  0  0  0  0  3  0  0  0  0  0  0
    1.6660   -8.2290    7.0980 C   0  0  0  0  0  0  0  0  0  0  0  0
    2.7680   -9.0520    6.8800 C   0  0  0  0  0  3  0  0  0  0  0  0
    3.6130   -8.7850    5.8050 C   0  0  0  0  0  0  0  0  0  0  0  0
    4.6190   -9.6390    5.5690 F   0  0  0  0  0  0  0  0  0  0  0  0
    6.6870   -6.0970    0.2350 C   0  0  0  0  0  0  0  0  0  0  0  0
    6.1810   -7.2730   -0.3430 C   0  0  0  0  0  3  0  0  0  0  0  0
    5.3100   -8.1300    0.3450 C   0  0  0  0  0  3  0  0  0  0  0  0
    4.9460   -7.7710    1.6500 C   0  0  0  0  0  0  0  0  0  0  0  0
    5.4330   -6.6160    2.2520 C   0  0  0  0  0  0  0  0  0  0  0  0
    6.3060   -5.7720    1.5500 C   0  0  0  0  0  3  0  0  0  0  0  0
    4.9430   -6.4850    3.5250 N   0  0  0  0  0  0  0  0  0  0  0  0
    4.1370   -7.5120    3.7180 C   0  0  0  0  0  0  0  0  0  0  0  0
    4.1340   -8.3460    2.6110 N   0  0  0  0  0  0  0  0  0  0  0  0
    3.4430   -9.6280    2.5060 C   0  0  0  0  0  3  0  0  0  0  0  0
    2.5130   -9.7100    1.2850 C   0  0  0  0  0  2  0  0  0  0  0  0
    1.7620  -11.0390    1.2480 C   0  0  0  0  0  2  0  0  0  0  0  0
    2.7180  -12.2270    1.3120 C   0  0  0  0  0  2  0  0  0  0  0  0
    3.6350  -12.1520    2.5300 C   0  0  0  0  0  2  0  0  0  0  0  0
    4.4000  -10.8300    2.5800 C   0  0  0  0  0  2  0  0  0  0  0  0
    8.7310   -4.9010    0.0040 O   0  0  0  0  0  1  0  0  0  0  0  0
    7.6220   -5.1940   -0.5440 C   0  0  0  0  0  0  0  0  0  0  0  0
    7.2300   -4.7980   -1.6870 O   0  0  0  0  0  0  0  0  0  0  0  0
    0.6970   -8.5370    8.0160 O   0  0  0  0  0  0  0  0  0  0  0  0
    1.2440   -8.8860    9.3040 C   0  0  0  0  0  2  0  0  0  0  0  0
    1.9960   -7.7320    9.9490 C   0  0  0  0  0  0  0  0  0  0  0  0
    1.5050   -6.4220    9.7520 C   0  0  0  0  0  3  0  0  0  0  0  0
    2.1260   -5.3050   10.3160 C   0  0  0  0  0  0  0  0  0  0  0  0
    3.2660   -5.4930   11.0980 C   0  0  0  0  0  3  0  0  0  0  0  0
    3.7640   -6.7810   11.3130 C   0  0  0  0  0  3  0  0  0  0  0  0
    3.1520   -7.9150   10.7400 C   0  0  0  0  0  0  0  0  0  0  0  0
    1.7190   -3.9180    9.9540 C   0  0  0  0  0  0  0  0  0  0  0  0
    0.8060   -3.4260   10.6200 O   0  0  0  0  0  0  0  0  0  0  0  0
    2.3900   -3.2150    8.9550 N   0  0  0  0  0  0  0  0  0  0  0  0
    2.3160   -1.7510    8.9620 C   0  0  0  0  0  2  0  0  0  0  0  0
    1.9430   -1.1910    7.5950 C   0  0  0  0  0  2  0  0  0  0  0  0
    2.8770   -1.7240    6.5130 C   0  0  0  0  0  2  0  0  0  0  0  0
    2.8900   -3.2480    6.5290 C   0  0  0  0  0  2  0  0  0  0  0  0
    3.2390   -3.7930    7.9120 C   0  0  0  0  0  2  0  0  0  0  0  0
    3.7620   -9.2320   10.9660 C   0  0  0  0  0  0  0  0  0  0  0  0
    4.1590  -10.0320    9.8810 C   0  0  0  0  0  3  0  0  0  0  0  0
    4.7450  -11.2840   10.0930 C   0  0  0  0  0  3  0  0  0  0  0  0
    4.9420  -11.7430   11.3930 C   0  0  0  0  0  0  0  0  0  0  0  0
    5.6640  -13.2830   11.6560 Cl  0  0  0  0  0  0  0  0  0  0  0  0
    4.5610  -10.9620   12.4810 C   0  0  0  0  0  3  0  0  0  0  0  0
    3.9750   -9.7120   12.2680 C   0  0  0  0  0  3  0  0  0  0  0  0
  1  2  2  0  0  0  0
  1  6  1  0  0  0  0
  2  3  1  0  0  0  0
  3  4  2  0  0  0  0
  4 26  1  0  0  0  0
  5  4  1  0  0  0  0
  6  5  2  0  0  0  0
  7  6  1  0  0  0  0
  8 13  1  0  0  0  0
  9  8  2  0  0  0  0
  9 10  1  0  0  0  0
 10 11  2  0  0  0  0
 11 12  1  0  0  0  0
 11 16  1  0  0  0  0
 12 14  1  0  0  0  0
 13 12  2  0  0  0  0
 14 15  2  0  0  0  0
 15  1  1  0  0  0  0
 16 15  1  0  0  0  0
 17 22  1  0  0  0  0
 17 16  1  0  0  0  0
 18 17  1  0  0  0  0
 19 18  1  0  0  0  0
 19 20  1  0  0  0  0
 20 21  1  0  0  0  0
 21 22  1  0  0  0  0
 24 23  1  0  0  0  0
 24  8  1  0  0  0  0
 25 24  2  0  0  0  0
 26 27  1  0  0  0  0
 27 28  1  0  0  0  0
 28 33  1  0  0  0  0
 29 28  2  0  0  0  0
 29 30  1  0  0  0  0
 30 31  2  0  0  0  0
 31 32  1  0  0  0  0
 33 42  1  0  0  0  0
 33 32  2  0  0  0  0
 34 30  1  0  0  0  0
 34 35  2  0  0  0  0
 36 37  1  0  0  0  0
 36 34  1  0  0  0  0
 38 37  1  0  0  0  0
 39 40  1  0  0  0  0
 39 38  1  0  0  0  0
 40 41  1  0  0  0  0
 41 36  1  0  0  0  0
 42 48  1  0  0  0  0
 43 44  1  0  0  0  0
 43 42  2  0  0  0  0
 44 45  2  0  0  0  0
 45 46  1  0  0  0  0
 45 47  1  0  0  0  0
 48 47  2  0  0  0  0
M  END
>  <minimizedAffinity>
-8.94973183

$$$$

 OpenBabel09122221523D

 48 54  0  0  0  0  0  0  0  0999 V2000
    3.7410   -5.2640    6.3940 C   0  0  0  0  0  0  0  0  0  0  0  0
    2.8100   -5.2150    5.3480 C   0  0  0  0  0  3  0  0  0  0  0  0
    1.8800   -6.2430    5.1780 C   0  0  0  0  0  3  0  0  0  0  0  0
    1.9150   -7.3510    6.0240 C   0  0  0  0  0  0  0  0  0  0  0  0
    2.7730   -7.3740    7.1210 C   0  0  0  0  0  3  0  0  0  0  0  0
    3.6880   -6.3390    7.2880 C   0  0  0  0  0  0  0  0  0  0  0  0
    4.5570   -6.4260    8.3060 F   0  0  0  0  0  0  0  0  0  0  0  0
    8.5810   -1.7910    5.8840 C   0  0  0  0  0  0  0  0  0  0  0  0
    8.0310   -1.0980    6.9750 C   0  0  0  0  0  3  0  0  0  0  0  0
    6.8100   -1.4670    7.5570 C   0  0  0  0  0  3  0  0  0  0  0  0
    6.1420   -2.5720    7.0140 C   0  0  0  0  0  0  0  0  0  0  0  0
    6.6570   -3.2770    5.9310 C   0  0  0  0  0  0  0  0  0  0  0  0
    7.8790   -2.8910    5.3590 C   0  0  0  0  0  3  0  0  0  0  0  0
    5.8240   -4.3050    5.5770 N   0  0  0  0  0  0  0  0  0  0  0  0
    4.8210   -4.2800    6.4330 C   0  0  0  0  0  0  0  0  0  0  0  0
    4.9530   -3.2140    7.3100 N   0  0  0  0  0  0  0  0  0  0  0  0
    3.9820   -2.8120    8.3240 C   0  0  0  0  0  3  0  0  0  0  0  0
    4.5300   -2.9160    9.7550 C   0  0  0  0  0  2  0  0  0  0  0  0
    3.4640   -2.5500   10.7850 C   0  0  0  0  0  2  0  0  0  0  0  0
    2.8630   -1.1750   10.5080 C   0  0  0  0  0  2  0  0  0  0  0  0
    2.3080   -1.0750    9.0890 C   0  0  0  0  0  2  0  0  0  0  0  0
    3.3640   -1.4320    8.0440 C   0  0  0  0  0  2  0  0  0  0  0  0
   10.8760   -2.1820    5.3860 O   0  0  0  0  0  1  0  0  0  0  0  0
    9.9060   -1.3640    5.2860 C   0  0  0  0  0  0  0  0  0  0  0  0
    9.9510   -0.2240    4.7260 O   0  0  0  0  0  0  0  0  0  0  0  0
    1.1220   -8.4190    5.6970 O   0  0  0  0  0  0  0  0  0  0  0  0
    1.5930   -9.1230    4.5300 C   0  0  0  0  0  2  0  0  0  0  0  0
    2.8480   -9.9360    4.8070 C   0  0  0  0  0  0  0  0  0  0  0  0
    2.8040  -10.9020    5.8360 C   0  0  0  0  0  3  0  0  0  0  0  0
    3.9060  -11.7010    6.1520 C   0  0  0  0  0  0  0  0  0  0  0  0
    5.0850  -11.5350    5.4270 C   0  0  0  0  0  3  0  0  0  0  0  0
    5.1490  -10.5910    4.3990 C   0  0  0  0  0  3  0  0  0  0  0  0
    4.0470   -9.7720    4.0790 C   0  0  0  0  0  0  0  0  0  0  0  0
    3.9150  -12.5810    7.3540 C   0  0  0  0  0  0  0  0  0  0  0  0
    3.5830  -13.7540    7.1730 O   0  0  0  0  0  0  0  0  0  0  0  0
    4.3370  -12.0970    8.5910 N   0  0  0  0  0  0  0  0  0  0  0  0
    4.8020  -13.0590    9.5950 C   0  0  0  0  0  2  0  0  0  0  0  0
    4.1440  -12.8320   10.9510 C   0  0  0  0  0  2  0  0  0  0  0  0
    4.3140  -11.3850   11.4050 C   0  0  0  0  0  2  0  0  0  0  0  0
    3.7850  -10.4310   10.3400 C   0  0  0  0  0  2  0  0  0  0  0  0
    4.4340  -10.6900    8.9810 C   0  0  0  0  0  2  0  0  0  0  0  0
    4.2040   -8.7640    3.0210 C   0  0  0  0  0  0  0  0  0  0  0  0
    4.7560   -7.5040    3.3100 C   0  0  0  0  0  3  0  0  0  0  0  0
    4.9130   -6.5450    2.3050 C   0  0  0  0  0  3  0  0  0  0  0  0
    4.5210   -6.8400    1.0010 C   0  0  0  0  0  0  0  0  0  0  0  0
    4.7130   -5.6610   -0.2370 Cl  0  0  0  0  0  0  0  0  0  0  0  0
    3.9760   -8.0850    0.6940 C   0  0  0  0  0  3  0  0  0  0  0  0
    3.8200   -9.0420    1.7000 C   0  0  0  0  0  3  0  0  0  0  0  0
  1 15  1  0  0  0  0
  1  6  1  0  0  0  0
  2  1  2  0  0  0  0
  3  2  1  0  0  0  0
  3  4  2  0  0  0  0
  4  5  1  0  0  0  0
  5  6  2  0  0  0  0
  6  7  1  0  0  0  0
  8  9  1  0  0  0  0
  9 10  2  0  0  0  0
 11 16  1  0  0  0  0
 11 10  1  0  0  0  0
 12 11  2  0  0  0  0
 13  8  2  0  0  0  0
 13 12  1  0  0  0  0
 14 12  1  0  0  0  0
 14 15  2  0  0  0  0
 15 16  1  0  0  0  0
 16 17  1  0  0  0  0
 17 18  1  0  0  0  0
 18 19  1  0  0  0  0
 20 19  1  0  0  0  0
 21 20  1  0  0  0  0
 22 17  1  0  0  0  0
 22 21  1  0  0  0  0
 24 23  1  0  0  0  0
 24  8  1  0  0  0  0
 25 24  2  0  0  0  0
 26  4  1  0  0  0  0
 27 28  1  0  0  0  0
 27 26  1  0  0  0  0
 28 29  1  0  0  0  0
 29 30  2  0  0  0  0
 30 34  1  0  0  0  0
 31 30  1  0  0  0  0
 32 31  2  0  0  0  0
 33 32  1  0  0  0  0
 33 28  2  0  0  0  0
 34 36  1  0  0  0  0
 35 34  2  0  0  0  0
 36 41  1  0  0  0  0
 36 37  1  0  0  0  0
 37 38  1  0  0  0  0
 38 39  1  0  0  0  0
 40 39  1  0  0  0  0
 41 40  1  0  0  0  0
 42 43  1  0  0  0  0
 42 33  1  0  0  0  0
 44 43  2  0  0  0  0
 45 44  1  0  0  0  0
 46 45  1  0  0  0  0
 47 45  2  0  0  0  0
 47 48  1  0  0  0  0
 48 42  2  0  0  0  0
M  END
>  <minimizedAffinity>
-8.81238747

$$$$

 OpenBabel09122221523D

 48 54  0  0  0  0  0  0  0  0999 V2000
    5.3520   -4.1050    4.0820 C   0  0  0  0  0  0  0  0  0  0  0  0
    4.0250   -4.3530    3.7060 C   0  0  0  0  0  3  0  0  0  0  0  0
    3.0310   -4.5090    4.6750 C   0  0  0  0  0  3  0  0  0  0  0  0
    3.3740   -4.4690    6.0260 C   0  0  0  0  0  0  0  0  0  0  0  0
    4.6680   -4.1350    6.4160 C   0  0  0  0  0  3  0  0  0  0  0  0
    5.6490   -3.9710    5.4420 C   0  0  0  0  0  0  0  0  0  0  0  0
    6.9050   -3.7300    5.8470 F   0  0  0  0  0  0  0  0  0  0  0  0
    9.9830   -3.4670    0.3540 C   0  0  0  0  0  0  0  0  0  0  0  0
    9.3640   -4.4970   -0.3740 C   0  0  0  0  0  3  0  0  0  0  0  0
    8.1710   -5.1000    0.0500 C   0  0  0  0  0  3  0  0  0  0  0  0
    7.5980   -4.6340    1.2410 C   0  0  0  0  0  0  0  0  0  0  0  0
    8.1890   -3.6200    1.9880 C   0  0  0  0  0  0  0  0  0  0  0  0
    9.3840   -3.0300    1.5500 C   0  0  0  0  0  3  0  0  0  0  0  0
    7.4510   -3.3470    3.1090 N   0  0  0  0  0  0  0  0  0  0  0  0
    6.3990   -4.1400    3.0620 C   0  0  0  0  0  0  0  0  0  0  0  0
    6.4630   -4.9730    1.9550 N   0  0  0  0  0  0  0  0  0  0  0  0
    5.5290   -6.0490    1.6360 C   0  0  0  0  0  3  0  0  0  0  0  0
    5.0860   -6.0430    0.1640 C   0  0  0  0  0  2  0  0  0  0  0  0
    4.0630   -7.1420   -0.1100 C   0  0  0  0  0  2  0  0  0  0  0  0
    4.5790   -8.5130    0.3190 C   0  0  0  0  0  2  0  0  0  0  0  0
    5.0090   -8.5220    1.7840 C   0  0  0  0  0  2  0  0  0  0  0  0
    6.0390   -7.4320    2.0770 C   0  0  0  0  0  2  0  0  0  0  0  0
   12.3580   -3.3800    0.2280 O   0  0  0  0  0  1  0  0  0  0  0  0
   11.2690   -2.8370   -0.1410 C   0  0  0  0  0  0  0  0  0  0  0  0
   11.1650   -1.8140   -0.8880 O   0  0  0  0  0  0  0  0  0  0  0  0
    2.4090   -4.8250    6.9320 O   0  0  0  0  0  0  0  0  0  0  0  0
    1.7080   -6.0270    6.5520 C   0  0  0  0  0  2  0  0  0  0  0  0
    2.4600   -7.2880    6.9480 C   0  0  0  0  0  0  0  0  0  0  0  0
    3.1270   -8.0130    5.9360 C   0  0  0  0  0  3  0  0  0  0  0  0
    3.8510   -9.1770    6.2110 C   0  0  0  0  0  0  0  0  0  0  0  0
    3.9130   -9.6330    7.5270 C   0  0  0  0  0  3  0  0  0  0  0  0
    3.2680   -8.9270    8.5460 C   0  0  0  0  0  3  0  0  0  0  0  0
    2.5250   -7.7590    8.2780 C   0  0  0  0  0  0  0  0  0  0  0  0
    4.3920  -10.0370    5.1210 C   0  0  0  0  0  0  0  0  0  0  0  0
    5.6190  -10.1180    5.0500 O   0  0  0  0  0  0  0  0  0  0  0  0
    3.5370  -10.7470    4.2810 N   0  0  0  0  0  0  0  0  0  0  0  0
    4.0630  -11.9240    3.5830 C   0  0  0  0  0  2  0  0  0  0  0  0
    3.7390  -11.8970    2.0940 C   0  0  0  0  0  2  0  0  0  0  0  0
    2.2430  -11.7030    1.8640 C   0  0  0  0  0  2  0  0  0  0  0  0
    1.7560  -10.4500    2.5840 C   0  0  0  0  0  2  0  0  0  0  0  0
    2.1130  -10.4800    4.0690 C   0  0  0  0  0  2  0  0  0  0  0  0
    1.8290   -7.0990    9.3910 C   0  0  0  0  0  0  0  0  0  0  0  0
    2.4930   -6.1510   10.1880 C   0  0  0  0  0  3  0  0  0  0  0  0
    1.8330   -5.5170   11.2450 C   0  0  0  0  0  3  0  0  0  0  0  0
    0.5010   -5.8240   11.5100 C   0  0  0  0  0  0  0  0  0  0  0  0
   -0.3150   -5.0440   12.8100 Cl  0  0  0  0  0  0  0  0  0  0  0  0
   -0.1760   -6.7560   10.7280 C   0  0  0  0  0  3  0  0  0  0  0  0
    0.4860   -7.3900    9.6730 C   0  0  0  0  0  3  0  0  0  0  0  0
  1  6  1  0  0  0  0
  2  1  2  0  0  0  0
  2  3  1  0  0  0  0
  3  4  2  0  0  0  0
  4  5  1  0  0  0  0
  4 26  1  0  0  0  0
  6  7  1  0  0  0  0
  6  5  2  0  0  0  0
  8 13  1  0  0  0  0
  9 10  1  0  0  0  0
  9  8  2  0  0  0  0
 10 11  2  0  0  0  0
 11 16  1  0  0  0  0
 11 12  1  0  0  0  0
 12 14  1  0  0  0  0
 13 12  2  0  0  0  0
 15 14  2  0  0  0  0
 15  1  1  0  0  0  0
 16 15  1  0  0  0  0
 17 16  1  0  0  0  0
 17 22  1  0  0  0  0
 18 17  1  0  0  0  0
 19 18  1  0  0  0  0
 19 20  1  0  0  0  0
 20 21  1  0  0  0  0
 21 22  1  0  0  0  0
 24 23  1  0  0  0  0
 24  8  1  0  0  0  0
 25 24  2  0  0  0  0
 27 26  1  0  0  0  0
 27 28  1  0  0  0  0
 28 33  1  0  0  0  0
 29 30  1  0  0  0  0
 29 28  2  0  0  0  0
 30 31  2  0  0  0  0
 31 32  1  0  0  0  0
 33 32  2  0  0  0  0
 33 42  1  0  0  0  0
 34 30  1  0  0  0  0
 35 34  2  0  0  0  0
 36 34  1  0  0  0  0
 37 36  1  0  0  0  0
 38 37  1  0  0  0  0
 39 38  1  0  0  0  0
 39 40  1  0  0  0  0
 40 41  1  0  0  0  0
 41 36  1  0  0  0  0
 42 48  2  0  0  0  0
 42 43  1  0  0  0  0
 43 44  2  0  0  0  0
 44 45  1  0  0  0  0
 45 46  1  0  0  0  0
 47 45  2  0  0  0  0
 48 47  1  0  0  0  0
M  END
>  <minimizedAffinity>
-8.70120811

$$$$

 OpenBabel09122221523D

 48 54  0  0  0  0  0  0  0  0999 V2000
    2.9230   -7.2260    4.6470 C   0  0  0  0  0  0  0  0  0  0  0  0
    2.8590   -8.4510    5.3250 C   0  0  0  0  0  3  0  0  0  0  0  0
    2.0090   -8.6110    6.4210 C   0  0  0  0  0  3  0  0  0  0  0  0
    1.2590   -7.5270    6.8760 C   0  0  0  0  0  0  0  0  0  0  0  0
    1.2440   -6.3320    6.1620 C   0  0  0  0  0  3  0  0  0  0  0  0
    2.0860   -6.1860    5.0630 C   0  0  0  0  0  0  0  0  0  0  0  0
    2.1110   -4.9980    4.4420 F   0  0  0  0  0  0  0  0  0  0  0  0
    7.2460   -5.5340    0.8790 C   0  0  0  0  0  0  0  0  0  0  0  0
    6.9690   -6.7490    0.2310 C   0  0  0  0  0  3  0  0  0  0  0  0
    5.9950   -7.6410    0.6990 C   0  0  0  0  0  3  0  0  0  0  0  0
    5.2860   -7.2800    1.8520 C   0  0  0  0  0  0  0  0  0  0  0  0
    5.5400   -6.0860    2.5210 C   0  0  0  0  0  0  0  0  0  0  0  0
    6.5210   -5.2070    2.0390 C   0  0  0  0  0  3  0  0  0  0  0  0
    4.7310   -5.9600    3.6190 N   0  0  0  0  0  0  0  0  0  0  0  0
    3.9560   -7.0280    3.6320 C   0  0  0  0  0  0  0  0  0  0  0  0
    4.2830   -7.8820    2.5900 N   0  0  0  0  0  0  0  0  0  0  0  0
    3.7100   -9.2040    2.3530 C   0  0  0  0  0  3  0  0  0  0  0  0
    2.9400   -9.2950    1.0260 C   0  0  0  0  0  2  0  0  0  0  0  0
    2.3030  -10.6710    0.8490 C   0  0  0  0  0  2  0  0  0  0  0  0
    3.3330  -11.7900    0.9820 C   0  0  0  0  0  2  0  0  0  0  0  0
    4.0910  -11.7060    2.3050 C   0  0  0  0  0  2  0  0  0  0  0  0
    4.7410  -10.3360    2.4970 C   0  0  0  0  0  2  0  0  0  0  0  0
    8.7410   -3.6990    1.1300 O   0  0  0  0  0  1  0  0  0  0  0  0
    8.3040   -4.5930    0.3380 C   0  0  0  0  0  0  0  0  0  0  0  0
    8.6780   -4.7680   -0.8640 O   0  0  0  0  0  0  0  0  0  0  0  0
    0.5990   -7.6730    8.0670 O   0  0  0  0  0  0  0  0  0  0  0  0
    0.8710   -6.5970    8.9880 C   0  0  0  0  0  2  0  0  0  0  0  0
    2.2490   -6.7080    9.6220 C   0  0  0  0  0  0  0  0  0  0  0  0
    2.5660   -7.8900   10.3280 C   0  0  0  0  0  3  0  0  0  0  0  0
    3.8110   -8.0820   10.9320 C   0  0  0  0  0  0  0  0  0  0  0  0
    4.7680   -7.0730   10.8330 C   0  0  0  0  0  3  0  0  0  0  0  0
    4.4790   -5.8980   10.1330 C   0  0  0  0  0  3  0  0  0  0  0  0
    3.2220   -5.6890    9.5290 C   0  0  0  0  0  0  0  0  0  0  0  0
    4.0740   -9.2420   11.8290 C   0  0  0  0  0  0  0  0  0  0  0  0
    4.1740   -8.9900   13.0310 O   0  0  0  0  0  0  0  0  0  0  0  0
    4.1400  -10.5370   11.3210 N   0  0  0  0  0  0  0  0  0  0  0  0
    3.9010  -11.6590   12.2350 C   0  0  0  0  0  2  0  0  0  0  0  0
    4.9840  -12.7260   12.1240 C   0  0  0  0  0  2  0  0  0  0  0  0
    5.1590  -13.1790   10.6780 C   0  0  0  0  0  2  0  0  0  0  0  0
    5.4370  -11.9790    9.7780 C   0  0  0  0  0  2  0  0  0  0  0  0
    4.3570  -10.9080    9.9210 C   0  0  0  0  0  2  0  0  0  0  0  0
    2.9720   -4.4080    8.8540 C   0  0  0  0  0  0  0  0  0  0  0  0
    3.5130   -4.1520    7.5830 C   0  0  0  0  0  3  0  0  0  0  0  0
    3.2730   -2.9360    6.9350 C   0  0  0  0  0  3  0  0  0  0  0  0
    2.4850   -1.9680    7.5540 C   0  0  0  0  0  0  0  0  0  0  0  0
    2.1880   -0.4710    6.7590 Cl  0  0  0  0  0  0  0  0  0  0  0  0
    1.9360   -2.2050    8.8120 C   0  0  0  0  0  3  0  0  0  0  0  0
    2.1780   -3.4200    9.4580 C   0  0  0  0  0  3  0  0  0  0  0  0
  1  6  2  0  0  0  0
  1  2  1  0  0  0  0
  2  3  2  0  0  0  0
  3  4  1  0  0  0  0
  4 26  1  0  0  0  0
  5  4  2  0  0  0  0
  6  5  1  0  0  0  0
  7  6  1  0  0  0  0
  8 13  1  0  0  0  0
  9 10  1  0  0  0  0
  9  8  2  0  0  0  0
 10 11  2  0  0  0  0
 11 12  1  0  0  0  0
 11 16  1  0  0  0  0
 12 14  1  0  0  0  0
 13 12  2  0  0  0  0
 14 15  2  0  0  0  0
 15  1  1  0  0  0  0
 16 15  1  0  0  0  0
 17 22  1  0  0  0  0
 17 16  1  0  0  0  0
 18 17  1  0  0  0  0
 19 20  1  0  0  0  0
 19 18  1  0  0  0  0
 20 21  1  0  0  0  0
 21 22  1  0  0  0  0
 24  8  1  0  0  0  0
 24 23  1  0  0  0  0
 25 24  2  0  0  0  0
 26 27  1  0  0  0  0
 27 28  1  0  0  0  0
 28 29  1  0  0  0  0
 29 30  2  0  0  0  0
 30 34  1  0  0  0  0
 31 30  1  0  0  0  0
 32 31  2  0  0  0  0
 33 28  2  0  0  0  0
 33 32  1  0  0  0  0
 34 35  2  0  0  0  0
 36 34  1  0  0  0  0
 36 37  1  0  0  0  0
 38 37  1  0  0  0  0
 39 38  1  0  0  0  0
 40 41  1  0  0  0  0
 40 39  1  0  0  0  0
 41 36  1  0  0  0  0
 42 48  1  0  0  0  0
 42 33  1  0  0  0  0
 43 42  2  0  0  0  0
 44 45  2  0  0  0  0
 44 43  1  0  0  0  0
 45 47  1  0  0  0  0
 46 45  1  0  0  0  0
 47 48  2  0  0  0  0
M  END
>  <minimizedAffinity>
-8.67413425

$$$$
