REMARK  Name = 
REMARK  5 active torsions:
REMARK  status: ('A' for Active; 'I' for Inactive)
REMARK    1  A    between atoms: C_2  and  C_4
REMARK    2  A    between atoms: C_4  and  C_6
REMARK    3  A    between atoms: C_7  and  C_9
REMARK    4  A    between atoms: N_13  and  C_14
REMARK    5  A    between atoms: C_14  and  C_15
REMARK                            x       y       z     vdW  Elec       q    Type
REMARK                         _______ _______ _______ _____ _____    ______ ____
ROOT
ATOM      1  C   UNL     1       6.687   0.303  -0.043  0.00  0.00    +0.034 A 
ATOM      2  C   UNL     1       7.309   1.457  -0.492  0.00  0.00    +0.026 A 
ATOM      3  C   UNL     1       8.561   1.102  -1.044  0.00  0.00    +0.020 A 
ATOM      4  C   UNL     1       8.682  -0.265  -0.931  0.00  0.00    +0.086 A 
ATOM      5  N   UNL     1       7.527  -0.758  -0.356  0.00  0.00    -0.343 N 
ENDROOT
BRANCH   1   7
ATOM      6  C   UNL     1       4.349   0.273  -0.217  0.00  0.00    +0.046 C 
ATOM      7  C   UNL     1       5.415   0.084   0.592  0.00  0.00    -0.080 C 
ATOM      8  O   UNL     1       5.573  -0.249   1.798  0.00  0.00    -0.872 OA
BRANCH   6   9
ATOM      9  C   UNL     1       2.878   0.121   0.074  0.00  0.00    +0.201 C 
ATOM     10  O   UNL     1       2.383  -0.216   1.148  0.00  0.00    -0.286 OA
BRANCH   9  12
ATOM     11  O   UNL     1       0.617   0.340  -0.838  0.00  0.00    -0.541 OA
ATOM     12  C   UNL     1       1.870   0.394  -1.088  0.00  0.00    +0.111 C 
ATOM     13  O   UNL     1       2.366   0.658  -2.240  0.00  0.00    -0.541 OA
ENDBRANCH   9  12
ENDBRANCH   6   9
ENDBRANCH   1   7
BRANCH   5  14
ATOM     14  C   UNL     1       7.239  -2.158  -0.039  0.00  0.00    +0.157 C 
BRANCH  14  15
ATOM     15  C   UNL     1       7.932  -3.150  -0.955  0.00  0.00    -0.025 A 
ATOM     16  C   UNL     1       9.019  -3.910  -0.492  0.00  0.00    +0.005 A 
ATOM     17  C   UNL     1       9.658  -4.823  -1.334  0.00  0.00    +0.003 A 
ATOM     18  C   UNL     1       9.215  -4.984  -2.646  0.00  0.00    +0.038 A 
ATOM     19  C   UNL     1       8.139  -4.232  -3.106  0.00  0.00    +0.124 A 
ATOM     20  F   UNL     1       7.723  -4.394  -4.370  0.00  0.00    -0.205 F 
ATOM     21  C   UNL     1       7.494  -3.321  -2.277  0.00  0.00    +0.043 A 
ENDBRANCH  14  15
ENDBRANCH   5  14
TORSDOF 5
