
 OpenBabel09122222393D

 21 22  0  0  0  0  0  0  0  0999 V2000
    6.0650   -6.7800    1.4230 C   0  0  0  0  0  0  0  0  0  0  0  0
    6.3140   -8.0790    1.8350 C   0  0  0  0  0  3  0  0  0  0  0  0
    5.4520   -8.3760    2.9150 C   0  0  0  0  0  3  0  0  0  0  0  0
    4.6830   -7.2560    3.1420 C   0  0  0  0  0  3  0  0  0  0  0  0
    5.0280   -6.2960    2.2110 N   0  0  0  0  0  0  0  0  0  0  0  0
    7.7930   -5.3560    0.7260 C   0  0  0  0  0  2  0  0  0  0  0  0
    6.6440   -5.9770    0.3790 C   0  0  0  0  0  0  0  0  0  0  0  0
    5.9370   -6.0290   -0.6640 O   0  0  0  0  0  0  0  0  0  0  0  0
    8.6900   -4.4610   -0.0890 C   0  0  0  0  0  0  0  0  0  0  0  0
    8.9870   -4.6170   -1.2720 O   0  0  0  0  0  0  0  0  0  0  0  0
    9.0260   -2.9920    1.8400 O   0  0  0  0  0  1  0  0  0  0  0  0
    9.3300   -3.2240    0.6190 C   0  0  0  0  0  0  0  0  0  0  0  0
   10.1300   -2.5030   -0.0750 O   0  0  0  0  0  0  0  0  0  0  0  0
    4.4680   -4.9480    2.0990 C   0  0  0  0  0  2  0  0  0  0  0  0
    4.4340   -4.1870    3.4120 C   0  0  0  0  0  0  0  0  0  0  0  0
    5.5530   -4.1780    4.2610 C   0  0  0  0  0  3  0  0  0  0  0  0
    5.5220   -3.4790    5.4700 C   0  0  0  0  0  3  0  0  0  0  0  0
    4.3730   -2.7820    5.8390 C   0  0  0  0  0  3  0  0  0  0  0  0
    3.2640   -2.7900    4.9990 C   0  0  0  0  0  0  0  0  0  0  0  0
    2.1630   -2.1180    5.3660 F   0  0  0  0  0  0  0  0  0  0  0  0
    3.2820   -3.4820    3.7930 C   0  0  0  0  0  3  0  0  0  0  0  0
  1  2  2  0  0  0  0
  1  5  1  0  0  0  0
  2  3  1  0  0  0  0
  3  4  2  0  0  0  0
  5  4  1  0  0  0  0
  7  6  1  0  0  0  0
  7  1  1  0  0  0  0
  8  7  2  0  0  0  0
  9 12  1  0  0  0  0
  9  6  1  0  0  0  0
 10  9  2  0  0  0  0
 12 11  1  0  0  0  0
 13 12  2  0  0  0  0
 14  5  1  0  0  0  0
 14 15  1  0  0  0  0
 15 21  2  0  0  0  0
 15 16  1  0  0  0  0
 16 17  2  0  0  0  0
 17 18  1  0  0  0  0
 19 20  1  0  0  0  0
 19 18  2  0  0  0  0
 21 19  1  0  0  0  0
M  END
>  <minimizedAffinity>
-7.18139601

$$$$
