
 OpenBabel09122222393D

 21 22  0  0  0  0  0  0  0  0999 V2000
    5.7870   -7.3000    0.8440 C   0  0  0  0  0  0  0  0  0  0  0  0
    5.2710   -7.6780   -0.3850 C   0  0  0  0  0  3  0  0  0  0  0  0
    3.9790   -8.2140   -0.1800 C   0  0  0  0  0  3  0  0  0  0  0  0
    3.7220   -8.1470    1.1720 C   0  0  0  0  0  3  0  0  0  0  0  0
    4.8060   -7.5580    1.7920 N   0  0  0  0  0  0  0  0  0  0  0  0
    7.1110   -5.3720    1.0090 C   0  0  0  0  0  2  0  0  0  0  0  0
    7.0440   -6.7060    1.2140 C   0  0  0  0  0  0  0  0  0  0  0  0
    7.8320   -7.5810    1.6660 O   0  0  0  0  0  0  0  0  0  0  0  0
    8.2360   -4.4080    1.2880 C   0  0  0  0  0  0  0  0  0  0  0  0
    8.4780   -3.8710    2.3670 O   0  0  0  0  0  0  0  0  0  0  0  0
   10.1560   -3.2280    0.3340 O   0  0  0  0  0  1  0  0  0  0  0  0
    9.1840   -4.0270    0.1060 C   0  0  0  0  0  0  0  0  0  0  0  0
    8.9250   -4.5430   -1.0380 O   0  0  0  0  0  0  0  0  0  0  0  0
    4.9600   -7.3060    3.2260 C   0  0  0  0  0  2  0  0  0  0  0  0
    4.0500   -6.2150    3.7600 C   0  0  0  0  0  0  0  0  0  0  0  0
    3.0160   -6.5240    4.6590 C   0  0  0  0  0  3  0  0  0  0  0  0
    2.1780   -5.5210    5.1510 C   0  0  0  0  0  3  0  0  0  0  0  0
    2.3670   -4.2000    4.7470 C   0  0  0  0  0  3  0  0  0  0  0  0
    3.3900   -3.8930    3.8560 C   0  0  0  0  0  0  0  0  0  0  0  0
    3.5610   -2.6190    3.4740 F   0  0  0  0  0  0  0  0  0  0  0  0
    4.2320   -4.8820    3.3610 C   0  0  0  0  0  3  0  0  0  0  0  0
  1  7  1  0  0  0  0
  1  5  1  0  0  0  0
  2  3  1  0  0  0  0
  2  1  2  0  0  0  0
  3  4  2  0  0  0  0
  4  5  1  0  0  0  0
  5 14  1  0  0  0  0
  6  7  1  0  0  0  0
  6  9  1  0  0  0  0
  7  8  2  0  0  0  0
  9 10  2  0  0  0  0
 12 11  1  0  0  0  0
 12  9  1  0  0  0  0
 13 12  2  0  0  0  0
 14 15  1  0  0  0  0
 15 16  1  0  0  0  0
 16 17  2  0  0  0  0
 18 17  1  0  0  0  0
 19 18  2  0  0  0  0
 20 19  1  0  0  0  0
 21 15  2  0  0  0  0
 21 19  1  0  0  0  0
M  END
>  <minimizedAffinity>
-7.13775158

$$$$
