
 OpenBabel09122222393D

 21 22  0  0  0  0  0  0  0  0999 V2000
   11.6960   -2.8310   -0.4510 C   0  0  0  0  0  0  0  0  0  0  0  0
   12.9870   -3.3000   -0.6340 C   0  0  0  0  0  3  0  0  0  0  0  0
   13.6050   -2.5200   -1.6380 C   0  0  0  0  0  3  0  0  0  0  0  0
   12.6850   -1.5820   -2.0480 C   0  0  0  0  0  3  0  0  0  0  0  0
   11.5350   -1.7450   -1.3020 N   0  0  0  0  0  0  0  0  0  0  0  0
    9.6730   -3.9830   -0.1640 C   0  0  0  0  0  2  0  0  0  0  0  0
   10.6400   -3.2490    0.4320 C   0  0  0  0  0  0  0  0  0  0  0  0
   10.8510   -2.8330    1.6030 O   0  0  0  0  0  0  0  0  0  0  0  0
    8.4360   -4.6090    0.4260 C   0  0  0  0  0  0  0  0  0  0  0  0
    8.1640   -4.6890    1.6230 O   0  0  0  0  0  0  0  0  0  0  0  0
    6.5810   -6.1160   -0.1050 O   0  0  0  0  0  1  0  0  0  0  0  0
    7.3950   -5.2380   -0.5550 C   0  0  0  0  0  0  0  0  0  0  0  0
    7.4210   -4.8330   -1.7710 O   0  0  0  0  0  0  0  0  0  0  0  0
   10.2990   -0.9680   -1.4210 C   0  0  0  0  0  2  0  0  0  0  0  0
   10.2660    0.2700   -0.5450 C   0  0  0  0  0  0  0  0  0  0  0  0
    9.5900    0.2550    0.6870 C   0  0  0  0  0  3  0  0  0  0  0  0
    9.5570    1.3940    1.4940 C   0  0  0  0  0  3  0  0  0  0  0  0
   10.2010    2.5580    1.0770 C   0  0  0  0  0  3  0  0  0  0  0  0
   10.8710    2.5750   -0.1420 C   0  0  0  0  0  0  0  0  0  0  0  0
   11.4850    3.7000   -0.5330 F   0  0  0  0  0  0  0  0  0  0  0  0
   10.9110    1.4470   -0.9540 C   0  0  0  0  0  3  0  0  0  0  0  0
  1  7  1  0  0  0  0
  2  1  2  0  0  0  0
  3  2  1  0  0  0  0
  4  3  2  0  0  0  0
  4  5  1  0  0  0  0
  5  1  1  0  0  0  0
  6  9  1  0  0  0  0
  6  7  1  0  0  0  0
  7  8  2  0  0  0  0
  9 10  2  0  0  0  0
 12 11  1  0  0  0  0
 12  9  1  0  0  0  0
 13 12  2  0  0  0  0
 14  5  1  0  0  0  0
 14 15  1  0  0  0  0
 15 16  1  0  0  0  0
 16 17  2  0  0  0  0
 18 17  1  0  0  0  0
 19 18  2  0  0  0  0
 20 19  1  0  0  0  0
 21 15  2  0  0  0  0
 21 19  1  0  0  0  0
M  END
>  <minimizedAffinity>
-6.91806555

$$$$
