REMARK  Name = 
REMARK  7 active torsions:
REMARK  status: ('A' for Active; 'I' for Inactive)
REMARK    1  A    between atoms: C_2  and  CA_4
REMARK    2  A    between atoms: CA_4  and  N_19
REMARK    3  A    between atoms: C_5  and  C_6
REMARK    4  A    between atoms: C_9  and  C_10
REMARK    5  A    between atoms: C_13  and  C_14
REMARK    6  A    between atoms: C_14  and  O_15
REMARK    7  A    between atoms: C_20  and  C_22
REMARK                            x       y       z     vdW  Elec       q    Type
REMARK                         _______ _______ _______ _____ _____    ______ ____
ROOT
ATOM      1  CA  UNL     1       3.259   0.738  -1.409  0.00  0.00    +0.060 C 
ATOM      2  C   UNL     1       2.729   0.815  -2.647  0.00  0.00    +0.071 C 
ENDROOT
BRANCH   2   3
ATOM      3  C   UNL     1       3.324   0.313  -3.838  0.00  0.00    +0.130 A 
ATOM      4  C   UNL     1       4.051  -0.848  -4.073  0.00  0.00    +0.050 A 
ATOM      5  C   UNL     1       4.393  -0.883  -5.446  0.00  0.00    +0.050 A 
ATOM      6  C   UNL     1       3.850   0.249  -6.011  0.00  0.00    +0.136 A 
ATOM      7  O   UNL     1       3.192   0.957  -5.049  0.00  0.00    -0.455 OA
BRANCH   6   8
ATOM      8  C   UNL     1       3.826   0.814  -7.358  0.00  0.00    +0.017 A 
ATOM      9  C   UNL     1       3.275   2.080  -7.605  0.00  0.00    +0.012 A 
ATOM     10  C   UNL     1       3.259   2.623  -8.895  0.00  0.00    +0.006 A 
ATOM     11  C   UNL     1       3.803   1.912  -9.969  0.00  0.00    -0.022 A 
ATOM     12  C   UNL     1       4.342   0.642  -9.734  0.00  0.00    +0.006 A 
ATOM     13  C   UNL     1       4.358   0.103  -8.443  0.00  0.00    +0.012 A 
BRANCH  11  14
ATOM     14  C   UNL     1       3.761   2.475 -11.363  0.00  0.00    +0.191 C 
BRANCH  14  15
ATOM     15  O   UNL     1       2.640   1.966 -12.074  0.00  0.00    -0.390 OA
ATOM     16  H   UNL     1       2.052   1.540 -11.426  0.00  0.00    +0.210 HD
ENDBRANCH  14  15
ENDBRANCH  11  14
ENDBRANCH   6   8
ENDBRANCH   2   3
BRANCH   1  17
ATOM     17  N   UNL     1       4.542   0.264  -1.164  0.00  0.00    -0.280 N 
ATOM     18  C   UNL     1       5.206   0.014   0.016  0.00  0.00    +0.248 C 
ATOM     19  O   UNL     1       6.431  -0.146  -0.004  0.00  0.00    -0.270 OA
ATOM     20  H   UNL     1       5.156   0.196  -1.963  0.00  0.00    +0.155 HD
BRANCH  18  21
ATOM     21  C   UNL     1       4.498  -0.189   1.299  0.00  0.00    +0.037 A 
ATOM     22  C   UNL     1       5.042   0.378   2.458  0.00  0.00    +0.013 A 
ATOM     23  C   UNL     1       4.444   0.144   3.698  0.00  0.00    +0.001 A 
ATOM     24  C   UNL     1       3.314  -0.670   3.783  0.00  0.00    +0.000 A 
ATOM     25  C   UNL     1       2.785  -1.256   2.632  0.00  0.00    +0.001 A 
ATOM     26  C   UNL     1       3.384  -1.029   1.391  0.00  0.00    +0.013 A 
ENDBRANCH  18  21
ENDBRANCH   1  17
BRANCH   1  28
ATOM     27  O   UNL     1       1.176   0.848  -0.245  0.00  0.00    -0.543 OA
ATOM     28  C   UNL     1       2.325   1.374  -0.331  0.00  0.00    +0.086 C 
ATOM     29  OXT UNL     1       2.824   2.352   0.294  0.00  0.00    -0.543 OA
ENDBRANCH   1  28
TORSDOF 7
