
 OpenBabel09132204463D

 29 31  0  0  0  0  0  0  0  0999 V2000
    6.3400   -3.4140    6.1340 C   0  0  0  0  0  0  0  0  0  0  0  0
    7.2450   -2.5720    6.6730 C   0  0  0  0  0  2  0  0  0  0  0  0
    8.2860   -1.9070    5.9650 C   0  0  0  0  0  0  0  0  0  0  0  0
    9.4220   -1.2510    6.4230 C   0  0  0  0  0  3  0  0  0  0  0  0
   10.1440   -0.7860    5.2980 C   0  0  0  0  0  3  0  0  0  0  0  0
    9.4360   -1.1870    4.1880 C   0  0  0  0  0  0  0  0  0  0  0  0
    8.3300   -1.8770    4.5890 O   0  0  0  0  0  0  0  0  0  0  0  0
    9.6190   -1.0430    2.7450 C   0  0  0  0  0  0  0  0  0  0  0  0
    9.4530    0.1970    2.1120 C   0  0  0  0  0  3  0  0  0  0  0  0
    9.6360    0.3350    0.7320 C   0  0  0  0  0  3  0  0  0  0  0  0
    9.9970   -0.7680   -0.0480 C   0  0  0  0  0  0  0  0  0  0  0  0
   10.1510   -2.0120    0.5730 C   0  0  0  0  0  3  0  0  0  0  0  0
    9.9690   -2.1460    1.9540 C   0  0  0  0  0  3  0  0  0  0  0  0
   10.1640   -0.6340   -1.5370 C   0  0  0  0  0  2  0  0  0  0  0  0
   10.0900    0.7310   -1.9280 O   0  0  0  0  0  0  0  0  0  0  0  0
   10.1590    1.2700   -1.1200 H   0  0  0  0  0  0  0  0  0  0  0  0
    6.4000   -3.8460    4.8150 N   0  0  0  0  0  4  0  0  0  0  0  0
    5.4390   -4.3930    3.9950 C   0  0  0  0  0  0  0  0  0  0  0  0
    5.7850   -4.9510    2.9480 O   0  0  0  0  0  0  0  0  0  0  0  0
    7.3190   -3.8890    4.3980 H   0  0  0  0  0  0  0  0  0  0  0  0
    3.9900   -4.2390    4.2560 C   0  0  0  0  0  0  0  0  0  0  0  0
    3.4330   -2.9570    4.1880 C   0  0  0  0  0  3  0  0  0  0  0  0
    2.0870   -2.7620    4.5020 C   0  0  0  0  0  3  0  0  0  0  0  0
    1.3020   -3.8440    4.9010 C   0  0  0  0  0  3  0  0  0  0  0  0
    1.8620   -5.1190    4.9940 C   0  0  0  0  0  3  0  0  0  0  0  0
    3.2100   -5.3160    4.6860 C   0  0  0  0  0  3  0  0  0  0  0  0
    5.4690   -5.1670    7.5030 O   0  0  0  0  0  0  0  0  0  0  0  0
    5.3280   -3.9460    7.1980 C   0  0  0  0  0  0  0  0  0  0  0  0
    4.4780   -3.0980    7.5940 O   0  0  0  0  0  1  0  0  0  0  0  0
  1  2  1  0  0  0  0
  1 28  1  0  0  0  0
  3  4  2  0  0  0  0
  3  2  1  0  0  0  0
  5  4  1  0  0  0  0
  6  7  1  0  0  0  0
  6  5  2  0  0  0  0
  7  3  1  0  0  0  0
  8  6  1  0  0  0  0
  9  8  1  0  0  0  0
 10  9  2  0  0  0  0
 11 12  2  0  0  0  0
 11 10  1  0  0  0  0
 12 13  1  0  0  0  0
 13  8  2  0  0  0  0
 14 11  1  0  0  0  0
 15 14  1  0  0  0  0
 15 16  1  0  0  0  0
 17  1  2  0  0  0  0
 18 21  1  0  0  0  0
 18 17  1  0  0  0  0
 19 18  2  0  0  0  0
 20 17  1  0  0  0  0
 21 26  1  0  0  0  0
 22 21  2  0  0  0  0
 22 23  1  0  0  0  0
 23 24  2  0  0  0  0
 24 25  1  0  0  0  0
 26 25  2  0  0  0  0
 28 27  2  0  0  0  0
 28 29  1  0  0  0  0
M  END
>  <minimizedAffinity>
-5.76544523

$$$$
