
 OpenBabel09092210413D

 43 48  0  0  0  0  0  0  0  0999 V2000
   11.6540    1.2160    2.5530 C   0  0  0  0  0  1  0  0  0  0  0  0
   12.0370    1.3390    3.9790 N   0  0  0  0  0  0  0  0  0  0  0  0
   13.5060    1.2180    4.1870 C   0  0  0  0  0  2  0  0  0  0  0  0
   13.9670   -0.2490    4.1400 C   0  0  0  0  0  2  0  0  0  0  0  0
   13.4470   -1.1020    5.3070 C   0  0  0  0  0  2  0  0  0  0  0  0
   12.0790   -1.7500    5.0550 C   0  0  0  0  0  2  0  0  0  0  0  0
   12.1360   -3.0920    4.3220 C   0  0  0  0  0  2  0  0  0  0  0  0
   12.5210   -4.1530    5.2360 N   0  0  0  0  0  0  0  0  0  0  0  0
   11.7480   -5.0890    5.8480 C   0  0  0  0  0  0  0  0  0  0  0  0
   12.2230   -5.8150    6.7180 O   0  0  0  0  0  0  0  0  0  0  0  0
   10.3460   -5.2720    5.4240 C   0  0  0  0  0  0  0  0  0  0  0  0
   10.1290   -6.2580    4.5340 C   0  0  0  0  0  3  0  0  0  0  0  0
    8.7860   -6.7850    4.2280 C   0  0  0  0  0  0  0  0  0  0  0  0
    8.7060   -8.1750    4.0140 C   0  0  0  0  0  3  0  0  0  0  0  0
    7.4790   -8.8030    3.7970 C   0  0  0  0  0  3  0  0  0  0  0  0
    6.3160   -8.0460    3.8040 C   0  0  0  0  0  0  0  0  0  0  0  0
    4.7950   -8.8130    3.5610 Cl  0  0  0  0  0  0  0  0  0  0  0  0
    6.3730   -6.6680    4.0000 C   0  0  0  0  0  3  0  0  0  0  0  0
    7.6040   -6.0110    4.1770 C   0  0  0  0  0  0  0  0  0  0  0  0
    7.6060   -4.5370    4.2990 C   0  0  0  0  0  0  0  0  0  0  0  0
    6.9620   -3.5680    3.5210 C   0  0  0  0  0  0  0  0  0  0  0  0
    7.3100   -2.2850    4.0680 C   0  0  0  0  0  0  0  0  0  0  0  0
    6.9850   -0.9510    3.7290 C   0  0  0  0  0  3  0  0  0  0  0  0
    7.6240    0.1190    4.3660 C   0  0  0  0  0  3  0  0  0  0  0  0
    8.5530   -0.1230    5.3770 C   0  0  0  0  0  0  0  0  0  0  0  0
    8.7730   -1.4340    5.8300 C   0  0  0  0  0  3  0  0  0  0  0  0
    8.1880   -2.5010    5.1290 C   0  0  0  0  0  0  0  0  0  0  0  0
    8.3620   -3.8640    5.2460 N   0  0  0  0  0  0  0  0  0  0  0  0
    9.2880   -4.5260    6.1690 C   0  0  0  0  0  2  0  0  0  0  0  0
    9.5020    0.9120    5.8820 C   0  0  0  0  0  0  0  0  0  0  0  0
   10.0670    0.7580    6.9520 O   0  0  0  0  0  0  0  0  0  0  0  0
    9.7760    1.9520    4.9780 N   0  0  0  0  0  0  0  0  0  0  0  0
   11.2850    2.6260    4.8130 S   0  0  0  0  0  0  0  0  0  0  0  0
   11.9040    2.8070    6.0990 O   0  0  0  0  0  0  0  0  0  0  0  0
   11.1450    3.7140    3.8730 O   0  0  0  0  0  0  0  0  0  0  0  0
   13.4790   -4.1630    5.5660 H   0  0  0  0  0  0  0  0  0  0  0  0
    9.2670    2.0340    4.1110 H   0  0  0  0  0  0  0  0  0  0  0  0
    6.1100   -3.8150    2.2880 C   0  0  0  0  0  3  0  0  0  0  0  0
    4.6550   -3.3560    2.4800 C   0  0  0  0  0  2  0  0  0  0  0  0
    3.8080   -3.6460    1.2420 C   0  0  0  0  0  2  0  0  0  0  0  0
    4.4240   -3.0420   -0.0170 C   0  0  0  0  0  2  0  0  0  0  0  0
    5.8640   -3.5080   -0.2170 C   0  0  0  0  0  2  0  0  0  0  0  0
    6.7250   -3.2160    1.0110 C   0  0  0  0  0  2  0  0  0  0  0  0
  1  2  1  0  0  0  0
  2  3  1  0  0  0  0
  2 33  1  0  0  0  0
  4  3  1  0  0  0  0
  4  5  1  0  0  0  0
  6  5  1  0  0  0  0
  7  6  1  0  0  0  0
  7  8  1  0  0  0  0
  8 36  1  0  0  0  0
  8  9  1  0  0  0  0
  9 10  2  0  0  0  0
 11  9  1  0  0  0  0
 11 29  1  0  0  0  0
 12 11  2  0  0  0  0
 13 12  1  0  0  0  0
 14 13  2  0  0  0  0
 15 16  2  0  0  0  0
 15 14  1  0  0  0  0
 16 18  1  0  0  0  0
 17 16  1  0  0  0  0
 18 19  2  0  0  0  0
 19 13  1  0  0  0  0
 19 20  1  0  0  0  0
 20 28  1  0  0  0  0
 21 22  1  0  0  0  0
 21 20  2  0  0  0  0
 22 27  1  0  0  0  0
 23 22  2  0  0  0  0
 23 24  1  0  0  0  0
 24 25  2  0  0  0  0
 25 26  1  0  0  0  0
 25 30  1  0  0  0  0
 27 28  1  0  0  0  0
 27 26  2  0  0  0  0
 28 29  1  0  0  0  0
 30 31  2  0  0  0  0
 32 30  1  0  0  0  0
 33 32  1  0  0  0  0
 33 34  2  0  0  0  0
 35 33  2  0  0  0  0
 37 32  1  0  0  0  0
 38 39  1  0  0  0  0
 38 21  1  0  0  0  0
 40 39  1  0  0  0  0
 41 40  1  0  0  0  0
 42 41  1  0  0  0  0
 42 43  1  0  0  0  0
 43 38  1  0  0  0  0
M  END
>  <minimizedAffinity>
-4.82757616

$$$$
