
 OpenBabel09092210413D

 43 48  0  0  0  0  0  0  0  0999 V2000
    4.0930   -3.1630    4.3730 C   0  0  0  0  0  1  0  0  0  0  0  0
    4.4840   -1.8550    3.7960 N   0  0  0  0  0  0  0  0  0  0  0  0
    3.5890   -0.7500    4.2340 C   0  0  0  0  0  2  0  0  0  0  0  0
    2.2610   -0.7520    3.4550 C   0  0  0  0  0  2  0  0  0  0  0  0
    2.4140   -0.4160    1.9640 C   0  0  0  0  0  2  0  0  0  0  0  0
    2.6920   -1.6300    1.0680 C   0  0  0  0  0  2  0  0  0  0  0  0
    1.4400   -2.3730    0.5980 C   0  0  0  0  0  2  0  0  0  0  0  0
    0.8050   -1.6560   -0.4940 N   0  0  0  0  0  0  0  0  0  0  0  0
    0.8430   -1.9040   -1.8290 C   0  0  0  0  0  0  0  0  0  0  0  0
    0.3730   -1.0960   -2.6260 O   0  0  0  0  0  0  0  0  0  0  0  0
    1.4030   -3.1790   -2.3210 C   0  0  0  0  0  0  0  0  0  0  0  0
    0.5080   -4.1510   -2.5750 C   0  0  0  0  0  3  0  0  0  0  0  0
    0.8350   -5.3650   -3.3460 C   0  0  0  0  0  0  0  0  0  0  0  0
   -0.1740   -5.8330   -4.2110 C   0  0  0  0  0  3  0  0  0  0  0  0
    0.0450   -6.9250   -5.0510 C   0  0  0  0  0  3  0  0  0  0  0  0
    1.2830   -7.5530   -5.0440 C   0  0  0  0  0  0  0  0  0  0  0  0
    1.5730   -8.8850   -6.0930 Cl  0  0  0  0  0  0  0  0  0  0  0  0
    2.2900   -7.1150   -4.1870 C   0  0  0  0  0  3  0  0  0  0  0  0
    2.0740   -6.0440   -3.3010 C   0  0  0  0  0  0  0  0  0  0  0  0
    3.1540   -5.6780   -2.3600 C   0  0  0  0  0  0  0  0  0  0  0  0
    3.9320   -6.4870   -1.5230 C   0  0  0  0  0  0  0  0  0  0  0  0
    4.8280   -5.6190   -0.8080 C   0  0  0  0  0  0  0  0  0  0  0  0
    5.8350   -5.8310    0.1620 C   0  0  0  0  0  3  0  0  0  0  0  0
    6.4400   -4.7440    0.8060 C   0  0  0  0  0  3  0  0  0  0  0  0
    6.0870   -3.4420    0.4570 C   0  0  0  0  0  0  0  0  0  0  0  0
    5.2040   -3.2140   -0.6090 C   0  0  0  0  0  3  0  0  0  0  0  0
    4.5440   -4.3100   -1.1900 C   0  0  0  0  0  0  0  0  0  0  0  0
    3.5250   -4.3650   -2.1180 N   0  0  0  0  0  0  0  0  0  0  0  0
    2.8470   -3.2060   -2.7040 C   0  0  0  0  0  2  0  0  0  0  0  0
    6.4300   -2.2510    1.2890 C   0  0  0  0  0  0  0  0  0  0  0  0
    6.3820   -1.1310    0.8080 O   0  0  0  0  0  0  0  0  0  0  0  0
    6.6560   -2.5250    2.6480 N   0  0  0  0  0  0  0  0  0  0  0  0
    6.1550   -1.5120    3.8660 S   0  0  0  0  0  0  0  0  0  0  0  0
    6.3910   -0.1380    3.5130 O   0  0  0  0  0  0  0  0  0  0  0  0
    6.6510   -2.0810    5.0980 O   0  0  0  0  0  0  0  0  0  0  0  0
    0.3410   -0.7810   -0.2740 H   0  0  0  0  0  0  0  0  0  0  0  0
    6.6960   -3.4750    2.9860 H   0  0  0  0  0  0  0  0  0  0  0  0
    3.8110   -7.9910   -1.3480 C   0  0  0  0  0  3  0  0  0  0  0  0
    5.0950   -8.7330   -1.7540 C   0  0  0  0  0  2  0  0  0  0  0  0
    4.9390  -10.2450   -1.6040 C   0  0  0  0  0  2  0  0  0  0  0  0
    4.4920  -10.6290   -0.1960 C   0  0  0  0  0  2  0  0  0  0  0  0
    3.2100   -9.9040    0.2030 C   0  0  0  0  0  2  0  0  0  0  0  0
    3.3540   -8.3900    0.0670 C   0  0  0  0  0  2  0  0  0  0  0  0
  2 33  1  0  0  0  0
  2  3  1  0  0  0  0
  2  1  1  0  0  0  0
  4  3  1  0  0  0  0
  5  4  1  0  0  0  0
  6  5  1  0  0  0  0
  7  6  1  0  0  0  0
  8 36  1  0  0  0  0
  8  7  1  0  0  0  0
  9  8  1  0  0  0  0
 10  9  2  0  0  0  0
 11  9  1  0  0  0  0
 12 11  2  0  0  0  0
 13 19  1  0  0  0  0
 13 12  1  0  0  0  0
 14 13  2  0  0  0  0
 15 16  2  0  0  0  0
 15 14  1  0  0  0  0
 16 18  1  0  0  0  0
 17 16  1  0  0  0  0
 18 19  2  0  0  0  0
 19 20  1  0  0  0  0
 20 28  1  0  0  0  0
 20 21  2  0  0  0  0
 21 38  1  0  0  0  0
 21 22  1  0  0  0  0
 22 23  1  0  0  0  0
 23 24  2  0  0  0  0
 25 24  1  0  0  0  0
 25 30  1  0  0  0  0
 26 25  2  0  0  0  0
 27 22  2  0  0  0  0
 27 26  1  0  0  0  0
 28 27  1  0  0  0  0
 29 11  1  0  0  0  0
 29 28  1  0  0  0  0
 30 32  1  0  0  0  0
 31 30  2  0  0  0  0
 32 37  1  0  0  0  0
 32 33  1  0  0  0  0
 33 35  2  0  0  0  0
 34 33  2  0  0  0  0
 38 43  1  0  0  0  0
 39 40  1  0  0  0  0
 39 38  1  0  0  0  0
 40 41  1  0  0  0  0
 41 42  1  0  0  0  0
 43 42  1  0  0  0  0
M  END
>  <minimizedAffinity>
-4.14536428

$$$$
