
 OpenBabel09082221093D

 43 48  0  0  0  0  0  0  0  0999 V2000
    5.8120   -8.9880   -5.2290 C   0  0  0  0  0  1  0  0  0  0  0  0
    7.1300   -8.3150   -5.1380 N   0  0  0  0  0  0  0  0  0  0  0  0
    8.1370   -9.1340   -4.4100 C   0  0  0  0  0  2  0  0  0  0  0  0
    7.9380   -9.0560   -2.8860 C   0  0  0  0  0  2  0  0  0  0  0  0
    8.2210   -7.6680   -2.2920 C   0  0  0  0  0  2  0  0  0  0  0  0
    7.0090   -6.7260   -2.2810 C   0  0  0  0  0  2  0  0  0  0  0  0
    6.1000   -6.8750   -1.0610 C   0  0  0  0  0  2  0  0  0  0  0  0
    6.6830   -6.2110    0.0920 N   0  0  0  0  0  0  0  0  0  0  0  0
    6.3800   -5.0050    0.6390 C   0  0  0  0  0  0  0  0  0  0  0  0
    7.0880   -4.5270    1.5230 O   0  0  0  0  0  0  0  0  0  0  0  0
    5.1620   -4.2900    0.2080 C   0  0  0  0  0  0  0  0  0  0  0  0
    4.0780   -4.4630    0.9860 C   0  0  0  0  0  3  0  0  0  0  0  0
    2.8780   -3.6090    0.8970 C   0  0  0  0  0  0  0  0  0  0  0  0
    2.2510   -3.3000    2.1190 C   0  0  0  0  0  3  0  0  0  0  0  0
    1.1570   -2.4360    2.1720 C   0  0  0  0  0  3  0  0  0  0  0  0
    0.6860   -1.8620    1.0000 C   0  0  0  0  0  0  0  0  0  0  0  0
   -0.6480   -0.7760    1.0550 Cl  0  0  0  0  0  0  0  0  0  0  0  0
    1.2820   -2.1640   -0.2230 C   0  0  0  0  0  3  0  0  0  0  0  0
    2.3580   -3.0660   -0.3020 C   0  0  0  0  0  0  0  0  0  0  0  0
    2.8950   -3.4090   -1.6350 C   0  0  0  0  0  0  0  0  0  0  0  0
    2.2260   -3.7790   -2.8080 C   0  0  0  0  0  0  0  0  0  0  0  0
    3.2290   -4.0130   -3.8120 C   0  0  0  0  0  0  0  0  0  0  0  0
    3.1860   -4.4070   -5.1700 C   0  0  0  0  0  3  0  0  0  0  0  0
    4.3670   -4.7150   -5.8560 C   0  0  0  0  0  3  0  0  0  0  0  0
    5.5990   -4.5890   -5.2180 C   0  0  0  0  0  0  0  0  0  0  0  0
    5.6680   -4.0540   -3.9220 C   0  0  0  0  0  3  0  0  0  0  0  0
    4.4750   -3.8260   -3.2180 C   0  0  0  0  0  0  0  0  0  0  0  0
    4.2530   -3.4730   -1.9030 N   0  0  0  0  0  0  0  0  0  0  0  0
    5.2930   -3.2840   -0.8880 C   0  0  0  0  0  2  0  0  0  0  0  0
    6.8600   -5.1870   -5.7480 C   0  0  0  0  0  0  0  0  0  0  0  0
    7.9430   -4.8010   -5.3400 O   0  0  0  0  0  0  0  0  0  0  0  0
    6.6770   -6.2840   -6.6060 N   0  0  0  0  0  0  0  0  0  0  0  0
    7.6760   -7.6120   -6.5940 S   0  0  0  0  0  0  0  0  0  0  0  0
    9.0510   -7.2110   -6.4620 O   0  0  0  0  0  0  0  0  0  0  0  0
    7.2300   -8.4670   -7.6700 O   0  0  0  0  0  0  0  0  0  0  0  0
    7.5040   -6.6340    0.5110 H   0  0  0  0  0  0  0  0  0  0  0  0
    5.7560   -6.5510   -6.9200 H   0  0  0  0  0  0  0  0  0  0  0  0
    0.7280   -3.9670   -2.9760 C   0  0  0  0  0  3  0  0  0  0  0  0
    0.1280   -2.9920   -4.0020 C   0  0  0  0  0  2  0  0  0  0  0  0
   -1.3840   -3.1730   -4.1290 C   0  0  0  0  0  2  0  0  0  0  0  0
   -1.7530   -4.6190   -4.4490 C   0  0  0  0  0  2  0  0  0  0  0  0
   -1.1690   -5.5880   -3.4240 C   0  0  0  0  0  2  0  0  0  0  0  0
    0.3440   -5.4230   -3.2920 C   0  0  0  0  0  2  0  0  0  0  0  0
  1  2  1  0  0  0  0
  2  3  1  0  0  0  0
  3  4  1  0  0  0  0
  4  5  1  0  0  0  0
  5  6  1  0  0  0  0
  6  7  1  0  0  0  0
  7  8  1  0  0  0  0
  8 36  1  0  0  0  0
  8  9  1  0  0  0  0
  9 10  2  0  0  0  0
 11  9  1  0  0  0  0
 11 12  2  0  0  0  0
 13 12  1  0  0  0  0
 13 14  1  0  0  0  0
 14 15  2  0  0  0  0
 16 17  1  0  0  0  0
 16 15  1  0  0  0  0
 18 16  2  0  0  0  0
 19 18  1  0  0  0  0
 19 13  2  0  0  0  0
 20 19  1  0  0  0  0
 21 20  2  0  0  0  0
 22 27  1  0  0  0  0
 22 21  1  0  0  0  0
 23 22  2  0  0  0  0
 24 25  2  0  0  0  0
 24 23  1  0  0  0  0
 25 26  1  0  0  0  0
 26 27  2  0  0  0  0
 27 28  1  0  0  0  0
 28 20  1  0  0  0  0
 28 29  1  0  0  0  0
 29 11  1  0  0  0  0
 30 31  2  0  0  0  0
 30 25  1  0  0  0  0
 32 33  1  0  0  0  0
 32 30  1  0  0  0  0
 33 34  2  0  0  0  0
 33  2  1  0  0  0  0
 35 33  2  0  0  0  0
 37 32  1  0  0  0  0
 38 21  1  0  0  0  0
 39 38  1  0  0  0  0
 40 39  1  0  0  0  0
 41 40  1  0  0  0  0
 41 42  1  0  0  0  0
 42 43  1  0  0  0  0
 43 38  1  0  0  0  0
M  END
>  <minimizedAffinity>
-5.17170858

$$$$

 OpenBabel09082221093D

 43 48  0  0  0  0  0  0  0  0999 V2000
   11.6540    1.2160    2.5530 C   0  0  0  0  0  1  0  0  0  0  0  0
   12.0370    1.3390    3.9790 N   0  0  0  0  0  0  0  0  0  0  0  0
   13.5060    1.2180    4.1870 C   0  0  0  0  0  2  0  0  0  0  0  0
   13.9670   -0.2490    4.1400 C   0  0  0  0  0  2  0  0  0  0  0  0
   13.4470   -1.1020    5.3070 C   0  0  0  0  0  2  0  0  0  0  0  0
   12.0790   -1.7500    5.0550 C   0  0  0  0  0  2  0  0  0  0  0  0
   12.1360   -3.0920    4.3220 C   0  0  0  0  0  2  0  0  0  0  0  0
   12.5210   -4.1530    5.2360 N   0  0  0  0  0  0  0  0  0  0  0  0
   11.7480   -5.0890    5.8480 C   0  0  0  0  0  0  0  0  0  0  0  0
   12.2230   -5.8150    6.7180 O   0  0  0  0  0  0  0  0  0  0  0  0
   10.3460   -5.2720    5.4240 C   0  0  0  0  0  0  0  0  0  0  0  0
   10.1290   -6.2580    4.5340 C   0  0  0  0  0  3  0  0  0  0  0  0
    8.7860   -6.7850    4.2280 C   0  0  0  0  0  0  0  0  0  0  0  0
    8.7060   -8.1750    4.0140 C   0  0  0  0  0  3  0  0  0  0  0  0
    7.4790   -8.8030    3.7970 C   0  0  0  0  0  3  0  0  0  0  0  0
    6.3160   -8.0460    3.8040 C   0  0  0  0  0  0  0  0  0  0  0  0
    4.7950   -8.8130    3.5610 Cl  0  0  0  0  0  0  0  0  0  0  0  0
    6.3730   -6.6680    4.0000 C   0  0  0  0  0  3  0  0  0  0  0  0
    7.6040   -6.0110    4.1770 C   0  0  0  0  0  0  0  0  0  0  0  0
    7.6060   -4.5370    4.2990 C   0  0  0  0  0  0  0  0  0  0  0  0
    6.9620   -3.5680    3.5210 C   0  0  0  0  0  0  0  0  0  0  0  0
    7.3100   -2.2850    4.0680 C   0  0  0  0  0  0  0  0  0  0  0  0
    6.9850   -0.9510    3.7290 C   0  0  0  0  0  3  0  0  0  0  0  0
    7.6240    0.1190    4.3660 C   0  0  0  0  0  3  0  0  0  0  0  0
    8.5530   -0.1230    5.3770 C   0  0  0  0  0  0  0  0  0  0  0  0
    8.7730   -1.4340    5.8300 C   0  0  0  0  0  3  0  0  0  0  0  0
    8.1880   -2.5010    5.1290 C   0  0  0  0  0  0  0  0  0  0  0  0
    8.3620   -3.8640    5.2460 N   0  0  0  0  0  0  0  0  0  0  0  0
    9.2880   -4.5260    6.1690 C   0  0  0  0  0  2  0  0  0  0  0  0
    9.5020    0.9120    5.8820 C   0  0  0  0  0  0  0  0  0  0  0  0
   10.0670    0.7580    6.9520 O   0  0  0  0  0  0  0  0  0  0  0  0
    9.7760    1.9520    4.9780 N   0  0  0  0  0  0  0  0  0  0  0  0
   11.2850    2.6260    4.8130 S   0  0  0  0  0  0  0  0  0  0  0  0
   11.9040    2.8070    6.0990 O   0  0  0  0  0  0  0  0  0  0  0  0
   11.1450    3.7140    3.8730 O   0  0  0  0  0  0  0  0  0  0  0  0
   13.4790   -4.1630    5.5660 H   0  0  0  0  0  0  0  0  0  0  0  0
    9.2670    2.0340    4.1110 H   0  0  0  0  0  0  0  0  0  0  0  0
    6.1100   -3.8150    2.2880 C   0  0  0  0  0  3  0  0  0  0  0  0
    4.6550   -3.3560    2.4800 C   0  0  0  0  0  2  0  0  0  0  0  0
    3.8080   -3.6460    1.2420 C   0  0  0  0  0  2  0  0  0  0  0  0
    4.4240   -3.0420   -0.0170 C   0  0  0  0  0  2  0  0  0  0  0  0
    5.8640   -3.5080   -0.2170 C   0  0  0  0  0  2  0  0  0  0  0  0
    6.7250   -3.2160    1.0110 C   0  0  0  0  0  2  0  0  0  0  0  0
  1  2  1  0  0  0  0
  2  3  1  0  0  0  0
  2 33  1  0  0  0  0
  4  3  1  0  0  0  0
  4  5  1  0  0  0  0
  6  5  1  0  0  0  0
  7  6  1  0  0  0  0
  7  8  1  0  0  0  0
  8 36  1  0  0  0  0
  8  9  1  0  0  0  0
  9 10  2  0  0  0  0
 11  9  1  0  0  0  0
 11 29  1  0  0  0  0
 12 11  2  0  0  0  0
 13 12  1  0  0  0  0
 14 13  2  0  0  0  0
 15 16  2  0  0  0  0
 15 14  1  0  0  0  0
 16 18  1  0  0  0  0
 17 16  1  0  0  0  0
 18 19  2  0  0  0  0
 19 13  1  0  0  0  0
 19 20  1  0  0  0  0
 20 28  1  0  0  0  0
 21 22  1  0  0  0  0
 21 20  2  0  0  0  0
 22 27  1  0  0  0  0
 23 22  2  0  0  0  0
 23 24  1  0  0  0  0
 24 25  2  0  0  0  0
 25 26  1  0  0  0  0
 25 30  1  0  0  0  0
 27 28  1  0  0  0  0
 27 26  2  0  0  0  0
 28 29  1  0  0  0  0
 30 31  2  0  0  0  0
 32 30  1  0  0  0  0
 33 32  1  0  0  0  0
 33 34  2  0  0  0  0
 35 33  2  0  0  0  0
 37 32  1  0  0  0  0
 38 39  1  0  0  0  0
 38 21  1  0  0  0  0
 40 39  1  0  0  0  0
 41 40  1  0  0  0  0
 42 41  1  0  0  0  0
 42 43  1  0  0  0  0
 43 38  1  0  0  0  0
M  END
>  <minimizedAffinity>
-4.82757616

$$$$

 OpenBabel09082221093D

 43 48  0  0  0  0  0  0  0  0999 V2000
    1.5840   -4.4790    2.7640 C   0  0  0  0  0  1  0  0  0  0  0  0
    1.7580   -3.0130    2.6290 N   0  0  0  0  0  0  0  0  0  0  0  0
    0.4620   -2.2990    2.4660 C   0  0  0  0  0  2  0  0  0  0  0  0
   -0.0740   -2.4180    1.0280 C   0  0  0  0  0  2  0  0  0  0  0  0
    0.7820   -1.6880   -0.0180 C   0  0  0  0  0  2  0  0  0  0  0  0
    1.9200   -2.5340   -0.6030 C   0  0  0  0  0  2  0  0  0  0  0  0
    1.5160   -3.4070   -1.7920 C   0  0  0  0  0  2  0  0  0  0  0  0
    1.4260   -2.6080   -3.0020 N   0  0  0  0  0  0  0  0  0  0  0  0
    2.3090   -2.4930   -4.0290 C   0  0  0  0  0  0  0  0  0  0  0  0
    2.1410   -1.6440   -4.9010 O   0  0  0  0  0  0  0  0  0  0  0  0
    3.4450   -3.4310   -4.1270 C   0  0  0  0  0  0  0  0  0  0  0  0
    3.2600   -4.4900   -4.9360 C   0  0  0  0  0  3  0  0  0  0  0  0
    4.3630   -5.3560   -5.3940 C   0  0  0  0  0  0  0  0  0  0  0  0
    4.2730   -5.8140   -6.7230 C   0  0  0  0  0  3  0  0  0  0  0  0
    5.2930   -6.5720   -7.2960 C   0  0  0  0  0  3  0  0  0  0  0  0
    6.4240   -6.8700   -6.5470 C   0  0  0  0  0  0  0  0  0  0  0  0
    7.7000   -7.7840   -7.2510 Cl  0  0  0  0  0  0  0  0  0  0  0  0
    6.5280   -6.4380   -5.2270 C   0  0  0  0  0  3  0  0  0  0  0  0
    5.4900   -5.7100   -4.6170 C   0  0  0  0  0  0  0  0  0  0  0  0
    5.6250   -5.3500   -3.1900 C   0  0  0  0  0  0  0  0  0  0  0  0
    5.9990   -6.1370   -2.0940 C   0  0  0  0  0  0  0  0  0  0  0  0
    5.9550   -5.2920   -0.9320 C   0  0  0  0  0  0  0  0  0  0  0  0
    6.2160   -5.4990    0.4430 C   0  0  0  0  0  3  0  0  0  0  0  0
    5.9220   -4.4990    1.3790 C   0  0  0  0  0  3  0  0  0  0  0  0
    5.4140   -3.2730    0.9550 C   0  0  0  0  0  0  0  0  0  0  0  0
    5.2930   -2.9980   -0.4160 C   0  0  0  0  0  3  0  0  0  0  0  0
    5.5140   -4.0340   -1.3380 C   0  0  0  0  0  0  0  0  0  0  0  0
    5.3100   -4.0920   -2.7010 N   0  0  0  0  0  0  0  0  0  0  0  0
    4.7460   -3.0170   -3.5210 C   0  0  0  0  0  2  0  0  0  0  0  0
    4.7810   -2.2860    1.8790 C   0  0  0  0  0  0  0  0  0  0  0  0
    4.6370   -1.1250    1.5330 O   0  0  0  0  0  0  0  0  0  0  0  0
    4.2620   -2.8350    3.0630 N   0  0  0  0  0  0  0  0  0  0  0  0
    2.8410   -2.3130    3.7480 S   0  0  0  0  0  0  0  0  0  0  0  0
    2.7470   -0.8790    3.6940 O   0  0  0  0  0  0  0  0  0  0  0  0
    2.6950   -3.0420    4.9880 O   0  0  0  0  0  0  0  0  0  0  0  0
    0.6550   -1.9540   -3.0760 H   0  0  0  0  0  0  0  0  0  0  0  0
    4.4220   -3.8030    3.3010 H   0  0  0  0  0  0  0  0  0  0  0  0
    6.3240   -7.6210   -2.1120 C   0  0  0  0  0  3  0  0  0  0  0  0
    7.7880   -7.9030   -1.7360 C   0  0  0  0  0  2  0  0  0  0  0  0
    8.1030   -9.3970   -1.7950 C   0  0  0  0  0  2  0  0  0  0  0  0
    7.1370  -10.2110   -0.9390 C   0  0  0  0  0  2  0  0  0  0  0  0
    5.6840   -9.9420   -1.3210 C   0  0  0  0  0  2  0  0  0  0  0  0
    5.3520   -8.4530   -1.2570 C   0  0  0  0  0  2  0  0  0  0  0  0
  2  1  1  0  0  0  0
  2 33  1  0  0  0  0
  3  2  1  0  0  0  0
  4  3  1  0  0  0  0
  5  4  1  0  0  0  0
  6  5  1  0  0  0  0
  7  6  1  0  0  0  0
  8  7  1  0  0  0  0
  9  8  1  0  0  0  0
 10  9  2  0  0  0  0
 11  9  1  0  0  0  0
 11 29  1  0  0  0  0
 12 11  2  0  0  0  0
 13 12  1  0  0  0  0
 13 19  1  0  0  0  0
 14 13  2  0  0  0  0
 15 14  1  0  0  0  0
 15 16  2  0  0  0  0
 16 18  1  0  0  0  0
 17 16  1  0  0  0  0
 18 19  2  0  0  0  0
 19 20  1  0  0  0  0
 20 28  1  0  0  0  0
 20 21  2  0  0  0  0
 21 22  1  0  0  0  0
 22 23  1  0  0  0  0
 23 24  2  0  0  0  0
 25 24  1  0  0  0  0
 25 30  1  0  0  0  0
 26 25  2  0  0  0  0
 27 22  2  0  0  0  0
 27 26  1  0  0  0  0
 28 27  1  0  0  0  0
 29 28  1  0  0  0  0
 30 32  1  0  0  0  0
 31 30  2  0  0  0  0
 32 37  1  0  0  0  0
 32 33  1  0  0  0  0
 33 35  2  0  0  0  0
 34 33  2  0  0  0  0
 36  8  1  0  0  0  0
 38 21  1  0  0  0  0
 38 39  1  0  0  0  0
 38 43  1  0  0  0  0
 40 39  1  0  0  0  0
 40 41  1  0  0  0  0
 42 43  1  0  0  0  0
 42 41  1  0  0  0  0
M  END
>  <minimizedAffinity>
-4.68368912

$$$$

 OpenBabel09082221093D

 43 48  0  0  0  0  0  0  0  0999 V2000
    7.1060   -4.7840   -5.0260 C   0  0  0  0  0  1  0  0  0  0  0  0
    6.0880   -5.8350   -5.2620 N   0  0  0  0  0  0  0  0  0  0  0  0
    5.2930   -5.5900   -6.4960 C   0  0  0  0  0  2  0  0  0  0  0  0
    4.2090   -4.5210   -6.2700 C   0  0  0  0  0  2  0  0  0  0  0  0
    3.0990   -4.9560   -5.3030 C   0  0  0  0  0  2  0  0  0  0  0  0
    3.3940   -4.6580   -3.8270 C   0  0  0  0  0  2  0  0  0  0  0  0
    3.0040   -3.2500   -3.3720 C   0  0  0  0  0  2  0  0  0  0  0  0
    1.5710   -3.1680   -3.1490 N   0  0  0  0  0  0  0  0  0  0  0  0
    0.8760   -3.1950   -1.9820 C   0  0  0  0  0  0  0  0  0  0  0  0
   -0.3510   -3.2730   -1.9900 O   0  0  0  0  0  0  0  0  0  0  0  0
    1.5940   -3.0710   -0.6980 C   0  0  0  0  0  0  0  0  0  0  0  0
    1.6430   -1.8340   -0.1730 C   0  0  0  0  0  3  0  0  0  0  0  0
    2.0410   -1.5660    1.2230 C   0  0  0  0  0  0  0  0  0  0  0  0
    1.3310   -0.5420    1.8780 C   0  0  0  0  0  3  0  0  0  0  0  0
    1.5600   -0.2510    3.2230 C   0  0  0  0  0  3  0  0  0  0  0  0
    2.4970   -0.9920    3.9300 C   0  0  0  0  0  0  0  0  0  0  0  0
    2.7710   -0.6590    5.5960 Cl  0  0  0  0  0  0  0  0  0  0  0  0
    3.2200   -2.0010    3.2990 C   0  0  0  0  0  3  0  0  0  0  0  0
    3.0350   -2.2800    1.9320 C   0  0  0  0  0  0  0  0  0  0  0  0
    3.8900   -3.3070    1.2990 C   0  0  0  0  0  0  0  0  0  0  0  0
    5.2760   -3.4880    1.3630 C   0  0  0  0  0  0  0  0  0  0  0  0
    5.5920   -4.6320    0.5510 C   0  0  0  0  0  0  0  0  0  0  0  0
    6.7930   -5.3000    0.2200 C   0  0  0  0  0  3  0  0  0  0  0  0
    6.7990   -6.3130   -0.7480 C   0  0  0  0  0  3  0  0  0  0  0  0
    5.6080   -6.7030   -1.3570 C   0  0  0  0  0  0  0  0  0  0  0  0
    4.3870   -6.1570   -0.9290 C   0  0  0  0  0  3  0  0  0  0  0  0
    4.4040   -5.0880   -0.0180 C   0  0  0  0  0  0  0  0  0  0  0  0
    3.3910   -4.2690    0.4360 N   0  0  0  0  0  0  0  0  0  0  0  0
    1.9930   -4.3290    0.0020 C   0  0  0  0  0  2  0  0  0  0  0  0
    5.5560   -7.5270   -2.6000 C   0  0  0  0  0  0  0  0  0  0  0  0
    4.5260   -8.0970   -2.9180 O   0  0  0  0  0  0  0  0  0  0  0  0
    6.7080   -7.4590   -3.4010 N   0  0  0  0  0  0  0  0  0  0  0  0
    6.6500   -7.4350   -5.0610 S   0  0  0  0  0  0  0  0  0  0  0  0
    5.6690   -8.3660   -5.5490 O   0  0  0  0  0  0  0  0  0  0  0  0
    8.0210   -7.4600   -5.5180 O   0  0  0  0  0  0  0  0  0  0  0  0
    0.9670   -3.1950   -3.9630 H   0  0  0  0  0  0  0  0  0  0  0  0
    7.5370   -6.9810   -3.0800 H   0  0  0  0  0  0  0  0  0  0  0  0
    6.2740   -2.6050    2.0930 C   0  0  0  0  0  3  0  0  0  0  0  0
    6.9780   -3.3440    3.2430 C   0  0  0  0  0  2  0  0  0  0  0  0
    7.9490   -2.4290    3.9860 C   0  0  0  0  0  2  0  0  0  0  0  0
    8.9540   -1.7840    3.0360 C   0  0  0  0  0  2  0  0  0  0  0  0
    8.2570   -1.0370    1.9010 C   0  0  0  0  0  2  0  0  0  0  0  0
    7.2880   -1.9440    1.1440 C   0  0  0  0  0  2  0  0  0  0  0  0
  2 33  1  0  0  0  0
  2  1  1  0  0  0  0
  3  4  1  0  0  0  0
  3  2  1  0  0  0  0
  4  5  1  0  0  0  0
  5  6  1  0  0  0  0
  6  7  1  0  0  0  0
  7  8  1  0  0  0  0
  8  9  1  0  0  0  0
  9 11  1  0  0  0  0
 10  9  2  0  0  0  0
 11 12  2  0  0  0  0
 11 29  1  0  0  0  0
 12 13  1  0  0  0  0
 13 14  2  0  0  0  0
 13 19  1  0  0  0  0
 14 15  1  0  0  0  0
 15 16  2  0  0  0  0
 16 17  1  0  0  0  0
 18 16  1  0  0  0  0
 19 18  2  0  0  0  0
 20 21  2  0  0  0  0
 20 19  1  0  0  0  0
 21 38  1  0  0  0  0
 22 21  1  0  0  0  0
 23 22  1  0  0  0  0
 24 23  2  0  0  0  0
 25 26  2  0  0  0  0
 25 24  1  0  0  0  0
 26 27  1  0  0  0  0
 27 28  1  0  0  0  0
 27 22  2  0  0  0  0
 28 20  1  0  0  0  0
 29 28  1  0  0  0  0
 30 25  1  0  0  0  0
 31 30  2  0  0  0  0
 32 37  1  0  0  0  0
 32 30  1  0  0  0  0
 33 32  1  0  0  0  0
 34 33  2  0  0  0  0
 35 33  2  0  0  0  0
 36  8  1  0  0  0  0
 38 39  1  0  0  0  0
 39 40  1  0  0  0  0
 41 40  1  0  0  0  0
 42 41  1  0  0  0  0
 43 42  1  0  0  0  0
 43 38  1  0  0  0  0
M  END
>  <minimizedAffinity>
-4.65282249

$$$$

 OpenBabel09082221093D

 43 48  0  0  0  0  0  0  0  0999 V2000
    6.2480  -10.0940   -4.7260 C   0  0  0  0  0  1  0  0  0  0  0  0
    7.5330   -9.3840   -4.5200 N   0  0  0  0  0  0  0  0  0  0  0  0
    8.2600   -9.8620   -3.3120 C   0  0  0  0  0  2  0  0  0  0  0  0
    7.6680   -9.2680   -2.0220 C   0  0  0  0  0  2  0  0  0  0  0  0
    7.8670   -7.7510   -1.8870 C   0  0  0  0  0  2  0  0  0  0  0  0
    6.7560   -6.9090   -2.5280 C   0  0  0  0  0  2  0  0  0  0  0  0
    5.5480   -6.6590   -1.6240 C   0  0  0  0  0  2  0  0  0  0  0  0
    5.8440   -5.6160   -0.6570 N   0  0  0  0  0  0  0  0  0  0  0  0
    5.4800   -4.3060   -0.6610 C   0  0  0  0  0  0  0  0  0  0  0  0
    5.9560   -3.5260    0.1620 O   0  0  0  0  0  0  0  0  0  0  0  0
    4.4650   -3.8300   -1.6220 C   0  0  0  0  0  0  0  0  0  0  0  0
    3.2050   -3.7620   -1.1550 C   0  0  0  0  0  3  0  0  0  0  0  0
    2.1260   -3.0360   -1.8520 C   0  0  0  0  0  0  0  0  0  0  0  0
    1.2180   -2.3460   -1.0270 C   0  0  0  0  0  3  0  0  0  0  0  0
    0.2040   -1.5580   -1.5710 C   0  0  0  0  0  3  0  0  0  0  0  0
    0.0950   -1.4430   -2.9500 C   0  0  0  0  0  0  0  0  0  0  0  0
   -1.1370   -0.4550   -3.6320 Cl  0  0  0  0  0  0  0  0  0  0  0  0
    0.9750   -2.1280   -3.7850 C   0  0  0  0  0  3  0  0  0  0  0  0
    1.9760   -2.9620   -3.2570 C   0  0  0  0  0  0  0  0  0  0  0  0
    2.8270   -3.7260   -4.1940 C   0  0  0  0  0  0  0  0  0  0  0  0
    2.4710   -4.5040   -5.3030 C   0  0  0  0  0  0  0  0  0  0  0  0
    3.6880   -5.0340   -5.8550 C   0  0  0  0  0  0  0  0  0  0  0  0
    3.9830   -5.8750   -6.9530 C   0  0  0  0  0  3  0  0  0  0  0  0
    5.2830   -6.3590   -7.1470 C   0  0  0  0  0  3  0  0  0  0  0  0
    6.3070   -5.9750   -6.2840 C   0  0  0  0  0  0  0  0  0  0  0  0
    6.0630   -5.0220   -5.2830 C   0  0  0  0  0  3  0  0  0  0  0  0
    4.7410   -4.6080   -5.0490 C   0  0  0  0  0  0  0  0  0  0  0  0
    4.2010   -3.8290   -4.0470 N   0  0  0  0  0  0  0  0  0  0  0  0
    4.9440   -3.2620   -2.9180 C   0  0  0  0  0  2  0  0  0  0  0  0
    7.6250   -6.6730   -6.2150 C   0  0  0  0  0  0  0  0  0  0  0  0
    8.5820   -6.1300   -5.6890 O   0  0  0  0  0  0  0  0  0  0  0  0
    7.6100   -8.0050   -6.6600 N   0  0  0  0  0  0  0  0  0  0  0  0
    8.4880   -9.2090   -5.9250 S   0  0  0  0  0  0  0  0  0  0  0  0
    9.8010   -8.7380   -5.5730 O   0  0  0  0  0  0  0  0  0  0  0  0
    8.2920  -10.4000   -6.7190 O   0  0  0  0  0  0  0  0  0  0  0  0
    6.4970   -5.8360    0.0860 H   0  0  0  0  0  0  0  0  0  0  0  0
    6.7900   -8.3980   -7.0990 H   0  0  0  0  0  0  0  0  0  0  0  0
    1.0630   -4.7930   -5.7930 C   0  0  0  0  0  3  0  0  0  0  0  0
    0.8120   -4.2440   -7.2080 C   0  0  0  0  0  2  0  0  0  0  0  0
   -0.6190   -4.5140   -7.6670 C   0  0  0  0  0  2  0  0  0  0  0  0
   -0.9730   -5.9960   -7.5700 C   0  0  0  0  0  2  0  0  0  0  0  0
   -0.7370   -6.5380   -6.1630 C   0  0  0  0  0  2  0  0  0  0  0  0
    0.6940   -6.2830   -5.6940 C   0  0  0  0  0  2  0  0  0  0  0  0
  1  2  1  0  0  0  0
  2  3  1  0  0  0  0
  3  4  1  0  0  0  0
  4  5  1  0  0  0  0
  6  5  1  0  0  0  0
  6  7  1  0  0  0  0
  7  8  1  0  0  0  0
  8 36  1  0  0  0  0
  9  8  1  0  0  0  0
  9 10  2  0  0  0  0
 11 12  2  0  0  0  0
 11  9  1  0  0  0  0
 13 12  1  0  0  0  0
 13 14  1  0  0  0  0
 15 14  2  0  0  0  0
 16 15  1  0  0  0  0
 17 16  1  0  0  0  0
 18 19  1  0  0  0  0
 18 16  2  0  0  0  0
 19 13  2  0  0  0  0
 20 28  1  0  0  0  0
 20 19  1  0  0  0  0
 21 20  2  0  0  0  0
 22 21  1  0  0  0  0
 22 27  1  0  0  0  0
 23 22  2  0  0  0  0
 24 23  1  0  0  0  0
 24 25  2  0  0  0  0
 25 30  1  0  0  0  0
 25 26  1  0  0  0  0
 26 27  2  0  0  0  0
 27 28  1  0  0  0  0
 28 29  1  0  0  0  0
 29 11  1  0  0  0  0
 30 31  2  0  0  0  0
 32 30  1  0  0  0  0
 32 33  1  0  0  0  0
 33 34  2  0  0  0  0
 33  2  1  0  0  0  0
 35 33  2  0  0  0  0
 37 32  1  0  0  0  0
 38 43  1  0  0  0  0
 38 21  1  0  0  0  0
 39 38  1  0  0  0  0
 40 41  1  0  0  0  0
 40 39  1  0  0  0  0
 41 42  1  0  0  0  0
 42 43  1  0  0  0  0
M  END
>  <minimizedAffinity>
-4.56307173

$$$$

 OpenBabel09082221093D

 43 48  0  0  0  0  0  0  0  0999 V2000
    0.3820   -5.7610   -3.1130 C   0  0  0  0  0  1  0  0  0  0  0  0
    0.6950   -4.7840   -4.1820 N   0  0  0  0  0  0  0  0  0  0  0  0
    0.0850   -5.1550   -5.4880 C   0  0  0  0  0  2  0  0  0  0  0  0
    0.8880   -6.2600   -6.1960 C   0  0  0  0  0  2  0  0  0  0  0  0
    2.2860   -5.8170   -6.6540 C   0  0  0  0  0  2  0  0  0  0  0  0
    3.3830   -5.9960   -5.5970 C   0  0  0  0  0  2  0  0  0  0  0  0
    4.0190   -7.3870   -5.5710 C   0  0  0  0  0  2  0  0  0  0  0  0
    4.9760   -7.5280   -6.6540 N   0  0  0  0  0  0  0  0  0  0  0  0
    6.3330   -7.4560   -6.6230 C   0  0  0  0  0  0  0  0  0  0  0  0
    6.9790   -7.4430   -7.6680 O   0  0  0  0  0  0  0  0  0  0  0  0
    7.0370   -7.4530   -5.3250 C   0  0  0  0  0  0  0  0  0  0  0  0
    7.4930   -8.6470   -4.9050 C   0  0  0  0  0  3  0  0  0  0  0  0
    8.4670   -8.7960   -3.8070 C   0  0  0  0  0  0  0  0  0  0  0  0
    9.4320   -9.8070   -3.9750 C   0  0  0  0  0  3  0  0  0  0  0  0
   10.4540   -9.9920   -3.0440 C   0  0  0  0  0  3  0  0  0  0  0  0
   10.5280   -9.1560   -1.9380 C   0  0  0  0  0  0  0  0  0  0  0  0
   11.7980   -9.3590   -0.7960 Cl  0  0  0  0  0  0  0  0  0  0  0  0
    9.5760   -8.1570   -1.7450 C   0  0  0  0  0  3  0  0  0  0  0  0
    8.5130   -7.9840   -2.6490 C   0  0  0  0  0  0  0  0  0  0  0  0
    7.4890   -6.9610   -2.3480 C   0  0  0  0  0  0  0  0  0  0  0  0
    6.7960   -6.7040   -1.1590 C   0  0  0  0  0  0  0  0  0  0  0  0
    5.9070   -5.6040   -1.4170 C   0  0  0  0  0  0  0  0  0  0  0  0
    4.9640   -4.8990   -0.6330 C   0  0  0  0  0  3  0  0  0  0  0  0
    4.1120   -3.9570   -1.2240 C   0  0  0  0  0  3  0  0  0  0  0  0
    4.2220   -3.6730   -2.5840 C   0  0  0  0  0  0  0  0  0  0  0  0
    5.2530   -4.2500   -3.3420 C   0  0  0  0  0  3  0  0  0  0  0  0
    6.0460   -5.2510   -2.7570 C   0  0  0  0  0  0  0  0  0  0  0  0
    6.9970   -6.0870   -3.3040 N   0  0  0  0  0  0  0  0  0  0  0  0
    7.3760   -6.1310   -4.7190 C   0  0  0  0  0  2  0  0  0  0  0  0
    3.1740   -2.9410   -3.3540 C   0  0  0  0  0  0  0  0  0  0  0  0
    3.4390   -2.4480   -4.4380 O   0  0  0  0  0  0  0  0  0  0  0  0
    1.8840   -3.0040   -2.8020 N   0  0  0  0  0  0  0  0  0  0  0  0
    0.5140   -3.1470   -3.7310 S   0  0  0  0  0  0  0  0  0  0  0  0
    0.5980   -2.3040   -4.8930 O   0  0  0  0  0  0  0  0  0  0  0  0
   -0.6050   -3.0810   -2.8190 O   0  0  0  0  0  0  0  0  0  0  0  0
    4.6110   -7.5890   -7.5980 H   0  0  0  0  0  0  0  0  0  0  0  0
    1.7270   -3.4150   -1.8940 H   0  0  0  0  0  0  0  0  0  0  0  0
    6.9070   -7.4810    0.1410 C   0  0  0  0  0  3  0  0  0  0  0  0
    7.1970   -6.5700    1.3450 C   0  0  0  0  0  2  0  0  0  0  0  0
    7.3400   -7.3740    2.6360 C   0  0  0  0  0  2  0  0  0  0  0  0
    6.1230   -8.2610    2.8850 C   0  0  0  0  0  2  0  0  0  0  0  0
    5.8420   -9.1770    1.6960 C   0  0  0  0  0  2  0  0  0  0  0  0
    5.6880   -8.3840    0.4000 C   0  0  0  0  0  2  0  0  0  0  0  0
  2 33  1  0  0  0  0
  2  1  1  0  0  0  0
  3  2  1  0  0  0  0
  4  3  1  0  0  0  0
  5  4  1  0  0  0  0
  5  6  1  0  0  0  0
  6  7  1  0  0  0  0
  8  9  1  0  0  0  0
  8  7  1  0  0  0  0
  9 11  1  0  0  0  0
 10  9  2  0  0  0  0
 11 12  2  0  0  0  0
 11 29  1  0  0  0  0
 12 13  1  0  0  0  0
 13 19  1  0  0  0  0
 14 13  2  0  0  0  0
 14 15  1  0  0  0  0
 15 16  2  0  0  0  0
 16 18  1  0  0  0  0
 16 17  1  0  0  0  0
 19 20  1  0  0  0  0
 19 18  2  0  0  0  0
 20 21  2  0  0  0  0
 21 38  1  0  0  0  0
 22 21  1  0  0  0  0
 22 23  1  0  0  0  0
 24 23  2  0  0  0  0
 25 24  1  0  0  0  0
 26 27  1  0  0  0  0
 26 25  2  0  0  0  0
 27 22  2  0  0  0  0
 28 27  1  0  0  0  0
 28 20  1  0  0  0  0
 29 28  1  0  0  0  0
 30 32  1  0  0  0  0
 30 25  1  0  0  0  0
 31 30  2  0  0  0  0
 32 37  1  0  0  0  0
 33 35  2  0  0  0  0
 33 32  1  0  0  0  0
 34 33  2  0  0  0  0
 36  8  1  0  0  0  0
 38 43  1  0  0  0  0
 38 39  1  0  0  0  0
 39 40  1  0  0  0  0
 40 41  1  0  0  0  0
 42 41  1  0  0  0  0
 43 42  1  0  0  0  0
M  END
>  <minimizedAffinity>
-4.42366886

$$$$

 OpenBabel09082221093D

 43 48  0  0  0  0  0  0  0  0999 V2000
   11.5150   -7.1380    3.8920 C   0  0  0  0  0  1  0  0  0  0  0  0
   11.3630   -8.6070    3.7680 N   0  0  0  0  0  0  0  0  0  0  0  0
   12.6230   -9.2760    3.3440 C   0  0  0  0  0  2  0  0  0  0  0  0
   12.8640   -9.1250    1.8310 C   0  0  0  0  0  2  0  0  0  0  0  0
   11.8430   -9.8710    0.9610 C   0  0  0  0  0  2  0  0  0  0  0  0
   10.5860   -9.0570    0.6230 C   0  0  0  0  0  2  0  0  0  0  0  0
   10.7230   -8.1590   -0.6080 C   0  0  0  0  0  2  0  0  0  0  0  0
   10.5990   -8.9420   -1.8240 N   0  0  0  0  0  0  0  0  0  0  0  0
    9.5360   -9.0760   -2.6610 C   0  0  0  0  0  0  0  0  0  0  0  0
    9.5560   -9.9090   -3.5640 O   0  0  0  0  0  0  0  0  0  0  0  0
    8.3750   -8.1750   -2.5200 C   0  0  0  0  0  0  0  0  0  0  0  0
    8.3650   -7.1020   -3.3320 C   0  0  0  0  0  3  0  0  0  0  0  0
    7.1680   -6.2690   -3.5510 C   0  0  0  0  0  0  0  0  0  0  0  0
    6.9820   -5.7940   -4.8640 C   0  0  0  0  0  3  0  0  0  0  0  0
    5.8460   -5.0640   -5.2140 C   0  0  0  0  0  3  0  0  0  0  0  0
    4.8760   -4.8110   -4.2540 C   0  0  0  0  0  0  0  0  0  0  0  0
    3.4600   -3.9330   -4.6800 Cl  0  0  0  0  0  0  0  0  0  0  0  0
    5.0450   -5.2600   -2.9460 C   0  0  0  0  0  3  0  0  0  0  0  0
    6.2040   -5.9590   -2.5630 C   0  0  0  0  0  0  0  0  0  0  0  0
    6.3630   -6.3390   -1.1430 C   0  0  0  0  0  0  0  0  0  0  0  0
    6.1870   -5.5760    0.0180 C   0  0  0  0  0  0  0  0  0  0  0  0
    6.4830   -6.4310    1.1350 C   0  0  0  0  0  0  0  0  0  0  0  0
    6.4900   -6.2480    2.5370 C   0  0  0  0  0  3  0  0  0  0  0  0
    6.9920   -7.2470    3.3810 C   0  0  0  0  0  3  0  0  0  0  0  0
    7.4440   -8.4510    2.8460 C   0  0  0  0  0  0  0  0  0  0  0  0
    7.3020   -8.7080    1.4730 C   0  0  0  0  0  3  0  0  0  0  0  0
    6.8740   -7.6690    0.6290 C   0  0  0  0  0  0  0  0  0  0  0  0
    6.8050   -7.5910   -0.7460 N   0  0  0  0  0  0  0  0  0  0  0  0
    7.2300   -8.6380   -1.6780 C   0  0  0  0  0  2  0  0  0  0  0  0
    8.2750   -9.4260    3.6120 C   0  0  0  0  0  0  0  0  0  0  0  0
    8.3840  -10.5780    3.2250 O   0  0  0  0  0  0  0  0  0  0  0  0
    9.0000   -8.8720    4.6800 N   0  0  0  0  0  0  0  0  0  0  0  0
   10.5420   -9.3540    5.0660 S   0  0  0  0  0  0  0  0  0  0  0  0
   10.6670  -10.7840    4.9700 O   0  0  0  0  0  0  0  0  0  0  0  0
   10.9060   -8.6340    6.2650 O   0  0  0  0  0  0  0  0  0  0  0  0
   11.3590   -9.5700   -2.0580 H   0  0  0  0  0  0  0  0  0  0  0  0
    8.8590   -7.9130    4.9620 H   0  0  0  0  0  0  0  0  0  0  0  0
    5.8190   -4.1040    0.0880 C   0  0  0  0  0  3  0  0  0  0  0  0
    4.3620   -3.8850    0.5280 C   0  0  0  0  0  2  0  0  0  0  0  0
    4.0030   -2.4010    0.5580 C   0  0  0  0  0  2  0  0  0  0  0  0
    4.9750   -1.6030    1.4230 C   0  0  0  0  0  2  0  0  0  0  0  0
    6.4210   -1.8080    0.9780 C   0  0  0  0  0  2  0  0  0  0  0  0
    6.7970   -3.2880    0.9520 C   0  0  0  0  0  2  0  0  0  0  0  0
  2  1  1  0  0  0  0
  2 33  1  0  0  0  0
  3  2  1  0  0  0  0
  4  3  1  0  0  0  0
  5  4  1  0  0  0  0
  6  5  1  0  0  0  0
  7  6  1  0  0  0  0
  8  7  1  0  0  0  0
  9 11  1  0  0  0  0
  9  8  1  0  0  0  0
 10  9  2  0  0  0  0
 11 29  1  0  0  0  0
 12 11  2  0  0  0  0
 13 12  1  0  0  0  0
 13 19  1  0  0  0  0
 14 13  2  0  0  0  0
 15 14  1  0  0  0  0
 15 16  2  0  0  0  0
 16 18  1  0  0  0  0
 17 16  1  0  0  0  0
 18 19  2  0  0  0  0
 19 20  1  0  0  0  0
 20 28  1  0  0  0  0
 20 21  2  0  0  0  0
 21 38  1  0  0  0  0
 21 22  1  0  0  0  0
 22 23  1  0  0  0  0
 23 24  2  0  0  0  0
 25 24  1  0  0  0  0
 25 30  1  0  0  0  0
 26 25  2  0  0  0  0
 27 22  2  0  0  0  0
 27 26  1  0  0  0  0
 28 27  1  0  0  0  0
 29 28  1  0  0  0  0
 30 32  1  0  0  0  0
 31 30  2  0  0  0  0
 32 37  1  0  0  0  0
 32 33  1  0  0  0  0
 33 35  2  0  0  0  0
 34 33  2  0  0  0  0
 36  8  1  0  0  0  0
 38 39  1  0  0  0  0
 38 43  1  0  0  0  0
 39 40  1  0  0  0  0
 40 41  1  0  0  0  0
 42 41  1  0  0  0  0
 43 42  1  0  0  0  0
M  END
>  <minimizedAffinity>
-4.3809371

$$$$

 OpenBabel09082221093D

 43 48  0  0  0  0  0  0  0  0999 V2000
    4.6340   -5.5990    5.7830 C   0  0  0  0  0  1  0  0  0  0  0  0
    5.2240   -6.2790    4.6050 N   0  0  0  0  0  0  0  0  0  0  0  0
    6.0120   -7.4850    4.9790 C   0  0  0  0  0  2  0  0  0  0  0  0
    7.4030   -7.1090    5.5200 C   0  0  0  0  0  2  0  0  0  0  0  0
    8.3310   -6.4820    4.4680 C   0  0  0  0  0  2  0  0  0  0  0  0
    8.2060   -4.9580    4.3440 C   0  0  0  0  0  2  0  0  0  0  0  0
    9.0680   -4.1670    5.3280 C   0  0  0  0  0  2  0  0  0  0  0  0
   10.4500   -4.1360    4.8810 N   0  0  0  0  0  0  0  0  0  0  0  0
   11.1340   -3.1410    4.2580 C   0  0  0  0  0  0  0  0  0  0  0  0
   12.2590   -3.3470    3.8080 O   0  0  0  0  0  0  0  0  0  0  0  0
   10.5460   -1.7890    4.1720 C   0  0  0  0  0  0  0  0  0  0  0  0
   10.9400   -0.9190    5.1190 C   0  0  0  0  0  3  0  0  0  0  0  0
   10.7060    0.5350    5.0250 C   0  0  0  0  0  0  0  0  0  0  0  0
   11.7450    1.3560    5.5020 C   0  0  0  0  0  3  0  0  0  0  0  0
   11.6760    2.7450    5.3930 C   0  0  0  0  0  3  0  0  0  0  0  0
   10.5670    3.3270    4.7930 C   0  0  0  0  0  0  0  0  0  0  0  0
   10.4810    5.0370    4.6310 Cl  0  0  0  0  0  0  0  0  0  0  0  0
    9.5210    2.5340    4.3260 C   0  0  0  0  0  3  0  0  0  0  0  0
    9.5530    1.1350    4.4670 C   0  0  0  0  0  0  0  0  0  0  0  0
    8.3780    0.3540    4.0250 C   0  0  0  0  0  0  0  0  0  0  0  0
    7.0160    0.5580    4.2760 C   0  0  0  0  0  0  0  0  0  0  0  0
    6.3010   -0.5030    3.6200 C   0  0  0  0  0  0  0  0  0  0  0  0
    4.9330   -0.8430    3.5080 C   0  0  0  0  0  3  0  0  0  0  0  0
    4.5490   -2.0560    2.9230 C   0  0  0  0  0  3  0  0  0  0  0  0
    5.5130   -2.9170    2.4030 C   0  0  0  0  0  0  0  0  0  0  0  0
    6.8610   -2.5250    2.3680 C   0  0  0  0  0  3  0  0  0  0  0  0
    7.2410   -1.3450    3.0290 C   0  0  0  0  0  0  0  0  0  0  0  0
    8.4880   -0.8180    3.2940 N   0  0  0  0  0  0  0  0  0  0  0  0
    9.7660   -1.4440    2.9460 C   0  0  0  0  0  2  0  0  0  0  0  0
    5.2370   -4.3430    2.0580 C   0  0  0  0  0  0  0  0  0  0  0  0
    6.0000   -4.9590    1.3320 O   0  0  0  0  0  0  0  0  0  0  0  0
    4.1510   -4.9150    2.7410 N   0  0  0  0  0  0  0  0  0  0  0  0
    4.1570   -6.4840    3.2880 S   0  0  0  0  0  0  0  0  0  0  0  0
    4.7440   -7.3600    2.3100 O   0  0  0  0  0  0  0  0  0  0  0  0
    2.8450   -6.7270    3.8420 O   0  0  0  0  0  0  0  0  0  0  0  0
   10.9800   -4.9980    4.9350 H   0  0  0  0  0  0  0  0  0  0  0  0
    3.5470   -4.3520    3.3210 H   0  0  0  0  0  0  0  0  0  0  0  0
    6.4060    1.6510    5.1360 C   0  0  0  0  0  3  0  0  0  0  0  0
    5.9160    2.8460    4.3020 C   0  0  0  0  0  2  0  0  0  0  0  0
    5.3390    3.9490    5.1880 C   0  0  0  0  0  2  0  0  0  0  0  0
    4.2410    3.4180    6.1060 C   0  0  0  0  0  2  0  0  0  0  0  0
    4.7310    2.2410    6.9450 C   0  0  0  0  0  2  0  0  0  0  0  0
    5.3020    1.1260    6.0700 C   0  0  0  0  0  2  0  0  0  0  0  0
  2  3  1  0  0  0  0
  2  1  1  0  0  0  0
  3  4  1  0  0  0  0
  5  4  1  0  0  0  0
  6  5  1  0  0  0  0
  6  7  1  0  0  0  0
  8 36  1  0  0  0  0
  8  7  1  0  0  0  0
  9  8  1  0  0  0  0
 10  9  2  0  0  0  0
 11  9  1  0  0  0  0
 11 12  2  0  0  0  0
 13 12  1  0  0  0  0
 13 14  1  0  0  0  0
 15 14  2  0  0  0  0
 16 15  1  0  0  0  0
 17 16  1  0  0  0  0
 18 19  1  0  0  0  0
 18 16  2  0  0  0  0
 19 13  2  0  0  0  0
 20 21  2  0  0  0  0
 20 19  1  0  0  0  0
 21 38  1  0  0  0  0
 22 21  1  0  0  0  0
 23 22  1  0  0  0  0
 24 23  2  0  0  0  0
 25 24  1  0  0  0  0
 26 25  2  0  0  0  0
 26 27  1  0  0  0  0
 27 28  1  0  0  0  0
 27 22  2  0  0  0  0
 28 20  1  0  0  0  0
 29 28  1  0  0  0  0
 29 11  1  0  0  0  0
 30 25  1  0  0  0  0
 30 32  1  0  0  0  0
 31 30  2  0  0  0  0
 32 33  1  0  0  0  0
 32 37  1  0  0  0  0
 33 35  2  0  0  0  0
 33  2  1  0  0  0  0
 34 33  2  0  0  0  0
 38 43  1  0  0  0  0
 39 38  1  0  0  0  0
 39 40  1  0  0  0  0
 40 41  1  0  0  0  0
 41 42  1  0  0  0  0
 43 42  1  0  0  0  0
M  END
>  <minimizedAffinity>
-4.34913874

$$$$

 OpenBabel09082221093D

 43 48  0  0  0  0  0  0  0  0999 V2000
   -0.3680   -5.2820   -5.1450 C   0  0  0  0  0  1  0  0  0  0  0  0
    0.3070   -4.2680   -5.9890 N   0  0  0  0  0  0  0  0  0  0  0  0
    0.3710   -4.6700   -7.4210 C   0  0  0  0  0  2  0  0  0  0  0  0
    1.4910   -5.6960   -7.6720 C   0  0  0  0  0  2  0  0  0  0  0  0
    2.9060   -5.1330   -7.4750 C   0  0  0  0  0  2  0  0  0  0  0  0
    3.4320   -5.2350   -6.0370 C   0  0  0  0  0  2  0  0  0  0  0  0
    4.0990   -6.5680   -5.6970 C   0  0  0  0  0  2  0  0  0  0  0  0
    5.4450   -6.6150   -6.2410 N   0  0  0  0  0  0  0  0  0  0  0  0
    6.6370   -6.4320   -5.6140 C   0  0  0  0  0  0  0  0  0  0  0  0
    7.6760   -6.3510   -6.2650 O   0  0  0  0  0  0  0  0  0  0  0  0
    6.6900   -6.3880   -4.1390 C   0  0  0  0  0  0  0  0  0  0  0  0
    7.0060   -7.5460   -3.5300 C   0  0  0  0  0  3  0  0  0  0  0  0
    7.4000   -7.6280   -2.1110 C   0  0  0  0  0  0  0  0  0  0  0  0
    8.4170   -8.5540   -1.8090 C   0  0  0  0  0  3  0  0  0  0  0  0
    8.9310   -8.6660   -0.5180 C   0  0  0  0  0  3  0  0  0  0  0  0
    8.4400   -7.8420    0.4850 C   0  0  0  0  0  0  0  0  0  0  0  0
    9.0840   -7.9540    2.0770 Cl  0  0  0  0  0  0  0  0  0  0  0  0
    7.4250   -6.9280    0.2120 C   0  0  0  0  0  3  0  0  0  0  0  0
    6.8630   -6.8310   -1.0740 C   0  0  0  0  0  0  0  0  0  0  0  0
    5.7340   -5.9000   -1.2820 C   0  0  0  0  0  0  0  0  0  0  0  0
    4.5670   -5.7170   -0.5300 C   0  0  0  0  0  0  0  0  0  0  0  0
    3.7990   -4.6910   -1.1820 C   0  0  0  0  0  0  0  0  0  0  0  0
    2.5530   -4.0770   -0.9150 C   0  0  0  0  0  3  0  0  0  0  0  0
    1.9800   -3.2010   -1.8450 C   0  0  0  0  0  3  0  0  0  0  0  0
    2.6590   -2.8900   -3.0220 C   0  0  0  0  0  0  0  0  0  0  0  0
    3.9610   -3.3700   -3.2300 C   0  0  0  0  0  3  0  0  0  0  0  0
    4.4900   -4.3100   -2.3310 C   0  0  0  0  0  0  0  0  0  0  0  0
    5.6490   -5.0570   -2.3790 N   0  0  0  0  0  0  0  0  0  0  0  0
    6.6180   -5.0500   -3.4780 C   0  0  0  0  0  2  0  0  0  0  0  0
    2.0060   -2.2370   -4.1950 C   0  0  0  0  0  0  0  0  0  0  0  0
    2.6840   -1.7100   -5.0610 O   0  0  0  0  0  0  0  0  0  0  0  0
    0.6150   -2.4140   -4.2700 N   0  0  0  0  0  0  0  0  0  0  0  0
   -0.1850   -2.6570   -5.7060 S   0  0  0  0  0  0  0  0  0  0  0  0
    0.3380   -1.7940   -6.7310 O   0  0  0  0  0  0  0  0  0  0  0  0
   -1.5940   -2.6970   -5.3860 O   0  0  0  0  0  0  0  0  0  0  0  0
    5.5420   -6.6940   -7.2470 H   0  0  0  0  0  0  0  0  0  0  0  0
    0.1050   -2.8490   -3.5150 H   0  0  0  0  0  0  0  0  0  0  0  0
    4.1510   -6.5000    0.7040 C   0  0  0  0  0  3  0  0  0  0  0  0
    4.0350   -5.6080    1.9510 C   0  0  0  0  0  2  0  0  0  0  0  0
    3.6520   -6.4200    3.1860 C   0  0  0  0  0  2  0  0  0  0  0  0
    2.3790   -7.2300    2.9560 C   0  0  0  0  0  2  0  0  0  0  0  0
    2.4980   -8.1260    1.7260 C   0  0  0  0  0  2  0  0  0  0  0  0
    2.8720   -7.3260    0.4800 C   0  0  0  0  0  2  0  0  0  0  0  0
  2 33  1  0  0  0  0
  2  1  1  0  0  0  0
  3  2  1  0  0  0  0
  4  5  1  0  0  0  0
  4  3  1  0  0  0  0
  5  6  1  0  0  0  0
  6  7  1  0  0  0  0
  8  7  1  0  0  0  0
  8  9  1  0  0  0  0
  9 11  1  0  0  0  0
 10  9  2  0  0  0  0
 11 12  2  0  0  0  0
 11 29  1  0  0  0  0
 12 13  1  0  0  0  0
 13 14  2  0  0  0  0
 13 19  1  0  0  0  0
 14 15  1  0  0  0  0
 15 16  2  0  0  0  0
 16 17  1  0  0  0  0
 18 16  1  0  0  0  0
 19 18  2  0  0  0  0
 20 19  1  0  0  0  0
 20 21  2  0  0  0  0
 21 38  1  0  0  0  0
 22 23  1  0  0  0  0
 22 21  1  0  0  0  0
 24 23  2  0  0  0  0
 25 24  1  0  0  0  0
 26 25  2  0  0  0  0
 26 27  1  0  0  0  0
 27 22  2  0  0  0  0
 28 27  1  0  0  0  0
 28 20  1  0  0  0  0
 29 28  1  0  0  0  0
 30 25  1  0  0  0  0
 31 30  2  0  0  0  0
 32 30  1  0  0  0  0
 32 37  1  0  0  0  0
 33 35  2  0  0  0  0
 33 32  1  0  0  0  0
 34 33  2  0  0  0  0
 36  8  1  0  0  0  0
 38 39  1  0  0  0  0
 39 40  1  0  0  0  0
 41 40  1  0  0  0  0
 42 41  1  0  0  0  0
 43 38  1  0  0  0  0
 43 42  1  0  0  0  0
M  END
>  <minimizedAffinity>
-4.20078278

$$$$

 OpenBabel09082221093D

 43 48  0  0  0  0  0  0  0  0999 V2000
    4.0930   -3.1630    4.3730 C   0  0  0  0  0  1  0  0  0  0  0  0
    4.4840   -1.8550    3.7960 N   0  0  0  0  0  0  0  0  0  0  0  0
    3.5890   -0.7500    4.2340 C   0  0  0  0  0  2  0  0  0  0  0  0
    2.2610   -0.7520    3.4550 C   0  0  0  0  0  2  0  0  0  0  0  0
    2.4140   -0.4160    1.9640 C   0  0  0  0  0  2  0  0  0  0  0  0
    2.6920   -1.6300    1.0680 C   0  0  0  0  0  2  0  0  0  0  0  0
    1.4400   -2.3730    0.5980 C   0  0  0  0  0  2  0  0  0  0  0  0
    0.8050   -1.6560   -0.4940 N   0  0  0  0  0  0  0  0  0  0  0  0
    0.8430   -1.9040   -1.8290 C   0  0  0  0  0  0  0  0  0  0  0  0
    0.3730   -1.0960   -2.6260 O   0  0  0  0  0  0  0  0  0  0  0  0
    1.4030   -3.1790   -2.3210 C   0  0  0  0  0  0  0  0  0  0  0  0
    0.5080   -4.1510   -2.5750 C   0  0  0  0  0  3  0  0  0  0  0  0
    0.8350   -5.3650   -3.3460 C   0  0  0  0  0  0  0  0  0  0  0  0
   -0.1740   -5.8330   -4.2110 C   0  0  0  0  0  3  0  0  0  0  0  0
    0.0450   -6.9250   -5.0510 C   0  0  0  0  0  3  0  0  0  0  0  0
    1.2830   -7.5530   -5.0440 C   0  0  0  0  0  0  0  0  0  0  0  0
    1.5730   -8.8850   -6.0930 Cl  0  0  0  0  0  0  0  0  0  0  0  0
    2.2900   -7.1150   -4.1870 C   0  0  0  0  0  3  0  0  0  0  0  0
    2.0740   -6.0440   -3.3010 C   0  0  0  0  0  0  0  0  0  0  0  0
    3.1540   -5.6780   -2.3600 C   0  0  0  0  0  0  0  0  0  0  0  0
    3.9320   -6.4870   -1.5230 C   0  0  0  0  0  0  0  0  0  0  0  0
    4.8280   -5.6190   -0.8080 C   0  0  0  0  0  0  0  0  0  0  0  0
    5.8350   -5.8310    0.1620 C   0  0  0  0  0  3  0  0  0  0  0  0
    6.4400   -4.7440    0.8060 C   0  0  0  0  0  3  0  0  0  0  0  0
    6.0870   -3.4420    0.4570 C   0  0  0  0  0  0  0  0  0  0  0  0
    5.2040   -3.2140   -0.6090 C   0  0  0  0  0  3  0  0  0  0  0  0
    4.5440   -4.3100   -1.1900 C   0  0  0  0  0  0  0  0  0  0  0  0
    3.5250   -4.3650   -2.1180 N   0  0  0  0  0  0  0  0  0  0  0  0
    2.8470   -3.2060   -2.7040 C   0  0  0  0  0  2  0  0  0  0  0  0
    6.4300   -2.2510    1.2890 C   0  0  0  0  0  0  0  0  0  0  0  0
    6.3820   -1.1310    0.8080 O   0  0  0  0  0  0  0  0  0  0  0  0
    6.6560   -2.5250    2.6480 N   0  0  0  0  0  0  0  0  0  0  0  0
    6.1550   -1.5120    3.8660 S   0  0  0  0  0  0  0  0  0  0  0  0
    6.3910   -0.1380    3.5130 O   0  0  0  0  0  0  0  0  0  0  0  0
    6.6510   -2.0810    5.0980 O   0  0  0  0  0  0  0  0  0  0  0  0
    0.3410   -0.7810   -0.2740 H   0  0  0  0  0  0  0  0  0  0  0  0
    6.6960   -3.4750    2.9860 H   0  0  0  0  0  0  0  0  0  0  0  0
    3.8110   -7.9910   -1.3480 C   0  0  0  0  0  3  0  0  0  0  0  0
    5.0950   -8.7330   -1.7540 C   0  0  0  0  0  2  0  0  0  0  0  0
    4.9390  -10.2450   -1.6040 C   0  0  0  0  0  2  0  0  0  0  0  0
    4.4920  -10.6290   -0.1960 C   0  0  0  0  0  2  0  0  0  0  0  0
    3.2100   -9.9040    0.2030 C   0  0  0  0  0  2  0  0  0  0  0  0
    3.3540   -8.3900    0.0670 C   0  0  0  0  0  2  0  0  0  0  0  0
  2 33  1  0  0  0  0
  2  3  1  0  0  0  0
  2  1  1  0  0  0  0
  4  3  1  0  0  0  0
  5  4  1  0  0  0  0
  6  5  1  0  0  0  0
  7  6  1  0  0  0  0
  8 36  1  0  0  0  0
  8  7  1  0  0  0  0
  9  8  1  0  0  0  0
 10  9  2  0  0  0  0
 11  9  1  0  0  0  0
 12 11  2  0  0  0  0
 13 19  1  0  0  0  0
 13 12  1  0  0  0  0
 14 13  2  0  0  0  0
 15 16  2  0  0  0  0
 15 14  1  0  0  0  0
 16 18  1  0  0  0  0
 17 16  1  0  0  0  0
 18 19  2  0  0  0  0
 19 20  1  0  0  0  0
 20 28  1  0  0  0  0
 20 21  2  0  0  0  0
 21 38  1  0  0  0  0
 21 22  1  0  0  0  0
 22 23  1  0  0  0  0
 23 24  2  0  0  0  0
 25 24  1  0  0  0  0
 25 30  1  0  0  0  0
 26 25  2  0  0  0  0
 27 22  2  0  0  0  0
 27 26  1  0  0  0  0
 28 27  1  0  0  0  0
 29 11  1  0  0  0  0
 29 28  1  0  0  0  0
 30 32  1  0  0  0  0
 31 30  2  0  0  0  0
 32 37  1  0  0  0  0
 32 33  1  0  0  0  0
 33 35  2  0  0  0  0
 34 33  2  0  0  0  0
 38 43  1  0  0  0  0
 39 40  1  0  0  0  0
 39 38  1  0  0  0  0
 40 41  1  0  0  0  0
 41 42  1  0  0  0  0
 43 42  1  0  0  0  0
M  END
>  <minimizedAffinity>
-4.14536428

$$$$
