REMARK  Name = 
REMARK  2 active torsions:
REMARK  status: ('A' for Active; 'I' for Inactive)
REMARK    1  A    between atoms: C_1  and  N_2
REMARK    2  A    between atoms: C_21  and  C_22
REMARK                            x       y       z     vdW  Elec       q    Type
REMARK                         _______ _______ _______ _____ _____    ______ ____
ROOT
ATOM      1  C   UNL     1       1.921   0.823  -0.813  0.00  0.00    +0.133 C 
ATOM      2  N   UNL     1       1.147  -0.284  -1.423  0.00  0.00    -0.167 NA
ATOM      3  C   UNL     1      -0.075  -0.621  -0.643  0.00  0.00    +0.110 C 
ATOM      4  C   UNL     1       0.259  -1.472   0.595  0.00  0.00    +0.017 C 
ATOM      5  C   UNL     1       0.777  -2.879   0.262  0.00  0.00    +0.003 C 
ATOM      6  C   UNL     1       2.296  -2.962   0.063  0.00  0.00    +0.019 C 
ATOM      7  C   UNL     1       3.096  -3.158   1.352  0.00  0.00    +0.104 C 
ATOM      8  N   UNL     1       3.031  -4.543   1.784  0.00  0.00    -0.312 N 
ATOM      9  C   UNL     1       3.953  -5.533   1.654  0.00  0.00    +0.242 C 
ATOM     10  O   UNL     1       3.665  -6.693   1.939  0.00  0.00    -0.270 OA
ATOM     11  C   UNL     1       5.326  -5.203   1.222  0.00  0.00    +0.034 C 
ATOM     12  C   UNL     1       6.227  -5.045   2.209  0.00  0.00    +0.019 C 
ATOM     13  C   UNL     1       7.683  -5.016   1.973  0.00  0.00    -0.015 A 
ATOM     14  C   UNL     1       8.476  -5.650   2.949  0.00  0.00    +0.010 A 
ATOM     15  C   UNL     1       9.858  -5.759   2.797  0.00  0.00    +0.020 A 
ATOM     16  C   UNL     1      10.461  -5.244   1.658  0.00  0.00    +0.042 A 
ATOM     17 CL   UNL     1      12.162  -5.394   1.448  0.00  0.00    -0.084 Cl
ATOM     18  C   UNL     1       9.698  -4.601   0.686  0.00  0.00    +0.030 A 
ATOM     19  C   UNL     1       8.309  -4.442   0.842  0.00  0.00    +0.007 A 
ATOM     20  C   UNL     1       7.566  -3.680  -0.184  0.00  0.00    +0.054 A 
ATOM     21  C   UNL     1       7.853  -2.441  -0.769  0.00  0.00    -0.011 A 
ATOM     22  C   UNL     1       6.795  -2.157  -1.700  0.00  0.00    +0.004 A 
ATOM     23  C   UNL     1       6.520  -1.081  -2.576  0.00  0.00    +0.011 A 
ATOM     24  C   UNL     1       5.297  -1.014  -3.255  0.00  0.00    +0.014 A 
ATOM     25  C   UNL     1       4.360  -2.035  -3.109  0.00  0.00    +0.040 A 
ATOM     26  C   UNL     1       4.680  -3.182  -2.366  0.00  0.00    +0.039 A 
ATOM     27  C   UNL     1       5.874  -3.200  -1.626  0.00  0.00    +0.051 A 
ATOM     28  N   UNL     1       6.351  -4.103  -0.699  0.00  0.00    -0.335 N 
ATOM     29  C   UNL     1       5.641  -5.298  -0.235  0.00  0.00    +0.162 C 
ATOM     30  C   UNL     1       2.933  -1.902  -3.526  0.00  0.00    +0.264 C 
ATOM     31  O   UNL     1       2.239  -2.895  -3.669  0.00  0.00    -0.269 OA
ATOM     32  N   UNL     1       2.457  -0.582  -3.587  0.00  0.00    -0.171 N 
ATOM     33  S   UNL     1       0.923  -0.156  -3.111  0.00  0.00    +0.114 S 
ATOM     34  O   UNL     1      -0.036  -1.131  -3.556  0.00  0.00    -0.138 OA
ATOM     35  O   UNL     1       0.779   1.250  -3.412  0.00  0.00    -0.138 OA
ATOM     36  H   UNL     1       2.147  -4.880   2.148  0.00  0.00    +0.149 HD
ATOM     37  H   UNL     1       3.082   0.202  -3.471  0.00  0.00    +0.178 HD
ENDROOT
BRANCH  21  38
ATOM     38  C   UNL     1       9.023  -1.531  -0.437  0.00  0.00    +0.022 C 
ATOM     39  C   UNL     1       9.991  -1.367  -1.620  0.00  0.00    +0.008 C 
ATOM     40  C   UNL     1      11.178  -0.478  -1.254  0.00  0.00    +0.001 C 
ATOM     41  C   UNL     1      10.723   0.874  -0.711  0.00  0.00    +0.000 C 
ATOM     42  C   UNL     1       9.773   0.713   0.473  0.00  0.00    +0.001 C 
ATOM     43  C   UNL     1       8.576  -0.167   0.118  0.00  0.00    +0.008 C 
ENDBRANCH  21  38
TORSDOF 1
