@<TRIPOS>MOLECULE
*****
 41 46 0 0 0
SMALL
GASTEIGER

@<TRIPOS>ATOM
      1 C           0.0000    0.0000    0.0000 C.3     1  UNL11       0.1164
      2 N           0.0000    0.0000    0.0000 N.3     1  UNL11      -0.1397
      3 C           0.0000    0.0000    0.0000 C.3     1  UNL11       0.0973
      4 C           0.0000    0.0000    0.0000 C.3     1  UNL11       0.0193
      5 C           0.0000    0.0000    0.0000 C.3     1  UNL11       0.0033
      6 C           0.0000    0.0000    0.0000 C.3     1  UNL11       0.0235
      7 C           0.0000    0.0000    0.0000 C.3     1  UNL11       0.1155
      8 N           0.0000    0.0000    0.0000 N.am    1  UNL11      -0.2019
      9 C           0.0000    0.0000    0.0000 C.2     1  UNL11       0.2626
     10 O           0.0000    0.0000    0.0000 O.2     1  UNL11      -0.2686
     11 C           0.0000    0.0000    0.0000 C.2     1  UNL11       0.0554
     12 C           0.0000    0.0000    0.0000 C.2     1  UNL11       0.0022
     13 C           0.0000    0.0000    0.0000 C.ar    1  UNL11       0.0013
     14 C           0.0000    0.0000    0.0000 C.ar    1  UNL11       0.0009
     15 C           0.0000    0.0000    0.0000 C.ar    1  UNL11       0.0114
     16 C           0.0000    0.0000    0.0000 C.ar    1  UNL11       0.0577
     17 CL          0.0000    0.0000    0.0000 Cl      1  UNL11      -0.0822
     18 C           0.0000    0.0000    0.0000 C.ar    1  UNL11       0.0128
     19 C           0.0000    0.0000    0.0000 C.ar    1  UNL11       0.0163
     20 C           0.0000    0.0000    0.0000 C.ar    1  UNL11       0.0561
     21 C           0.0000    0.0000    0.0000 C.ar    1  UNL11      -0.0053
     22 C           0.0000    0.0000    0.0000 C.3     1  UNL11       0.0238
     23 C           0.0000    0.0000    0.0000 C.3     1  UNL11       0.0044
     24 C           0.0000    0.0000    0.0000 C.3     1  UNL11       0.0003
     25 C           0.0000    0.0000    0.0000 C.3     1  UNL11       0.0000
     26 C           0.0000    0.0000    0.0000 C.3     1  UNL11       0.0003
     27 C           0.0000    0.0000    0.0000 C.3     1  UNL11       0.0044
     28 C           0.0000    0.0000    0.0000 C.ar    1  UNL11       0.0132
     29 C           0.0000    0.0000    0.0000 C.ar    1  UNL11       0.0013
     30 C           0.0000    0.0000    0.0000 C.ar    1  UNL11       0.0047
     31 C           0.0000    0.0000    0.0000 C.ar    1  UNL11       0.0581
     32 C           0.0000    0.0000    0.0000 C.ar    1  UNL11       0.0218
     33 C           0.0000    0.0000    0.0000 C.ar    1  UNL11       0.0600
     34 N           0.0000    0.0000    0.0000 N.ar    1  UNL11      -0.3230
     35 C           0.0000    0.0000    0.0000 C.3     1  UNL11       0.1373
     36 C           0.0000    0.0000    0.0000 C.2     1  UNL11       0.2867
     37 O           0.0000    0.0000    0.0000 O.2     1  UNL11      -0.2666
     38 N           0.0000    0.0000    0.0000 N.am    1  UNL11      -0.0440
     39 S           0.0000    0.0000    0.0000 S.O2    1  UNL11       0.1354
     40 O           0.0000    0.0000    0.0000 O.2     1  UNL11      -0.1362
     41 O           0.0000    0.0000    0.0000 O.2     1  UNL11      -0.1362
@<TRIPOS>BOND
     1     1     2    1
     2     2     3    1
     3     3     4    1
     4     4     5    1
     5     5     6    1
     6     6     7    1
     7     7     8    1
     8     8     9   am
     9     9    10    2
    10     9    11    1
    11    11    12    2
    12    12    13    1
    13    13    14   ar
    14    14    15   ar
    15    15    16   ar
    16    16    17    1
    17    16    18   ar
    18    18    19   ar
    19    13    19   ar
    20    19    20    1
    21    20    21   ar
    22    21    22    1
    23    22    23    1
    24    23    24    1
    25    24    25    1
    26    25    26    1
    27    26    27    1
    28    22    27    1
    29    21    28   ar
    30    28    29   ar
    31    29    30   ar
    32    30    31   ar
    33    31    32   ar
    34    32    33   ar
    35    28    33   ar
    36    33    34   ar
    37    20    34   ar
    38    34    35    1
    39    11    35    1
    40    31    36    1
    41    36    37    2
    42    36    38   am
    43    38    39    1
    44     2    39    1
    45    39    40    2
    46    39    41    2
