
 OpenBabel09092210413D

 43 48  0  0  0  0  0  0  0  0999 V2000
    1.2660   -3.4550    3.4080 C   0  0  0  0  0  1  0  0  0  0  0  0
    1.3680   -2.0510    2.9450 N   0  0  0  0  0  0  0  0  0  0  0  0
    0.0490   -1.4840    2.5540 C   0  0  0  0  0  2  0  0  0  0  0  0
   -0.3840   -1.9640    1.1570 C   0  0  0  0  0  2  0  0  0  0  0  0
    0.4980   -1.4370    0.0160 C   0  0  0  0  0  2  0  0  0  0  0  0
    1.7170   -2.3140   -0.2970 C   0  0  0  0  0  2  0  0  0  0  0  0
    1.4410   -3.4620   -1.2700 C   0  0  0  0  0  2  0  0  0  0  0  0
    1.3880   -2.9680   -2.6350 N   0  0  0  0  0  0  0  0  0  0  0  0
    2.3290   -3.0310   -3.6140 C   0  0  0  0  0  0  0  0  0  0  0  0
    2.1730   -2.4180   -4.6670 O   0  0  0  0  0  0  0  0  0  0  0  0
    3.5180   -3.8870   -3.4320 C   0  0  0  0  0  0  0  0  0  0  0  0
    3.4450   -5.1130   -3.9820 C   0  0  0  0  0  3  0  0  0  0  0  0
    4.6220   -5.9830   -4.1690 C   0  0  0  0  0  0  0  0  0  0  0  0
    4.6450   -6.7380   -5.3570 C   0  0  0  0  0  3  0  0  0  0  0  0
    5.7410   -7.5360   -5.6850 C   0  0  0  0  0  3  0  0  0  0  0  0
    6.8330   -7.5770   -4.8300 C   0  0  0  0  0  0  0  0  0  0  0  0
    8.2010   -8.5380   -5.2360 Cl  0  0  0  0  0  0  0  0  0  0  0  0
    6.8270   -6.8480   -3.6430 C   0  0  0  0  0  3  0  0  0  0  0  0
    5.7130   -6.0730   -3.2730 C   0  0  0  0  0  0  0  0  0  0  0  0
    5.7330   -5.3880   -1.9640 C   0  0  0  0  0  0  0  0  0  0  0  0
    6.0760   -5.8750   -0.6970 C   0  0  0  0  0  0  0  0  0  0  0  0
    5.9090   -4.7920    0.2330 C   0  0  0  0  0  0  0  0  0  0  0  0
    6.0900   -4.6610    1.6300 C   0  0  0  0  0  3  0  0  0  0  0  0
    5.6810   -3.4960    2.2920 C   0  0  0  0  0  3  0  0  0  0  0  0
    5.1350   -2.4370    1.5690 C   0  0  0  0  0  0  0  0  0  0  0  0
    5.0910   -2.4920    0.1670 C   0  0  0  0  0  3  0  0  0  0  0  0
    5.4290   -3.6940   -0.4770 C   0  0  0  0  0  0  0  0  0  0  0  0
    5.3190   -4.0760   -1.7970 N   0  0  0  0  0  0  0  0  0  0  0  0
    4.7520   -3.2570   -2.8730 C   0  0  0  0  0  2  0  0  0  0  0  0
    4.3900   -1.3100    2.2040 C   0  0  0  0  0  0  0  0  0  0  0  0
    4.2070   -0.2720    1.5910 O   0  0  0  0  0  0  0  0  0  0  0  0
    3.8240   -1.6080    3.4540 N   0  0  0  0  0  0  0  0  0  0  0  0
    2.3350   -1.0420    3.9260 S   0  0  0  0  0  0  0  0  0  0  0  0
    2.1670    0.3320    3.5350 O   0  0  0  0  0  0  0  0  0  0  0  0
    2.1470   -1.4760    5.2910 O   0  0  0  0  0  0  0  0  0  0  0  0
    0.5890   -2.4020   -2.8990 H   0  0  0  0  0  0  0  0  0  0  0  0
    4.0210   -2.4820    3.9190 H   0  0  0  0  0  0  0  0  0  0  0  0
    6.4820   -7.2980   -0.3530 C   0  0  0  0  0  3  0  0  0  0  0  0
    7.9150   -7.3800    0.1990 C   0  0  0  0  0  2  0  0  0  0  0  0
    8.3160   -8.8220    0.5040 C   0  0  0  0  0  2  0  0  0  0  0  0
    7.3160   -9.5000    1.4380 C   0  0  0  0  0  2  0  0  0  0  0  0
    5.8950   -9.4310    0.8840 C   0  0  0  0  0  2  0  0  0  0  0  0
    5.4770   -7.9930    0.5820 C   0  0  0  0  0  2  0  0  0  0  0  0
  2  1  1  0  0  0  0
  2 33  1  0  0  0  0
  3  2  1  0  0  0  0
  4  3  1  0  0  0  0
  5  4  1  0  0  0  0
  6  5  1  0  0  0  0
  7  6  1  0  0  0  0
  8  7  1  0  0  0  0
  9 11  1  0  0  0  0
  9  8  1  0  0  0  0
 10  9  2  0  0  0  0
 11 29  1  0  0  0  0
 12 11  2  0  0  0  0
 13 12  1  0  0  0  0
 13 19  1  0  0  0  0
 14 13  2  0  0  0  0
 15 14  1  0  0  0  0
 15 16  2  0  0  0  0
 16 18  1  0  0  0  0
 17 16  1  0  0  0  0
 18 19  2  0  0  0  0
 19 20  1  0  0  0  0
 20 28  1  0  0  0  0
 20 21  2  0  0  0  0
 21 38  1  0  0  0  0
 21 22  1  0  0  0  0
 22 23  1  0  0  0  0
 23 24  2  0  0  0  0
 25 30  1  0  0  0  0
 25 24  1  0  0  0  0
 26 25  2  0  0  0  0
 27 26  1  0  0  0  0
 27 22  2  0  0  0  0
 28 27  1  0  0  0  0
 29 28  1  0  0  0  0
 30 32  1  0  0  0  0
 31 30  2  0  0  0  0
 32 37  1  0  0  0  0
 32 33  1  0  0  0  0
 33 35  2  0  0  0  0
 34 33  2  0  0  0  0
 36  8  1  0  0  0  0
 38 39  1  0  0  0  0
 38 43  1  0  0  0  0
 39 40  1  0  0  0  0
 40 41  1  0  0  0  0
 42 41  1  0  0  0  0
 43 42  1  0  0  0  0
M  END
>  <minimizedAffinity>
-4.27109861

$$$$
