
 OpenBabel09092210413D

 43 48  0  0  0  0  0  0  0  0999 V2000
    7.1070   -4.7840   -5.0260 C   0  0  0  0  0  1  0  0  0  0  0  0
    6.0880   -5.8350   -5.2620 N   0  0  0  0  0  0  0  0  0  0  0  0
    5.2940   -5.5890   -6.4970 C   0  0  0  0  0  2  0  0  0  0  0  0
    4.2090   -4.5210   -6.2700 C   0  0  0  0  0  2  0  0  0  0  0  0
    3.0990   -4.9560   -5.3030 C   0  0  0  0  0  2  0  0  0  0  0  0
    3.3940   -4.6580   -3.8270 C   0  0  0  0  0  2  0  0  0  0  0  0
    3.0040   -3.2500   -3.3730 C   0  0  0  0  0  2  0  0  0  0  0  0
    1.5720   -3.1680   -3.1490 N   0  0  0  0  0  0  0  0  0  0  0  0
    0.8760   -3.1950   -1.9820 C   0  0  0  0  0  0  0  0  0  0  0  0
   -0.3510   -3.2740   -1.9900 O   0  0  0  0  0  0  0  0  0  0  0  0
    1.5940   -3.0720   -0.6980 C   0  0  0  0  0  0  0  0  0  0  0  0
    1.6430   -1.8340   -0.1720 C   0  0  0  0  0  3  0  0  0  0  0  0
    2.0410   -1.5670    1.2230 C   0  0  0  0  0  0  0  0  0  0  0  0
    1.3310   -0.5430    1.8790 C   0  0  0  0  0  3  0  0  0  0  0  0
    1.5600   -0.2520    3.2230 C   0  0  0  0  0  3  0  0  0  0  0  0
    2.4970   -0.9930    3.9310 C   0  0  0  0  0  0  0  0  0  0  0  0
    2.7710   -0.6600    5.5960 Cl  0  0  0  0  0  0  0  0  0  0  0  0
    3.2200   -2.0020    3.2990 C   0  0  0  0  0  3  0  0  0  0  0  0
    3.0350   -2.2810    1.9320 C   0  0  0  0  0  0  0  0  0  0  0  0
    3.8900   -3.3070    1.2990 C   0  0  0  0  0  0  0  0  0  0  0  0
    5.2760   -3.4890    1.3630 C   0  0  0  0  0  0  0  0  0  0  0  0
    5.5920   -4.6330    0.5510 C   0  0  0  0  0  0  0  0  0  0  0  0
    6.7930   -5.3010    0.2200 C   0  0  0  0  0  3  0  0  0  0  0  0
    6.7990   -6.3130   -0.7480 C   0  0  0  0  0  3  0  0  0  0  0  0
    5.6080   -6.7030   -1.3580 C   0  0  0  0  0  0  0  0  0  0  0  0
    4.3870   -6.1580   -0.9290 C   0  0  0  0  0  3  0  0  0  0  0  0
    4.4040   -5.0880   -0.0190 C   0  0  0  0  0  0  0  0  0  0  0  0
    3.3910   -4.2700    0.4360 N   0  0  0  0  0  0  0  0  0  0  0  0
    1.9930   -4.3300    0.0020 C   0  0  0  0  0  2  0  0  0  0  0  0
    5.5560   -7.5270   -2.6010 C   0  0  0  0  0  0  0  0  0  0  0  0
    4.5260   -8.0970   -2.9190 O   0  0  0  0  0  0  0  0  0  0  0  0
    6.7080   -7.4590   -3.4010 N   0  0  0  0  0  0  0  0  0  0  0  0
    6.6500   -7.4350   -5.0620 S   0  0  0  0  0  0  0  0  0  0  0  0
    5.6690   -8.3660   -5.5500 O   0  0  0  0  0  0  0  0  0  0  0  0
    8.0210   -7.4600   -5.5180 O   0  0  0  0  0  0  0  0  0  0  0  0
    0.9680   -3.1950   -3.9630 H   0  0  0  0  0  0  0  0  0  0  0  0
    7.5370   -6.9810   -3.0800 H   0  0  0  0  0  0  0  0  0  0  0  0
    6.2740   -2.6060    2.0930 C   0  0  0  0  0  3  0  0  0  0  0  0
    6.9790   -3.3450    3.2420 C   0  0  0  0  0  2  0  0  0  0  0  0
    7.9500   -2.4300    3.9850 C   0  0  0  0  0  2  0  0  0  0  0  0
    8.9540   -1.7840    3.0350 C   0  0  0  0  0  2  0  0  0  0  0  0
    8.2560   -1.0370    1.9020 C   0  0  0  0  0  2  0  0  0  0  0  0
    7.2880   -1.9430    1.1440 C   0  0  0  0  0  2  0  0  0  0  0  0
  2 33  1  0  0  0  0
  2  1  1  0  0  0  0
  3  4  1  0  0  0  0
  3  2  1  0  0  0  0
  4  5  1  0  0  0  0
  5  6  1  0  0  0  0
  6  7  1  0  0  0  0
  7  8  1  0  0  0  0
  8  9  1  0  0  0  0
  9 11  1  0  0  0  0
 10  9  2  0  0  0  0
 11 12  2  0  0  0  0
 11 29  1  0  0  0  0
 12 13  1  0  0  0  0
 13 14  2  0  0  0  0
 13 19  1  0  0  0  0
 14 15  1  0  0  0  0
 15 16  2  0  0  0  0
 16 17  1  0  0  0  0
 18 16  1  0  0  0  0
 19 18  2  0  0  0  0
 20 21  2  0  0  0  0
 20 19  1  0  0  0  0
 21 38  1  0  0  0  0
 22 21  1  0  0  0  0
 23 22  1  0  0  0  0
 24 23  2  0  0  0  0
 25 26  2  0  0  0  0
 25 24  1  0  0  0  0
 26 27  1  0  0  0  0
 27 28  1  0  0  0  0
 27 22  2  0  0  0  0
 28 20  1  0  0  0  0
 29 28  1  0  0  0  0
 30 25  1  0  0  0  0
 31 30  2  0  0  0  0
 32 37  1  0  0  0  0
 32 30  1  0  0  0  0
 33 32  1  0  0  0  0
 34 33  2  0  0  0  0
 35 33  2  0  0  0  0
 36  8  1  0  0  0  0
 38 39  1  0  0  0  0
 39 40  1  0  0  0  0
 41 40  1  0  0  0  0
 42 41  1  0  0  0  0
 43 42  1  0  0  0  0
 43 38  1  0  0  0  0
M  END
>  <minimizedAffinity>
-4.65304327

$$$$
