
 OpenBabel09092210413D

 43 48  0  0  0  0  0  0  0  0999 V2000
    8.0450   -5.6490   -4.7530 C   0  0  0  0  0  1  0  0  0  0  0  0
    7.1100   -6.7540   -5.0730 N   0  0  0  0  0  0  0  0  0  0  0  0
    6.5270   -6.6290   -6.4370 C   0  0  0  0  0  2  0  0  0  0  0  0
    5.3910   -5.5910   -6.4760 C   0  0  0  0  0  2  0  0  0  0  0  0
    4.1460   -6.0010   -5.6750 C   0  0  0  0  0  2  0  0  0  0  0  0
    4.1820   -5.5870   -4.1980 C   0  0  0  0  0  2  0  0  0  0  0  0
    3.6820   -4.1680   -3.9230 C   0  0  0  0  0  2  0  0  0  0  0  0
    2.2300   -4.1270   -3.9470 N   0  0  0  0  0  0  0  0  0  0  0  0
    1.3500   -4.0990   -2.9120 C   0  0  0  0  0  0  0  0  0  0  0  0
    0.1450   -4.2270   -3.1170 O   0  0  0  0  0  0  0  0  0  0  0  0
    1.8390   -3.8560   -1.5400 C   0  0  0  0  0  0  0  0  0  0  0  0
    1.7640   -2.5830   -1.1100 C   0  0  0  0  0  3  0  0  0  0  0  0
    1.9150   -2.2020    0.3070 C   0  0  0  0  0  0  0  0  0  0  0  0
    1.0770   -1.1630    0.7560 C   0  0  0  0  0  3  0  0  0  0  0  0
    1.0690   -0.7690    2.0930 C   0  0  0  0  0  3  0  0  0  0  0  0
    1.8930   -1.4200    3.0010 C   0  0  0  0  0  0  0  0  0  0  0  0
    1.8740   -0.9580    4.6580 Cl  0  0  0  0  0  0  0  0  0  0  0  0
    2.7400   -2.4410    2.5760 C   0  0  0  0  0  3  0  0  0  0  0  0
    2.7950   -2.8230    1.2240 C   0  0  0  0  0  0  0  0  0  0  0  0
    3.7720   -3.8570    0.8210 C   0  0  0  0  0  0  0  0  0  0  0  0
    5.1330   -3.9770    1.1270 C   0  0  0  0  0  0  0  0  0  0  0  0
    5.6110   -5.1620    0.4690 C   0  0  0  0  0  0  0  0  0  0  0  0
    6.8700   -5.8040    0.3930 C   0  0  0  0  0  3  0  0  0  0  0  0
    7.0660   -6.8810   -0.4800 C   0  0  0  0  0  3  0  0  0  0  0  0
    6.0050   -7.3610   -1.2460 C   0  0  0  0  0  0  0  0  0  0  0  0
    4.7160   -6.8360   -1.0690 C   0  0  0  0  0  3  0  0  0  0  0  0
    4.5500   -5.7050   -0.2530 C   0  0  0  0  0  0  0  0  0  0  0  0
    3.4520   -4.8980   -0.0360 N   0  0  0  0  0  0  0  0  0  0  0  0
    2.1490   -5.0440   -0.6890 C   0  0  0  0  0  2  0  0  0  0  0  0
    6.1860   -8.2730   -2.4140 C   0  0  0  0  0  0  0  0  0  0  0  0
    5.2400   -8.9050   -2.8530 O   0  0  0  0  0  0  0  0  0  0  0  0
    7.4540   -8.2160   -3.0160 N   0  0  0  0  0  0  0  0  0  0  0  0
    7.6740   -8.3110   -4.6600 S   0  0  0  0  0  0  0  0  0  0  0  0
    6.8150   -9.3140   -5.2300 O   0  0  0  0  0  0  0  0  0  0  0  0
    9.1030   -8.3150   -4.8800 O   0  0  0  0  0  0  0  0  0  0  0  0
    1.7730   -4.2360   -4.8450 H   0  0  0  0  0  0  0  0  0  0  0  0
    8.2030   -7.6830   -2.6000 H   0  0  0  0  0  0  0  0  0  0  0  0
    5.9680   -3.0050    1.9420 C   0  0  0  0  0  3  0  0  0  0  0  0
    6.4810   -3.6290    3.2510 C   0  0  0  0  0  2  0  0  0  0  0  0
    7.2880   -2.6250    4.0710 C   0  0  0  0  0  2  0  0  0  0  0  0
    8.4270   -2.0170    3.2570 C   0  0  0  0  0  2  0  0  0  0  0  0
    7.9180   -1.3850    1.9640 C   0  0  0  0  0  2  0  0  0  0  0  0
    7.1160   -2.3810    1.1290 C   0  0  0  0  0  2  0  0  0  0  0  0
  2  1  1  0  0  0  0
  2 33  1  0  0  0  0
  3  2  1  0  0  0  0
  4  3  1  0  0  0  0
  4  5  1  0  0  0  0
  5  6  1  0  0  0  0
  6  7  1  0  0  0  0
  8  7  1  0  0  0  0
  8  9  1  0  0  0  0
  9 11  1  0  0  0  0
 10  9  2  0  0  0  0
 11 12  2  0  0  0  0
 11 29  1  0  0  0  0
 12 13  1  0  0  0  0
 13 14  2  0  0  0  0
 13 19  1  0  0  0  0
 14 15  1  0  0  0  0
 15 16  2  0  0  0  0
 16 17  1  0  0  0  0
 18 16  1  0  0  0  0
 19 18  2  0  0  0  0
 20 21  2  0  0  0  0
 20 19  1  0  0  0  0
 21 38  1  0  0  0  0
 22 21  1  0  0  0  0
 23 22  1  0  0  0  0
 24 23  2  0  0  0  0
 25 26  2  0  0  0  0
 25 24  1  0  0  0  0
 26 27  1  0  0  0  0
 27 28  1  0  0  0  0
 27 22  2  0  0  0  0
 28 20  1  0  0  0  0
 29 28  1  0  0  0  0
 30 25  1  0  0  0  0
 31 30  2  0  0  0  0
 32 37  1  0  0  0  0
 32 30  1  0  0  0  0
 33 32  1  0  0  0  0
 34 33  2  0  0  0  0
 35 33  2  0  0  0  0
 36  8  1  0  0  0  0
 38 39  1  0  0  0  0
 39 40  1  0  0  0  0
 41 40  1  0  0  0  0
 42 41  1  0  0  0  0
 43 38  1  0  0  0  0
 43 42  1  0  0  0  0
M  END
>  <minimizedAffinity>
-4.56921768

$$$$
