
 OpenBabel09092210413D

 43 48  0  0  0  0  0  0  0  0999 V2000
    5.0810  -10.1410    0.3720 C   0  0  0  0  0  1  0  0  0  0  0  0
    5.7060   -9.3880    1.4850 N   0  0  0  0  0  0  0  0  0  0  0  0
    5.0230   -9.6230    2.7860 C   0  0  0  0  0  2  0  0  0  0  0  0
    3.7230   -8.8080    2.9000 C   0  0  0  0  0  2  0  0  0  0  0  0
    3.9440   -7.2900    2.9690 C   0  0  0  0  0  2  0  0  0  0  0  0
    4.0040   -6.5970    1.6020 C   0  0  0  0  0  2  0  0  0  0  0  0
    2.6420   -6.2000    1.0300 C   0  0  0  0  0  2  0  0  0  0  0  0
    2.1550   -4.9920    1.6710 N   0  0  0  0  0  0  0  0  0  0  0  0
    2.1580   -3.7110    1.2170 C   0  0  0  0  0  0  0  0  0  0  0  0
    1.8470   -2.7850    1.9630 O   0  0  0  0  0  0  0  0  0  0  0  0
    2.4810   -3.4360   -0.1970 C   0  0  0  0  0  0  0  0  0  0  0  0
    1.4270   -3.3000   -1.0220 C   0  0  0  0  0  3  0  0  0  0  0  0
    1.5340   -2.7320   -2.3790 C   0  0  0  0  0  0  0  0  0  0  0  0
    0.4640   -1.9130   -2.7890 C   0  0  0  0  0  3  0  0  0  0  0  0
    0.4890   -1.2540   -4.0180 C   0  0  0  0  0  3  0  0  0  0  0  0
    1.5920   -1.3990   -4.8470 C   0  0  0  0  0  0  0  0  0  0  0  0
    1.6440   -0.5720   -6.3550 Cl  0  0  0  0  0  0  0  0  0  0  0  0
    2.6560   -2.2140   -4.4680 C   0  0  0  0  0  3  0  0  0  0  0  0
    2.6310   -2.9220   -3.2520 C   0  0  0  0  0  0  0  0  0  0  0  0
    3.7520   -3.8340   -2.9430 C   0  0  0  0  0  0  0  0  0  0  0  0
    4.3650   -4.8090   -3.7390 C   0  0  0  0  0  0  0  0  0  0  0  0
    5.3980   -5.4160   -2.9440 C   0  0  0  0  0  0  0  0  0  0  0  0
    6.3430   -6.4420   -3.1790 C   0  0  0  0  0  3  0  0  0  0  0  0
    7.1300   -6.9360   -2.1300 C   0  0  0  0  0  3  0  0  0  0  0  0
    7.0200   -6.3830   -0.8560 C   0  0  0  0  0  0  0  0  0  0  0  0
    6.2010   -5.2640   -0.6420 C   0  0  0  0  0  3  0  0  0  0  0  0
    5.3580   -4.8320   -1.6790 C   0  0  0  0  0  0  0  0  0  0  0  0
    4.3520   -3.8890   -1.6950 N   0  0  0  0  0  0  0  0  0  0  0  0
    3.8990   -3.1120   -0.5380 C   0  0  0  0  0  2  0  0  0  0  0  0
    7.5670   -7.0380    0.3690 C   0  0  0  0  0  0  0  0  0  0  0  0
    7.7260   -6.3930    1.3930 O   0  0  0  0  0  0  0  0  0  0  0  0
    7.7300   -8.4300    0.2720 N   0  0  0  0  0  0  0  0  0  0  0  0
    7.4120   -9.4640    1.5330 S   0  0  0  0  0  0  0  0  0  0  0  0
    7.8950   -8.9170    2.7720 O   0  0  0  0  0  0  0  0  0  0  0  0
    7.7880  -10.7840    1.0820 O   0  0  0  0  0  0  0  0  0  0  0  0
    1.8550   -5.0610    2.6370 H   0  0  0  0  0  0  0  0  0  0  0  0
    7.5950   -8.9090   -0.6070 H   0  0  0  0  0  0  0  0  0  0  0  0
    3.9730   -5.2040   -5.1520 C   0  0  0  0  0  3  0  0  0  0  0  0
    5.0940   -4.9310   -6.1680 C   0  0  0  0  0  2  0  0  0  0  0  0
    4.6660   -5.3020   -7.5870 C   0  0  0  0  0  2  0  0  0  0  0  0
    4.1750   -6.7450   -7.6690 C   0  0  0  0  0  2  0  0  0  0  0  0
    3.0520   -7.0130   -6.6700 C   0  0  0  0  0  2  0  0  0  0  0  0
    3.4690   -6.6550   -5.2450 C   0  0  0  0  0  2  0  0  0  0  0  0
  1  2  1  0  0  0  0
  2 33  1  0  0  0  0
  2  3  1  0  0  0  0
  3  4  1  0  0  0  0
  4  5  1  0  0  0  0
  6  5  1  0  0  0  0
  7  6  1  0  0  0  0
  7  8  1  0  0  0  0
  8 36  1  0  0  0  0
  9  8  1  0  0  0  0
  9 10  2  0  0  0  0
 11  9  1  0  0  0  0
 12 11  2  0  0  0  0
 13 12  1  0  0  0  0
 14 13  1  0  0  0  0
 15 14  2  0  0  0  0
 16 18  2  0  0  0  0
 16 15  1  0  0  0  0
 17 16  1  0  0  0  0
 18 19  1  0  0  0  0
 19 20  1  0  0  0  0
 19 13  2  0  0  0  0
 20 28  1  0  0  0  0
 21 22  1  0  0  0  0
 21 20  2  0  0  0  0
 22 27  1  0  0  0  0
 23 22  2  0  0  0  0
 23 24  1  0  0  0  0
 24 25  2  0  0  0  0
 25 26  1  0  0  0  0
 25 30  1  0  0  0  0
 27 26  2  0  0  0  0
 28 27  1  0  0  0  0
 28 29  1  0  0  0  0
 29 11  1  0  0  0  0
 30 31  2  0  0  0  0
 32 30  1  0  0  0  0
 32 33  1  0  0  0  0
 33 34  2  0  0  0  0
 35 33  2  0  0  0  0
 37 32  1  0  0  0  0
 38 21  1  0  0  0  0
 39 38  1  0  0  0  0
 40 39  1  0  0  0  0
 41 40  1  0  0  0  0
 41 42  1  0  0  0  0
 42 43  1  0  0  0  0
 43 38  1  0  0  0  0
M  END
>  <minimizedAffinity>
-4.24241829

$$$$
