
 OpenBabel09082221263D

 43 48  0  0  0  0  0  0  0  0999 V2000
    5.8090   -8.9870   -5.2290 C   0  0  0  0  0  1  0  0  0  0  0  0
    7.1280   -8.3160   -5.1380 N   0  0  0  0  0  0  0  0  0  0  0  0
    8.1340   -9.1350   -4.4100 C   0  0  0  0  0  2  0  0  0  0  0  0
    7.9350   -9.0570   -2.8860 C   0  0  0  0  0  2  0  0  0  0  0  0
    8.2190   -7.6690   -2.2920 C   0  0  0  0  0  2  0  0  0  0  0  0
    7.0080   -6.7270   -2.2810 C   0  0  0  0  0  2  0  0  0  0  0  0
    6.0980   -6.8750   -1.0610 C   0  0  0  0  0  2  0  0  0  0  0  0
    6.6820   -6.2120    0.0910 N   0  0  0  0  0  0  0  0  0  0  0  0
    6.3790   -5.0050    0.6390 C   0  0  0  0  0  0  0  0  0  0  0  0
    7.0870   -4.5280    1.5230 O   0  0  0  0  0  0  0  0  0  0  0  0
    5.1610   -4.2900    0.2080 C   0  0  0  0  0  0  0  0  0  0  0  0
    4.0770   -4.4620    0.9860 C   0  0  0  0  0  3  0  0  0  0  0  0
    2.8780   -3.6080    0.8960 C   0  0  0  0  0  0  0  0  0  0  0  0
    2.2510   -3.2980    2.1190 C   0  0  0  0  0  3  0  0  0  0  0  0
    1.1570   -2.4340    2.1720 C   0  0  0  0  0  3  0  0  0  0  0  0
    0.6860   -1.8600    0.9990 C   0  0  0  0  0  0  0  0  0  0  0  0
   -0.6470   -0.7730    1.0550 Cl  0  0  0  0  0  0  0  0  0  0  0  0
    1.2820   -2.1620   -0.2230 C   0  0  0  0  0  3  0  0  0  0  0  0
    2.3580   -3.0650   -0.3020 C   0  0  0  0  0  0  0  0  0  0  0  0
    2.8950   -3.4080   -1.6360 C   0  0  0  0  0  0  0  0  0  0  0  0
    2.2260   -3.7770   -2.8080 C   0  0  0  0  0  0  0  0  0  0  0  0
    3.2290   -4.0120   -3.8120 C   0  0  0  0  0  0  0  0  0  0  0  0
    3.1860   -4.4050   -5.1700 C   0  0  0  0  0  3  0  0  0  0  0  0
    4.3670   -4.7140   -5.8560 C   0  0  0  0  0  3  0  0  0  0  0  0
    5.5990   -4.5890   -5.2180 C   0  0  0  0  0  0  0  0  0  0  0  0
    5.6680   -4.0540   -3.9220 C   0  0  0  0  0  3  0  0  0  0  0  0
    4.4750   -3.8250   -3.2180 C   0  0  0  0  0  0  0  0  0  0  0  0
    4.2530   -3.4720   -1.9030 N   0  0  0  0  0  0  0  0  0  0  0  0
    5.2940   -3.2840   -0.8880 C   0  0  0  0  0  2  0  0  0  0  0  0
    6.8590   -5.1870   -5.7480 C   0  0  0  0  0  0  0  0  0  0  0  0
    7.9420   -4.8020   -5.3400 O   0  0  0  0  0  0  0  0  0  0  0  0
    6.6760   -6.2840   -6.6060 N   0  0  0  0  0  0  0  0  0  0  0  0
    7.6750   -7.6120   -6.5950 S   0  0  0  0  0  0  0  0  0  0  0  0
    9.0500   -7.2130   -6.4620 O   0  0  0  0  0  0  0  0  0  0  0  0
    7.2280   -8.4670   -7.6700 O   0  0  0  0  0  0  0  0  0  0  0  0
    7.5020   -6.6350    0.5110 H   0  0  0  0  0  0  0  0  0  0  0  0
    5.7550   -6.5510   -6.9200 H   0  0  0  0  0  0  0  0  0  0  0  0
    0.7280   -3.9640   -2.9770 C   0  0  0  0  0  3  0  0  0  0  0  0
    0.1280   -2.9890   -4.0030 C   0  0  0  0  0  2  0  0  0  0  0  0
   -1.3830   -3.1700   -4.1310 C   0  0  0  0  0  2  0  0  0  0  0  0
   -1.7530   -4.6160   -4.4500 C   0  0  0  0  0  2  0  0  0  0  0  0
   -1.1700   -5.5840   -3.4240 C   0  0  0  0  0  2  0  0  0  0  0  0
    0.3430   -5.4210   -3.2920 C   0  0  0  0  0  2  0  0  0  0  0  0
  1  2  1  0  0  0  0
  2  3  1  0  0  0  0
  3  4  1  0  0  0  0
  4  5  1  0  0  0  0
  5  6  1  0  0  0  0
  6  7  1  0  0  0  0
  7  8  1  0  0  0  0
  8 36  1  0  0  0  0
  8  9  1  0  0  0  0
  9 10  2  0  0  0  0
 11  9  1  0  0  0  0
 11 12  2  0  0  0  0
 13 12  1  0  0  0  0
 13 14  1  0  0  0  0
 14 15  2  0  0  0  0
 16 17  1  0  0  0  0
 16 15  1  0  0  0  0
 18 16  2  0  0  0  0
 19 18  1  0  0  0  0
 19 13  2  0  0  0  0
 20 19  1  0  0  0  0
 21 20  2  0  0  0  0
 22 27  1  0  0  0  0
 22 21  1  0  0  0  0
 23 22  2  0  0  0  0
 24 25  2  0  0  0  0
 24 23  1  0  0  0  0
 25 26  1  0  0  0  0
 26 27  2  0  0  0  0
 27 28  1  0  0  0  0
 28 20  1  0  0  0  0
 28 29  1  0  0  0  0
 29 11  1  0  0  0  0
 30 31  2  0  0  0  0
 30 25  1  0  0  0  0
 32 33  1  0  0  0  0
 32 30  1  0  0  0  0
 33 34  2  0  0  0  0
 33  2  1  0  0  0  0
 35 33  2  0  0  0  0
 37 32  1  0  0  0  0
 38 21  1  0  0  0  0
 39 38  1  0  0  0  0
 40 39  1  0  0  0  0
 41 40  1  0  0  0  0
 41 42  1  0  0  0  0
 42 43  1  0  0  0  0
 43 38  1  0  0  0  0
M  END
>  <minimizedAffinity>
-5.16936064

$$$$

 OpenBabel09082221263D

 43 48  0  0  0  0  0  0  0  0999 V2000
    5.8940   -9.3920   -5.5730 C   0  0  0  0  0  1  0  0  0  0  0  0
    7.1960   -8.8470   -5.1200 N   0  0  0  0  0  0  0  0  0  0  0  0
    7.8670   -9.7290   -4.1270 C   0  0  0  0  0  2  0  0  0  0  0  0
    7.2570   -9.5700   -2.7230 C   0  0  0  0  0  2  0  0  0  0  0  0
    7.5040   -8.1940   -2.0880 C   0  0  0  0  0  2  0  0  0  0  0  0
    6.4430   -7.1400   -2.4320 C   0  0  0  0  0  2  0  0  0  0  0  0
    5.2170   -7.1520   -1.5180 C   0  0  0  0  0  2  0  0  0  0  0  0
    5.5190   -6.5010   -0.2550 N   0  0  0  0  0  0  0  0  0  0  0  0
    5.2010   -5.2500    0.1700 C   0  0  0  0  0  0  0  0  0  0  0  0
    5.6770   -4.8080    1.2130 O   0  0  0  0  0  0  0  0  0  0  0  0
    4.2340   -4.4400   -0.5960 C   0  0  0  0  0  0  0  0  0  0  0  0
    2.9630   -4.4760   -0.1560 C   0  0  0  0  0  3  0  0  0  0  0  0
    1.9320   -3.5140   -0.5910 C   0  0  0  0  0  0  0  0  0  0  0  0
    1.0220   -3.0980    0.4000 C   0  0  0  0  0  3  0  0  0  0  0  0
    0.0540   -2.1310    0.1310 C   0  0  0  0  0  3  0  0  0  0  0  0
   -0.0080   -1.5620   -1.1340 C   0  0  0  0  0  0  0  0  0  0  0  0
   -1.1830   -0.3510   -1.4710 Cl  0  0  0  0  0  0  0  0  0  0  0  0
    0.8730   -1.9680   -2.1330 C   0  0  0  0  0  3  0  0  0  0  0  0
    1.8280   -2.9730   -1.8940 C   0  0  0  0  0  0  0  0  0  0  0  0
    2.6800   -3.4190   -3.0170 C   0  0  0  0  0  0  0  0  0  0  0  0
    2.3330   -3.7690   -4.3270 C   0  0  0  0  0  0  0  0  0  0  0  0
    3.5470   -4.1390   -5.0020 C   0  0  0  0  0  0  0  0  0  0  0  0
    3.8470   -4.5810   -6.3120 C   0  0  0  0  0  3  0  0  0  0  0  0
    5.1350   -5.0290   -6.6320 C   0  0  0  0  0  3  0  0  0  0  0  0
    6.1440   -4.9970   -5.6720 C   0  0  0  0  0  0  0  0  0  0  0  0
    5.9020   -4.4190   -4.4160 C   0  0  0  0  0  3  0  0  0  0  0  0
    4.5890   -4.0490   -4.0810 C   0  0  0  0  0  0  0  0  0  0  0  0
    4.0450   -3.6240   -2.8870 N   0  0  0  0  0  0  0  0  0  0  0  0
    4.7720   -3.4960   -1.6210 C   0  0  0  0  0  2  0  0  0  0  0  0
    7.4340   -5.7340   -5.8160 C   0  0  0  0  0  0  0  0  0  0  0  0
    8.3930   -5.4380   -5.1220 O   0  0  0  0  0  0  0  0  0  0  0  0
    7.3870   -6.8420   -6.6790 N   0  0  0  0  0  0  0  0  0  0  0  0
    8.1990   -8.2580   -6.3690 S   0  0  0  0  0  0  0  0  0  0  0  0
    9.5160   -7.9870   -5.8570 O   0  0  0  0  0  0  0  0  0  0  0  0
    7.9860   -9.1090   -7.5180 O   0  0  0  0  0  0  0  0  0  0  0  0
    6.1400   -6.9840    0.3840 H   0  0  0  0  0  0  0  0  0  0  0  0
    6.5680   -7.0310   -7.2370 H   0  0  0  0  0  0  0  0  0  0  0  0
    0.9320   -3.8190   -4.9110 C   0  0  0  0  0  3  0  0  0  0  0  0
    0.7460   -2.8280   -6.0720 C   0  0  0  0  0  2  0  0  0  0  0  0
   -0.6790   -2.8680   -6.6210 C   0  0  0  0  0  2  0  0  0  0  0  0
   -1.0890   -4.2830   -7.0200 C   0  0  0  0  0  2  0  0  0  0  0  0
   -0.9190   -5.2650   -5.8640 C   0  0  0  0  0  2  0  0  0  0  0  0
    0.5050   -5.2420   -5.3110 C   0  0  0  0  0  2  0  0  0  0  0  0
  1  2  1  0  0  0  0
  2  3  1  0  0  0  0
  3  4  1  0  0  0  0
  4  5  1  0  0  0  0
  6  5  1  0  0  0  0
  6  7  1  0  0  0  0
  7  8  1  0  0  0  0
  8  9  1  0  0  0  0
  8 36  1  0  0  0  0
  9 10  2  0  0  0  0
 11 12  2  0  0  0  0
 11  9  1  0  0  0  0
 13 12  1  0  0  0  0
 13 14  1  0  0  0  0
 15 14  2  0  0  0  0
 16 15  1  0  0  0  0
 17 16  1  0  0  0  0
 18 19  1  0  0  0  0
 18 16  2  0  0  0  0
 19 13  2  0  0  0  0
 20 28  1  0  0  0  0
 20 19  1  0  0  0  0
 21 20  2  0  0  0  0
 22 21  1  0  0  0  0
 22 27  1  0  0  0  0
 23 22  2  0  0  0  0
 24 23  1  0  0  0  0
 24 25  2  0  0  0  0
 25 26  1  0  0  0  0
 26 27  2  0  0  0  0
 27 28  1  0  0  0  0
 28 29  1  0  0  0  0
 29 11  1  0  0  0  0
 30 25  1  0  0  0  0
 30 31  2  0  0  0  0
 32 33  1  0  0  0  0
 32 30  1  0  0  0  0
 33 34  2  0  0  0  0
 33  2  1  0  0  0  0
 35 33  2  0  0  0  0
 37 32  1  0  0  0  0
 38 21  1  0  0  0  0
 39 38  1  0  0  0  0
 40 39  1  0  0  0  0
 41 40  1  0  0  0  0
 41 42  1  0  0  0  0
 42 43  1  0  0  0  0
 43 38  1  0  0  0  0
M  END
>  <minimizedAffinity>
-4.8761487

$$$$

 OpenBabel09082221263D

 43 48  0  0  0  0  0  0  0  0999 V2000
   11.6220    1.2150    2.5570 C   0  0  0  0  0  1  0  0  0  0  0  0
   12.0010    1.3380    3.9850 N   0  0  0  0  0  0  0  0  0  0  0  0
   13.4690    1.2160    4.1970 C   0  0  0  0  0  2  0  0  0  0  0  0
   13.9280   -0.2520    4.1520 C   0  0  0  0  0  2  0  0  0  0  0  0
   13.4040   -1.1040    5.3170 C   0  0  0  0  0  2  0  0  0  0  0  0
   12.0360   -1.7500    5.0610 C   0  0  0  0  0  2  0  0  0  0  0  0
   12.0940   -3.0920    4.3290 C   0  0  0  0  0  2  0  0  0  0  0  0
   12.4750   -4.1540    5.2440 N   0  0  0  0  0  0  0  0  0  0  0  0
   11.7000   -5.0890    5.8540 C   0  0  0  0  0  0  0  0  0  0  0  0
   12.1700   -5.8150    6.7260 O   0  0  0  0  0  0  0  0  0  0  0  0
   10.2980   -5.2710    5.4250 C   0  0  0  0  0  0  0  0  0  0  0  0
   10.0830   -6.2570    4.5350 C   0  0  0  0  0  3  0  0  0  0  0  0
    8.7400   -6.7830    4.2250 C   0  0  0  0  0  0  0  0  0  0  0  0
    8.6590   -8.1720    4.0110 C   0  0  0  0  0  3  0  0  0  0  0  0
    7.4330   -8.7990    3.7900 C   0  0  0  0  0  3  0  0  0  0  0  0
    6.2700   -8.0410    3.7930 C   0  0  0  0  0  0  0  0  0  0  0  0
    4.7490   -8.8060    3.5460 Cl  0  0  0  0  0  0  0  0  0  0  0  0
    6.3280   -6.6630    3.9890 C   0  0  0  0  0  3  0  0  0  0  0  0
    7.5590   -6.0070    4.1690 C   0  0  0  0  0  0  0  0  0  0  0  0
    7.5620   -4.5330    4.2920 C   0  0  0  0  0  0  0  0  0  0  0  0
    6.9220   -3.5640    3.5110 C   0  0  0  0  0  0  0  0  0  0  0  0
    7.2700   -2.2810    4.0590 C   0  0  0  0  0  0  0  0  0  0  0  0
    6.9470   -0.9470    3.7190 C   0  0  0  0  0  3  0  0  0  0  0  0
    7.5850    0.1230    4.3580 C   0  0  0  0  0  3  0  0  0  0  0  0
    8.5110   -0.1200    5.3720 C   0  0  0  0  0  0  0  0  0  0  0  0
    8.7280   -1.4310    5.8260 C   0  0  0  0  0  3  0  0  0  0  0  0
    8.1440   -2.4980    5.1230 C   0  0  0  0  0  0  0  0  0  0  0  0
    8.3160   -3.8610    5.2410 N   0  0  0  0  0  0  0  0  0  0  0  0
    9.2390   -4.5230    6.1670 C   0  0  0  0  0  2  0  0  0  0  0  0
    9.4590    0.9140    5.8800 C   0  0  0  0  0  0  0  0  0  0  0  0
   10.0210    0.7600    6.9510 O   0  0  0  0  0  0  0  0  0  0  0  0
    9.7370    1.9540    4.9770 N   0  0  0  0  0  0  0  0  0  0  0  0
   11.2480    2.6260    4.8170 S   0  0  0  0  0  0  0  0  0  0  0  0
   11.8630    2.8070    6.1040 O   0  0  0  0  0  0  0  0  0  0  0  0
   11.1120    3.7140    3.8750 O   0  0  0  0  0  0  0  0  0  0  0  0
   13.4320   -4.1650    5.5770 H   0  0  0  0  0  0  0  0  0  0  0  0
    9.2310    2.0370    4.1080 H   0  0  0  0  0  0  0  0  0  0  0  0
    6.0730   -3.8100    2.2760 C   0  0  0  0  0  3  0  0  0  0  0  0
    4.6220   -3.3360    2.4580 C   0  0  0  0  0  2  0  0  0  0  0  0
    3.7780   -3.6260    1.2180 C   0  0  0  0  0  2  0  0  0  0  0  0
    4.4060   -3.0340   -0.0410 C   0  0  0  0  0  2  0  0  0  0  0  0
    5.8420   -3.5150   -0.2320 C   0  0  0  0  0  2  0  0  0  0  0  0
    6.7000   -3.2240    0.9980 C   0  0  0  0  0  2  0  0  0  0  0  0
  1  2  1  0  0  0  0
  2  3  1  0  0  0  0
  2 33  1  0  0  0  0
  4  3  1  0  0  0  0
  4  5  1  0  0  0  0
  6  5  1  0  0  0  0
  7  6  1  0  0  0  0
  7  8  1  0  0  0  0
  8 36  1  0  0  0  0
  8  9  1  0  0  0  0
  9 10  2  0  0  0  0
 11  9  1  0  0  0  0
 11 29  1  0  0  0  0
 12 11  2  0  0  0  0
 13 12  1  0  0  0  0
 14 13  2  0  0  0  0
 15 16  2  0  0  0  0
 15 14  1  0  0  0  0
 16 18  1  0  0  0  0
 17 16  1  0  0  0  0
 18 19  2  0  0  0  0
 19 13  1  0  0  0  0
 19 20  1  0  0  0  0
 20 28  1  0  0  0  0
 21 22  1  0  0  0  0
 21 20  2  0  0  0  0
 22 27  1  0  0  0  0
 23 22  2  0  0  0  0
 23 24  1  0  0  0  0
 24 25  2  0  0  0  0
 25 26  1  0  0  0  0
 25 30  1  0  0  0  0
 27 28  1  0  0  0  0
 27 26  2  0  0  0  0
 28 29  1  0  0  0  0
 30 31  2  0  0  0  0
 32 30  1  0  0  0  0
 33 32  1  0  0  0  0
 33 34  2  0  0  0  0
 35 33  2  0  0  0  0
 37 32  1  0  0  0  0
 38 39  1  0  0  0  0
 38 21  1  0  0  0  0
 40 39  1  0  0  0  0
 41 40  1  0  0  0  0
 42 41  1  0  0  0  0
 42 43  1  0  0  0  0
 43 38  1  0  0  0  0
M  END
>  <minimizedAffinity>
-4.82322788

$$$$

 OpenBabel09082221263D

 43 48  0  0  0  0  0  0  0  0999 V2000
    1.5830   -4.4790    2.7640 C   0  0  0  0  0  1  0  0  0  0  0  0
    1.7570   -3.0140    2.6280 N   0  0  0  0  0  0  0  0  0  0  0  0
    0.4620   -2.3000    2.4660 C   0  0  0  0  0  2  0  0  0  0  0  0
   -0.0740   -2.4170    1.0280 C   0  0  0  0  0  2  0  0  0  0  0  0
    0.7820   -1.6880   -0.0170 C   0  0  0  0  0  2  0  0  0  0  0  0
    1.9200   -2.5340   -0.6030 C   0  0  0  0  0  2  0  0  0  0  0  0
    1.5160   -3.4070   -1.7930 C   0  0  0  0  0  2  0  0  0  0  0  0
    1.4270   -2.6070   -3.0020 N   0  0  0  0  0  0  0  0  0  0  0  0
    2.3100   -2.4920   -4.0290 C   0  0  0  0  0  0  0  0  0  0  0  0
    2.1420   -1.6430   -4.9010 O   0  0  0  0  0  0  0  0  0  0  0  0
    3.4450   -3.4300   -4.1270 C   0  0  0  0  0  0  0  0  0  0  0  0
    3.2600   -4.4890   -4.9370 C   0  0  0  0  0  3  0  0  0  0  0  0
    4.3630   -5.3550   -5.3950 C   0  0  0  0  0  0  0  0  0  0  0  0
    4.2730   -5.8130   -6.7240 C   0  0  0  0  0  3  0  0  0  0  0  0
    5.2930   -6.5710   -7.2970 C   0  0  0  0  0  3  0  0  0  0  0  0
    6.4230   -6.8700   -6.5480 C   0  0  0  0  0  0  0  0  0  0  0  0
    7.6990   -7.7840   -7.2520 Cl  0  0  0  0  0  0  0  0  0  0  0  0
    6.5280   -6.4380   -5.2270 C   0  0  0  0  0  3  0  0  0  0  0  0
    5.4900   -5.7100   -4.6180 C   0  0  0  0  0  0  0  0  0  0  0  0
    5.6240   -5.3510   -3.1900 C   0  0  0  0  0  0  0  0  0  0  0  0
    5.9980   -6.1380   -2.0950 C   0  0  0  0  0  0  0  0  0  0  0  0
    5.9540   -5.2940   -0.9320 C   0  0  0  0  0  0  0  0  0  0  0  0
    6.2150   -5.5010    0.4430 C   0  0  0  0  0  3  0  0  0  0  0  0
    5.9210   -4.5010    1.3790 C   0  0  0  0  0  3  0  0  0  0  0  0
    5.4130   -3.2750    0.9560 C   0  0  0  0  0  0  0  0  0  0  0  0
    5.2930   -2.9990   -0.4150 C   0  0  0  0  0  3  0  0  0  0  0  0
    5.5140   -4.0350   -1.3380 C   0  0  0  0  0  0  0  0  0  0  0  0
    5.3100   -4.0930   -2.7010 N   0  0  0  0  0  0  0  0  0  0  0  0
    4.7470   -3.0170   -3.5210 C   0  0  0  0  0  2  0  0  0  0  0  0
    4.7810   -2.2880    1.8800 C   0  0  0  0  0  0  0  0  0  0  0  0
    4.6380   -1.1270    1.5340 O   0  0  0  0  0  0  0  0  0  0  0  0
    4.2610   -2.8370    3.0630 N   0  0  0  0  0  0  0  0  0  0  0  0
    2.8400   -2.3150    3.7490 S   0  0  0  0  0  0  0  0  0  0  0  0
    2.7470   -0.8810    3.6950 O   0  0  0  0  0  0  0  0  0  0  0  0
    2.6940   -3.0440    4.9880 O   0  0  0  0  0  0  0  0  0  0  0  0
    0.6560   -1.9520   -3.0760 H   0  0  0  0  0  0  0  0  0  0  0  0
    4.4210   -3.8050    3.3020 H   0  0  0  0  0  0  0  0  0  0  0  0
    6.3230   -7.6220   -2.1130 C   0  0  0  0  0  3  0  0  0  0  0  0
    7.7860   -7.9050   -1.7370 C   0  0  0  0  0  2  0  0  0  0  0  0
    8.1010   -9.3990   -1.7970 C   0  0  0  0  0  2  0  0  0  0  0  0
    7.1350  -10.2130   -0.9400 C   0  0  0  0  0  2  0  0  0  0  0  0
    5.6820   -9.9430   -1.3220 C   0  0  0  0  0  2  0  0  0  0  0  0
    5.3510   -8.4530   -1.2580 C   0  0  0  0  0  2  0  0  0  0  0  0
  2  1  1  0  0  0  0
  2 33  1  0  0  0  0
  3  2  1  0  0  0  0
  4  3  1  0  0  0  0
  5  4  1  0  0  0  0
  6  5  1  0  0  0  0
  7  6  1  0  0  0  0
  8  7  1  0  0  0  0
  9  8  1  0  0  0  0
 10  9  2  0  0  0  0
 11  9  1  0  0  0  0
 11 29  1  0  0  0  0
 12 11  2  0  0  0  0
 13 12  1  0  0  0  0
 13 19  1  0  0  0  0
 14 13  2  0  0  0  0
 15 14  1  0  0  0  0
 15 16  2  0  0  0  0
 16 18  1  0  0  0  0
 17 16  1  0  0  0  0
 18 19  2  0  0  0  0
 19 20  1  0  0  0  0
 20 28  1  0  0  0  0
 20 21  2  0  0  0  0
 21 22  1  0  0  0  0
 22 23  1  0  0  0  0
 23 24  2  0  0  0  0
 25 24  1  0  0  0  0
 25 30  1  0  0  0  0
 26 25  2  0  0  0  0
 27 22  2  0  0  0  0
 27 26  1  0  0  0  0
 28 27  1  0  0  0  0
 29 28  1  0  0  0  0
 30 32  1  0  0  0  0
 31 30  2  0  0  0  0
 32 37  1  0  0  0  0
 32 33  1  0  0  0  0
 33 35  2  0  0  0  0
 34 33  2  0  0  0  0
 36  8  1  0  0  0  0
 38 21  1  0  0  0  0
 38 39  1  0  0  0  0
 38 43  1  0  0  0  0
 40 39  1  0  0  0  0
 40 41  1  0  0  0  0
 42 43  1  0  0  0  0
 42 41  1  0  0  0  0
M  END
>  <minimizedAffinity>
-4.68725348

$$$$

 OpenBabel09082221263D

 43 48  0  0  0  0  0  0  0  0999 V2000
    7.1070   -4.7840   -5.0260 C   0  0  0  0  0  1  0  0  0  0  0  0
    6.0880   -5.8350   -5.2620 N   0  0  0  0  0  0  0  0  0  0  0  0
    5.2940   -5.5890   -6.4970 C   0  0  0  0  0  2  0  0  0  0  0  0
    4.2090   -4.5210   -6.2700 C   0  0  0  0  0  2  0  0  0  0  0  0
    3.0990   -4.9560   -5.3030 C   0  0  0  0  0  2  0  0  0  0  0  0
    3.3940   -4.6580   -3.8270 C   0  0  0  0  0  2  0  0  0  0  0  0
    3.0040   -3.2500   -3.3730 C   0  0  0  0  0  2  0  0  0  0  0  0
    1.5720   -3.1680   -3.1490 N   0  0  0  0  0  0  0  0  0  0  0  0
    0.8760   -3.1950   -1.9820 C   0  0  0  0  0  0  0  0  0  0  0  0
   -0.3510   -3.2740   -1.9900 O   0  0  0  0  0  0  0  0  0  0  0  0
    1.5940   -3.0720   -0.6980 C   0  0  0  0  0  0  0  0  0  0  0  0
    1.6430   -1.8340   -0.1720 C   0  0  0  0  0  3  0  0  0  0  0  0
    2.0410   -1.5670    1.2230 C   0  0  0  0  0  0  0  0  0  0  0  0
    1.3310   -0.5430    1.8790 C   0  0  0  0  0  3  0  0  0  0  0  0
    1.5600   -0.2520    3.2230 C   0  0  0  0  0  3  0  0  0  0  0  0
    2.4970   -0.9930    3.9310 C   0  0  0  0  0  0  0  0  0  0  0  0
    2.7710   -0.6600    5.5960 Cl  0  0  0  0  0  0  0  0  0  0  0  0
    3.2200   -2.0020    3.2990 C   0  0  0  0  0  3  0  0  0  0  0  0
    3.0350   -2.2810    1.9320 C   0  0  0  0  0  0  0  0  0  0  0  0
    3.8900   -3.3070    1.2990 C   0  0  0  0  0  0  0  0  0  0  0  0
    5.2760   -3.4890    1.3630 C   0  0  0  0  0  0  0  0  0  0  0  0
    5.5920   -4.6330    0.5510 C   0  0  0  0  0  0  0  0  0  0  0  0
    6.7930   -5.3010    0.2200 C   0  0  0  0  0  3  0  0  0  0  0  0
    6.7990   -6.3130   -0.7480 C   0  0  0  0  0  3  0  0  0  0  0  0
    5.6080   -6.7030   -1.3580 C   0  0  0  0  0  0  0  0  0  0  0  0
    4.3870   -6.1580   -0.9290 C   0  0  0  0  0  3  0  0  0  0  0  0
    4.4040   -5.0880   -0.0190 C   0  0  0  0  0  0  0  0  0  0  0  0
    3.3910   -4.2700    0.4360 N   0  0  0  0  0  0  0  0  0  0  0  0
    1.9930   -4.3300    0.0020 C   0  0  0  0  0  2  0  0  0  0  0  0
    5.5560   -7.5270   -2.6010 C   0  0  0  0  0  0  0  0  0  0  0  0
    4.5260   -8.0970   -2.9190 O   0  0  0  0  0  0  0  0  0  0  0  0
    6.7080   -7.4590   -3.4010 N   0  0  0  0  0  0  0  0  0  0  0  0
    6.6500   -7.4350   -5.0620 S   0  0  0  0  0  0  0  0  0  0  0  0
    5.6690   -8.3660   -5.5500 O   0  0  0  0  0  0  0  0  0  0  0  0
    8.0210   -7.4600   -5.5180 O   0  0  0  0  0  0  0  0  0  0  0  0
    0.9680   -3.1950   -3.9630 H   0  0  0  0  0  0  0  0  0  0  0  0
    7.5370   -6.9810   -3.0800 H   0  0  0  0  0  0  0  0  0  0  0  0
    6.2740   -2.6060    2.0930 C   0  0  0  0  0  3  0  0  0  0  0  0
    6.9790   -3.3450    3.2420 C   0  0  0  0  0  2  0  0  0  0  0  0
    7.9500   -2.4300    3.9850 C   0  0  0  0  0  2  0  0  0  0  0  0
    8.9540   -1.7840    3.0350 C   0  0  0  0  0  2  0  0  0  0  0  0
    8.2560   -1.0370    1.9020 C   0  0  0  0  0  2  0  0  0  0  0  0
    7.2880   -1.9430    1.1440 C   0  0  0  0  0  2  0  0  0  0  0  0
  2 33  1  0  0  0  0
  2  1  1  0  0  0  0
  3  4  1  0  0  0  0
  3  2  1  0  0  0  0
  4  5  1  0  0  0  0
  5  6  1  0  0  0  0
  6  7  1  0  0  0  0
  7  8  1  0  0  0  0
  8  9  1  0  0  0  0
  9 11  1  0  0  0  0
 10  9  2  0  0  0  0
 11 12  2  0  0  0  0
 11 29  1  0  0  0  0
 12 13  1  0  0  0  0
 13 14  2  0  0  0  0
 13 19  1  0  0  0  0
 14 15  1  0  0  0  0
 15 16  2  0  0  0  0
 16 17  1  0  0  0  0
 18 16  1  0  0  0  0
 19 18  2  0  0  0  0
 20 21  2  0  0  0  0
 20 19  1  0  0  0  0
 21 38  1  0  0  0  0
 22 21  1  0  0  0  0
 23 22  1  0  0  0  0
 24 23  2  0  0  0  0
 25 26  2  0  0  0  0
 25 24  1  0  0  0  0
 26 27  1  0  0  0  0
 27 28  1  0  0  0  0
 27 22  2  0  0  0  0
 28 20  1  0  0  0  0
 29 28  1  0  0  0  0
 30 25  1  0  0  0  0
 31 30  2  0  0  0  0
 32 37  1  0  0  0  0
 32 30  1  0  0  0  0
 33 32  1  0  0  0  0
 34 33  2  0  0  0  0
 35 33  2  0  0  0  0
 36  8  1  0  0  0  0
 38 39  1  0  0  0  0
 39 40  1  0  0  0  0
 41 40  1  0  0  0  0
 42 41  1  0  0  0  0
 43 42  1  0  0  0  0
 43 38  1  0  0  0  0
M  END
>  <minimizedAffinity>
-4.65304327

$$$$

 OpenBabel09082221263D

 43 48  0  0  0  0  0  0  0  0999 V2000
    8.0450   -5.6490   -4.7530 C   0  0  0  0  0  1  0  0  0  0  0  0
    7.1100   -6.7540   -5.0730 N   0  0  0  0  0  0  0  0  0  0  0  0
    6.5270   -6.6290   -6.4370 C   0  0  0  0  0  2  0  0  0  0  0  0
    5.3910   -5.5910   -6.4760 C   0  0  0  0  0  2  0  0  0  0  0  0
    4.1460   -6.0010   -5.6750 C   0  0  0  0  0  2  0  0  0  0  0  0
    4.1820   -5.5870   -4.1980 C   0  0  0  0  0  2  0  0  0  0  0  0
    3.6820   -4.1680   -3.9230 C   0  0  0  0  0  2  0  0  0  0  0  0
    2.2300   -4.1270   -3.9470 N   0  0  0  0  0  0  0  0  0  0  0  0
    1.3500   -4.0990   -2.9120 C   0  0  0  0  0  0  0  0  0  0  0  0
    0.1450   -4.2270   -3.1170 O   0  0  0  0  0  0  0  0  0  0  0  0
    1.8390   -3.8560   -1.5400 C   0  0  0  0  0  0  0  0  0  0  0  0
    1.7640   -2.5830   -1.1100 C   0  0  0  0  0  3  0  0  0  0  0  0
    1.9150   -2.2020    0.3070 C   0  0  0  0  0  0  0  0  0  0  0  0
    1.0770   -1.1630    0.7560 C   0  0  0  0  0  3  0  0  0  0  0  0
    1.0690   -0.7690    2.0930 C   0  0  0  0  0  3  0  0  0  0  0  0
    1.8930   -1.4200    3.0010 C   0  0  0  0  0  0  0  0  0  0  0  0
    1.8740   -0.9580    4.6580 Cl  0  0  0  0  0  0  0  0  0  0  0  0
    2.7400   -2.4410    2.5760 C   0  0  0  0  0  3  0  0  0  0  0  0
    2.7950   -2.8230    1.2240 C   0  0  0  0  0  0  0  0  0  0  0  0
    3.7720   -3.8570    0.8210 C   0  0  0  0  0  0  0  0  0  0  0  0
    5.1330   -3.9770    1.1270 C   0  0  0  0  0  0  0  0  0  0  0  0
    5.6110   -5.1620    0.4690 C   0  0  0  0  0  0  0  0  0  0  0  0
    6.8700   -5.8040    0.3930 C   0  0  0  0  0  3  0  0  0  0  0  0
    7.0660   -6.8810   -0.4800 C   0  0  0  0  0  3  0  0  0  0  0  0
    6.0050   -7.3610   -1.2460 C   0  0  0  0  0  0  0  0  0  0  0  0
    4.7160   -6.8360   -1.0690 C   0  0  0  0  0  3  0  0  0  0  0  0
    4.5500   -5.7050   -0.2530 C   0  0  0  0  0  0  0  0  0  0  0  0
    3.4520   -4.8980   -0.0360 N   0  0  0  0  0  0  0  0  0  0  0  0
    2.1490   -5.0440   -0.6890 C   0  0  0  0  0  2  0  0  0  0  0  0
    6.1860   -8.2730   -2.4140 C   0  0  0  0  0  0  0  0  0  0  0  0
    5.2400   -8.9050   -2.8530 O   0  0  0  0  0  0  0  0  0  0  0  0
    7.4540   -8.2160   -3.0160 N   0  0  0  0  0  0  0  0  0  0  0  0
    7.6740   -8.3110   -4.6600 S   0  0  0  0  0  0  0  0  0  0  0  0
    6.8150   -9.3140   -5.2300 O   0  0  0  0  0  0  0  0  0  0  0  0
    9.1030   -8.3150   -4.8800 O   0  0  0  0  0  0  0  0  0  0  0  0
    1.7730   -4.2360   -4.8450 H   0  0  0  0  0  0  0  0  0  0  0  0
    8.2030   -7.6830   -2.6000 H   0  0  0  0  0  0  0  0  0  0  0  0
    5.9680   -3.0050    1.9420 C   0  0  0  0  0  3  0  0  0  0  0  0
    6.4810   -3.6290    3.2510 C   0  0  0  0  0  2  0  0  0  0  0  0
    7.2880   -2.6250    4.0710 C   0  0  0  0  0  2  0  0  0  0  0  0
    8.4270   -2.0170    3.2570 C   0  0  0  0  0  2  0  0  0  0  0  0
    7.9180   -1.3850    1.9640 C   0  0  0  0  0  2  0  0  0  0  0  0
    7.1160   -2.3810    1.1290 C   0  0  0  0  0  2  0  0  0  0  0  0
  2  1  1  0  0  0  0
  2 33  1  0  0  0  0
  3  2  1  0  0  0  0
  4  3  1  0  0  0  0
  4  5  1  0  0  0  0
  5  6  1  0  0  0  0
  6  7  1  0  0  0  0
  8  7  1  0  0  0  0
  8  9  1  0  0  0  0
  9 11  1  0  0  0  0
 10  9  2  0  0  0  0
 11 12  2  0  0  0  0
 11 29  1  0  0  0  0
 12 13  1  0  0  0  0
 13 14  2  0  0  0  0
 13 19  1  0  0  0  0
 14 15  1  0  0  0  0
 15 16  2  0  0  0  0
 16 17  1  0  0  0  0
 18 16  1  0  0  0  0
 19 18  2  0  0  0  0
 20 21  2  0  0  0  0
 20 19  1  0  0  0  0
 21 38  1  0  0  0  0
 22 21  1  0  0  0  0
 23 22  1  0  0  0  0
 24 23  2  0  0  0  0
 25 26  2  0  0  0  0
 25 24  1  0  0  0  0
 26 27  1  0  0  0  0
 27 28  1  0  0  0  0
 27 22  2  0  0  0  0
 28 20  1  0  0  0  0
 29 28  1  0  0  0  0
 30 25  1  0  0  0  0
 31 30  2  0  0  0  0
 32 37  1  0  0  0  0
 32 30  1  0  0  0  0
 33 32  1  0  0  0  0
 34 33  2  0  0  0  0
 35 33  2  0  0  0  0
 36  8  1  0  0  0  0
 38 39  1  0  0  0  0
 39 40  1  0  0  0  0
 41 40  1  0  0  0  0
 42 41  1  0  0  0  0
 43 38  1  0  0  0  0
 43 42  1  0  0  0  0
M  END
>  <minimizedAffinity>
-4.56921768

$$$$

 OpenBabel09082221263D

 43 48  0  0  0  0  0  0  0  0999 V2000
    7.9450   -7.7410    2.8530 C   0  0  0  0  0  1  0  0  0  0  0  0
    6.8040   -7.3290    3.7050 N   0  0  0  0  0  0  0  0  0  0  0  0
    5.5550   -7.1240    2.9230 C   0  0  0  0  0  2  0  0  0  0  0  0
    5.5590   -5.7710    2.1900 C   0  0  0  0  0  2  0  0  0  0  0  0
    5.5060   -4.5550    3.1270 C   0  0  0  0  0  2  0  0  0  0  0  0
    6.8800   -4.0600    3.5980 C   0  0  0  0  0  2  0  0  0  0  0  0
    7.5630   -3.0800    2.6430 C   0  0  0  0  0  2  0  0  0  0  0  0
    6.9880   -1.7530    2.7800 N   0  0  0  0  0  0  0  0  0  0  0  0
    7.4680   -0.6670    3.4400 C   0  0  0  0  0  0  0  0  0  0  0  0
    6.7690    0.3330    3.5850 O   0  0  0  0  0  0  0  0  0  0  0  0
    8.8590   -0.6670    3.9360 C   0  0  0  0  0  0  0  0  0  0  0  0
    9.7660   -0.0780    3.1340 C   0  0  0  0  0  3  0  0  0  0  0  0
   11.1230    0.2860    3.5830 C   0  0  0  0  0  0  0  0  0  0  0  0
   11.6310    1.5000    3.0810 C   0  0  0  0  0  3  0  0  0  0  0  0
   12.8690    1.9910    3.4960 C   0  0  0  0  0  3  0  0  0  0  0  0
   13.6070    1.2760    4.4290 C   0  0  0  0  0  0  0  0  0  0  0  0
   15.1240    1.8840    4.9670 Cl  0  0  0  0  0  0  0  0  0  0  0  0
   13.1300    0.0670    4.9290 C   0  0  0  0  0  3  0  0  0  0  0  0
   11.9050   -0.4670    4.4900 C   0  0  0  0  0  0  0  0  0  0  0  0
   11.4900   -1.7930    4.9960 C   0  0  0  0  0  0  0  0  0  0  0  0
   12.2150   -2.9870    5.0920 C   0  0  0  0  0  0  0  0  0  0  0  0
   11.3300   -3.9760    5.6440 C   0  0  0  0  0  0  0  0  0  0  0  0
   11.4690   -5.3450    5.9720 C   0  0  0  0  0  3  0  0  0  0  0  0
   10.3530   -6.1000    6.3530 C   0  0  0  0  0  3  0  0  0  0  0  0
    9.1030   -5.4940    6.4590 C   0  0  0  0  0  0  0  0  0  0  0  0
    8.9770   -4.1070    6.2870 C   0  0  0  0  0  3  0  0  0  0  0  0
   10.0860   -3.3770    5.8270 C   0  0  0  0  0  0  0  0  0  0  0  0
   10.1990   -2.0630    5.4210 N   0  0  0  0  0  0  0  0  0  0  0  0
    9.0980   -1.1000    5.3450 C   0  0  0  0  0  2  0  0  0  0  0  0
    7.8260   -6.2620    6.5420 C   0  0  0  0  0  0  0  0  0  0  0  0
    6.8080   -5.7200    6.9410 O   0  0  0  0  0  0  0  0  0  0  0  0
    7.8800   -7.5570    6.0030 N   0  0  0  0  0  0  0  0  0  0  0  0
    6.6250   -8.2280    5.1450 S   0  0  0  0  0  0  0  0  0  0  0  0
    5.3640   -7.9190    5.7650 O   0  0  0  0  0  0  0  0  0  0  0  0
    7.0160   -9.5870    4.8460 O   0  0  0  0  0  0  0  0  0  0  0  0
    6.0460   -1.6120    2.4320 H   0  0  0  0  0  0  0  0  0  0  0  0
    8.7550   -7.9580    5.6990 H   0  0  0  0  0  0  0  0  0  0  0  0
   13.6450   -3.2180    4.6360 C   0  0  0  0  0  3  0  0  0  0  0  0
   14.6180   -3.3740    5.8160 C   0  0  0  0  0  2  0  0  0  0  0  0
   16.0550   -3.5700    5.3360 C   0  0  0  0  0  2  0  0  0  0  0  0
   16.1680   -4.7370    4.3590 C   0  0  0  0  0  2  0  0  0  0  0  0
   15.2130   -4.5760    3.1790 C   0  0  0  0  0  2  0  0  0  0  0  0
   13.7710   -4.3890    3.6440 C   0  0  0  0  0  2  0  0  0  0  0  0
  1  2  1  0  0  0  0
  2 33  1  0  0  0  0
  3  2  1  0  0  0  0
  4  3  1  0  0  0  0
  4  5  1  0  0  0  0
  5  6  1  0  0  0  0
  7  8  1  0  0  0  0
  7  6  1  0  0  0  0
  8  9  1  0  0  0  0
  9 10  2  0  0  0  0
  9 11  1  0  0  0  0
 11 29  1  0  0  0  0
 12 13  1  0  0  0  0
 12 11  2  0  0  0  0
 13 19  1  0  0  0  0
 14 15  1  0  0  0  0
 14 13  2  0  0  0  0
 15 16  2  0  0  0  0
 16 18  1  0  0  0  0
 16 17  1  0  0  0  0
 19 18  2  0  0  0  0
 19 20  1  0  0  0  0
 20 21  2  0  0  0  0
 20 28  1  0  0  0  0
 21 22  1  0  0  0  0
 22 27  2  0  0  0  0
 22 23  1  0  0  0  0
 23 24  2  0  0  0  0
 24 25  1  0  0  0  0
 25 30  1  0  0  0  0
 26 25  2  0  0  0  0
 27 26  1  0  0  0  0
 28 27  1  0  0  0  0
 29 28  1  0  0  0  0
 30 31  2  0  0  0  0
 32 30  1  0  0  0  0
 33 34  2  0  0  0  0
 33 32  1  0  0  0  0
 35 33  2  0  0  0  0
 36  8  1  0  0  0  0
 37 32  1  0  0  0  0
 38 21  1  0  0  0  0
 38 39  1  0  0  0  0
 40 39  1  0  0  0  0
 41 40  1  0  0  0  0
 42 43  1  0  0  0  0
 42 41  1  0  0  0  0
 43 38  1  0  0  0  0
M  END
>  <minimizedAffinity>
-4.49912786

$$$$

 OpenBabel09082221263D

 43 48  0  0  0  0  0  0  0  0999 V2000
    7.1560   -9.0000    1.8190 C   0  0  0  0  0  1  0  0  0  0  0  0
    5.7480   -8.5800    2.0130 N   0  0  0  0  0  0  0  0  0  0  0  0
    4.9820   -8.5520    0.7370 C   0  0  0  0  0  2  0  0  0  0  0  0
    5.2960   -7.2900   -0.0860 C   0  0  0  0  0  2  0  0  0  0  0  0
    4.8080   -5.9860    0.5640 C   0  0  0  0  0  2  0  0  0  0  0  0
    5.8150   -5.3460    1.5280 C   0  0  0  0  0  2  0  0  0  0  0  0
    6.8400   -4.4290    0.8590 C   0  0  0  0  0  2  0  0  0  0  0  0
    6.2450   -3.1400    0.5520 N   0  0  0  0  0  0  0  0  0  0  0  0
    6.3600   -1.9560    1.2100 C   0  0  0  0  0  0  0  0  0  0  0  0
    5.6560   -0.9990    0.8970 O   0  0  0  0  0  0  0  0  0  0  0  0
    7.3790   -1.8030    2.2680 C   0  0  0  0  0  0  0  0  0  0  0  0
    8.5400   -1.2420    1.8840 C   0  0  0  0  0  3  0  0  0  0  0  0
    9.5430   -0.7340    2.8390 C   0  0  0  0  0  0  0  0  0  0  0  0
   10.2050    0.4510    2.4630 C   0  0  0  0  0  3  0  0  0  0  0  0
   11.1160    1.0710    3.3180 C   0  0  0  0  0  3  0  0  0  0  0  0
   11.3650    0.5180    4.5660 C   0  0  0  0  0  0  0  0  0  0  0  0
   12.4680    1.2880    5.6390 Cl  0  0  0  0  0  0  0  0  0  0  0  0
   10.7320   -0.6610    4.9540 C   0  0  0  0  0  3  0  0  0  0  0  0
    9.8440   -1.3260    4.0890 C   0  0  0  0  0  0  0  0  0  0  0  0
    9.2660   -2.6150    4.5240 C   0  0  0  0  0  0  0  0  0  0  0  0
    9.8880   -3.7360    5.0870 C   0  0  0  0  0  0  0  0  0  0  0  0
    8.8640   -4.7200    5.3110 C   0  0  0  0  0  0  0  0  0  0  0  0
    8.8610   -6.0320    5.8400 C   0  0  0  0  0  3  0  0  0  0  0  0
    7.7040   -6.8190    5.7790 C   0  0  0  0  0  3  0  0  0  0  0  0
    6.5310   -6.2960    5.2380 C   0  0  0  0  0  0  0  0  0  0  0  0
    6.4760   -4.9480    4.8500 C   0  0  0  0  0  3  0  0  0  0  0  0
    7.6610   -4.1950    4.8410 C   0  0  0  0  0  0  0  0  0  0  0  0
    7.9270   -2.9290    4.3610 N   0  0  0  0  0  0  0  0  0  0  0  0
    6.9630   -2.0610    3.6790 C   0  0  0  0  0  2  0  0  0  0  0  0
    5.3650   -7.1390    4.8430 C   0  0  0  0  0  0  0  0  0  0  0  0
    4.2690   -6.6320    4.6720 O   0  0  0  0  0  0  0  0  0  0  0  0
    5.6760   -8.4790    4.5570 N   0  0  0  0  0  0  0  0  0  0  0  0
    4.9520   -9.3280    3.3260 S   0  0  0  0  0  0  0  0  0  0  0  0
    3.5430   -9.0440    3.2740 O   0  0  0  0  0  0  0  0  0  0  0  0
    5.4560  -10.6790    3.4110 O   0  0  0  0  0  0  0  0  0  0  0  0
    5.5590   -3.1050   -0.1940 H   0  0  0  0  0  0  0  0  0  0  0  0
    6.6000   -8.8460    4.7290 H   0  0  0  0  0  0  0  0  0  0  0  0
   11.3730   -3.9130    5.3490 C   0  0  0  0  0  3  0  0  0  0  0  0
   12.2320   -3.5280    4.1330 C   0  0  0  0  0  2  0  0  0  0  0  0
   13.7190   -3.7470    4.4060 C   0  0  0  0  0  2  0  0  0  0  0  0
   14.1740   -3.0180    5.6670 C   0  0  0  0  0  2  0  0  0  0  0  0
   13.3320   -3.4100    6.8780 C   0  0  0  0  0  2  0  0  0  0  0  0
   11.8420   -3.1870    6.6220 C   0  0  0  0  0  2  0  0  0  0  0  0
  1  2  1  0  0  0  0
  2 33  1  0  0  0  0
  3  2  1  0  0  0  0
  4  5  1  0  0  0  0
  4  3  1  0  0  0  0
  5  6  1  0  0  0  0
  7  6  1  0  0  0  0
  8  7  1  0  0  0  0
  8  9  1  0  0  0  0
  9 11  1  0  0  0  0
 10  9  2  0  0  0  0
 11 29  1  0  0  0  0
 12 11  2  0  0  0  0
 12 13  1  0  0  0  0
 13 19  1  0  0  0  0
 14 13  2  0  0  0  0
 14 15  1  0  0  0  0
 15 16  2  0  0  0  0
 16 18  1  0  0  0  0
 16 17  1  0  0  0  0
 19 20  1  0  0  0  0
 19 18  2  0  0  0  0
 20 21  2  0  0  0  0
 21 22  1  0  0  0  0
 21 38  1  0  0  0  0
 22 23  1  0  0  0  0
 24 23  2  0  0  0  0
 25 24  1  0  0  0  0
 26 25  2  0  0  0  0
 27 26  1  0  0  0  0
 27 22  2  0  0  0  0
 28 20  1  0  0  0  0
 28 27  1  0  0  0  0
 29 28  1  0  0  0  0
 30 25  1  0  0  0  0
 31 30  2  0  0  0  0
 32 37  1  0  0  0  0
 32 30  1  0  0  0  0
 33 35  2  0  0  0  0
 33 32  1  0  0  0  0
 34 33  2  0  0  0  0
 36  8  1  0  0  0  0
 38 43  1  0  0  0  0
 39 40  1  0  0  0  0
 39 38  1  0  0  0  0
 40 41  1  0  0  0  0
 41 42  1  0  0  0  0
 43 42  1  0  0  0  0
M  END
>  <minimizedAffinity>
-4.27214432

$$$$

 OpenBabel09082221263D

 43 48  0  0  0  0  0  0  0  0999 V2000
    1.2660   -3.4550    3.4080 C   0  0  0  0  0  1  0  0  0  0  0  0
    1.3680   -2.0510    2.9450 N   0  0  0  0  0  0  0  0  0  0  0  0
    0.0490   -1.4840    2.5540 C   0  0  0  0  0  2  0  0  0  0  0  0
   -0.3840   -1.9640    1.1570 C   0  0  0  0  0  2  0  0  0  0  0  0
    0.4980   -1.4370    0.0160 C   0  0  0  0  0  2  0  0  0  0  0  0
    1.7170   -2.3140   -0.2970 C   0  0  0  0  0  2  0  0  0  0  0  0
    1.4410   -3.4620   -1.2700 C   0  0  0  0  0  2  0  0  0  0  0  0
    1.3880   -2.9680   -2.6350 N   0  0  0  0  0  0  0  0  0  0  0  0
    2.3290   -3.0310   -3.6140 C   0  0  0  0  0  0  0  0  0  0  0  0
    2.1730   -2.4180   -4.6670 O   0  0  0  0  0  0  0  0  0  0  0  0
    3.5180   -3.8870   -3.4320 C   0  0  0  0  0  0  0  0  0  0  0  0
    3.4450   -5.1130   -3.9820 C   0  0  0  0  0  3  0  0  0  0  0  0
    4.6220   -5.9830   -4.1690 C   0  0  0  0  0  0  0  0  0  0  0  0
    4.6450   -6.7380   -5.3570 C   0  0  0  0  0  3  0  0  0  0  0  0
    5.7410   -7.5360   -5.6850 C   0  0  0  0  0  3  0  0  0  0  0  0
    6.8330   -7.5770   -4.8300 C   0  0  0  0  0  0  0  0  0  0  0  0
    8.2010   -8.5380   -5.2360 Cl  0  0  0  0  0  0  0  0  0  0  0  0
    6.8270   -6.8480   -3.6430 C   0  0  0  0  0  3  0  0  0  0  0  0
    5.7130   -6.0730   -3.2730 C   0  0  0  0  0  0  0  0  0  0  0  0
    5.7330   -5.3880   -1.9640 C   0  0  0  0  0  0  0  0  0  0  0  0
    6.0760   -5.8750   -0.6970 C   0  0  0  0  0  0  0  0  0  0  0  0
    5.9090   -4.7920    0.2330 C   0  0  0  0  0  0  0  0  0  0  0  0
    6.0900   -4.6610    1.6300 C   0  0  0  0  0  3  0  0  0  0  0  0
    5.6810   -3.4960    2.2920 C   0  0  0  0  0  3  0  0  0  0  0  0
    5.1350   -2.4370    1.5690 C   0  0  0  0  0  0  0  0  0  0  0  0
    5.0910   -2.4920    0.1670 C   0  0  0  0  0  3  0  0  0  0  0  0
    5.4290   -3.6940   -0.4770 C   0  0  0  0  0  0  0  0  0  0  0  0
    5.3190   -4.0760   -1.7970 N   0  0  0  0  0  0  0  0  0  0  0  0
    4.7520   -3.2570   -2.8730 C   0  0  0  0  0  2  0  0  0  0  0  0
    4.3900   -1.3100    2.2040 C   0  0  0  0  0  0  0  0  0  0  0  0
    4.2070   -0.2720    1.5910 O   0  0  0  0  0  0  0  0  0  0  0  0
    3.8240   -1.6080    3.4540 N   0  0  0  0  0  0  0  0  0  0  0  0
    2.3350   -1.0420    3.9260 S   0  0  0  0  0  0  0  0  0  0  0  0
    2.1670    0.3320    3.5350 O   0  0  0  0  0  0  0  0  0  0  0  0
    2.1470   -1.4760    5.2910 O   0  0  0  0  0  0  0  0  0  0  0  0
    0.5890   -2.4020   -2.8990 H   0  0  0  0  0  0  0  0  0  0  0  0
    4.0210   -2.4820    3.9190 H   0  0  0  0  0  0  0  0  0  0  0  0
    6.4820   -7.2980   -0.3530 C   0  0  0  0  0  3  0  0  0  0  0  0
    7.9150   -7.3800    0.1990 C   0  0  0  0  0  2  0  0  0  0  0  0
    8.3160   -8.8220    0.5040 C   0  0  0  0  0  2  0  0  0  0  0  0
    7.3160   -9.5000    1.4380 C   0  0  0  0  0  2  0  0  0  0  0  0
    5.8950   -9.4310    0.8840 C   0  0  0  0  0  2  0  0  0  0  0  0
    5.4770   -7.9930    0.5820 C   0  0  0  0  0  2  0  0  0  0  0  0
  2  1  1  0  0  0  0
  2 33  1  0  0  0  0
  3  2  1  0  0  0  0
  4  3  1  0  0  0  0
  5  4  1  0  0  0  0
  6  5  1  0  0  0  0
  7  6  1  0  0  0  0
  8  7  1  0  0  0  0
  9 11  1  0  0  0  0
  9  8  1  0  0  0  0
 10  9  2  0  0  0  0
 11 29  1  0  0  0  0
 12 11  2  0  0  0  0
 13 12  1  0  0  0  0
 13 19  1  0  0  0  0
 14 13  2  0  0  0  0
 15 14  1  0  0  0  0
 15 16  2  0  0  0  0
 16 18  1  0  0  0  0
 17 16  1  0  0  0  0
 18 19  2  0  0  0  0
 19 20  1  0  0  0  0
 20 28  1  0  0  0  0
 20 21  2  0  0  0  0
 21 38  1  0  0  0  0
 21 22  1  0  0  0  0
 22 23  1  0  0  0  0
 23 24  2  0  0  0  0
 25 30  1  0  0  0  0
 25 24  1  0  0  0  0
 26 25  2  0  0  0  0
 27 26  1  0  0  0  0
 27 22  2  0  0  0  0
 28 27  1  0  0  0  0
 29 28  1  0  0  0  0
 30 32  1  0  0  0  0
 31 30  2  0  0  0  0
 32 37  1  0  0  0  0
 32 33  1  0  0  0  0
 33 35  2  0  0  0  0
 34 33  2  0  0  0  0
 36  8  1  0  0  0  0
 38 39  1  0  0  0  0
 38 43  1  0  0  0  0
 39 40  1  0  0  0  0
 40 41  1  0  0  0  0
 42 41  1  0  0  0  0
 43 42  1  0  0  0  0
M  END
>  <minimizedAffinity>
-4.27109861

$$$$

 OpenBabel09082221263D

 43 48  0  0  0  0  0  0  0  0999 V2000
    5.0810  -10.1410    0.3720 C   0  0  0  0  0  1  0  0  0  0  0  0
    5.7060   -9.3880    1.4850 N   0  0  0  0  0  0  0  0  0  0  0  0
    5.0230   -9.6230    2.7860 C   0  0  0  0  0  2  0  0  0  0  0  0
    3.7230   -8.8080    2.9000 C   0  0  0  0  0  2  0  0  0  0  0  0
    3.9440   -7.2900    2.9690 C   0  0  0  0  0  2  0  0  0  0  0  0
    4.0040   -6.5970    1.6020 C   0  0  0  0  0  2  0  0  0  0  0  0
    2.6420   -6.2000    1.0300 C   0  0  0  0  0  2  0  0  0  0  0  0
    2.1550   -4.9920    1.6710 N   0  0  0  0  0  0  0  0  0  0  0  0
    2.1580   -3.7110    1.2170 C   0  0  0  0  0  0  0  0  0  0  0  0
    1.8470   -2.7850    1.9630 O   0  0  0  0  0  0  0  0  0  0  0  0
    2.4810   -3.4360   -0.1970 C   0  0  0  0  0  0  0  0  0  0  0  0
    1.4270   -3.3000   -1.0220 C   0  0  0  0  0  3  0  0  0  0  0  0
    1.5340   -2.7320   -2.3790 C   0  0  0  0  0  0  0  0  0  0  0  0
    0.4640   -1.9130   -2.7890 C   0  0  0  0  0  3  0  0  0  0  0  0
    0.4890   -1.2540   -4.0180 C   0  0  0  0  0  3  0  0  0  0  0  0
    1.5920   -1.3990   -4.8470 C   0  0  0  0  0  0  0  0  0  0  0  0
    1.6440   -0.5720   -6.3550 Cl  0  0  0  0  0  0  0  0  0  0  0  0
    2.6560   -2.2140   -4.4680 C   0  0  0  0  0  3  0  0  0  0  0  0
    2.6310   -2.9220   -3.2520 C   0  0  0  0  0  0  0  0  0  0  0  0
    3.7520   -3.8340   -2.9430 C   0  0  0  0  0  0  0  0  0  0  0  0
    4.3650   -4.8090   -3.7390 C   0  0  0  0  0  0  0  0  0  0  0  0
    5.3980   -5.4160   -2.9440 C   0  0  0  0  0  0  0  0  0  0  0  0
    6.3430   -6.4420   -3.1790 C   0  0  0  0  0  3  0  0  0  0  0  0
    7.1300   -6.9360   -2.1300 C   0  0  0  0  0  3  0  0  0  0  0  0
    7.0200   -6.3830   -0.8560 C   0  0  0  0  0  0  0  0  0  0  0  0
    6.2010   -5.2640   -0.6420 C   0  0  0  0  0  3  0  0  0  0  0  0
    5.3580   -4.8320   -1.6790 C   0  0  0  0  0  0  0  0  0  0  0  0
    4.3520   -3.8890   -1.6950 N   0  0  0  0  0  0  0  0  0  0  0  0
    3.8990   -3.1120   -0.5380 C   0  0  0  0  0  2  0  0  0  0  0  0
    7.5670   -7.0380    0.3690 C   0  0  0  0  0  0  0  0  0  0  0  0
    7.7260   -6.3930    1.3930 O   0  0  0  0  0  0  0  0  0  0  0  0
    7.7300   -8.4300    0.2720 N   0  0  0  0  0  0  0  0  0  0  0  0
    7.4120   -9.4640    1.5330 S   0  0  0  0  0  0  0  0  0  0  0  0
    7.8950   -8.9170    2.7720 O   0  0  0  0  0  0  0  0  0  0  0  0
    7.7880  -10.7840    1.0820 O   0  0  0  0  0  0  0  0  0  0  0  0
    1.8550   -5.0610    2.6370 H   0  0  0  0  0  0  0  0  0  0  0  0
    7.5950   -8.9090   -0.6070 H   0  0  0  0  0  0  0  0  0  0  0  0
    3.9730   -5.2040   -5.1520 C   0  0  0  0  0  3  0  0  0  0  0  0
    5.0940   -4.9310   -6.1680 C   0  0  0  0  0  2  0  0  0  0  0  0
    4.6660   -5.3020   -7.5870 C   0  0  0  0  0  2  0  0  0  0  0  0
    4.1750   -6.7450   -7.6690 C   0  0  0  0  0  2  0  0  0  0  0  0
    3.0520   -7.0130   -6.6700 C   0  0  0  0  0  2  0  0  0  0  0  0
    3.4690   -6.6550   -5.2450 C   0  0  0  0  0  2  0  0  0  0  0  0
  1  2  1  0  0  0  0
  2 33  1  0  0  0  0
  2  3  1  0  0  0  0
  3  4  1  0  0  0  0
  4  5  1  0  0  0  0
  6  5  1  0  0  0  0
  7  6  1  0  0  0  0
  7  8  1  0  0  0  0
  8 36  1  0  0  0  0
  9  8  1  0  0  0  0
  9 10  2  0  0  0  0
 11  9  1  0  0  0  0
 12 11  2  0  0  0  0
 13 12  1  0  0  0  0
 14 13  1  0  0  0  0
 15 14  2  0  0  0  0
 16 18  2  0  0  0  0
 16 15  1  0  0  0  0
 17 16  1  0  0  0  0
 18 19  1  0  0  0  0
 19 20  1  0  0  0  0
 19 13  2  0  0  0  0
 20 28  1  0  0  0  0
 21 22  1  0  0  0  0
 21 20  2  0  0  0  0
 22 27  1  0  0  0  0
 23 22  2  0  0  0  0
 23 24  1  0  0  0  0
 24 25  2  0  0  0  0
 25 26  1  0  0  0  0
 25 30  1  0  0  0  0
 27 26  2  0  0  0  0
 28 27  1  0  0  0  0
 28 29  1  0  0  0  0
 29 11  1  0  0  0  0
 30 31  2  0  0  0  0
 32 30  1  0  0  0  0
 32 33  1  0  0  0  0
 33 34  2  0  0  0  0
 35 33  2  0  0  0  0
 37 32  1  0  0  0  0
 38 21  1  0  0  0  0
 39 38  1  0  0  0  0
 40 39  1  0  0  0  0
 41 40  1  0  0  0  0
 41 42  1  0  0  0  0
 42 43  1  0  0  0  0
 43 38  1  0  0  0  0
M  END
>  <minimizedAffinity>
-4.24241829

$$$$
