
 OpenBabel09092210413D

 43 48  0  0  0  0  0  0  0  0999 V2000
   11.6220    1.2150    2.5570 C   0  0  0  0  0  1  0  0  0  0  0  0
   12.0010    1.3380    3.9850 N   0  0  0  0  0  0  0  0  0  0  0  0
   13.4690    1.2160    4.1970 C   0  0  0  0  0  2  0  0  0  0  0  0
   13.9280   -0.2520    4.1520 C   0  0  0  0  0  2  0  0  0  0  0  0
   13.4040   -1.1040    5.3170 C   0  0  0  0  0  2  0  0  0  0  0  0
   12.0360   -1.7500    5.0610 C   0  0  0  0  0  2  0  0  0  0  0  0
   12.0940   -3.0920    4.3290 C   0  0  0  0  0  2  0  0  0  0  0  0
   12.4750   -4.1540    5.2440 N   0  0  0  0  0  0  0  0  0  0  0  0
   11.7000   -5.0890    5.8540 C   0  0  0  0  0  0  0  0  0  0  0  0
   12.1700   -5.8150    6.7260 O   0  0  0  0  0  0  0  0  0  0  0  0
   10.2980   -5.2710    5.4250 C   0  0  0  0  0  0  0  0  0  0  0  0
   10.0830   -6.2570    4.5350 C   0  0  0  0  0  3  0  0  0  0  0  0
    8.7400   -6.7830    4.2250 C   0  0  0  0  0  0  0  0  0  0  0  0
    8.6590   -8.1720    4.0110 C   0  0  0  0  0  3  0  0  0  0  0  0
    7.4330   -8.7990    3.7900 C   0  0  0  0  0  3  0  0  0  0  0  0
    6.2700   -8.0410    3.7930 C   0  0  0  0  0  0  0  0  0  0  0  0
    4.7490   -8.8060    3.5460 Cl  0  0  0  0  0  0  0  0  0  0  0  0
    6.3280   -6.6630    3.9890 C   0  0  0  0  0  3  0  0  0  0  0  0
    7.5590   -6.0070    4.1690 C   0  0  0  0  0  0  0  0  0  0  0  0
    7.5620   -4.5330    4.2920 C   0  0  0  0  0  0  0  0  0  0  0  0
    6.9220   -3.5640    3.5110 C   0  0  0  0  0  0  0  0  0  0  0  0
    7.2700   -2.2810    4.0590 C   0  0  0  0  0  0  0  0  0  0  0  0
    6.9470   -0.9470    3.7190 C   0  0  0  0  0  3  0  0  0  0  0  0
    7.5850    0.1230    4.3580 C   0  0  0  0  0  3  0  0  0  0  0  0
    8.5110   -0.1200    5.3720 C   0  0  0  0  0  0  0  0  0  0  0  0
    8.7280   -1.4310    5.8260 C   0  0  0  0  0  3  0  0  0  0  0  0
    8.1440   -2.4980    5.1230 C   0  0  0  0  0  0  0  0  0  0  0  0
    8.3160   -3.8610    5.2410 N   0  0  0  0  0  0  0  0  0  0  0  0
    9.2390   -4.5230    6.1670 C   0  0  0  0  0  2  0  0  0  0  0  0
    9.4590    0.9140    5.8800 C   0  0  0  0  0  0  0  0  0  0  0  0
   10.0210    0.7600    6.9510 O   0  0  0  0  0  0  0  0  0  0  0  0
    9.7370    1.9540    4.9770 N   0  0  0  0  0  0  0  0  0  0  0  0
   11.2480    2.6260    4.8170 S   0  0  0  0  0  0  0  0  0  0  0  0
   11.8630    2.8070    6.1040 O   0  0  0  0  0  0  0  0  0  0  0  0
   11.1120    3.7140    3.8750 O   0  0  0  0  0  0  0  0  0  0  0  0
   13.4320   -4.1650    5.5770 H   0  0  0  0  0  0  0  0  0  0  0  0
    9.2310    2.0370    4.1080 H   0  0  0  0  0  0  0  0  0  0  0  0
    6.0730   -3.8100    2.2760 C   0  0  0  0  0  3  0  0  0  0  0  0
    4.6220   -3.3360    2.4580 C   0  0  0  0  0  2  0  0  0  0  0  0
    3.7780   -3.6260    1.2180 C   0  0  0  0  0  2  0  0  0  0  0  0
    4.4060   -3.0340   -0.0410 C   0  0  0  0  0  2  0  0  0  0  0  0
    5.8420   -3.5150   -0.2320 C   0  0  0  0  0  2  0  0  0  0  0  0
    6.7000   -3.2240    0.9980 C   0  0  0  0  0  2  0  0  0  0  0  0
  1  2  1  0  0  0  0
  2  3  1  0  0  0  0
  2 33  1  0  0  0  0
  4  3  1  0  0  0  0
  4  5  1  0  0  0  0
  6  5  1  0  0  0  0
  7  6  1  0  0  0  0
  7  8  1  0  0  0  0
  8 36  1  0  0  0  0
  8  9  1  0  0  0  0
  9 10  2  0  0  0  0
 11  9  1  0  0  0  0
 11 29  1  0  0  0  0
 12 11  2  0  0  0  0
 13 12  1  0  0  0  0
 14 13  2  0  0  0  0
 15 16  2  0  0  0  0
 15 14  1  0  0  0  0
 16 18  1  0  0  0  0
 17 16  1  0  0  0  0
 18 19  2  0  0  0  0
 19 13  1  0  0  0  0
 19 20  1  0  0  0  0
 20 28  1  0  0  0  0
 21 22  1  0  0  0  0
 21 20  2  0  0  0  0
 22 27  1  0  0  0  0
 23 22  2  0  0  0  0
 23 24  1  0  0  0  0
 24 25  2  0  0  0  0
 25 26  1  0  0  0  0
 25 30  1  0  0  0  0
 27 28  1  0  0  0  0
 27 26  2  0  0  0  0
 28 29  1  0  0  0  0
 30 31  2  0  0  0  0
 32 30  1  0  0  0  0
 33 32  1  0  0  0  0
 33 34  2  0  0  0  0
 35 33  2  0  0  0  0
 37 32  1  0  0  0  0
 38 39  1  0  0  0  0
 38 21  1  0  0  0  0
 40 39  1  0  0  0  0
 41 40  1  0  0  0  0
 42 41  1  0  0  0  0
 42 43  1  0  0  0  0
 43 38  1  0  0  0  0
M  END
>  <minimizedAffinity>
-4.82322788

$$$$
