
 OpenBabel09092210413D

 43 48  0  0  0  0  0  0  0  0999 V2000
    5.8090   -8.9870   -5.2290 C   0  0  0  0  0  1  0  0  0  0  0  0
    7.1280   -8.3160   -5.1380 N   0  0  0  0  0  0  0  0  0  0  0  0
    8.1340   -9.1350   -4.4100 C   0  0  0  0  0  2  0  0  0  0  0  0
    7.9350   -9.0570   -2.8860 C   0  0  0  0  0  2  0  0  0  0  0  0
    8.2190   -7.6690   -2.2920 C   0  0  0  0  0  2  0  0  0  0  0  0
    7.0080   -6.7270   -2.2810 C   0  0  0  0  0  2  0  0  0  0  0  0
    6.0980   -6.8750   -1.0610 C   0  0  0  0  0  2  0  0  0  0  0  0
    6.6820   -6.2120    0.0910 N   0  0  0  0  0  0  0  0  0  0  0  0
    6.3790   -5.0050    0.6390 C   0  0  0  0  0  0  0  0  0  0  0  0
    7.0870   -4.5280    1.5230 O   0  0  0  0  0  0  0  0  0  0  0  0
    5.1610   -4.2900    0.2080 C   0  0  0  0  0  0  0  0  0  0  0  0
    4.0770   -4.4620    0.9860 C   0  0  0  0  0  3  0  0  0  0  0  0
    2.8780   -3.6080    0.8960 C   0  0  0  0  0  0  0  0  0  0  0  0
    2.2510   -3.2980    2.1190 C   0  0  0  0  0  3  0  0  0  0  0  0
    1.1570   -2.4340    2.1720 C   0  0  0  0  0  3  0  0  0  0  0  0
    0.6860   -1.8600    0.9990 C   0  0  0  0  0  0  0  0  0  0  0  0
   -0.6470   -0.7730    1.0550 Cl  0  0  0  0  0  0  0  0  0  0  0  0
    1.2820   -2.1620   -0.2230 C   0  0  0  0  0  3  0  0  0  0  0  0
    2.3580   -3.0650   -0.3020 C   0  0  0  0  0  0  0  0  0  0  0  0
    2.8950   -3.4080   -1.6360 C   0  0  0  0  0  0  0  0  0  0  0  0
    2.2260   -3.7770   -2.8080 C   0  0  0  0  0  0  0  0  0  0  0  0
    3.2290   -4.0120   -3.8120 C   0  0  0  0  0  0  0  0  0  0  0  0
    3.1860   -4.4050   -5.1700 C   0  0  0  0  0  3  0  0  0  0  0  0
    4.3670   -4.7140   -5.8560 C   0  0  0  0  0  3  0  0  0  0  0  0
    5.5990   -4.5890   -5.2180 C   0  0  0  0  0  0  0  0  0  0  0  0
    5.6680   -4.0540   -3.9220 C   0  0  0  0  0  3  0  0  0  0  0  0
    4.4750   -3.8250   -3.2180 C   0  0  0  0  0  0  0  0  0  0  0  0
    4.2530   -3.4720   -1.9030 N   0  0  0  0  0  0  0  0  0  0  0  0
    5.2940   -3.2840   -0.8880 C   0  0  0  0  0  2  0  0  0  0  0  0
    6.8590   -5.1870   -5.7480 C   0  0  0  0  0  0  0  0  0  0  0  0
    7.9420   -4.8020   -5.3400 O   0  0  0  0  0  0  0  0  0  0  0  0
    6.6760   -6.2840   -6.6060 N   0  0  0  0  0  0  0  0  0  0  0  0
    7.6750   -7.6120   -6.5950 S   0  0  0  0  0  0  0  0  0  0  0  0
    9.0500   -7.2130   -6.4620 O   0  0  0  0  0  0  0  0  0  0  0  0
    7.2280   -8.4670   -7.6700 O   0  0  0  0  0  0  0  0  0  0  0  0
    7.5020   -6.6350    0.5110 H   0  0  0  0  0  0  0  0  0  0  0  0
    5.7550   -6.5510   -6.9200 H   0  0  0  0  0  0  0  0  0  0  0  0
    0.7280   -3.9640   -2.9770 C   0  0  0  0  0  3  0  0  0  0  0  0
    0.1280   -2.9890   -4.0030 C   0  0  0  0  0  2  0  0  0  0  0  0
   -1.3830   -3.1700   -4.1310 C   0  0  0  0  0  2  0  0  0  0  0  0
   -1.7530   -4.6160   -4.4500 C   0  0  0  0  0  2  0  0  0  0  0  0
   -1.1700   -5.5840   -3.4240 C   0  0  0  0  0  2  0  0  0  0  0  0
    0.3430   -5.4210   -3.2920 C   0  0  0  0  0  2  0  0  0  0  0  0
  1  2  1  0  0  0  0
  2  3  1  0  0  0  0
  3  4  1  0  0  0  0
  4  5  1  0  0  0  0
  5  6  1  0  0  0  0
  6  7  1  0  0  0  0
  7  8  1  0  0  0  0
  8 36  1  0  0  0  0
  8  9  1  0  0  0  0
  9 10  2  0  0  0  0
 11  9  1  0  0  0  0
 11 12  2  0  0  0  0
 13 12  1  0  0  0  0
 13 14  1  0  0  0  0
 14 15  2  0  0  0  0
 16 17  1  0  0  0  0
 16 15  1  0  0  0  0
 18 16  2  0  0  0  0
 19 18  1  0  0  0  0
 19 13  2  0  0  0  0
 20 19  1  0  0  0  0
 21 20  2  0  0  0  0
 22 27  1  0  0  0  0
 22 21  1  0  0  0  0
 23 22  2  0  0  0  0
 24 25  2  0  0  0  0
 24 23  1  0  0  0  0
 25 26  1  0  0  0  0
 26 27  2  0  0  0  0
 27 28  1  0  0  0  0
 28 20  1  0  0  0  0
 28 29  1  0  0  0  0
 29 11  1  0  0  0  0
 30 31  2  0  0  0  0
 30 25  1  0  0  0  0
 32 33  1  0  0  0  0
 32 30  1  0  0  0  0
 33 34  2  0  0  0  0
 33  2  1  0  0  0  0
 35 33  2  0  0  0  0
 37 32  1  0  0  0  0
 38 21  1  0  0  0  0
 39 38  1  0  0  0  0
 40 39  1  0  0  0  0
 41 40  1  0  0  0  0
 41 42  1  0  0  0  0
 42 43  1  0  0  0  0
 43 38  1  0  0  0  0
M  END
>  <minimizedAffinity>
-5.16936064

$$$$
