
 OpenBabel08172209593D

 46 51  0  0  1  0  0  0  0  0999 V2000
   28.7080   52.9350   13.8380 C   0  0  0  0  0  0  0  0  0  0  0  0
   29.1940   51.8380   13.5530 O   0  0  0  0  0  0  0  0  0  0  0  0
   29.0700   54.1440   13.1760 N   0  0  0  0  0  0  0  0  0  0  0  0
   28.7380   55.4830   13.6490 C   0  0  0  0  0  0  0  0  0  0  0  0
   28.4340   55.6960   15.0070 C   0  0  0  0  0  3  0  0  0  0  0  0
   27.9370   56.9120   15.4950 C   0  0  0  0  0  3  0  0  0  0  0  0
   27.7590   57.9850   14.6380 C   0  0  0  0  0  3  0  0  0  0  0  0
   28.1610   57.8460   13.3190 C   0  0  0  0  0  0  0  0  0  0  0  0
   28.6940   56.6310   12.8150 C   0  0  0  0  0  0  0  0  0  0  0  0
   29.2730   56.7180   11.5170 N   0  0  0  0  0  0  0  0  0  0  0  0
   30.5340   56.2050   11.2720 C   0  0  0  0  0  0  0  0  0  0  0  0
   30.7980   54.9160   11.5520 C   0  0  0  0  0  0  0  0  0  0  0  0
   29.7160   53.9140   11.8570 C   0  0  2  0  0  3  0  0  0  0  0  0
   32.4200   54.3150   11.5910 S   0  0  0  0  0  0  0  0  0  0  0  0
   32.6280   53.3650   10.5150 O   0  0  0  0  0  0  0  0  0  0  0  0
   32.7360   53.9340   12.9570 O   0  0  0  0  0  0  0  0  0  0  0  0
   33.4500   55.7080   11.2270 C   0  0  0  0  0  2  0  0  0  0  0  0
   32.8540   56.6720   10.2000 C   0  0  0  0  0  0  0  0  0  0  0  0
   32.6380   56.0090    8.8260 C   0  0  0  0  0  1  0  0  0  0  0  0
   33.8390   57.8430   10.0030 C   0  0  0  0  0  1  0  0  0  0  0  0
   31.5310   57.2250   10.7600 C   0  0  0  0  0  2  0  0  0  0  0  0
   29.0480   57.6180   11.0870 H   0  0  0  0  0  0  0  0  0  0  0  0
   23.9140   53.2420   14.5360 C   0  0  0  0  0  1  0  0  0  0  0  0
   25.2830   53.0660   15.1210 C   0  0  0  0  0  0  0  0  0  0  0  0
   25.4440   52.9310   16.4980 C   0  0  0  0  0  3  0  0  0  0  0  0
   26.7280   52.7810   17.0180 C   0  0  0  0  0  3  0  0  0  0  0  0
   27.8170   52.7690   16.1530 C   0  0  0  0  0  3  0  0  0  0  0  0
   27.5680   52.8940   14.7930 C   0  0  0  0  0  0  0  0  0  0  0  0
   26.3260   53.0510   14.2620 N   0  0  0  0  0  0  0  0  0  0  0  0
   28.7010   53.7310   10.7050 C   0  0  0  0  0  0  0  0  0  0  0  0
   28.2560   54.7770    9.8810 C   0  0  0  0  0  3  0  0  0  0  0  0
   27.3890   54.5350    8.8100 C   0  0  0  0  0  3  0  0  0  0  0  0
   26.9530   53.2420    8.5190 C   0  0  0  0  0  0  0  0  0  0  0  0
   27.3560   52.1990    9.3420 C   0  0  0  0  0  3  0  0  0  0  0  0
   28.2130   52.4510   10.4150 C   0  0  0  0  0  0  0  0  0  0  0  0
   28.5690   51.4120   11.1790 F   0  0  0  0  0  0  0  0  0  0  0  0
   26.1470   53.1430    7.4210 O   0  0  0  0  0  0  0  0  0  0  0  0
   26.2900   51.9900    6.5810 C   0  0  0  0  0  2  0  0  0  0  0  0
   25.1700   50.9870    6.7510 C   0  0  0  0  0  0  0  0  0  0  0  0
   25.3690   49.8240    7.5080 C   0  0  0  0  0  3  0  0  0  0  0  0
   24.3310   48.9060    7.6810 C   0  0  0  0  0  3  0  0  0  0  0  0
   23.0830   49.1450    7.1080 C   0  0  0  0  0  3  0  0  0  0  0  0
   22.8690   50.3040    6.3660 C   0  0  0  0  0  3  0  0  0  0  0  0
   23.9050   51.2240    6.1930 C   0  0  0  0  0  3  0  0  0  0  0  0
   28.0980   58.9200   12.4610 O   0  0  0  0  0  0  0  0  0  0  0  0
   27.7130   59.6730   12.9410 H   0  0  0  0  0  0  0  0  0  0  0  0
  1 28  1  0  0  0  0
  2  1  2  0  0  0  0
  3  4  1  0  0  0  0
  3  1  1  0  0  0  0
  4  5  1  0  0  0  0
  5  6  2  0  0  0  0
  7  6  1  0  0  0  0
  8  7  2  0  0  0  0
  9  8  1  0  0  0  0
  9  4  2  0  0  0  0
 10  9  1  0  0  0  0
 11 10  1  0  0  0  0
 11 12  2  0  0  0  0
 12 14  1  0  0  0  0
 12 13  1  0  0  0  0
 13 30  1  6  0  0  0
 13  3  1  0  0  0  0
 14 16  2  0  0  0  0
 15 14  2  0  0  0  0
 17 14  1  0  0  0  0
 18 21  1  0  0  0  0
 18 17  1  0  0  0  0
 19 18  1  0  0  0  0
 20 18  1  0  0  0  0
 21 11  1  0  0  0  0
 22 10  1  0  0  0  0
 23 24  1  0  0  0  0
 24 25  1  0  0  0  0
 25 26  2  0  0  0  0
 27 26  1  0  0  0  0
 28 27  2  0  0  0  0
 29 28  1  0  0  0  0
 29 24  2  0  0  0  0
 31 30  2  0  0  0  0
 32 31  1  0  0  0  0
 33 32  2  0  0  0  0
 33 34  1  0  0  0  0
 34 35  2  0  0  0  0
 35 30  1  0  0  0  0
 35 36  1  0  0  0  0
 37 33  1  0  0  0  0
 38 39  1  0  0  0  0
 38 37  1  0  0  0  0
 39 40  1  0  0  0  0
 40 41  2  0  0  0  0
 42 41  1  0  0  0  0
 43 42  2  0  0  0  0
 44 43  1  0  0  0  0
 44 39  2  0  0  0  0
 45 46  1  0  0  0  0
 45  8  1  0  0  0  0
M  END
>  <minimizedAffinity>
-10.2664843

$$$$
