
 OpenBabel08172209593D

 46 51  0  0  1  0  0  0  0  0999 V2000
   30.7160   52.4500   14.9340 C   0  0  0  0  0  0  0  0  0  0  0  0
   30.2790   51.4910   15.5750 O   0  0  0  0  0  0  0  0  0  0  0  0
   29.8800   53.3780   14.2480 N   0  0  0  0  0  0  0  0  0  0  0  0
   30.3440   54.3510   13.2670 C   0  0  0  0  0  0  0  0  0  0  0  0
   31.5660   54.1470   12.5970 C   0  0  0  0  0  3  0  0  0  0  0  0
   32.1570   55.1200   11.7790 C   0  0  0  0  0  3  0  0  0  0  0  0
   31.5220   56.3320   11.5680 C   0  0  0  0  0  3  0  0  0  0  0  0
   30.2620   56.5170   12.1170 C   0  0  0  0  0  0  0  0  0  0  0  0
   29.6360   55.5320   12.9230 C   0  0  0  0  0  0  0  0  0  0  0  0
   28.2630   55.7720   13.2130 N   0  0  0  0  0  0  0  0  0  0  0  0
   27.3180   54.7780   13.0250 C   0  0  0  0  0  0  0  0  0  0  0  0
   27.4730   53.5870   13.6290 C   0  0  0  0  0  0  0  0  0  0  0  0
   28.4730   53.3580   14.7310 C   0  0  2  0  0  3  0  0  0  0  0  0
   26.5260   52.2130   13.1690 S   0  0  0  0  0  0  0  0  0  0  0  0
   25.6430   51.8270   14.2520 O   0  0  0  0  0  0  0  0  0  0  0  0
   27.4100   51.2240   12.5760 O   0  0  0  0  0  0  0  0  0  0  0  0
   25.4810   52.7760   11.8550 C   0  0  0  0  0  2  0  0  0  0  0  0
   24.9880   54.2140   12.0250 C   0  0  0  0  0  0  0  0  0  0  0  0
   24.1200   54.3940   13.2850 C   0  0  0  0  0  1  0  0  0  0  0  0
   24.1180   54.5780   10.8040 C   0  0  0  0  0  1  0  0  0  0  0  0
   26.2110   55.1490   12.0590 C   0  0  0  0  0  2  0  0  0  0  0  0
   28.0000   56.7190   12.9310 H   0  0  0  0  0  0  0  0  0  0  0  0
   34.2590   55.4370   16.3830 C   0  0  0  0  0  1  0  0  0  0  0  0
   33.8610   54.1370   15.7510 C   0  0  0  0  0  0  0  0  0  0  0  0
   34.8340   53.2560   15.2870 C   0  0  0  0  0  3  0  0  0  0  0  0
   34.4380   52.0600   14.6920 C   0  0  0  0  0  3  0  0  0  0  0  0
   33.0820   51.7720   14.5780 C   0  0  0  0  0  3  0  0  0  0  0  0
   32.1760   52.6970   15.0810 C   0  0  0  0  0  0  0  0  0  0  0  0
   32.5380   53.8750   15.6560 N   0  0  0  0  0  0  0  0  0  0  0  0
   28.2420   54.2540   15.9700 C   0  0  0  0  0  0  0  0  0  0  0  0
   29.0480   55.3530   16.3030 C   0  0  0  0  0  3  0  0  0  0  0  0
   28.7450   56.1670   17.4000 C   0  0  0  0  0  3  0  0  0  0  0  0
   27.6210   55.9170   18.1880 C   0  0  0  0  0  0  0  0  0  0  0  0
   26.8290   54.8150   17.8950 C   0  0  0  0  0  3  0  0  0  0  0  0
   27.1450   54.0030   16.8040 C   0  0  0  0  0  0  0  0  0  0  0  0
   26.3520   52.9520   16.5660 F   0  0  0  0  0  0  0  0  0  0  0  0
   27.4190   56.8150   19.1980 O   0  0  0  0  0  0  0  0  0  0  0  0
   28.5620   57.2820   19.9240 C   0  0  0  0  0  2  0  0  0  0  0  0
   28.8140   56.5080   21.2000 C   0  0  0  0  0  0  0  0  0  0  0  0
   28.0400   56.7540   22.3420 C   0  0  0  0  0  3  0  0  0  0  0  0
   28.2580   56.0280   23.5150 C   0  0  0  0  0  3  0  0  0  0  0  0
   29.2460   55.0440   23.5550 C   0  0  0  0  0  3  0  0  0  0  0  0
   30.0120   54.7820   22.4220 C   0  0  0  0  0  3  0  0  0  0  0  0
   29.7940   55.5060   21.2490 C   0  0  0  0  0  3  0  0  0  0  0  0
   29.5530   57.6650   11.8460 O   0  0  0  0  0  0  0  0  0  0  0  0
   30.1050   58.2420   11.2900 H   0  0  0  0  0  0  0  0  0  0  0  0
  1 28  1  0  0  0  0
  1  2  2  0  0  0  0
  3 13  1  0  0  0  0
  3  1  1  0  0  0  0
  4  3  1  0  0  0  0
  5  4  2  0  0  0  0
  6  5  1  0  0  0  0
  7  6  2  0  0  0  0
  7  8  1  0  0  0  0
  8  9  2  0  0  0  0
  9 10  1  0  0  0  0
  9  4  1  0  0  0  0
 11 10  1  0  0  0  0
 11 12  2  0  0  0  0
 12 13  1  0  0  0  0
 13 30  1  1  0  0  0
 14 12  1  0  0  0  0
 14 15  2  0  0  0  0
 16 14  2  0  0  0  0
 17 18  1  0  0  0  0
 17 14  1  0  0  0  0
 18 21  1  0  0  0  0
 18 19  1  0  0  0  0
 20 18  1  0  0  0  0
 21 11  1  0  0  0  0
 22 10  1  0  0  0  0
 24 23  1  0  0  0  0
 25 24  2  0  0  0  0
 26 25  1  0  0  0  0
 27 26  2  0  0  0  0
 27 28  1  0  0  0  0
 28 29  2  0  0  0  0
 29 24  1  0  0  0  0
 30 31  2  0  0  0  0
 30 35  1  0  0  0  0
 31 32  1  0  0  0  0
 32 33  2  0  0  0  0
 33 37  1  0  0  0  0
 34 33  1  0  0  0  0
 35 34  2  0  0  0  0
 36 35  1  0  0  0  0
 37 38  1  0  0  0  0
 38 39  1  0  0  0  0
 39 44  2  0  0  0  0
 39 40  1  0  0  0  0
 40 41  2  0  0  0  0
 41 42  1  0  0  0  0
 43 42  2  0  0  0  0
 44 43  1  0  0  0  0
 45  8  1  0  0  0  0
 46 45  1  0  0  0  0
M  END
>  <minimizedAffinity>
-10.0253458

$$$$
