
 OpenBabel08172209593D

 46 51  0  0  1  0  0  0  0  0999 V2000
   28.3880   58.0770   10.5270 C   0  0  0  0  0  0  0  0  0  0  0  0
   27.3310   58.6820   10.3340 O   0  0  0  0  0  0  0  0  0  0  0  0
   28.4550   56.8080   11.1730 N   0  0  0  0  0  0  0  0  0  0  0  0
   29.6790   56.1880   11.6640 C   0  0  0  0  0  0  0  0  0  0  0  0
   30.8090   56.9810   11.9430 C   0  0  0  0  0  3  0  0  0  0  0  0
   32.0640   56.4380   12.2470 C   0  0  0  0  0  3  0  0  0  0  0  0
   32.2300   55.0650   12.3200 C   0  0  0  0  0  3  0  0  0  0  0  0
   31.1120   54.2600   12.1680 C   0  0  0  0  0  0  0  0  0  0  0  0
   29.8270   54.7940   11.8910 C   0  0  0  0  0  0  0  0  0  0  0  0
   28.7520   53.8670   11.9960 N   0  0  0  0  0  0  0  0  0  0  0  0
   27.6190   54.1810   12.7270 C   0  0  0  0  0  0  0  0  0  0  0  0
   26.9290   55.2990   12.4420 C   0  0  0  0  0  0  0  0  0  0  0  0
   27.1520   56.0920   11.1820 C   0  0  2  0  0  3  0  0  0  0  0  0
   25.7250   55.9160   13.5220 S   0  0  0  0  0  0  0  0  0  0  0  0
   24.4120   55.8230   12.9140 O   0  0  0  0  0  0  0  0  0  0  0  0
   26.1870   57.1900   14.0440 O   0  0  0  0  0  0  0  0  0  0  0  0
   25.7120   54.8050   14.9010 C   0  0  0  0  0  2  0  0  0  0  0  0
   25.9410   53.3410   14.5230 C   0  0  0  0  0  0  0  0  0  0  0  0
   24.8360   52.7910   13.6010 C   0  0  0  0  0  1  0  0  0  0  0  0
   25.9330   52.4980   15.8150 C   0  0  0  0  0  1  0  0  0  0  0  0
   27.3250   53.2180   13.8600 C   0  0  0  0  0  2  0  0  0  0  0  0
   29.1110   52.9140   12.0870 H   0  0  0  0  0  0  0  0  0  0  0  0
   32.0950   61.2020   10.7670 C   0  0  0  0  0  1  0  0  0  0  0  0
   31.3350   60.1780    9.9790 C   0  0  0  0  0  0  0  0  0  0  0  0
   31.7250   59.8620    8.6800 C   0  0  0  0  0  3  0  0  0  0  0  0
   30.9940   58.9160    7.9650 C   0  0  0  0  0  3  0  0  0  0  0  0
   29.8960   58.3070    8.5630 C   0  0  0  0  0  3  0  0  0  0  0  0
   29.5840   58.6670    9.8680 C   0  0  0  0  0  0  0  0  0  0  0  0
   30.2750   59.5950   10.5830 N   0  0  0  0  0  0  0  0  0  0  0  0
   26.8920   55.2840    9.8890 C   0  0  0  0  0  0  0  0  0  0  0  0
   27.5150   55.5510    8.6600 C   0  0  0  0  0  3  0  0  0  0  0  0
   27.2890   54.7390    7.5440 C   0  0  0  0  0  3  0  0  0  0  0  0
   26.4480   53.6290    7.6230 C   0  0  0  0  0  0  0  0  0  0  0  0
   25.7970   53.3670    8.8210 C   0  0  0  0  0  3  0  0  0  0  0  0
   26.0200   54.1880    9.9280 C   0  0  0  0  0  0  0  0  0  0  0  0
   25.3660   53.8940   11.0570 F   0  0  0  0  0  0  0  0  0  0  0  0
   26.3530   52.8990    6.4720 O   0  0  0  0  0  0  0  0  0  0  0  0
   26.6020   51.4900    6.5450 C   0  0  0  0  0  2  0  0  0  0  0  0
   25.3440   50.6720    6.7350 C   0  0  0  0  0  0  0  0  0  0  0  0
   25.3700   49.5010    7.5050 C   0  0  0  0  0  3  0  0  0  0  0  0
   24.2050   48.7540    7.6970 C   0  0  0  0  0  3  0  0  0  0  0  0
   23.0030   49.1740    7.1290 C   0  0  0  0  0  3  0  0  0  0  0  0
   22.9630   50.3430    6.3730 C   0  0  0  0  0  3  0  0  0  0  0  0
   24.1250   51.0910    6.1810 C   0  0  0  0  0  3  0  0  0  0  0  0
   31.2140   52.8980   12.3370 O   0  0  0  0  0  0  0  0  0  0  0  0
   32.1450   52.6810   12.5180 H   0  0  0  0  0  0  0  0  0  0  0  0
  1  3  1  0  0  0  0
  2  1  2  0  0  0  0
  3 13  1  0  0  0  0
  3  4  1  0  0  0  0
  4  9  2  0  0  0  0
  4  5  1  0  0  0  0
  5  6  2  0  0  0  0
  6  7  1  0  0  0  0
  8  7  2  0  0  0  0
  8 45  1  0  0  0  0
  9 10  1  0  0  0  0
  9  8  1  0  0  0  0
 10 22  1  0  0  0  0
 10 11  1  0  0  0  0
 11 21  1  0  0  0  0
 12 11  2  0  0  0  0
 12 14  1  0  0  0  0
 13 30  1  6  0  0  0
 13 12  1  0  0  0  0
 14 16  2  0  0  0  0
 14 17  1  0  0  0  0
 15 14  2  0  0  0  0
 18 17  1  0  0  0  0
 18 20  1  0  0  0  0
 19 18  1  0  0  0  0
 21 18  1  0  0  0  0
 24 29  1  0  0  0  0
 24 23  1  0  0  0  0
 25 24  2  0  0  0  0
 26 27  2  0  0  0  0
 26 25  1  0  0  0  0
 27 28  1  0  0  0  0
 28  1  1  0  0  0  0
 28 29  2  0  0  0  0
 30 35  1  0  0  0  0
 31 30  2  0  0  0  0
 32 33  2  0  0  0  0
 32 31  1  0  0  0  0
 33 34  1  0  0  0  0
 34 35  2  0  0  0  0
 35 36  1  0  0  0  0
 37 38  1  0  0  0  0
 37 33  1  0  0  0  0
 38 39  1  0  0  0  0
 39 40  1  0  0  0  0
 40 41  2  0  0  0  0
 42 41  1  0  0  0  0
 43 42  2  0  0  0  0
 44 43  1  0  0  0  0
 44 39  2  0  0  0  0
 45 46  1  0  0  0  0
M  END
>  <minimizedAffinity>
-12.0479975

$$$$
