
 OpenBabel08172209593D

 46 51  0  0  1  0  0  0  0  0999 V2000
   28.3880   58.0770   10.5270 C   0  0  0  0  0  0  0  0  0  0  0  0
   27.3310   58.6820   10.3340 O   0  0  0  0  0  0  0  0  0  0  0  0
   28.4550   56.8080   11.1730 N   0  0  0  0  0  0  0  0  0  0  0  0
   29.6790   56.1880   11.6640 C   0  0  0  0  0  0  0  0  0  0  0  0
   30.8090   56.9810   11.9430 C   0  0  0  0  0  3  0  0  0  0  0  0
   32.0640   56.4380   12.2470 C   0  0  0  0  0  3  0  0  0  0  0  0
   32.2300   55.0650   12.3200 C   0  0  0  0  0  3  0  0  0  0  0  0
   31.1120   54.2600   12.1680 C   0  0  0  0  0  0  0  0  0  0  0  0
   29.8270   54.7940   11.8910 C   0  0  0  0  0  0  0  0  0  0  0  0
   28.7520   53.8670   11.9960 N   0  0  0  0  0  0  0  0  0  0  0  0
   27.6190   54.1810   12.7270 C   0  0  0  0  0  0  0  0  0  0  0  0
   26.9290   55.2990   12.4420 C   0  0  0  0  0  0  0  0  0  0  0  0
   27.1520   56.0920   11.1820 C   0  0  2  0  0  3  0  0  0  0  0  0
   25.7250   55.9160   13.5220 S   0  0  0  0  0  0  0  0  0  0  0  0
   24.4120   55.8230   12.9140 O   0  0  0  0  0  0  0  0  0  0  0  0
   26.1870   57.1900   14.0440 O   0  0  0  0  0  0  0  0  0  0  0  0
   25.7120   54.8050   14.9010 C   0  0  0  0  0  2  0  0  0  0  0  0
   25.9410   53.3410   14.5230 C   0  0  0  0  0  0  0  0  0  0  0  0
   24.8360   52.7910   13.6010 C   0  0  0  0  0  1  0  0  0  0  0  0
   25.9330   52.4980   15.8150 C   0  0  0  0  0  1  0  0  0  0  0  0
   27.3250   53.2180   13.8600 C   0  0  0  0  0  2  0  0  0  0  0  0
   29.1110   52.9140   12.0870 H   0  0  0  0  0  0  0  0  0  0  0  0
   32.0950   61.2020   10.7670 C   0  0  0  0  0  1  0  0  0  0  0  0
   31.3350   60.1780    9.9790 C   0  0  0  0  0  0  0  0  0  0  0  0
   31.7250   59.8620    8.6800 C   0  0  0  0  0  3  0  0  0  0  0  0
   30.9940   58.9160    7.9650 C   0  0  0  0  0  3  0  0  0  0  0  0
   29.8960   58.3070    8.5630 C   0  0  0  0  0  3  0  0  0  0  0  0
   29.5840   58.6670    9.8680 C   0  0  0  0  0  0  0  0  0  0  0  0
   30.2750   59.5950   10.5830 N   0  0  0  0  0  0  0  0  0  0  0  0
   26.8920   55.2840    9.8890 C   0  0  0  0  0  0  0  0  0  0  0  0
   27.5150   55.5510    8.6600 C   0  0  0  0  0  3  0  0  0  0  0  0
   27.2890   54.7390    7.5440 C   0  0  0  0  0  3  0  0  0  0  0  0
   26.4480   53.6290    7.6230 C   0  0  0  0  0  0  0  0  0  0  0  0
   25.7970   53.3670    8.8210 C   0  0  0  0  0  3  0  0  0  0  0  0
   26.0200   54.1880    9.9280 C   0  0  0  0  0  0  0  0  0  0  0  0
   25.3660   53.8940   11.0570 F   0  0  0  0  0  0  0  0  0  0  0  0
   26.3530   52.8990    6.4720 O   0  0  0  0  0  0  0  0  0  0  0  0
   26.6020   51.4900    6.5450 C   0  0  0  0  0  2  0  0  0  0  0  0
   25.3440   50.6720    6.7350 C   0  0  0  0  0  0  0  0  0  0  0  0
   25.3700   49.5010    7.5050 C   0  0  0  0  0  3  0  0  0  0  0  0
   24.2050   48.7540    7.6970 C   0  0  0  0  0  3  0  0  0  0  0  0
   23.0030   49.1740    7.1290 C   0  0  0  0  0  3  0  0  0  0  0  0
   22.9630   50.3430    6.3730 C   0  0  0  0  0  3  0  0  0  0  0  0
   24.1250   51.0910    6.1810 C   0  0  0  0  0  3  0  0  0  0  0  0
   31.2140   52.8980   12.3370 O   0  0  0  0  0  0  0  0  0  0  0  0
   32.1450   52.6810   12.5180 H   0  0  0  0  0  0  0  0  0  0  0  0
  1  3  1  0  0  0  0
  2  1  2  0  0  0  0
  3 13  1  0  0  0  0
  3  4  1  0  0  0  0
  4  9  2  0  0  0  0
  4  5  1  0  0  0  0
  5  6  2  0  0  0  0
  6  7  1  0  0  0  0
  8  7  2  0  0  0  0
  8 45  1  0  0  0  0
  9 10  1  0  0  0  0
  9  8  1  0  0  0  0
 10 22  1  0  0  0  0
 10 11  1  0  0  0  0
 11 21  1  0  0  0  0
 12 11  2  0  0  0  0
 12 14  1  0  0  0  0
 13 30  1  6  0  0  0
 13 12  1  0  0  0  0
 14 16  2  0  0  0  0
 14 17  1  0  0  0  0
 15 14  2  0  0  0  0
 18 17  1  0  0  0  0
 18 20  1  0  0  0  0
 19 18  1  0  0  0  0
 21 18  1  0  0  0  0
 24 29  1  0  0  0  0
 24 23  1  0  0  0  0
 25 24  2  0  0  0  0
 26 27  2  0  0  0  0
 26 25  1  0  0  0  0
 27 28  1  0  0  0  0
 28  1  1  0  0  0  0
 28 29  2  0  0  0  0
 30 35  1  0  0  0  0
 31 30  2  0  0  0  0
 32 33  2  0  0  0  0
 32 31  1  0  0  0  0
 33 34  1  0  0  0  0
 34 35  2  0  0  0  0
 35 36  1  0  0  0  0
 37 38  1  0  0  0  0
 37 33  1  0  0  0  0
 38 39  1  0  0  0  0
 39 40  1  0  0  0  0
 40 41  2  0  0  0  0
 42 41  1  0  0  0  0
 43 42  2  0  0  0  0
 44 43  1  0  0  0  0
 44 39  2  0  0  0  0
 45 46  1  0  0  0  0
M  END
>  <minimizedAffinity>
-12.0479975

$$$$

 OpenBabel08172209593D

 46 51  0  0  1  0  0  0  0  0999 V2000
   29.2210   29.3930   33.6630 C   0  0  0  0  0  0  0  0  0  0  0  0
   29.6830   28.2540   33.5620 O   0  0  0  0  0  0  0  0  0  0  0  0
   29.2080   30.3290   32.5880 N   0  0  0  0  0  0  0  0  0  0  0  0
   28.9310   31.7530   32.7280 C   0  0  0  0  0  0  0  0  0  0  0  0
   29.1000   32.3850   33.9750 C   0  0  0  0  0  3  0  0  0  0  0  0
   28.6860   33.7010   34.2240 C   0  0  0  0  0  3  0  0  0  0  0  0
   28.1150   34.4550   33.2120 C   0  0  0  0  0  3  0  0  0  0  0  0
   28.0440   33.9030   31.9430 C   0  0  0  0  0  0  0  0  0  0  0  0
   28.4860   32.5830   31.6660 C   0  0  0  0  0  0  0  0  0  0  0  0
   28.5640   32.2490   30.2830 N   0  0  0  0  0  0  0  0  0  0  0  0
   29.7060   31.6650   29.7630 C   0  0  0  0  0  0  0  0  0  0  0  0
   30.1760   30.5250   30.2980 C   0  0  0  0  0  0  0  0  0  0  0  0
   29.3730   29.6870   31.2580 C   0  0  2  0  0  3  0  0  0  0  0  0
   31.7620   29.9400   29.9250 S   0  0  0  0  0  0  0  0  0  0  0  0
   31.6740   28.6980   29.1810 O   0  0  0  0  0  0  0  0  0  0  0  0
   32.5700   30.0010   31.1300 O   0  0  0  0  0  0  0  0  0  0  0  0
   32.4570   31.1330   28.8160 C   0  0  0  0  0  2  0  0  0  0  0  0
   31.4480   31.7360   27.8380 C   0  0  0  0  0  0  0  0  0  0  0  0
   30.8340   30.6810   26.8990 C   0  0  0  0  0  1  0  0  0  0  0  0
   32.1810   32.7710   26.9590 C   0  0  0  0  0  1  0  0  0  0  0  0
   30.3550   32.4580   28.6470 C   0  0  0  0  0  2  0  0  0  0  0  0
   28.1160   32.9740   29.7170 H   0  0  0  0  0  0  0  0  0  0  0  0
   29.4550   30.1850   38.4470 C   0  0  0  0  0  1  0  0  0  0  0  0
   28.6130   30.0230   37.2170 C   0  0  0  0  0  0  0  0  0  0  0  0
   27.2240   30.0790   37.3060 C   0  0  0  0  0  3  0  0  0  0  0  0
   26.4640   29.9130   36.1500 C   0  0  0  0  0  3  0  0  0  0  0  0
   27.1070   29.6970   34.9360 C   0  0  0  0  0  3  0  0  0  0  0  0
   28.4950   29.6710   34.9320 C   0  0  0  0  0  0  0  0  0  0  0  0
   29.2590   29.8200   36.0470 N   0  0  0  0  0  0  0  0  0  0  0  0
   28.0440   29.1690   30.6610 C   0  0  0  0  0  0  0  0  0  0  0  0
   26.7790   29.4670   31.1910 C   0  0  0  0  0  3  0  0  0  0  0  0
   25.6100   29.0250   30.5640 C   0  0  0  0  0  3  0  0  0  0  0  0
   25.6650   28.2850   29.3830 C   0  0  0  0  0  0  0  0  0  0  0  0
   26.9080   27.9520   28.8600 C   0  0  0  0  0  3  0  0  0  0  0  0
   28.0710   28.3890   29.4980 C   0  0  0  0  0  0  0  0  0  0  0  0
   29.2420   28.0380   28.9550 F   0  0  0  0  0  0  0  0  0  0  0  0
   24.4490   27.9570   28.8540 O   0  0  0  0  0  0  0  0  0  0  0  0
   24.3120   26.6800   28.2190 C   0  0  0  0  0  2  0  0  0  0  0  0
   24.0650   25.5530   29.1980 C   0  0  0  0  0  0  0  0  0  0  0  0
   22.7970   25.3730   29.7670 C   0  0  0  0  0  3  0  0  0  0  0  0
   22.5620   24.3230   30.6560 C   0  0  0  0  0  3  0  0  0  0  0  0
   23.5890   23.4370   30.9790 C   0  0  0  0  0  3  0  0  0  0  0  0
   24.8500   23.5970   30.4100 C   0  0  0  0  0  3  0  0  0  0  0  0
   25.0860   24.6460   29.5200 C   0  0  0  0  0  3  0  0  0  0  0  0
   27.5800   34.6550   30.8880 O   0  0  0  0  0  0  0  0  0  0  0  0
   27.3140   35.5270   31.2270 H   0  0  0  0  0  0  0  0  0  0  0  0
  1 28  1  0  0  0  0
  2  1  2  0  0  0  0
  3  4  1  0  0  0  0
  3  1  1  0  0  0  0
  4  5  1  0  0  0  0
  5  6  2  0  0  0  0
  7  6  1  0  0  0  0
  8  7  2  0  0  0  0
  9  8  1  0  0  0  0
  9  4  2  0  0  0  0
 10  9  1  0  0  0  0
 11 10  1  0  0  0  0
 11 12  2  0  0  0  0
 12 13  1  0  0  0  0
 13 30  1  6  0  0  0
 13  3  1  0  0  0  0
 14 12  1  0  0  0  0
 14 16  2  0  0  0  0
 15 14  2  0  0  0  0
 17 14  1  0  0  0  0
 18 21  1  0  0  0  0
 18 17  1  0  0  0  0
 19 18  1  0  0  0  0
 20 18  1  0  0  0  0
 21 11  1  0  0  0  0
 22 10  1  0  0  0  0
 24 25  1  0  0  0  0
 24 23  1  0  0  0  0
 26 25  2  0  0  0  0
 27 26  1  0  0  0  0
 28 27  2  0  0  0  0
 28 29  1  0  0  0  0
 29 24  2  0  0  0  0
 30 31  1  0  0  0  0
 32 31  2  0  0  0  0
 33 32  1  0  0  0  0
 34 33  2  0  0  0  0
 34 35  1  0  0  0  0
 35 30  2  0  0  0  0
 36 35  1  0  0  0  0
 37 33  1  0  0  0  0
 38 37  1  0  0  0  0
 38 39  1  0  0  0  0
 39 44  2  0  0  0  0
 39 40  1  0  0  0  0
 40 41  2  0  0  0  0
 41 42  1  0  0  0  0
 43 42  2  0  0  0  0
 44 43  1  0  0  0  0
 45 46  1  0  0  0  0
 45  8  1  0  0  0  0
M  END
>  <minimizedAffinity>
-10.9403067

$$$$

 OpenBabel08172209593D

 46 51  0  0  1  0  0  0  0  0999 V2000
   28.2100   53.8640   15.9810 C   0  0  0  0  0  0  0  0  0  0  0  0
   28.3410   52.6480   16.1390 O   0  0  0  0  0  0  0  0  0  0  0  0
   28.9600   54.6140   15.0300 N   0  0  0  0  0  0  0  0  0  0  0  0
   29.0420   56.0690   14.9930 C   0  0  0  0  0  0  0  0  0  0  0  0
   28.7590   56.8200   16.1500 C   0  0  0  0  0  3  0  0  0  0  0  0
   28.6450   58.2170   16.1420 C   0  0  0  0  0  3  0  0  0  0  0  0
   28.8500   58.9260   14.9700 C   0  0  0  0  0  3  0  0  0  0  0  0
   29.2470   58.2260   13.8420 C   0  0  0  0  0  0  0  0  0  0  0  0
   29.3970   56.8160   13.8390 C   0  0  0  0  0  0  0  0  0  0  0  0
   30.0310   56.2770   12.6840 N   0  0  0  0  0  0  0  0  0  0  0  0
   31.0790   55.3820   12.8080 C   0  0  0  0  0  0  0  0  0  0  0  0
   30.9140   54.2550   13.5220 C   0  0  0  0  0  0  0  0  0  0  0  0
   29.5610   53.7660   13.9660 C   0  0  2  0  0  3  0  0  0  0  0  0
   32.2640   53.2800   13.9940 S   0  0  0  0  0  0  0  0  0  0  0  0
   32.2130   51.9960   13.3230 O   0  0  0  0  0  0  0  0  0  0  0  0
   32.3840   53.3310   15.4410 O   0  0  0  0  0  0  0  0  0  0  0  0
   33.6940   54.1130   13.3610 C   0  0  0  0  0  2  0  0  0  0  0  0
   33.4750   54.7800   12.0030 C   0  0  0  0  0  0  0  0  0  0  0  0
   33.1250   53.7650   10.8980 C   0  0  0  0  0  1  0  0  0  0  0  0
   34.7840   55.4850   11.5910 C   0  0  0  0  0  1  0  0  0  0  0  0
   32.3660   55.8380   12.1510 C   0  0  0  0  0  2  0  0  0  0  0  0
   30.1190   56.9940   11.9600 H   0  0  0  0  0  0  0  0  0  0  0  0
   26.5760   55.8910   20.0790 C   0  0  0  0  0  1  0  0  0  0  0  0
   26.2930   55.4210   18.6830 C   0  0  0  0  0  0  0  0  0  0  0  0
   25.0070   55.5190   18.1570 C   0  0  0  0  0  3  0  0  0  0  0  0
   24.7680   55.0640   16.8630 C   0  0  0  0  0  3  0  0  0  0  0  0
   25.8170   54.5260   16.1250 C   0  0  0  0  0  3  0  0  0  0  0  0
   27.0720   54.4790   16.7170 C   0  0  0  0  0  0  0  0  0  0  0  0
   27.3280   54.9060   17.9820 N   0  0  0  0  0  0  0  0  0  0  0  0
   28.5930   53.4800   12.7950 C   0  0  0  0  0  0  0  0  0  0  0  0
   27.3970   54.1820   12.5780 C   0  0  0  0  0  3  0  0  0  0  0  0
   26.5980   53.9220   11.4600 C   0  0  0  0  0  3  0  0  0  0  0  0
   26.9750   52.9660   10.5170 C   0  0  0  0  0  0  0  0  0  0  0  0
   28.1370   52.2380   10.7300 C   0  0  0  0  0  3  0  0  0  0  0  0
   28.9240   52.4960   11.8540 C   0  0  0  0  0  0  0  0  0  0  0  0
   30.0320   51.7650   12.0140 F   0  0  0  0  0  0  0  0  0  0  0  0
   26.1270   52.8460    9.4530 O   0  0  0  0  0  0  0  0  0  0  0  0
   26.5240   52.0020    8.3650 C   0  0  0  0  0  2  0  0  0  0  0  0
   25.3880   51.1710    7.8110 C   0  0  0  0  0  0  0  0  0  0  0  0
   24.9400   50.0350    8.4980 C   0  0  0  0  0  3  0  0  0  0  0  0
   23.8790   49.2770    7.9970 C   0  0  0  0  0  3  0  0  0  0  0  0
   23.2500   49.6520    6.8100 C   0  0  0  0  0  3  0  0  0  0  0  0
   23.6780   50.7870    6.1260 C   0  0  0  0  0  3  0  0  0  0  0  0
   24.7370   51.5460    6.6260 C   0  0  0  0  0  3  0  0  0  0  0  0
   29.5620   58.9040   12.6850 O   0  0  0  0  0  0  0  0  0  0  0  0
   29.4100   59.8520   12.8350 H   0  0  0  0  0  0  0  0  0  0  0  0
  1  2  2  0  0  0  0
  1 28  1  0  0  0  0
  3  1  1  0  0  0  0
  4  3  1  0  0  0  0
  4  5  1  0  0  0  0
  6  5  2  0  0  0  0
  7  6  1  0  0  0  0
  8  7  2  0  0  0  0
  9  8  1  0  0  0  0
  9  4  2  0  0  0  0
 10 11  1  0  0  0  0
 10  9  1  0  0  0  0
 11 12  2  0  0  0  0
 12 13  1  0  0  0  0
 12 14  1  0  0  0  0
 13 30  1  6  0  0  0
 13  3  1  0  0  0  0
 14 16  2  0  0  0  0
 15 14  2  0  0  0  0
 17 14  1  0  0  0  0
 18 21  1  0  0  0  0
 18 17  1  0  0  0  0
 19 18  1  0  0  0  0
 20 18  1  0  0  0  0
 21 11  1  0  0  0  0
 22 10  1  0  0  0  0
 24 23  1  0  0  0  0
 25 24  1  0  0  0  0
 26 25  2  0  0  0  0
 27 28  2  0  0  0  0
 27 26  1  0  0  0  0
 28 29  1  0  0  0  0
 29 24  2  0  0  0  0
 31 30  1  0  0  0  0
 32 31  2  0  0  0  0
 33 34  2  0  0  0  0
 33 32  1  0  0  0  0
 34 35  1  0  0  0  0
 35 36  1  0  0  0  0
 35 30  2  0  0  0  0
 37 33  1  0  0  0  0
 38 37  1  0  0  0  0
 39 38  1  0  0  0  0
 39 40  1  0  0  0  0
 41 40  2  0  0  0  0
 42 41  1  0  0  0  0
 43 44  1  0  0  0  0
 43 42  2  0  0  0  0
 44 39  2  0  0  0  0
 45 46  1  0  0  0  0
 45  8  1  0  0  0  0
M  END
>  <minimizedAffinity>
-10.5960226

$$$$

 OpenBabel08172209593D

 46 51  0  0  1  0  0  0  0  0999 V2000
   28.7080   52.9350   13.8380 C   0  0  0  0  0  0  0  0  0  0  0  0
   29.1940   51.8380   13.5530 O   0  0  0  0  0  0  0  0  0  0  0  0
   29.0700   54.1440   13.1760 N   0  0  0  0  0  0  0  0  0  0  0  0
   28.7380   55.4830   13.6490 C   0  0  0  0  0  0  0  0  0  0  0  0
   28.4340   55.6960   15.0070 C   0  0  0  0  0  3  0  0  0  0  0  0
   27.9370   56.9120   15.4950 C   0  0  0  0  0  3  0  0  0  0  0  0
   27.7590   57.9850   14.6380 C   0  0  0  0  0  3  0  0  0  0  0  0
   28.1610   57.8460   13.3190 C   0  0  0  0  0  0  0  0  0  0  0  0
   28.6940   56.6310   12.8150 C   0  0  0  0  0  0  0  0  0  0  0  0
   29.2730   56.7180   11.5170 N   0  0  0  0  0  0  0  0  0  0  0  0
   30.5340   56.2050   11.2720 C   0  0  0  0  0  0  0  0  0  0  0  0
   30.7980   54.9160   11.5520 C   0  0  0  0  0  0  0  0  0  0  0  0
   29.7160   53.9140   11.8570 C   0  0  2  0  0  3  0  0  0  0  0  0
   32.4200   54.3150   11.5910 S   0  0  0  0  0  0  0  0  0  0  0  0
   32.6280   53.3650   10.5150 O   0  0  0  0  0  0  0  0  0  0  0  0
   32.7360   53.9340   12.9570 O   0  0  0  0  0  0  0  0  0  0  0  0
   33.4500   55.7080   11.2270 C   0  0  0  0  0  2  0  0  0  0  0  0
   32.8540   56.6720   10.2000 C   0  0  0  0  0  0  0  0  0  0  0  0
   32.6380   56.0090    8.8260 C   0  0  0  0  0  1  0  0  0  0  0  0
   33.8390   57.8430   10.0030 C   0  0  0  0  0  1  0  0  0  0  0  0
   31.5310   57.2250   10.7600 C   0  0  0  0  0  2  0  0  0  0  0  0
   29.0480   57.6180   11.0870 H   0  0  0  0  0  0  0  0  0  0  0  0
   23.9140   53.2420   14.5360 C   0  0  0  0  0  1  0  0  0  0  0  0
   25.2830   53.0660   15.1210 C   0  0  0  0  0  0  0  0  0  0  0  0
   25.4440   52.9310   16.4980 C   0  0  0  0  0  3  0  0  0  0  0  0
   26.7280   52.7810   17.0180 C   0  0  0  0  0  3  0  0  0  0  0  0
   27.8170   52.7690   16.1530 C   0  0  0  0  0  3  0  0  0  0  0  0
   27.5680   52.8940   14.7930 C   0  0  0  0  0  0  0  0  0  0  0  0
   26.3260   53.0510   14.2620 N   0  0  0  0  0  0  0  0  0  0  0  0
   28.7010   53.7310   10.7050 C   0  0  0  0  0  0  0  0  0  0  0  0
   28.2560   54.7770    9.8810 C   0  0  0  0  0  3  0  0  0  0  0  0
   27.3890   54.5350    8.8100 C   0  0  0  0  0  3  0  0  0  0  0  0
   26.9530   53.2420    8.5190 C   0  0  0  0  0  0  0  0  0  0  0  0
   27.3560   52.1990    9.3420 C   0  0  0  0  0  3  0  0  0  0  0  0
   28.2130   52.4510   10.4150 C   0  0  0  0  0  0  0  0  0  0  0  0
   28.5690   51.4120   11.1790 F   0  0  0  0  0  0  0  0  0  0  0  0
   26.1470   53.1430    7.4210 O   0  0  0  0  0  0  0  0  0  0  0  0
   26.2900   51.9900    6.5810 C   0  0  0  0  0  2  0  0  0  0  0  0
   25.1700   50.9870    6.7510 C   0  0  0  0  0  0  0  0  0  0  0  0
   25.3690   49.8240    7.5080 C   0  0  0  0  0  3  0  0  0  0  0  0
   24.3310   48.9060    7.6810 C   0  0  0  0  0  3  0  0  0  0  0  0
   23.0830   49.1450    7.1080 C   0  0  0  0  0  3  0  0  0  0  0  0
   22.8690   50.3040    6.3660 C   0  0  0  0  0  3  0  0  0  0  0  0
   23.9050   51.2240    6.1930 C   0  0  0  0  0  3  0  0  0  0  0  0
   28.0980   58.9200   12.4610 O   0  0  0  0  0  0  0  0  0  0  0  0
   27.7130   59.6730   12.9410 H   0  0  0  0  0  0  0  0  0  0  0  0
  1 28  1  0  0  0  0
  2  1  2  0  0  0  0
  3  4  1  0  0  0  0
  3  1  1  0  0  0  0
  4  5  1  0  0  0  0
  5  6  2  0  0  0  0
  7  6  1  0  0  0  0
  8  7  2  0  0  0  0
  9  8  1  0  0  0  0
  9  4  2  0  0  0  0
 10  9  1  0  0  0  0
 11 10  1  0  0  0  0
 11 12  2  0  0  0  0
 12 14  1  0  0  0  0
 12 13  1  0  0  0  0
 13 30  1  6  0  0  0
 13  3  1  0  0  0  0
 14 16  2  0  0  0  0
 15 14  2  0  0  0  0
 17 14  1  0  0  0  0
 18 21  1  0  0  0  0
 18 17  1  0  0  0  0
 19 18  1  0  0  0  0
 20 18  1  0  0  0  0
 21 11  1  0  0  0  0
 22 10  1  0  0  0  0
 23 24  1  0  0  0  0
 24 25  1  0  0  0  0
 25 26  2  0  0  0  0
 27 26  1  0  0  0  0
 28 27  2  0  0  0  0
 29 28  1  0  0  0  0
 29 24  2  0  0  0  0
 31 30  2  0  0  0  0
 32 31  1  0  0  0  0
 33 32  2  0  0  0  0
 33 34  1  0  0  0  0
 34 35  2  0  0  0  0
 35 30  1  0  0  0  0
 35 36  1  0  0  0  0
 37 33  1  0  0  0  0
 38 39  1  0  0  0  0
 38 37  1  0  0  0  0
 39 40  1  0  0  0  0
 40 41  2  0  0  0  0
 42 41  1  0  0  0  0
 43 42  2  0  0  0  0
 44 43  1  0  0  0  0
 44 39  2  0  0  0  0
 45 46  1  0  0  0  0
 45  8  1  0  0  0  0
M  END
>  <minimizedAffinity>
-10.2664843

$$$$

 OpenBabel08172209593D

 46 51  0  0  1  0  0  0  0  0999 V2000
   26.9520   24.5200   13.2430 C   0  0  0  0  0  0  0  0  0  0  0  0
   25.7290   24.6830   13.2170 O   0  0  0  0  0  0  0  0  0  0  0  0
   27.7900   25.0570   14.2620 N   0  0  0  0  0  0  0  0  0  0  0  0
   29.2450   25.1260   14.1930 C   0  0  0  0  0  0  0  0  0  0  0  0
   29.8940   25.0830   12.9440 C   0  0  0  0  0  3  0  0  0  0  0  0
   31.2850   24.9660   12.8120 C   0  0  0  0  0  3  0  0  0  0  0  0
   32.0900   24.9250   13.9380 C   0  0  0  0  0  3  0  0  0  0  0  0
   31.4920   25.0860   15.1780 C   0  0  0  0  0  0  0  0  0  0  0  0
   30.0890   25.2350   15.3290 C   0  0  0  0  0  0  0  0  0  0  0  0
   29.6580   25.6220   16.6290 N   0  0  0  0  0  0  0  0  0  0  0  0
   28.7770   26.6760   16.7960 C   0  0  0  0  0  0  0  0  0  0  0  0
   27.5930   26.6630   16.1600 C   0  0  0  0  0  0  0  0  0  0  0  0
   27.0430   25.4310   15.4910 C   0  0  2  0  0  3  0  0  0  0  0  0
   26.6100   28.0840   16.0550 S   0  0  0  0  0  0  0  0  0  0  0  0
   25.3830   27.9000   16.8060 O   0  0  0  0  0  0  0  0  0  0  0  0
   26.5460   28.4960   14.6630 O   0  0  0  0  0  0  0  0  0  0  0  0
   27.5190   29.3510   16.8930 C   0  0  0  0  0  2  0  0  0  0  0  0
   28.2900   28.8580   18.1180 C   0  0  0  0  0  0  0  0  0  0  0  0
   27.3610   28.2920   19.2100 C   0  0  0  0  0  1  0  0  0  0  0  0
   29.0510   30.0530   18.7280 C   0  0  0  0  0  1  0  0  0  0  0  0
   29.3110   27.8000   17.6600 C   0  0  0  0  0  2  0  0  0  0  0  0
   30.4330   25.5570   17.2940 H   0  0  0  0  0  0  0  0  0  0  0  0
   28.1940   23.6390    8.6330 C   0  0  0  0  0  1  0  0  0  0  0  0
   28.0480   23.1340   10.0370 C   0  0  0  0  0  0  0  0  0  0  0  0
   28.3500   21.8080   10.3400 C   0  0  0  0  0  3  0  0  0  0  0  0
   28.1940   21.3600   11.6500 C   0  0  0  0  0  3  0  0  0  0  0  0
   27.7450   22.2450   12.6240 C   0  0  0  0  0  3  0  0  0  0  0  0
   27.4820   23.5540   12.2420 C   0  0  0  0  0  0  0  0  0  0  0  0
   27.6160   24.0120   10.9690 N   0  0  0  0  0  0  0  0  0  0  0  0
   26.8340   24.2440   16.4610 C   0  0  0  0  0  0  0  0  0  0  0  0
   27.5700   23.0500   16.4080 C   0  0  0  0  0  3  0  0  0  0  0  0
   27.3810   22.0410   17.3580 C   0  0  0  0  0  3  0  0  0  0  0  0
   26.4640   22.1980   18.3970 C   0  0  0  0  0  0  0  0  0  0  0  0
   25.7020   23.3580   18.4480 C   0  0  0  0  0  3  0  0  0  0  0  0
   25.8900   24.3560   17.4900 C   0  0  0  0  0  0  0  0  0  0  0  0
   25.1290   25.4520   17.5830 F   0  0  0  0  0  0  0  0  0  0  0  0
   26.4130   21.1550   19.2780 O   0  0  0  0  0  0  0  0  0  0  0  0
   26.2770   19.8310   18.7490 C   0  0  0  0  0  2  0  0  0  0  0  0
   25.0680   19.0960   19.2860 C   0  0  0  0  0  0  0  0  0  0  0  0
   23.8960   19.0090   18.5220 C   0  0  0  0  0  3  0  0  0  0  0  0
   22.7850   18.3160   19.0080 C   0  0  0  0  0  3  0  0  0  0  0  0
   22.8370   17.6970   20.2560 C   0  0  0  0  0  3  0  0  0  0  0  0
   24.0010   17.7650   21.0170 C   0  0  0  0  0  3  0  0  0  0  0  0
   25.1130   18.4560   20.5330 C   0  0  0  0  0  3  0  0  0  0  0  0
   32.2670   25.1550   16.3140 O   0  0  0  0  0  0  0  0  0  0  0  0
   33.1970   25.0350   16.0580 H   0  0  0  0  0  0  0  0  0  0  0  0
  1  3  1  0  0  0  0
  2  1  2  0  0  0  0
  3 13  1  0  0  0  0
  4  3  1  0  0  0  0
  4  9  1  0  0  0  0
  5  4  2  0  0  0  0
  6  5  1  0  0  0  0
  6  7  2  0  0  0  0
  7  8  1  0  0  0  0
  8  9  2  0  0  0  0
  8 45  1  0  0  0  0
  9 10  1  0  0  0  0
 10 11  1  0  0  0  0
 10 22  1  0  0  0  0
 11 21  1  0  0  0  0
 12 11  2  0  0  0  0
 13 12  1  0  0  0  0
 13 30  1  1  0  0  0
 14 12  1  0  0  0  0
 14 15  2  0  0  0  0
 14 17  1  0  0  0  0
 16 14  2  0  0  0  0
 17 18  1  0  0  0  0
 18 20  1  0  0  0  0
 18 19  1  0  0  0  0
 21 18  1  0  0  0  0
 23 24  1  0  0  0  0
 24 25  2  0  0  0  0
 24 29  1  0  0  0  0
 25 26  1  0  0  0  0
 26 27  2  0  0  0  0
 28 27  1  0  0  0  0
 28  1  1  0  0  0  0
 29 28  2  0  0  0  0
 30 35  1  0  0  0  0
 31 30  2  0  0  0  0
 31 32  1  0  0  0  0
 32 33  2  0  0  0  0
 33 34  1  0  0  0  0
 33 37  1  0  0  0  0
 35 36  1  0  0  0  0
 35 34  2  0  0  0  0
 38 37  1  0  0  0  0
 38 39  1  0  0  0  0
 39 44  1  0  0  0  0
 40 41  1  0  0  0  0
 40 39  2  0  0  0  0
 41 42  2  0  0  0  0
 42 43  1  0  0  0  0
 44 43  2  0  0  0  0
 46 45  1  0  0  0  0
M  END
>  <minimizedAffinity>
-10.1930943

$$$$

 OpenBabel08172209593D

 46 51  0  0  1  0  0  0  0  0999 V2000
   31.7130   26.6240   16.9980 C   0  0  0  0  0  0  0  0  0  0  0  0
   32.7050   25.8950   16.9310 O   0  0  0  0  0  0  0  0  0  0  0  0
   30.6900   26.6450   16.0060 N   0  0  0  0  0  0  0  0  0  0  0  0
   29.6540   27.6660   15.8990 C   0  0  0  0  0  0  0  0  0  0  0  0
   29.8510   28.9330   16.4800 C   0  0  0  0  0  3  0  0  0  0  0  0
   28.8360   29.8950   16.5700 C   0  0  0  0  0  3  0  0  0  0  0  0
   27.5830   29.6370   16.0430 C   0  0  0  0  0  3  0  0  0  0  0  0
   27.3920   28.4470   15.3580 C   0  0  0  0  0  0  0  0  0  0  0  0
   28.4170   27.4740   15.2310 C   0  0  0  0  0  0  0  0  0  0  0  0
   28.1420   26.4230   14.3100 N   0  0  0  0  0  0  0  0  0  0  0  0
   29.0720   26.0690   13.3480 C   0  0  0  0  0  0  0  0  0  0  0  0
   30.3180   25.7270   13.7170 C   0  0  0  0  0  0  0  0  0  0  0  0
   30.6900   25.4320   15.1460 C   0  0  2  0  0  3  0  0  0  0  0  0
   31.6010   25.6100   12.5610 S   0  0  0  0  0  0  0  0  0  0  0  0
   32.0430   24.2340   12.4420 O   0  0  0  0  0  0  0  0  0  0  0  0
   32.5710   26.6540   12.8440 O   0  0  0  0  0  0  0  0  0  0  0  0
   30.8740   26.0340   11.0030 C   0  0  0  0  0  2  0  0  0  0  0  0
   29.4370   25.5400   10.8310 C   0  0  0  0  0  0  0  0  0  0  0  0
   29.3330   24.0040   10.8760 C   0  0  0  0  0  1  0  0  0  0  0  0
   28.9260   26.0020    9.4510 C   0  0  0  0  0  1  0  0  0  0  0  0
   28.5650   26.1850   11.9240 C   0  0  0  0  0  2  0  0  0  0  0  0
   27.1630   26.4540   14.0180 H   0  0  0  0  0  0  0  0  0  0  0  0
   33.3380   30.0500   20.0300 C   0  0  0  0  0  1  0  0  0  0  0  0
   32.3430   28.9670   19.7390 C   0  0  0  0  0  0  0  0  0  0  0  0
   31.3630   28.6460   20.6750 C   0  0  0  0  0  3  0  0  0  0  0  0
   30.4570   27.6270   20.3860 C   0  0  0  0  0  3  0  0  0  0  0  0
   30.5500   26.9570   19.1720 C   0  0  0  0  0  3  0  0  0  0  0  0
   31.5470   27.3490   18.2870 C   0  0  0  0  0  0  0  0  0  0  0  0
   32.4480   28.3320   18.5500 N   0  0  0  0  0  0  0  0  0  0  0  0
   29.9010   24.2520   15.7580 C   0  0  0  0  0  0  0  0  0  0  0  0
   29.0430   24.3720   16.8630 C   0  0  0  0  0  3  0  0  0  0  0  0
   28.3030   23.2790   17.3260 C   0  0  0  0  0  3  0  0  0  0  0  0
   28.3850   22.0390   16.6940 C   0  0  0  0  0  0  0  0  0  0  0  0
   29.2520   21.8910   15.6210 C   0  0  0  0  0  3  0  0  0  0  0  0
   29.9950   22.9840   15.1700 C   0  0  0  0  0  0  0  0  0  0  0  0
   30.8180   22.7870   14.1340 F   0  0  0  0  0  0  0  0  0  0  0  0
   27.5760   21.0730   17.2220 O   0  0  0  0  0  0  0  0  0  0  0  0
   26.9590   21.3280   18.4900 C   0  0  0  0  0  2  0  0  0  0  0  0
   25.9520   20.2700   18.8860 C   0  0  0  0  0  0  0  0  0  0  0  0
   26.1770   19.4630   20.0090 C   0  0  0  0  0  3  0  0  0  0  0  0
   25.2400   18.4980   20.3870 C   0  0  0  0  0  3  0  0  0  0  0  0
   24.0670   18.3360   19.6510 C   0  0  0  0  0  3  0  0  0  0  0  0
   23.8270   19.1420   18.5410 C   0  0  0  0  0  3  0  0  0  0  0  0
   24.7610   20.1070   18.1630 C   0  0  0  0  0  3  0  0  0  0  0  0
   26.1930   28.1960   14.7300 O   0  0  0  0  0  0  0  0  0  0  0  0
   25.5940   28.9420   14.9050 H   0  0  0  0  0  0  0  0  0  0  0  0
  1 28  1  0  0  0  0
  2  1  2  0  0  0  0
  3  1  1  0  0  0  0
  4  3  1  0  0  0  0
  4  5  1  0  0  0  0
  5  6  2  0  0  0  0
  7  6  1  0  0  0  0
  8  7  2  0  0  0  0
  9  8  1  0  0  0  0
  9  4  2  0  0  0  0
 10  9  1  0  0  0  0
 11 12  2  0  0  0  0
 11 10  1  0  0  0  0
 12 13  1  0  0  0  0
 13 30  1  1  0  0  0
 13  3  1  0  0  0  0
 14 16  2  0  0  0  0
 14 12  1  0  0  0  0
 15 14  2  0  0  0  0
 17 14  1  0  0  0  0
 18 19  1  0  0  0  0
 18 17  1  0  0  0  0
 18 21  1  0  0  0  0
 20 18  1  0  0  0  0
 21 11  1  0  0  0  0
 22 10  1  0  0  0  0
 24 23  1  0  0  0  0
 24 25  1  0  0  0  0
 26 25  2  0  0  0  0
 27 26  1  0  0  0  0
 28 29  1  0  0  0  0
 28 27  2  0  0  0  0
 29 24  2  0  0  0  0
 30 31  1  0  0  0  0
 31 32  2  0  0  0  0
 33 37  1  0  0  0  0
 33 32  1  0  0  0  0
 34 33  2  0  0  0  0
 35 34  1  0  0  0  0
 35 30  2  0  0  0  0
 36 35  1  0  0  0  0
 37 38  1  0  0  0  0
 38 39  1  0  0  0  0
 39 40  1  0  0  0  0
 40 41  2  0  0  0  0
 42 41  1  0  0  0  0
 43 42  2  0  0  0  0
 44 43  1  0  0  0  0
 44 39  2  0  0  0  0
 45 46  1  0  0  0  0
 45  8  1  0  0  0  0
M  END
>  <minimizedAffinity>
-10.0891562

$$$$

 OpenBabel08172209593D

 46 51  0  0  1  0  0  0  0  0999 V2000
   25.3730   26.1970   32.9570 C   0  0  0  0  0  0  0  0  0  0  0  0
   26.2040   25.6130   33.6560 O   0  0  0  0  0  0  0  0  0  0  0  0
   25.3690   27.6090   32.7650 N   0  0  0  0  0  0  0  0  0  0  0  0
   24.2680   28.3670   32.1830 C   0  0  0  0  0  0  0  0  0  0  0  0
   22.9650   27.8310   32.1840 C   0  0  0  0  0  3  0  0  0  0  0  0
   21.8990   28.4200   31.4910 C   0  0  0  0  0  3  0  0  0  0  0  0
   22.0900   29.6010   30.7920 C   0  0  0  0  0  3  0  0  0  0  0  0
   23.3290   30.2160   30.8700 C   0  0  0  0  0  0  0  0  0  0  0  0
   24.4110   29.6500   31.5920 C   0  0  0  0  0  0  0  0  0  0  0  0
   25.5340   30.5080   31.7710 N   0  0  0  0  0  0  0  0  0  0  0  0
   26.0990   30.6780   33.0230 C   0  0  0  0  0  0  0  0  0  0  0  0
   26.5200   29.6070   33.7170 C   0  0  0  0  0  0  0  0  0  0  0  0
   26.6720   28.2440   33.0940 C   0  0  2  0  0  3  0  0  0  0  0  0
   26.9120   29.7180   35.3990 S   0  0  0  0  0  0  0  0  0  0  0  0
   28.3300   29.4930   35.5980 O   0  0  0  0  0  0  0  0  0  0  0  0
   25.9470   28.9320   36.1480 O   0  0  0  0  0  0  0  0  0  0  0  0
   26.6110   31.4060   35.8440 C   0  0  0  0  0  2  0  0  0  0  0  0
   26.9700   32.4110   34.7500 C   0  0  0  0  0  0  0  0  0  0  0  0
   28.4700   32.3890   34.3990 C   0  0  0  0  0  1  0  0  0  0  0  0
   26.6320   33.8280   35.2610 C   0  0  0  0  0  1  0  0  0  0  0  0
   26.1080   32.1130   33.5100 C   0  0  0  0  0  2  0  0  0  0  0  0
   25.4380   31.3430   31.1890 H   0  0  0  0  0  0  0  0  0  0  0  0
   21.3940   23.4200   32.8170 C   0  0  0  0  0  1  0  0  0  0  0  0
   22.5960   23.9690   32.1090 C   0  0  0  0  0  0  0  0  0  0  0  0
   22.8620   23.6010   30.7920 C   0  0  0  0  0  3  0  0  0  0  0  0
   23.9930   24.1150   30.1600 C   0  0  0  0  0  3  0  0  0  0  0  0
   24.8270   24.9830   30.8560 C   0  0  0  0  0  3  0  0  0  0  0  0
   24.4810   25.3120   32.1610 C   0  0  0  0  0  0  0  0  0  0  0  0
   23.3900   24.8150   32.8020 N   0  0  0  0  0  0  0  0  0  0  0  0
   27.6800   28.2110   31.9210 C   0  0  0  0  0  0  0  0  0  0  0  0
   27.3190   27.9770   30.5850 C   0  0  0  0  0  3  0  0  0  0  0  0
   28.2690   28.0290   29.5600 C   0  0  0  0  0  3  0  0  0  0  0  0
   29.6030   28.3300   29.8330 C   0  0  0  0  0  0  0  0  0  0  0  0
   29.9860   28.5330   31.1520 C   0  0  0  0  0  3  0  0  0  0  0  0
   29.0340   28.4690   32.1710 C   0  0  0  0  0  0  0  0  0  0  0  0
   29.4560   28.6690   33.4240 F   0  0  0  0  0  0  0  0  0  0  0  0
   30.4130   28.3920   28.7350 O   0  0  0  0  0  0  0  0  0  0  0  0
   30.1890   29.4450   27.7900 C   0  0  0  0  0  2  0  0  0  0  0  0
   30.4090   30.8240   28.3720 C   0  0  0  0  0  0  0  0  0  0  0  0
   31.6560   31.4530   28.2520 C   0  0  0  0  0  3  0  0  0  0  0  0
   31.8560   32.7330   28.7730 C   0  0  0  0  0  3  0  0  0  0  0  0
   30.8120   33.4010   29.4100 C   0  0  0  0  0  3  0  0  0  0  0  0
   29.5640   32.7910   29.5240 C   0  0  0  0  0  3  0  0  0  0  0  0
   29.3620   31.5120   29.0030 C   0  0  0  0  0  3  0  0  0  0  0  0
   23.5300   31.4420   30.2770 O   0  0  0  0  0  0  0  0  0  0  0  0
   22.7100   31.6990   29.8220 H   0  0  0  0  0  0  0  0  0  0  0  0
  1  2  2  0  0  0  0
  3  1  1  0  0  0  0
  3 13  1  0  0  0  0
  4  5  1  0  0  0  0
  4  3  1  0  0  0  0
  6  5  2  0  0  0  0
  7  8  2  0  0  0  0
  7  6  1  0  0  0  0
  8  9  1  0  0  0  0
  9 10  1  0  0  0  0
  9  4  2  0  0  0  0
 10 11  1  0  0  0  0
 11 21  1  0  0  0  0
 11 12  2  0  0  0  0
 12 14  1  0  0  0  0
 13 30  1  6  0  0  0
 13 12  1  0  0  0  0
 14 15  2  0  0  0  0
 14 17  1  0  0  0  0
 14 16  2  0  0  0  0
 18 20  1  0  0  0  0
 18 17  1  0  0  0  0
 19 18  1  0  0  0  0
 21 18  1  0  0  0  0
 22 10  1  0  0  0  0
 24 29  1  0  0  0  0
 24 23  1  0  0  0  0
 25 24  2  0  0  0  0
 26 25  1  0  0  0  0
 26 27  2  0  0  0  0
 27 28  1  0  0  0  0
 28 29  2  0  0  0  0
 28  1  1  0  0  0  0
 30 35  1  0  0  0  0
 31 30  2  0  0  0  0
 32 33  2  0  0  0  0
 32 31  1  0  0  0  0
 33 34  1  0  0  0  0
 34 35  2  0  0  0  0
 35 36  1  0  0  0  0
 37 33  1  0  0  0  0
 38 39  1  0  0  0  0
 38 37  1  0  0  0  0
 39 44  1  0  0  0  0
 40 39  2  0  0  0  0
 40 41  1  0  0  0  0
 41 42  2  0  0  0  0
 42 43  1  0  0  0  0
 44 43  2  0  0  0  0
 45  8  1  0  0  0  0
 46 45  1  0  0  0  0
M  END
>  <minimizedAffinity>
-10.041934

$$$$

 OpenBabel08172209593D

 46 51  0  0  1  0  0  0  0  0999 V2000
   30.7160   52.4500   14.9340 C   0  0  0  0  0  0  0  0  0  0  0  0
   30.2790   51.4910   15.5750 O   0  0  0  0  0  0  0  0  0  0  0  0
   29.8800   53.3780   14.2480 N   0  0  0  0  0  0  0  0  0  0  0  0
   30.3440   54.3510   13.2670 C   0  0  0  0  0  0  0  0  0  0  0  0
   31.5660   54.1470   12.5970 C   0  0  0  0  0  3  0  0  0  0  0  0
   32.1570   55.1200   11.7790 C   0  0  0  0  0  3  0  0  0  0  0  0
   31.5220   56.3320   11.5680 C   0  0  0  0  0  3  0  0  0  0  0  0
   30.2620   56.5170   12.1170 C   0  0  0  0  0  0  0  0  0  0  0  0
   29.6360   55.5320   12.9230 C   0  0  0  0  0  0  0  0  0  0  0  0
   28.2630   55.7720   13.2130 N   0  0  0  0  0  0  0  0  0  0  0  0
   27.3180   54.7780   13.0250 C   0  0  0  0  0  0  0  0  0  0  0  0
   27.4730   53.5870   13.6290 C   0  0  0  0  0  0  0  0  0  0  0  0
   28.4730   53.3580   14.7310 C   0  0  2  0  0  3  0  0  0  0  0  0
   26.5260   52.2130   13.1690 S   0  0  0  0  0  0  0  0  0  0  0  0
   25.6430   51.8270   14.2520 O   0  0  0  0  0  0  0  0  0  0  0  0
   27.4100   51.2240   12.5760 O   0  0  0  0  0  0  0  0  0  0  0  0
   25.4810   52.7760   11.8550 C   0  0  0  0  0  2  0  0  0  0  0  0
   24.9880   54.2140   12.0250 C   0  0  0  0  0  0  0  0  0  0  0  0
   24.1200   54.3940   13.2850 C   0  0  0  0  0  1  0  0  0  0  0  0
   24.1180   54.5780   10.8040 C   0  0  0  0  0  1  0  0  0  0  0  0
   26.2110   55.1490   12.0590 C   0  0  0  0  0  2  0  0  0  0  0  0
   28.0000   56.7190   12.9310 H   0  0  0  0  0  0  0  0  0  0  0  0
   34.2590   55.4370   16.3830 C   0  0  0  0  0  1  0  0  0  0  0  0
   33.8610   54.1370   15.7510 C   0  0  0  0  0  0  0  0  0  0  0  0
   34.8340   53.2560   15.2870 C   0  0  0  0  0  3  0  0  0  0  0  0
   34.4380   52.0600   14.6920 C   0  0  0  0  0  3  0  0  0  0  0  0
   33.0820   51.7720   14.5780 C   0  0  0  0  0  3  0  0  0  0  0  0
   32.1760   52.6970   15.0810 C   0  0  0  0  0  0  0  0  0  0  0  0
   32.5380   53.8750   15.6560 N   0  0  0  0  0  0  0  0  0  0  0  0
   28.2420   54.2540   15.9700 C   0  0  0  0  0  0  0  0  0  0  0  0
   29.0480   55.3530   16.3030 C   0  0  0  0  0  3  0  0  0  0  0  0
   28.7450   56.1670   17.4000 C   0  0  0  0  0  3  0  0  0  0  0  0
   27.6210   55.9170   18.1880 C   0  0  0  0  0  0  0  0  0  0  0  0
   26.8290   54.8150   17.8950 C   0  0  0  0  0  3  0  0  0  0  0  0
   27.1450   54.0030   16.8040 C   0  0  0  0  0  0  0  0  0  0  0  0
   26.3520   52.9520   16.5660 F   0  0  0  0  0  0  0  0  0  0  0  0
   27.4190   56.8150   19.1980 O   0  0  0  0  0  0  0  0  0  0  0  0
   28.5620   57.2820   19.9240 C   0  0  0  0  0  2  0  0  0  0  0  0
   28.8140   56.5080   21.2000 C   0  0  0  0  0  0  0  0  0  0  0  0
   28.0400   56.7540   22.3420 C   0  0  0  0  0  3  0  0  0  0  0  0
   28.2580   56.0280   23.5150 C   0  0  0  0  0  3  0  0  0  0  0  0
   29.2460   55.0440   23.5550 C   0  0  0  0  0  3  0  0  0  0  0  0
   30.0120   54.7820   22.4220 C   0  0  0  0  0  3  0  0  0  0  0  0
   29.7940   55.5060   21.2490 C   0  0  0  0  0  3  0  0  0  0  0  0
   29.5530   57.6650   11.8460 O   0  0  0  0  0  0  0  0  0  0  0  0
   30.1050   58.2420   11.2900 H   0  0  0  0  0  0  0  0  0  0  0  0
  1 28  1  0  0  0  0
  1  2  2  0  0  0  0
  3 13  1  0  0  0  0
  3  1  1  0  0  0  0
  4  3  1  0  0  0  0
  5  4  2  0  0  0  0
  6  5  1  0  0  0  0
  7  6  2  0  0  0  0
  7  8  1  0  0  0  0
  8  9  2  0  0  0  0
  9 10  1  0  0  0  0
  9  4  1  0  0  0  0
 11 10  1  0  0  0  0
 11 12  2  0  0  0  0
 12 13  1  0  0  0  0
 13 30  1  1  0  0  0
 14 12  1  0  0  0  0
 14 15  2  0  0  0  0
 16 14  2  0  0  0  0
 17 18  1  0  0  0  0
 17 14  1  0  0  0  0
 18 21  1  0  0  0  0
 18 19  1  0  0  0  0
 20 18  1  0  0  0  0
 21 11  1  0  0  0  0
 22 10  1  0  0  0  0
 24 23  1  0  0  0  0
 25 24  2  0  0  0  0
 26 25  1  0  0  0  0
 27 26  2  0  0  0  0
 27 28  1  0  0  0  0
 28 29  2  0  0  0  0
 29 24  1  0  0  0  0
 30 31  2  0  0  0  0
 30 35  1  0  0  0  0
 31 32  1  0  0  0  0
 32 33  2  0  0  0  0
 33 37  1  0  0  0  0
 34 33  1  0  0  0  0
 35 34  2  0  0  0  0
 36 35  1  0  0  0  0
 37 38  1  0  0  0  0
 38 39  1  0  0  0  0
 39 44  2  0  0  0  0
 39 40  1  0  0  0  0
 40 41  2  0  0  0  0
 41 42  1  0  0  0  0
 43 42  2  0  0  0  0
 44 43  1  0  0  0  0
 45  8  1  0  0  0  0
 46 45  1  0  0  0  0
M  END
>  <minimizedAffinity>
-10.0253458

$$$$

 OpenBabel08172209593D

 46 51  0  0  1  0  0  0  0  0999 V2000
   24.5300   31.1430   31.3370 C   0  0  0  0  0  0  0  0  0  0  0  0
   24.6150   31.4780   30.1520 O   0  0  0  0  0  0  0  0  0  0  0  0
   24.6270   29.7910   31.7750 N   0  0  0  0  0  0  0  0  0  0  0  0
   24.2660   29.3190   33.1060 C   0  0  0  0  0  0  0  0  0  0  0  0
   23.3790   30.0680   33.9030 C   0  0  0  0  0  3  0  0  0  0  0  0
   23.1280   29.7700   35.2490 C   0  0  0  0  0  3  0  0  0  0  0  0
   23.7320   28.6750   35.8450 C   0  0  0  0  0  3  0  0  0  0  0  0
   24.5160   27.8480   35.0550 C   0  0  0  0  0  0  0  0  0  0  0  0
   24.7570   28.1180   33.6830 C   0  0  0  0  0  0  0  0  0  0  0  0
   25.3800   27.0620   32.9600 N   0  0  0  0  0  0  0  0  0  0  0  0
   24.8620   26.6350   31.7500 C   0  0  0  0  0  0  0  0  0  0  0  0
   24.6800   27.5170   30.7520 C   0  0  0  0  0  0  0  0  0  0  0  0
   25.2730   28.9010   30.7740 C   0  0  2  0  0  3  0  0  0  0  0  0
   23.7330   27.1210   29.3580 S   0  0  0  0  0  0  0  0  0  0  0  0
   24.5750   27.0670   28.1790 O   0  0  0  0  0  0  0  0  0  0  0  0
   22.5470   27.9580   29.3560 O   0  0  0  0  0  0  0  0  0  0  0  0
   23.1580   25.4680   29.6320 C   0  0  0  0  0  2  0  0  0  0  0  0
   24.1690   24.5660   30.3400 C   0  0  0  0  0  0  0  0  0  0  0  0
   25.4600   24.3720   29.5210 C   0  0  0  0  0  1  0  0  0  0  0  0
   23.5290   23.1760   30.5350 C   0  0  0  0  0  1  0  0  0  0  0  0
   24.4780   25.1690   31.7220 C   0  0  0  0  0  2  0  0  0  0  0  0
   25.7120   26.3390   33.6020 H   0  0  0  0  0  0  0  0  0  0  0  0
   22.0540   34.7980   33.3580 C   0  0  0  0  0  1  0  0  0  0  0  0
   23.3340   34.0240   33.2530 C   0  0  0  0  0  0  0  0  0  0  0  0
   24.4450   34.4010   34.0040 C   0  0  0  0  0  3  0  0  0  0  0  0
   25.6260   33.6720   33.8790 C   0  0  0  0  0  3  0  0  0  0  0  0
   25.6690   32.5860   33.0110 C   0  0  0  0  0  3  0  0  0  0  0  0
   24.5120   32.2670   32.3120 C   0  0  0  0  0  0  0  0  0  0  0  0
   23.3520   32.9680   32.4090 N   0  0  0  0  0  0  0  0  0  0  0  0
   26.8170   28.9100   30.8560 C   0  0  0  0  0  0  0  0  0  0  0  0
   27.5370   29.2410   32.0150 C   0  0  0  0  0  3  0  0  0  0  0  0
   28.9330   29.1630   32.0460 C   0  0  0  0  0  3  0  0  0  0  0  0
   29.6520   28.7390   30.9280 C   0  0  0  0  0  0  0  0  0  0  0  0
   28.9610   28.4390   29.7620 C   0  0  0  0  0  3  0  0  0  0  0  0
   27.5670   28.5290   29.7370 C   0  0  0  0  0  0  0  0  0  0  0  0
   26.9500   28.2320   28.5880 F   0  0  0  0  0  0  0  0  0  0  0  0
   31.0040   28.6660   31.1100 O   0  0  0  0  0  0  0  0  0  0  0  0
   31.7130   29.8800   31.3880 C   0  0  0  0  0  2  0  0  0  0  0  0
   31.4520   30.9690   30.3700 C   0  0  0  0  0  0  0  0  0  0  0  0
   31.8340   30.7950   29.0330 C   0  0  0  0  0  3  0  0  0  0  0  0
   31.5770   31.7910   28.0890 C   0  0  0  0  0  3  0  0  0  0  0  0
   30.9280   32.9660   28.4690 C   0  0  0  0  0  3  0  0  0  0  0  0
   30.5320   33.1430   29.7920 C   0  0  0  0  0  3  0  0  0  0  0  0
   30.7870   32.1480   30.7370 C   0  0  0  0  0  3  0  0  0  0  0  0
   25.0490   26.6940   35.5820 O   0  0  0  0  0  0  0  0  0  0  0  0
   24.8050   26.6450   36.5220 H   0  0  0  0  0  0  0  0  0  0  0  0
  1  3  1  0  0  0  0
  1 28  1  0  0  0  0
  2  1  2  0  0  0  0
  3  4  1  0  0  0  0
  4  9  2  0  0  0  0
  4  5  1  0  0  0  0
  5  6  2  0  0  0  0
  6  7  1  0  0  0  0
  8 45  1  0  0  0  0
  8  7  2  0  0  0  0
  9  8  1  0  0  0  0
 10 22  1  0  0  0  0
 10  9  1  0  0  0  0
 11 10  1  0  0  0  0
 12 13  1  0  0  0  0
 12 11  2  0  0  0  0
 13 30  1  1  0  0  0
 13  3  1  0  0  0  0
 14 17  1  0  0  0  0
 14 12  1  0  0  0  0
 15 14  2  0  0  0  0
 16 14  2  0  0  0  0
 17 18  1  0  0  0  0
 18 20  1  0  0  0  0
 18 21  1  0  0  0  0
 19 18  1  0  0  0  0
 21 11  1  0  0  0  0
 24 23  1  0  0  0  0
 24 25  1  0  0  0  0
 26 25  2  0  0  0  0
 27 26  1  0  0  0  0
 28 29  1  0  0  0  0
 28 27  2  0  0  0  0
 29 24  2  0  0  0  0
 30 31  1  0  0  0  0
 31 32  2  0  0  0  0
 33 37  1  0  0  0  0
 33 32  1  0  0  0  0
 34 33  2  0  0  0  0
 35 34  1  0  0  0  0
 35 30  2  0  0  0  0
 36 35  1  0  0  0  0
 37 38  1  0  0  0  0
 39 44  1  0  0  0  0
 39 38  1  0  0  0  0
 40 39  2  0  0  0  0
 41 42  2  0  0  0  0
 41 40  1  0  0  0  0
 42 43  1  0  0  0  0
 43 44  2  0  0  0  0
 45 46  1  0  0  0  0
M  END
>  <minimizedAffinity>
-10.0038195

$$$$

 OpenBabel08172209593D

 46 51  0  0  1  0  0  0  0  0999 V2000
   29.4350   55.6270   16.6970 C   0  0  0  0  0  0  0  0  0  0  0  0
   29.8900   54.5290   16.3680 O   0  0  0  0  0  0  0  0  0  0  0  0
   29.6710   56.8230   15.9590 N   0  0  0  0  0  0  0  0  0  0  0  0
   29.3920   58.1700   16.4440 C   0  0  0  0  0  0  0  0  0  0  0  0
   29.2960   58.4140   17.8280 C   0  0  0  0  0  3  0  0  0  0  0  0
   28.8590   59.6370   18.3560 C   0  0  0  0  0  3  0  0  0  0  0  0
   28.5340   60.6840   17.5110 C   0  0  0  0  0  3  0  0  0  0  0  0
   28.7320   60.5150   16.1490 C   0  0  0  0  0  0  0  0  0  0  0  0
   29.2020   59.2950   15.6000 C   0  0  0  0  0  0  0  0  0  0  0  0
   29.5740   59.3540   14.2260 N   0  0  0  0  0  0  0  0  0  0  0  0
   30.7920   58.8510   13.8030 C   0  0  0  0  0  0  0  0  0  0  0  0
   31.1170   57.5740   14.0710 C   0  0  0  0  0  0  0  0  0  0  0  0
   30.1120   56.5660   14.5630 C   0  0  2  0  0  3  0  0  0  0  0  0
   32.7360   56.9950   13.8760 S   0  0  0  0  0  0  0  0  0  0  0  0
   32.7930   56.0200   12.8040 O   0  0  0  0  0  0  0  0  0  0  0  0
   33.2630   56.6550   15.1860 O   0  0  0  0  0  0  0  0  0  0  0  0
   33.6750   58.3920   13.3240 C   0  0  0  0  0  2  0  0  0  0  0  0
   32.9130   59.3200   12.3790 C   0  0  0  0  0  0  0  0  0  0  0  0
   32.5010   58.6180   11.0700 C   0  0  0  0  0  1  0  0  0  0  0  0
   33.8360   60.4980   12.0040 C   0  0  0  0  0  1  0  0  0  0  0  0
   31.6810   59.8700   13.1210 C   0  0  0  0  0  2  0  0  0  0  0  0
   29.2720   60.2390   13.8140 H   0  0  0  0  0  0  0  0  0  0  0  0
   28.6470   55.1420   21.4630 C   0  0  0  0  0  1  0  0  0  0  0  0
   28.0850   55.3380   20.0870 C   0  0  0  0  0  0  0  0  0  0  0  0
   26.7070   55.4270   19.8990 C   0  0  0  0  0  3  0  0  0  0  0  0
   26.2090   55.5970   18.6090 C   0  0  0  0  0  3  0  0  0  0  0  0
   27.0960   55.6770   17.5410 C   0  0  0  0  0  3  0  0  0  0  0  0
   28.4550   55.5960   17.8160 C   0  0  0  0  0  0  0  0  0  0  0  0
   28.9650   55.4200   19.0640 N   0  0  0  0  0  0  0  0  0  0  0  0
   28.9360   56.3400   13.5840 C   0  0  0  0  0  0  0  0  0  0  0  0
   27.6270   56.7920   13.8140 C   0  0  0  0  0  3  0  0  0  0  0  0
   26.6220   56.6160   12.8570 C   0  0  0  0  0  3  0  0  0  0  0  0
   26.8950   55.9980   11.6370 C   0  0  0  0  0  0  0  0  0  0  0  0
   28.1750   55.5140   11.4040 C   0  0  0  0  0  3  0  0  0  0  0  0
   29.1700   55.6850   12.3680 C   0  0  0  0  0  0  0  0  0  0  0  0
   30.3850   55.1980   12.0950 F   0  0  0  0  0  0  0  0  0  0  0  0
   25.8340   55.9320   10.7790 O   0  0  0  0  0  0  0  0  0  0  0  0
   25.3630   54.6370   10.3880 C   0  0  0  0  0  2  0  0  0  0  0  0
   25.0760   53.7280   11.5640 C   0  0  0  0  0  0  0  0  0  0  0  0
   25.7890   52.5320   11.7250 C   0  0  0  0  0  3  0  0  0  0  0  0
   25.5380   51.7010   12.8190 C   0  0  0  0  0  3  0  0  0  0  0  0
   24.5800   52.0610   13.7660 C   0  0  0  0  0  3  0  0  0  0  0  0
   23.8750   53.2540   13.6230 C   0  0  0  0  0  3  0  0  0  0  0  0
   24.1250   54.0860   12.5310 C   0  0  0  0  0  3  0  0  0  0  0  0
   28.5210   61.5650   15.2850 O   0  0  0  0  0  0  0  0  0  0  0  0
   28.2010   62.3250   15.8000 H   0  0  0  0  0  0  0  0  0  0  0  0
  1 28  1  0  0  0  0
  2  1  2  0  0  0  0
  3  4  1  0  0  0  0
  3  1  1  0  0  0  0
  4  5  1  0  0  0  0
  5  6  2  0  0  0  0
  7  6  1  0  0  0  0
  8  7  2  0  0  0  0
  9  8  1  0  0  0  0
  9  4  2  0  0  0  0
 10  9  1  0  0  0  0
 11 12  2  0  0  0  0
 11 10  1  0  0  0  0
 12 13  1  0  0  0  0
 13 30  1  6  0  0  0
 13  3  1  0  0  0  0
 14 12  1  0  0  0  0
 14 16  2  0  0  0  0
 15 14  2  0  0  0  0
 17 14  1  0  0  0  0
 18 21  1  0  0  0  0
 18 17  1  0  0  0  0
 19 18  1  0  0  0  0
 20 18  1  0  0  0  0
 21 11  1  0  0  0  0
 22 10  1  0  0  0  0
 24 23  1  0  0  0  0
 25 24  1  0  0  0  0
 26 25  2  0  0  0  0
 27 28  2  0  0  0  0
 27 26  1  0  0  0  0
 28 29  1  0  0  0  0
 29 24  2  0  0  0  0
 30 31  1  0  0  0  0
 32 31  2  0  0  0  0
 33 32  1  0  0  0  0
 34 33  2  0  0  0  0
 34 35  1  0  0  0  0
 35 30  2  0  0  0  0
 36 35  1  0  0  0  0
 37 33  1  0  0  0  0
 38 37  1  0  0  0  0
 38 39  1  0  0  0  0
 39 40  2  0  0  0  0
 39 44  1  0  0  0  0
 40 41  1  0  0  0  0
 41 42  2  0  0  0  0
 43 42  1  0  0  0  0
 44 43  2  0  0  0  0
 45 46  1  0  0  0  0
 45  8  1  0  0  0  0
M  END
>  <minimizedAffinity>
-9.99382496

$$$$
