
 OpenBabel08172209593D

 46 51  0  0  1  0  0  0  0  0999 V2000
   29.2210   29.3930   33.6630 C   0  0  0  0  0  0  0  0  0  0  0  0
   29.6830   28.2540   33.5620 O   0  0  0  0  0  0  0  0  0  0  0  0
   29.2080   30.3290   32.5880 N   0  0  0  0  0  0  0  0  0  0  0  0
   28.9310   31.7530   32.7280 C   0  0  0  0  0  0  0  0  0  0  0  0
   29.1000   32.3850   33.9750 C   0  0  0  0  0  3  0  0  0  0  0  0
   28.6860   33.7010   34.2240 C   0  0  0  0  0  3  0  0  0  0  0  0
   28.1150   34.4550   33.2120 C   0  0  0  0  0  3  0  0  0  0  0  0
   28.0440   33.9030   31.9430 C   0  0  0  0  0  0  0  0  0  0  0  0
   28.4860   32.5830   31.6660 C   0  0  0  0  0  0  0  0  0  0  0  0
   28.5640   32.2490   30.2830 N   0  0  0  0  0  0  0  0  0  0  0  0
   29.7060   31.6650   29.7630 C   0  0  0  0  0  0  0  0  0  0  0  0
   30.1760   30.5250   30.2980 C   0  0  0  0  0  0  0  0  0  0  0  0
   29.3730   29.6870   31.2580 C   0  0  2  0  0  3  0  0  0  0  0  0
   31.7620   29.9400   29.9250 S   0  0  0  0  0  0  0  0  0  0  0  0
   31.6740   28.6980   29.1810 O   0  0  0  0  0  0  0  0  0  0  0  0
   32.5700   30.0010   31.1300 O   0  0  0  0  0  0  0  0  0  0  0  0
   32.4570   31.1330   28.8160 C   0  0  0  0  0  2  0  0  0  0  0  0
   31.4480   31.7360   27.8380 C   0  0  0  0  0  0  0  0  0  0  0  0
   30.8340   30.6810   26.8990 C   0  0  0  0  0  1  0  0  0  0  0  0
   32.1810   32.7710   26.9590 C   0  0  0  0  0  1  0  0  0  0  0  0
   30.3550   32.4580   28.6470 C   0  0  0  0  0  2  0  0  0  0  0  0
   28.1160   32.9740   29.7170 H   0  0  0  0  0  0  0  0  0  0  0  0
   29.4550   30.1850   38.4470 C   0  0  0  0  0  1  0  0  0  0  0  0
   28.6130   30.0230   37.2170 C   0  0  0  0  0  0  0  0  0  0  0  0
   27.2240   30.0790   37.3060 C   0  0  0  0  0  3  0  0  0  0  0  0
   26.4640   29.9130   36.1500 C   0  0  0  0  0  3  0  0  0  0  0  0
   27.1070   29.6970   34.9360 C   0  0  0  0  0  3  0  0  0  0  0  0
   28.4950   29.6710   34.9320 C   0  0  0  0  0  0  0  0  0  0  0  0
   29.2590   29.8200   36.0470 N   0  0  0  0  0  0  0  0  0  0  0  0
   28.0440   29.1690   30.6610 C   0  0  0  0  0  0  0  0  0  0  0  0
   26.7790   29.4670   31.1910 C   0  0  0  0  0  3  0  0  0  0  0  0
   25.6100   29.0250   30.5640 C   0  0  0  0  0  3  0  0  0  0  0  0
   25.6650   28.2850   29.3830 C   0  0  0  0  0  0  0  0  0  0  0  0
   26.9080   27.9520   28.8600 C   0  0  0  0  0  3  0  0  0  0  0  0
   28.0710   28.3890   29.4980 C   0  0  0  0  0  0  0  0  0  0  0  0
   29.2420   28.0380   28.9550 F   0  0  0  0  0  0  0  0  0  0  0  0
   24.4490   27.9570   28.8540 O   0  0  0  0  0  0  0  0  0  0  0  0
   24.3120   26.6800   28.2190 C   0  0  0  0  0  2  0  0  0  0  0  0
   24.0650   25.5530   29.1980 C   0  0  0  0  0  0  0  0  0  0  0  0
   22.7970   25.3730   29.7670 C   0  0  0  0  0  3  0  0  0  0  0  0
   22.5620   24.3230   30.6560 C   0  0  0  0  0  3  0  0  0  0  0  0
   23.5890   23.4370   30.9790 C   0  0  0  0  0  3  0  0  0  0  0  0
   24.8500   23.5970   30.4100 C   0  0  0  0  0  3  0  0  0  0  0  0
   25.0860   24.6460   29.5200 C   0  0  0  0  0  3  0  0  0  0  0  0
   27.5800   34.6550   30.8880 O   0  0  0  0  0  0  0  0  0  0  0  0
   27.3140   35.5270   31.2270 H   0  0  0  0  0  0  0  0  0  0  0  0
  1 28  1  0  0  0  0
  2  1  2  0  0  0  0
  3  4  1  0  0  0  0
  3  1  1  0  0  0  0
  4  5  1  0  0  0  0
  5  6  2  0  0  0  0
  7  6  1  0  0  0  0
  8  7  2  0  0  0  0
  9  8  1  0  0  0  0
  9  4  2  0  0  0  0
 10  9  1  0  0  0  0
 11 10  1  0  0  0  0
 11 12  2  0  0  0  0
 12 13  1  0  0  0  0
 13 30  1  6  0  0  0
 13  3  1  0  0  0  0
 14 12  1  0  0  0  0
 14 16  2  0  0  0  0
 15 14  2  0  0  0  0
 17 14  1  0  0  0  0
 18 21  1  0  0  0  0
 18 17  1  0  0  0  0
 19 18  1  0  0  0  0
 20 18  1  0  0  0  0
 21 11  1  0  0  0  0
 22 10  1  0  0  0  0
 24 25  1  0  0  0  0
 24 23  1  0  0  0  0
 26 25  2  0  0  0  0
 27 26  1  0  0  0  0
 28 27  2  0  0  0  0
 28 29  1  0  0  0  0
 29 24  2  0  0  0  0
 30 31  1  0  0  0  0
 32 31  2  0  0  0  0
 33 32  1  0  0  0  0
 34 33  2  0  0  0  0
 34 35  1  0  0  0  0
 35 30  2  0  0  0  0
 36 35  1  0  0  0  0
 37 33  1  0  0  0  0
 38 37  1  0  0  0  0
 38 39  1  0  0  0  0
 39 44  2  0  0  0  0
 39 40  1  0  0  0  0
 40 41  2  0  0  0  0
 41 42  1  0  0  0  0
 43 42  2  0  0  0  0
 44 43  1  0  0  0  0
 45 46  1  0  0  0  0
 45  8  1  0  0  0  0
M  END
>  <minimizedAffinity>
-10.9403067

$$$$
