
 OpenBabel08172209593D

 46 51  0  0  1  0  0  0  0  0999 V2000
   25.3730   26.1970   32.9570 C   0  0  0  0  0  0  0  0  0  0  0  0
   26.2040   25.6130   33.6560 O   0  0  0  0  0  0  0  0  0  0  0  0
   25.3690   27.6090   32.7650 N   0  0  0  0  0  0  0  0  0  0  0  0
   24.2680   28.3670   32.1830 C   0  0  0  0  0  0  0  0  0  0  0  0
   22.9650   27.8310   32.1840 C   0  0  0  0  0  3  0  0  0  0  0  0
   21.8990   28.4200   31.4910 C   0  0  0  0  0  3  0  0  0  0  0  0
   22.0900   29.6010   30.7920 C   0  0  0  0  0  3  0  0  0  0  0  0
   23.3290   30.2160   30.8700 C   0  0  0  0  0  0  0  0  0  0  0  0
   24.4110   29.6500   31.5920 C   0  0  0  0  0  0  0  0  0  0  0  0
   25.5340   30.5080   31.7710 N   0  0  0  0  0  0  0  0  0  0  0  0
   26.0990   30.6780   33.0230 C   0  0  0  0  0  0  0  0  0  0  0  0
   26.5200   29.6070   33.7170 C   0  0  0  0  0  0  0  0  0  0  0  0
   26.6720   28.2440   33.0940 C   0  0  2  0  0  3  0  0  0  0  0  0
   26.9120   29.7180   35.3990 S   0  0  0  0  0  0  0  0  0  0  0  0
   28.3300   29.4930   35.5980 O   0  0  0  0  0  0  0  0  0  0  0  0
   25.9470   28.9320   36.1480 O   0  0  0  0  0  0  0  0  0  0  0  0
   26.6110   31.4060   35.8440 C   0  0  0  0  0  2  0  0  0  0  0  0
   26.9700   32.4110   34.7500 C   0  0  0  0  0  0  0  0  0  0  0  0
   28.4700   32.3890   34.3990 C   0  0  0  0  0  1  0  0  0  0  0  0
   26.6320   33.8280   35.2610 C   0  0  0  0  0  1  0  0  0  0  0  0
   26.1080   32.1130   33.5100 C   0  0  0  0  0  2  0  0  0  0  0  0
   25.4380   31.3430   31.1890 H   0  0  0  0  0  0  0  0  0  0  0  0
   21.3940   23.4200   32.8170 C   0  0  0  0  0  1  0  0  0  0  0  0
   22.5960   23.9690   32.1090 C   0  0  0  0  0  0  0  0  0  0  0  0
   22.8620   23.6010   30.7920 C   0  0  0  0  0  3  0  0  0  0  0  0
   23.9930   24.1150   30.1600 C   0  0  0  0  0  3  0  0  0  0  0  0
   24.8270   24.9830   30.8560 C   0  0  0  0  0  3  0  0  0  0  0  0
   24.4810   25.3120   32.1610 C   0  0  0  0  0  0  0  0  0  0  0  0
   23.3900   24.8150   32.8020 N   0  0  0  0  0  0  0  0  0  0  0  0
   27.6800   28.2110   31.9210 C   0  0  0  0  0  0  0  0  0  0  0  0
   27.3190   27.9770   30.5850 C   0  0  0  0  0  3  0  0  0  0  0  0
   28.2690   28.0290   29.5600 C   0  0  0  0  0  3  0  0  0  0  0  0
   29.6030   28.3300   29.8330 C   0  0  0  0  0  0  0  0  0  0  0  0
   29.9860   28.5330   31.1520 C   0  0  0  0  0  3  0  0  0  0  0  0
   29.0340   28.4690   32.1710 C   0  0  0  0  0  0  0  0  0  0  0  0
   29.4560   28.6690   33.4240 F   0  0  0  0  0  0  0  0  0  0  0  0
   30.4130   28.3920   28.7350 O   0  0  0  0  0  0  0  0  0  0  0  0
   30.1890   29.4450   27.7900 C   0  0  0  0  0  2  0  0  0  0  0  0
   30.4090   30.8240   28.3720 C   0  0  0  0  0  0  0  0  0  0  0  0
   31.6560   31.4530   28.2520 C   0  0  0  0  0  3  0  0  0  0  0  0
   31.8560   32.7330   28.7730 C   0  0  0  0  0  3  0  0  0  0  0  0
   30.8120   33.4010   29.4100 C   0  0  0  0  0  3  0  0  0  0  0  0
   29.5640   32.7910   29.5240 C   0  0  0  0  0  3  0  0  0  0  0  0
   29.3620   31.5120   29.0030 C   0  0  0  0  0  3  0  0  0  0  0  0
   23.5300   31.4420   30.2770 O   0  0  0  0  0  0  0  0  0  0  0  0
   22.7100   31.6990   29.8220 H   0  0  0  0  0  0  0  0  0  0  0  0
  1  2  2  0  0  0  0
  3  1  1  0  0  0  0
  3 13  1  0  0  0  0
  4  5  1  0  0  0  0
  4  3  1  0  0  0  0
  6  5  2  0  0  0  0
  7  8  2  0  0  0  0
  7  6  1  0  0  0  0
  8  9  1  0  0  0  0
  9 10  1  0  0  0  0
  9  4  2  0  0  0  0
 10 11  1  0  0  0  0
 11 21  1  0  0  0  0
 11 12  2  0  0  0  0
 12 14  1  0  0  0  0
 13 30  1  6  0  0  0
 13 12  1  0  0  0  0
 14 15  2  0  0  0  0
 14 17  1  0  0  0  0
 14 16  2  0  0  0  0
 18 20  1  0  0  0  0
 18 17  1  0  0  0  0
 19 18  1  0  0  0  0
 21 18  1  0  0  0  0
 22 10  1  0  0  0  0
 24 29  1  0  0  0  0
 24 23  1  0  0  0  0
 25 24  2  0  0  0  0
 26 25  1  0  0  0  0
 26 27  2  0  0  0  0
 27 28  1  0  0  0  0
 28 29  2  0  0  0  0
 28  1  1  0  0  0  0
 30 35  1  0  0  0  0
 31 30  2  0  0  0  0
 32 33  2  0  0  0  0
 32 31  1  0  0  0  0
 33 34  1  0  0  0  0
 34 35  2  0  0  0  0
 35 36  1  0  0  0  0
 37 33  1  0  0  0  0
 38 39  1  0  0  0  0
 38 37  1  0  0  0  0
 39 44  1  0  0  0  0
 40 39  2  0  0  0  0
 40 41  1  0  0  0  0
 41 42  2  0  0  0  0
 42 43  1  0  0  0  0
 44 43  2  0  0  0  0
 45  8  1  0  0  0  0
 46 45  1  0  0  0  0
M  END
>  <minimizedAffinity>
-10.041934

$$$$
