REMARK  Name = 
REMARK  9 active torsions:
REMARK  status: ('A' for Active; 'I' for Inactive)
REMARK    1  A    between atoms: C_1  and  C_2
REMARK    2  A    between atoms: C_6  and  C_7
REMARK    3  A    between atoms: C_14  and  O_15
REMARK    4  A    between atoms: C_20  and  C_21
REMARK    5  A    between atoms: C_24  and  O_25
REMARK    6  A    between atoms: O_25  and  C_26
REMARK    7  A    between atoms: C_26  and  C_27
REMARK    8  A    between atoms: C_40  and  C_41
REMARK    9  A    between atoms: C_40  and  C_42
REMARK                            x       y       z     vdW  Elec       q    Type
REMARK                         _______ _______ _______ _____ _____    ______ ____
ROOT
ATOM      1  C   UNL     1      -1.993   1.880  -0.987  0.00  0.00    +0.270 C 
ATOM      2  O   UNL     1      -1.655   2.138  -2.145  0.00  0.00    -0.268 OA
ATOM      3  N   UNL     1      -2.954   2.645  -0.265  0.00  0.00    -0.251 N 
ATOM      4  C   UNL     1      -3.183   2.552   1.172  0.00  0.00    +0.062 A 
ATOM      5  C   UNL     1      -2.178   2.038   2.014  0.00  0.00    +0.025 A 
ATOM      6  C   UNL     1      -2.392   1.756   3.370  0.00  0.00    +0.005 A 
ATOM      7  C   UNL     1      -3.622   2.016   3.950  0.00  0.00    +0.047 A 
ATOM      8  C   UNL     1      -4.594   2.633   3.178  0.00  0.00    +0.140 A 
ATOM      9  C   UNL     1      -4.385   2.953   1.812  0.00  0.00    +0.095 A 
ATOM     10  N   UNL     1      -5.380   3.787   1.227  0.00  0.00    -0.312 N 
ATOM     11  C   UNL     1      -5.022   4.913   0.507  0.00  0.00    +0.032 C 
ATOM     12  C   UNL     1      -4.180   4.800  -0.535  0.00  0.00    +0.108 C 
ATOM     13  C   UNL     1      -3.819   3.472  -1.147  0.00  0.00    +0.164 C 
ATOM     14  S   UNL     1      -3.436   6.190  -1.249  0.00  0.00    -0.003 S 
ATOM     15  O   UNL     1      -3.924   6.380  -2.601  0.00  0.00    -0.170 OA
ATOM     16  O   UNL     1      -2.006   6.122  -1.004  0.00  0.00    -0.170 OA
ATOM     17  C   UNL     1      -4.022   7.574  -0.312  0.00  0.00    +0.178 C 
ATOM     18  C   UNL     1      -5.475   7.445   0.146  0.00  0.00    -0.010 C 
ATOM     19  C   UNL     1      -6.460   7.362  -1.036  0.00  0.00    +0.013 C 
ATOM     20  C   UNL     1      -5.839   8.699   0.968  0.00  0.00    +0.013 C 
ATOM     21  C   UNL     1      -5.594   6.206   1.052  0.00  0.00    +0.060 C 
ATOM     22  H   UNL     1      -6.183   3.875   1.854  0.00  0.00    +0.152 HD
ENDROOT
BRANCH   1  28
ATOM     23  C   UNL     1       1.817  -0.685   0.586  0.00  0.00    +0.065 C 
ATOM     24  C   UNL     1       0.351  -0.632   0.276  0.00  0.00    +0.039 A 
ATOM     25  C   UNL     1      -0.442  -1.765   0.442  0.00  0.00    +0.023 A 
ATOM     26  C   UNL     1      -1.799  -1.693   0.135  0.00  0.00    +0.004 A 
ATOM     27  C   UNL     1      -2.331  -0.494  -0.327  0.00  0.00    +0.033 A 
ATOM     28  C   UNL     1      -1.475   0.593  -0.449  0.00  0.00    +0.126 A 
ATOM     29  N   UNL     1      -0.146   0.545  -0.166  0.00  0.00    -0.247 NA
ENDBRANCH   1  28
BRANCH  13  30
ATOM     30  C   UNL     1      -5.036   2.699  -1.706  0.00  0.00    +0.014 A 
ATOM     31  C   UNL     1      -5.591   1.564  -1.094  0.00  0.00    +0.012 A 
ATOM     32  C   UNL     1      -6.736   0.950  -1.612  0.00  0.00    +0.046 A 
ATOM     33  C   UNL     1      -7.370   1.457  -2.746  0.00  0.00    +0.124 A 
ATOM     34  C   UNL     1      -6.818   2.559  -3.385  0.00  0.00    +0.084 A 
ATOM     35  C   UNL     1      -5.669   3.160  -2.867  0.00  0.00    +0.132 A 
ATOM     36  F   UNL     1      -5.176   4.217  -3.522  0.00  0.00    -0.205 F 
BRANCH  33  37
ATOM     37  O   UNL     1      -8.502   0.788  -3.117  0.00  0.00    -0.487 OA
BRANCH  37  38
ATOM     38  C   UNL     1      -9.420   1.451  -3.995  0.00  0.00    +0.264 C 
BRANCH  38  39
ATOM     39  C   UNL     1     -10.181   2.573  -3.323  0.00  0.00    -0.010 A 
ATOM     40  C   UNL     1     -10.416   3.776  -4.003  0.00  0.00    +0.007 A 
ATOM     41  C   UNL     1     -11.134   4.806  -3.391  0.00  0.00    +0.000 A 
ATOM     42  C   UNL     1     -11.631   4.641  -2.099  0.00  0.00    +0.000 A 
ATOM     43  C   UNL     1     -11.415   3.445  -1.419  0.00  0.00    +0.000 A 
ATOM     44  C   UNL     1     -10.699   2.414  -2.029  0.00  0.00    +0.007 A 
ENDBRANCH  38  39
ENDBRANCH  37  38
ENDBRANCH  33  37
ENDBRANCH  13  30
BRANCH   8  45
ATOM     45  O   UNL     1      -5.793   3.003   3.744  0.00  0.00    -0.505 OA
ATOM     46  H   UNL     1      -5.793   2.719   4.674  0.00  0.00    +0.292 HD
ENDBRANCH   8  45
TORSDOF 6
