REMARK  Name = 
REMARK  7 active torsions:
REMARK  status: ('A' for Active; 'I' for Inactive)
REMARK    1  A    between atoms: C_2  and  CA_4
REMARK    2  A    between atoms: CA_4  and  N_23
REMARK    3  A    between atoms: C_5  and  C_6
REMARK    4  A    between atoms: C_9  and  O_10
REMARK    5  A    between atoms: O_10  and  C_11
REMARK    6  A    between atoms: C_16  and  C_17
REMARK    7  A    between atoms: C_24  and  C_26
REMARK                            x       y       z     vdW  Elec       q    Type
REMARK                         _______ _______ _______ _____ _____    ______ ____
ROOT
ATOM      1  C   UNL     1       2.901   3.587   0.027  0.00  0.00    -0.023 A 
ATOM      2  C   UNL     1       2.805   4.664   0.915  0.00  0.00    +0.011 A 
ATOM      3  C   UNL     1       3.384   5.894   0.595  0.00  0.00    +0.047 A 
ATOM      4  C   UNL     1       4.070   6.046  -0.610  0.00  0.00    +0.128 A 
ATOM      5  C   UNL     1       4.140   4.988  -1.520  0.00  0.00    +0.047 A 
ATOM      6  C   UNL     1       3.559   3.760  -1.197  0.00  0.00    +0.011 A 
ENDROOT
BRANCH   1   8
ATOM      7  CA  UNL     1       2.914   1.124   0.528  0.00  0.00    +0.057 C 
ATOM      8  C   UNL     1       2.280   2.306   0.376  0.00  0.00    +0.033 C 
BRANCH   7   9
ATOM      9  N   UNL     1       4.297   1.028   0.439  0.00  0.00    -0.280 N 
ATOM     10  C   UNL     1       5.133  -0.066   0.462  0.00  0.00    +0.248 C 
ATOM     11  O   UNL     1       6.343   0.100   0.642  0.00  0.00    -0.270 OA
ATOM     12  H   UNL     1       4.807   1.900   0.454  0.00  0.00    +0.155 HD
BRANCH  10  13
ATOM     13  C   UNL     1       4.656  -1.433   0.158  0.00  0.00    +0.037 A 
ATOM     14  C   UNL     1       5.135  -2.497   0.930  0.00  0.00    +0.013 A 
ATOM     15  C   UNL     1       4.766  -3.807   0.621  0.00  0.00    +0.001 A 
ATOM     16  C   UNL     1       3.933  -4.057  -0.470  0.00  0.00    +0.000 A 
ATOM     17  C   UNL     1       3.475  -3.000  -1.257  0.00  0.00    +0.001 A 
ATOM     18  C   UNL     1       3.846  -1.689  -0.954  0.00  0.00    +0.013 A 
ENDBRANCH  10  13
ENDBRANCH   7   9
BRANCH   7  20
ATOM     19  O   UNL     1       1.023  -0.278   0.100  0.00  0.00    -0.543 OA
ATOM     20  C   UNL     1       1.953  -0.044   0.928  0.00  0.00    +0.086 C 
ATOM     21  OXT UNL     1       2.204  -0.578   2.046  0.00  0.00    -0.543 OA
ENDBRANCH   7  20
ENDBRANCH   1   8
BRANCH   4  22
ATOM     22  O   UNL     1       4.600   7.289  -0.876  0.00  0.00    -0.455 OA
BRANCH  22  23
ATOM     23  C   UNL     1       5.896   7.333  -1.345  0.00  0.00    +0.140 A 
ATOM     24  C   UNL     1       6.927   6.636  -0.702  0.00  0.00    +0.047 A 
ATOM     25  C   UNL     1       8.235   6.728  -1.176  0.00  0.00    +0.004 A 
ATOM     26  C   UNL     1       8.519   7.528  -2.280  0.00  0.00    +0.001 A 
ATOM     27  C   UNL     1       7.497   8.242  -2.908  0.00  0.00    +0.016 A 
ATOM     28  C   UNL     1       6.172   8.159  -2.442  0.00  0.00    +0.097 A 
BRANCH  28  29
ATOM     29  C   UNL     1       5.070   8.930  -3.115  0.00  0.00    +0.421 C 
ATOM     30  F   UNL     1       5.515   9.698  -4.154  0.00  0.00    -0.166 F 
ATOM     31  F   UNL     1       4.105   8.131  -3.649  0.00  0.00    -0.166 F 
ATOM     32  F   UNL     1       4.432   9.798  -2.280  0.00  0.00    -0.166 F 
ENDBRANCH  28  29
ENDBRANCH  22  23
ENDBRANCH   4  22
TORSDOF 7
