
 OpenBabel09122222393D

 32 34  0  0  0  0  0  0  0  0999 V2000
    9.6920    7.0370    0.6720 C   0  0  0  0  0  0  0  0  0  0  0  0
   10.6580    6.7680    1.6480 C   0  0  0  0  0  3  0  0  0  0  0  0
   11.1390    5.4690    1.8250 C   0  0  0  0  0  3  0  0  0  0  0  0
   10.6460    4.4330    1.0310 C   0  0  0  0  0  0  0  0  0  0  0  0
    9.7090    4.6960    0.0290 C   0  0  0  0  0  3  0  0  0  0  0  0
    9.2310    5.9970   -0.1450 C   0  0  0  0  0  3  0  0  0  0  0  0
    9.7210    9.3400   -0.3330 C   0  0  0  0  0  0  0  0  0  0  0  0
    9.2050    8.4080    0.4960 C   0  0  0  0  0  2  0  0  0  0  0  0
   10.7670    9.0410   -1.1970 N   0  0  0  0  0  4  0  0  0  0  0  0
   10.7910    8.8570   -2.5610 C   0  0  0  0  0  0  0  0  0  0  0  0
   11.7780    8.3320   -3.0840 O   0  0  0  0  0  0  0  0  0  0  0  0
   11.6540    8.8240   -0.7650 H   0  0  0  0  0  0  0  0  0  0  0  0
    9.7270    9.3750   -3.4490 C   0  0  0  0  0  0  0  0  0  0  0  0
    8.9720    8.4630   -4.1940 C   0  0  0  0  0  3  0  0  0  0  0  0
    8.0130    8.9220   -5.0980 C   0  0  0  0  0  3  0  0  0  0  0  0
    7.8200   10.2930   -5.2730 C   0  0  0  0  0  3  0  0  0  0  0  0
    8.5900   11.2050   -4.5500 C   0  0  0  0  0  3  0  0  0  0  0  0
    9.5530   10.7500   -3.6490 C   0  0  0  0  0  3  0  0  0  0  0  0
    9.6520   11.7250   -0.5060 O   0  0  0  0  0  0  0  0  0  0  0  0
    8.9430   10.6970   -0.2940 C   0  0  0  0  0  0  0  0  0  0  0  0
    7.7140   10.5960   -0.0170 O   0  0  0  0  0  1  0  0  0  0  0  0
   11.1760    3.1790    1.2400 O   0  0  0  0  0  0  0  0  0  0  0  0
   11.1790    2.3110    0.1680 C   0  0  0  0  0  0  0  0  0  0  0  0
   11.9670    2.5560   -0.9640 C   0  0  0  0  0  3  0  0  0  0  0  0
   11.9230    1.6810   -2.0490 C   0  0  0  0  0  3  0  0  0  0  0  0
   11.0820    0.5720   -2.0130 C   0  0  0  0  0  3  0  0  0  0  0  0
   10.2780    0.3390   -0.8950 C   0  0  0  0  0  3  0  0  0  0  0  0
   10.3120    1.2120    0.2070 C   0  0  0  0  0  0  0  0  0  0  0  0
    9.4440    0.9650    1.4110 C   0  0  0  0  0  0  0  0  0  0  0  0
    8.4870    1.9240    1.5830 F   0  0  0  0  0  0  0  0  0  0  0  0
    8.7630   -0.2130    1.3490 F   0  0  0  0  0  0  0  0  0  0  0  0
   10.1410    0.9450    2.5820 F   0  0  0  0  0  0  0  0  0  0  0  0
  1  2  1  0  0  0  0
  2  3  2  0  0  0  0
  4 22  1  0  0  0  0
  4  3  1  0  0  0  0
  5  4  2  0  0  0  0
  6  5  1  0  0  0  0
  6  1  2  0  0  0  0
  7 20  1  0  0  0  0
  7  8  1  0  0  0  0
  8  1  1  0  0  0  0
  9 12  1  0  0  0  0
  9  7  2  0  0  0  0
 10  9  1  0  0  0  0
 11 10  2  0  0  0  0
 13 10  1  0  0  0  0
 14 13  2  0  0  0  0
 15 14  1  0  0  0  0
 16 15  2  0  0  0  0
 16 17  1  0  0  0  0
 17 18  2  0  0  0  0
 18 13  1  0  0  0  0
 19 20  2  0  0  0  0
 20 21  1  0  0  0  0
 23 28  1  0  0  0  0
 23 22  1  0  0  0  0
 24 23  2  0  0  0  0
 25 26  2  0  0  0  0
 25 24  1  0  0  0  0
 26 27  1  0  0  0  0
 27 28  2  0  0  0  0
 28 29  1  0  0  0  0
 29 30  1  0  0  0  0
 29 32  1  0  0  0  0
 31 29  1  0  0  0  0
M  END
>  <minimizedAffinity>
-6.81487751

$$$$
