
 OpenBabel09122222393D

 32 34  0  0  0  0  0  0  0  0999 V2000
    9.1300    9.0140    0.4630 C   0  0  0  0  0  0  0  0  0  0  0  0
    8.9160    7.8470   -0.2780 C   0  0  0  0  0  3  0  0  0  0  0  0
    9.7310    6.7300   -0.0830 C   0  0  0  0  0  3  0  0  0  0  0  0
   10.7700    6.7830    0.8460 C   0  0  0  0  0  0  0  0  0  0  0  0
   10.9690    7.9310    1.6170 C   0  0  0  0  0  3  0  0  0  0  0  0
   10.1510    9.0450    1.4200 C   0  0  0  0  0  3  0  0  0  0  0  0
    8.5870   11.3150   -0.3920 C   0  0  0  0  0  0  0  0  0  0  0  0
    8.2590   10.1740    0.2500 C   0  0  0  0  0  2  0  0  0  0  0  0
    9.8210   11.4680   -1.0110 N   0  0  0  0  0  4  0  0  0  0  0  0
   10.2940   11.0030   -2.2180 C   0  0  0  0  0  0  0  0  0  0  0  0
   11.5070   11.0290   -2.4440 O   0  0  0  0  0  0  0  0  0  0  0  0
   10.5440   11.9110   -0.4610 H   0  0  0  0  0  0  0  0  0  0  0  0
    9.3910   10.5830   -3.3120 C   0  0  0  0  0  0  0  0  0  0  0  0
    9.3920    9.2390   -3.7030 C   0  0  0  0  0  3  0  0  0  0  0  0
    8.6110    8.8240   -4.7820 C   0  0  0  0  0  3  0  0  0  0  0  0
    7.8420    9.7530   -5.4830 C   0  0  0  0  0  3  0  0  0  0  0  0
    7.8600   11.0980   -5.1120 C   0  0  0  0  0  3  0  0  0  0  0  0
    8.6440   11.5180   -4.0370 C   0  0  0  0  0  3  0  0  0  0  0  0
    7.0480   12.8180    0.6560 O   0  0  0  0  0  1  0  0  0  0  0  0
    7.4100   12.3430   -0.4620 C   0  0  0  0  0  0  0  0  0  0  0  0
    6.9440   12.5380   -1.6210 O   0  0  0  0  0  0  0  0  0  0  0  0
   11.5250    5.6420    1.0070 O   0  0  0  0  0  0  0  0  0  0  0  0
   11.1320    4.7610    1.9930 C   0  0  0  0  0  0  0  0  0  0  0  0
   11.1590    5.1230    3.3450 C   0  0  0  0  0  3  0  0  0  0  0  0
   10.7910    4.2010    4.3240 C   0  0  0  0  0  3  0  0  0  0  0  0
   10.4140    2.9120    3.9560 C   0  0  0  0  0  3  0  0  0  0  0  0
   10.4080    2.5410    2.6100 C   0  0  0  0  0  3  0  0  0  0  0  0
   10.7760    3.4610    1.6110 C   0  0  0  0  0  0  0  0  0  0  0  0
   10.7740    3.0630    0.1610 C   0  0  0  0  0  0  0  0  0  0  0  0
   10.6530    1.7140   -0.0210 F   0  0  0  0  0  0  0  0  0  0  0  0
    9.7480    3.6130   -0.5450 F   0  0  0  0  0  0  0  0  0  0  0  0
   11.9190    3.4080   -0.4940 F   0  0  0  0  0  0  0  0  0  0  0  0
  1  6  1  0  0  0  0
  2  3  1  0  0  0  0
  2  1  2  0  0  0  0
  3  4  2  0  0  0  0
  4 22  1  0  0  0  0
  4  5  1  0  0  0  0
  6  5  2  0  0  0  0
  7  8  1  0  0  0  0
  8  1  1  0  0  0  0
  9 12  1  0  0  0  0
  9  7  2  3  0  0  0
 10  9  1  0  0  0  0
 11 10  2  0  0  0  0
 13 10  1  0  0  0  0
 14 13  1  0  0  0  0
 15 14  2  0  0  0  0
 16 17  2  0  0  0  0
 16 15  1  0  0  0  0
 17 18  1  0  0  0  0
 18 13  2  0  0  0  0
 20  7  1  0  0  0  0
 20 19  1  0  0  0  0
 21 20  2  0  0  0  0
 22 23  1  0  0  0  0
 23 24  1  0  0  0  0
 24 25  2  0  0  0  0
 26 25  1  0  0  0  0
 27 26  2  0  0  0  0
 28 23  2  0  0  0  0
 28 27  1  0  0  0  0
 29 28  1  0  0  0  0
 30 29  1  0  0  0  0
 31 29  1  0  0  0  0
 32 29  1  0  0  0  0
M  END
>  <minimizedAffinity>
-6.82523012

$$$$
