
 OpenBabel09122222393D

 32 34  0  0  0  0  0  0  0  0999 V2000
    9.2270    8.7710    0.8610 C   0  0  0  0  0  0  0  0  0  0  0  0
    9.8990    8.1600   -0.2030 C   0  0  0  0  0  3  0  0  0  0  0  0
   10.7180    7.0520    0.0240 C   0  0  0  0  0  3  0  0  0  0  0  0
   10.8750    6.5590    1.3200 C   0  0  0  0  0  0  0  0  0  0  0  0
   10.1790    7.1390    2.3840 C   0  0  0  0  0  3  0  0  0  0  0  0
    9.3610    8.2460    2.1520 C   0  0  0  0  0  3  0  0  0  0  0  0
    8.7650   11.1460    0.1820 C   0  0  0  0  0  0  0  0  0  0  0  0
    8.3650    9.9280    0.6020 C   0  0  0  0  0  2  0  0  0  0  0  0
   10.0930   11.4020   -0.1350 N   0  0  0  0  0  4  0  0  0  0  0  0
   11.1590   11.7690    0.6560 C   0  0  0  0  0  0  0  0  0  0  0  0
   12.1840   12.2080    0.1260 O   0  0  0  0  0  0  0  0  0  0  0  0
   10.3220   11.4220   -1.1190 H   0  0  0  0  0  0  0  0  0  0  0  0
   11.1730   11.5450    2.1190 C   0  0  0  0  0  0  0  0  0  0  0  0
   12.0180   10.5570    2.6370 C   0  0  0  0  0  3  0  0  0  0  0  0
   11.9990   10.2670    4.0020 C   0  0  0  0  0  3  0  0  0  0  0  0
   11.1240   10.9500    4.8470 C   0  0  0  0  0  3  0  0  0  0  0  0
   10.2620   11.9160    4.3290 C   0  0  0  0  0  3  0  0  0  0  0  0
   10.2750   12.2060    2.9630 C   0  0  0  0  0  3  0  0  0  0  0  0
    7.1470   12.6840    1.0430 O   0  0  0  0  0  1  0  0  0  0  0  0
    7.5810   12.1490   -0.0200 C   0  0  0  0  0  0  0  0  0  0  0  0
    7.1830   12.2650   -1.2140 O   0  0  0  0  0  0  0  0  0  0  0  0
   11.6790    5.4520    1.4750 O   0  0  0  0  0  0  0  0  0  0  0  0
   11.2040    4.4370    2.2780 C   0  0  0  0  0  0  0  0  0  0  0  0
   11.3380    4.4870    3.6710 C   0  0  0  0  0  3  0  0  0  0  0  0
   10.8820    3.4290    4.4560 C   0  0  0  0  0  3  0  0  0  0  0  0
   10.3070    2.3130    3.8520 C   0  0  0  0  0  3  0  0  0  0  0  0
   10.1930    2.2510    2.4620 C   0  0  0  0  0  3  0  0  0  0  0  0
   10.6490    3.3110    1.6560 C   0  0  0  0  0  0  0  0  0  0  0  0
   10.5300    3.2440    0.1590 C   0  0  0  0  0  0  0  0  0  0  0  0
    9.5190    4.0220   -0.3310 F   0  0  0  0  0  0  0  0  0  0  0  0
   11.6520    3.6680   -0.4870 F   0  0  0  0  0  0  0  0  0  0  0  0
   10.2700    1.9890   -0.3060 F   0  0  0  0  0  0  0  0  0  0  0  0
  1  6  1  0  0  0  0
  2  3  1  0  0  0  0
  2  1  2  0  0  0  0
  3  4  2  0  0  0  0
  4 22  1  0  0  0  0
  4  5  1  0  0  0  0
  6  5  2  0  0  0  0
  7  8  1  0  0  0  0
  8  1  1  0  0  0  0
  9  7  2  0  0  0  0
  9 10  1  0  0  0  0
 10 13  1  0  0  0  0
 11 10  2  0  0  0  0
 12  9  1  0  0  0  0
 13 14  2  0  0  0  0
 13 18  1  0  0  0  0
 14 15  1  0  0  0  0
 15 16  2  0  0  0  0
 17 16  1  0  0  0  0
 18 17  2  0  0  0  0
 20  7  1  0  0  0  0
 20 19  1  0  0  0  0
 21 20  2  0  0  0  0
 22 23  1  0  0  0  0
 23 24  1  0  0  0  0
 24 25  2  0  0  0  0
 26 25  1  0  0  0  0
 27 26  2  0  0  0  0
 28 23  2  0  0  0  0
 28 27  1  0  0  0  0
 29 28  1  0  0  0  0
 30 29  1  0  0  0  0
 31 29  1  0  0  0  0
 32 29  1  0  0  0  0
M  END
>  <minimizedAffinity>
-6.42420101

$$$$
