
 OpenBabel09122222393D

 32 34  0  0  0  0  0  0  0  0999 V2000
   11.0570    7.1490   -0.1420 C   0  0  0  0  0  0  0  0  0  0  0  0
   12.2050    7.8250   -0.5700 C   0  0  0  0  0  3  0  0  0  0  0  0
   12.1640    8.6290   -1.7110 C   0  0  0  0  0  3  0  0  0  0  0  0
   10.9770    8.7490   -2.4340 C   0  0  0  0  0  0  0  0  0  0  0  0
    9.8160    8.1070   -1.9940 C   0  0  0  0  0  3  0  0  0  0  0  0
    9.8600    7.3060   -0.8520 C   0  0  0  0  0  3  0  0  0  0  0  0
   10.3190    6.4200    2.1480 C   0  0  0  0  0  0  0  0  0  0  0  0
   11.1160    6.3170    1.0630 C   0  0  0  0  0  2  0  0  0  0  0  0
    9.2630    7.3220    2.1870 N   0  0  0  0  0  4  0  0  0  0  0  0
    9.2350    8.6730    2.4530 C   0  0  0  0  0  0  0  0  0  0  0  0
    8.1560    9.2190    2.7000 O   0  0  0  0  0  0  0  0  0  0  0  0
    8.3370    6.9290    2.1010 H   0  0  0  0  0  0  0  0  0  0  0  0
   10.4370    9.5280    2.3370 C   0  0  0  0  0  0  0  0  0  0  0  0
   11.4080    9.4590    3.3420 C   0  0  0  0  0  3  0  0  0  0  0  0
   12.5150   10.3070    3.3040 C   0  0  0  0  0  3  0  0  0  0  0  0
   12.6450   11.2370    2.2710 C   0  0  0  0  0  3  0  0  0  0  0  0
   11.6660   11.3250    1.2820 C   0  0  0  0  0  3  0  0  0  0  0  0
   10.5540   10.4820    1.3200 C   0  0  0  0  0  3  0  0  0  0  0  0
   10.3740    5.7190    4.4350 O   0  0  0  0  0  1  0  0  0  0  0  0
   10.6360    5.3560    3.2500 C   0  0  0  0  0  0  0  0  0  0  0  0
   11.1510    4.2840    2.8200 O   0  0  0  0  0  0  0  0  0  0  0  0
   10.9970    9.5720   -3.5370 O   0  0  0  0  0  0  0  0  0  0  0  0
    9.7790    9.9240   -4.0810 C   0  0  0  0  0  0  0  0  0  0  0  0
    9.0460    9.0260   -4.8670 C   0  0  0  0  0  3  0  0  0  0  0  0
    7.8350    9.4210   -5.4350 C   0  0  0  0  0  3  0  0  0  0  0  0
    7.3640   10.7160   -5.2360 C   0  0  0  0  0  3  0  0  0  0  0  0
    8.1050   11.6200   -4.4730 C   0  0  0  0  0  3  0  0  0  0  0  0
    9.3280   11.2370   -3.8920 C   0  0  0  0  0  0  0  0  0  0  0  0
   10.1290   12.2100   -3.0730 C   0  0  0  0  0  0  0  0  0  0  0  0
    9.5810   13.4620   -3.0470 F   0  0  0  0  0  0  0  0  0  0  0  0
   10.2450   11.8440   -1.7660 F   0  0  0  0  0  0  0  0  0  0  0  0
   11.3980   12.3880   -3.5360 F   0  0  0  0  0  0  0  0  0  0  0  0
  1  8  1  0  0  0  0
  2  1  1  0  0  0  0
  3  2  2  0  0  0  0
  4  5  2  0  0  0  0
  4  3  1  0  0  0  0
  5  6  1  0  0  0  0
  6  1  2  0  0  0  0
  7  9  2  0  0  0  0
  7 20  1  0  0  0  0
  8  7  1  0  0  0  0
  9 10  1  0  0  0  0
 10 11  2  0  0  0  0
 12  9  1  0  0  0  0
 13 10  1  0  0  0  0
 13 14  1  0  0  0  0
 15 14  2  0  0  0  0
 16 15  1  0  0  0  0
 17 18  1  0  0  0  0
 17 16  2  0  0  0  0
 18 13  2  0  0  0  0
 20 19  1  0  0  0  0
 21 20  2  0  0  0  0
 22  4  1  0  0  0  0
 23 28  1  0  0  0  0
 23 22  1  0  0  0  0
 24 23  2  0  0  0  0
 25 26  2  0  0  0  0
 25 24  1  0  0  0  0
 26 27  1  0  0  0  0
 27 28  2  0  0  0  0
 28 29  1  0  0  0  0
 29 30  1  0  0  0  0
 29 31  1  0  0  0  0
 32 29  1  0  0  0  0
M  END
>  <minimizedAffinity>
-6.66993761

$$$$
