
 OpenBabel09122222393D

 32 34  0  0  0  0  0  0  0  0999 V2000
    8.2560   -4.9350    0.2000 C   0  0  0  0  0  0  0  0  0  0  0  0
    7.9640   -4.8360    1.5650 C   0  0  0  0  0  3  0  0  0  0  0  0
    6.6980   -5.1820    2.0410 C   0  0  0  0  0  3  0  0  0  0  0  0
    5.7160   -5.6180    1.1510 C   0  0  0  0  0  0  0  0  0  0  0  0
    6.0080   -5.7560   -0.2090 C   0  0  0  0  0  3  0  0  0  0  0  0
    7.2760   -5.4090   -0.6810 C   0  0  0  0  0  3  0  0  0  0  0  0
   10.1600   -3.3510   -0.2260 C   0  0  0  0  0  0  0  0  0  0  0  0
    9.5930   -4.5750   -0.2810 C   0  0  0  0  0  2  0  0  0  0  0  0
    9.5230   -2.2850    0.3950 N   0  0  0  0  0  4  0  0  0  0  0  0
    9.7480   -0.9280    0.3220 C   0  0  0  0  0  0  0  0  0  0  0  0
    9.2400   -0.1840    1.1670 O   0  0  0  0  0  0  0  0  0  0  0  0
    8.8360   -2.5220    1.0960 H   0  0  0  0  0  0  0  0  0  0  0  0
   10.4790   -0.3060   -0.8030 C   0  0  0  0  0  0  0  0  0  0  0  0
   11.1770    0.8850   -0.5720 C   0  0  0  0  0  3  0  0  0  0  0  0
   11.8120    1.5390   -1.6280 C   0  0  0  0  0  3  0  0  0  0  0  0
   11.7370    1.0140   -2.9190 C   0  0  0  0  0  3  0  0  0  0  0  0
   11.0210   -0.1590   -3.1560 C   0  0  0  0  0  3  0  0  0  0  0  0
   10.3790   -0.8130   -2.1030 C   0  0  0  0  0  3  0  0  0  0  0  0
   11.7180   -3.7150   -2.0060 O   0  0  0  0  0  0  0  0  0  0  0  0
   11.6130   -3.3200   -0.8070 C   0  0  0  0  0  0  0  0  0  0  0  0
   12.5020   -2.9420    0.0090 O   0  0  0  0  0  1  0  0  0  0  0  0
    4.4950   -5.9650    1.6860 O   0  0  0  0  0  0  0  0  0  0  0  0
    4.1080   -5.3180    2.8400 C   0  0  0  0  0  0  0  0  0  0  0  0
    4.0470   -3.9200    2.9070 C   0  0  0  0  0  3  0  0  0  0  0  0
    3.6880   -3.2920    4.0980 C   0  0  0  0  0  3  0  0  0  0  0  0
    3.4070   -4.0550    5.2290 C   0  0  0  0  0  3  0  0  0  0  0  0
    3.4910   -5.4470    5.1720 C   0  0  0  0  0  3  0  0  0  0  0  0
    3.8510   -6.0960    3.9760 C   0  0  0  0  0  0  0  0  0  0  0  0
    3.9450   -7.5960    3.9130 C   0  0  0  0  0  0  0  0  0  0  0  0
    5.1310   -8.0340    3.3950 F   0  0  0  0  0  0  0  0  0  0  0  0
    3.8470   -8.1910    5.1340 F   0  0  0  0  0  0  0  0  0  0  0  0
    2.9840   -8.1630    3.1310 F   0  0  0  0  0  0  0  0  0  0  0  0
  1  2  1  0  0  0  0
  2  3  2  0  0  0  0
  4 22  1  0  0  0  0
  4  3  1  0  0  0  0
  5  4  2  0  0  0  0
  6  5  1  0  0  0  0
  6  1  2  0  0  0  0
  7  9  2  0  0  0  0
  8  7  1  0  0  0  0
  8  1  1  0  0  0  0
  9 12  1  0  0  0  0
 10  9  1  0  0  0  0
 10 11  2  0  0  0  0
 13 14  1  0  0  0  0
 13 10  1  0  0  0  0
 15 14  2  0  0  0  0
 16 15  1  0  0  0  0
 17 16  2  0  0  0  0
 17 18  1  0  0  0  0
 18 13  2  0  0  0  0
 19 20  2  0  0  0  0
 20  7  1  0  0  0  0
 20 21  1  0  0  0  0
 22 23  1  0  0  0  0
 23 24  2  0  0  0  0
 23 28  1  0  0  0  0
 24 25  1  0  0  0  0
 25 26  2  0  0  0  0
 27 26  1  0  0  0  0
 28 27  2  0  0  0  0
 29 28  1  0  0  0  0
 29 31  1  0  0  0  0
 30 29  1  0  0  0  0
 32 29  1  0  0  0  0
M  END
>  <minimizedAffinity>
-6.63486052

$$$$
