REMARK  Name = 
REMARK  8 active torsions:
REMARK  status: ('A' for Active; 'I' for Inactive)
REMARK    1  A    between atoms: C_1  and  C_2
REMARK    2  A    between atoms: C_2  and  C_3
REMARK    3  A    between atoms: C_3  and  C_4
REMARK    4  A    between atoms: C_4  and  C_5
REMARK    5  A    between atoms: C_5  and  S_6
REMARK    6  A    between atoms: S_6  and  C_7
REMARK    7  A    between atoms: C_9  and  C_10
REMARK    8  A    between atoms: C_17  and  C_18
REMARK                            x       y       z     vdW  Elec       q    Type
REMARK                         _______ _______ _______ _____ _____    ______ ____
ROOT
ATOM      1  C   UNL     1      -0.859  -0.275  -4.050  0.00  0.00    +0.170 A 
ATOM      2  N   UNL     1      -1.493   0.691  -3.479  0.00  0.00    -0.222 NA
ATOM      3  C   UNL     1      -1.214   1.971  -3.915  0.00  0.00    +0.096 A 
ATOM      4  C   UNL     1      -0.313   2.259  -4.874  0.00  0.00    +0.142 A 
ATOM      5  C   UNL     1       0.389   1.125  -5.509  0.00  0.00    +0.270 A 
ATOM      6  O   UNL     1       1.225   1.272  -6.392  0.00  0.00    -0.266 OA
ATOM      7  N   UNL     1       0.048  -0.110  -5.043  0.00  0.00    -0.301 N 
ATOM      8  H   UNL     1       0.496  -0.917  -5.450  0.00  0.00    +0.171 HD
ENDROOT
BRANCH   3   9
ATOM      9  C   UNL     1      -1.960   3.048  -3.229  0.00  0.00    +0.002 A 
ATOM     10  C   UNL     1      -2.930   3.801  -3.905  0.00  0.00    +0.011 A 
ATOM     11  C   UNL     1      -3.630   4.813  -3.241  0.00  0.00    +0.016 A 
ATOM     12  C   UNL     1      -3.368   5.067  -1.896  0.00  0.00    +0.018 A 
ATOM     13 BR   UNL     1      -4.317   6.432  -0.997  0.00  0.00    -0.050 Br
ATOM     14  C   UNL     1      -2.416   4.318  -1.208  0.00  0.00    +0.016 A 
ATOM     15  C   UNL     1      -1.716   3.308  -1.872  0.00  0.00    +0.011 A 
ENDBRANCH   3   9
BRANCH   4  16
ATOM     16  C   UNL     1       0.036   3.667  -5.325  0.00  0.00    +0.107 C 
ATOM     17  N   UNL     1       0.326   4.836  -5.700  0.00  0.00    -0.191 NA
ENDBRANCH   4  16
BRANCH   1  18
ATOM     18  S   UNL     1      -1.098  -1.938  -3.635  0.00  0.00    -0.088 S 
BRANCH  18  19
ATOM     19  C   UNL     1      -1.070  -1.847  -1.818  0.00  0.00    +0.077 C 
BRANCH  19  20
ATOM     20  C   UNL     1       0.284  -2.254  -1.230  0.00  0.00    +0.011 C 
BRANCH  20  21
ATOM     21  C   UNL     1       1.459  -1.310  -1.508  0.00  0.00    +0.001 C 
BRANCH  21  23
ATOM     22  C   UNL     1       1.128   0.197   0.528  0.00  0.00    +0.004 C 
ATOM     23  C   UNL     1       1.301   0.118  -0.981  0.00  0.00    -0.003 C 
ENDBRANCH  21  23
ENDBRANCH  20  21
ENDBRANCH  19  20
ENDBRANCH  18  19
ENDBRANCH   1  18
TORSDOF 7
