
 OpenBabel09122222393D

 23 24  0  0  0  0  0  0  0  0999 V2000
    1.0990    2.8260   -5.4690 C   0  0  0  0  0  0  0  0  0  0  0  0
    0.3670    3.7190   -6.0410 N   0  0  0  0  0  0  0  0  0  0  0  0
    0.8760    4.3160   -7.1770 C   0  0  0  0  0  0  0  0  0  0  0  0
    2.0870    4.0350   -7.6960 C   0  0  0  0  0  0  0  0  0  0  0  0
    2.8940    3.0020   -7.0160 C   0  0  0  0  0  0  0  0  0  0  0  0
    4.0070    2.6670   -7.4040 O   0  0  0  0  0  0  0  0  0  0  0  0
    2.3190    2.4400   -5.9140 N   0  0  0  0  0  0  0  0  0  0  0  0
    2.8290    1.7250   -5.4190 H   0  0  0  0  0  0  0  0  0  0  0  0
    0.0050    5.3380   -7.7970 C   0  0  0  0  0  0  0  0  0  0  0  0
    0.4770    6.6330   -8.0530 C   0  0  0  0  0  3  0  0  0  0  0  0
   -0.3580    7.5860   -8.6440 C   0  0  0  0  0  3  0  0  0  0  0  0
   -1.6630    7.2430   -8.9900 C   0  0  0  0  0  0  0  0  0  0  0  0
   -2.7910    8.5300   -9.7930 Br  0  0  0  0  0  0  0  0  0  0  0  0
   -2.1410    5.9560   -8.7540 C   0  0  0  0  0  3  0  0  0  0  0  0
   -1.3080    5.0040   -8.1630 C   0  0  0  0  0  3  0  0  0  0  0  0
    2.6750    4.7230   -8.9160 C   0  0  0  0  0  2  0  0  0  0  0  0
    3.1640    5.2940   -9.9290 N   0  0  0  0  0  1  0  0  0  0  0  0
    0.6080    1.9700   -4.0470 S   0  0  0  0  0  0  0  0  0  0  0  0
   -0.9540    1.2280   -4.6130 C   0  0  0  0  0  2  0  0  0  0  0  0
   -1.9330    0.9720   -3.4650 C   0  0  0  0  0  2  0  0  0  0  0  0
   -2.3210   -0.4900   -3.2140 C   0  0  0  0  0  2  0  0  0  0  0  0
   -4.3280   -1.4530   -4.4670 C   0  0  0  0  0  1  0  0  0  0  0  0
   -2.8190   -1.2630   -4.4370 C   0  0  0  0  0  2  0  0  0  0  0  0
  1 18  1  0  0  0  0
  2  1  2  0  0  0  0
  3  2  1  0  0  0  0
  4  3  2  0  0  0  0
  4  5  1  0  0  0  0
  5  7  1  0  0  0  0
  6  5  2  0  0  0  0
  7  1  1  0  0  0  0
  7  8  1  0  0  0  0
  9  3  1  0  0  0  0
 10  9  1  0  0  0  0
 11 10  2  0  0  0  0
 12 14  2  0  0  0  0
 12 11  1  0  0  0  0
 13 12  1  0  0  0  0
 14 15  1  0  0  0  0
 15  9  2  0  0  0  0
 16  4  1  0  0  0  0
 17 16  1  0  0  0  0
 19 18  1  0  0  0  0
 19 20  1  0  0  0  0
 20 21  1  0  0  0  0
 22 23  1  0  0  0  0
 23 21  1  0  0  0  0
M  END
>  <minimizedAffinity>
41.8995094

$$$$
