REMARK  Name = 
REMARK  12 active torsions:
REMARK  status: ('A' for Active; 'I' for Inactive)
REMARK    1  A    between atoms: C_1  and  O_2
REMARK    2  A    between atoms: O_2  and  C_3
REMARK    3  A    between atoms: C_7  and  C_8
REMARK    4  A    between atoms: N_10  and  C_11
REMARK    5  A    between atoms: C_11  and  C_12
REMARK    6  A    between atoms: C_15  and  O_17
REMARK    7  A    between atoms: O_17  and  C_18
REMARK    8  A    between atoms: C_18  and  C_19
REMARK    9  A    between atoms: C_19  and  C_20
REMARK   10  A    between atoms: C_19  and  C_21
REMARK   11  A    between atoms: C_19  and  C_22
REMARK   12  A    between atoms: C_28  and  C_29
REMARK                            x       y       z     vdW  Elec       q    Type
REMARK                         _______ _______ _______ _____ _____    ______ ____
ROOT
ATOM      1  C   UNL     1       1.290   1.871  -2.279  0.00  0.00    +0.132 A 
ATOM      2  C   UNL     1       2.546   2.259  -2.731  0.00  0.00    +0.047 A 
ATOM      3  C   UNL     1       2.660   3.175  -3.771  0.00  0.00    +0.013 A 
ATOM      4  C   UNL     1       1.530   3.734  -4.396  0.00  0.00    -0.004 A 
ATOM      5  C   UNL     1       1.636   4.712  -5.425  0.00  0.00    +0.059 A 
ATOM      6  C   UNL     1       0.498   5.218  -6.066  0.00  0.00    +0.031 A 
ATOM      7 BR   UNL     1       0.575   6.510  -7.458  0.00  0.00    -0.049 Br
ATOM      8  C   UNL     1      -0.759   4.783  -5.669  0.00  0.00    +0.016 A 
ATOM      9  C   UNL     1      -0.880   3.845  -4.641  0.00  0.00    +0.010 A 
ATOM     10  C   UNL     1       0.243   3.299  -3.973  0.00  0.00    -0.002 A 
ATOM     11  C   UNL     1       0.128   2.349  -2.905  0.00  0.00    +0.104 A 
ENDROOT
BRANCH   5  12
ATOM     12  C   UNL     1       2.970   5.165  -5.880  0.00  0.00    +0.257 C 
ATOM     13  O   UNL     1       3.398   4.576  -6.872  0.00  0.00    -0.269 OA
ATOM     14  N   UNL     1       3.577   6.226  -5.212  0.00  0.00    -0.198 N 
ATOM     15  C   UNL     1       4.920   6.506  -5.456  0.00  0.00    +0.410 C 
ATOM     16  O   UNL     1       5.656   5.917  -6.243  0.00  0.00    -0.226 OA
BRANCH  14  17
ATOM     17  C   UNL     1       2.894   6.962  -4.120  0.00  0.00    +0.172 C 
BRANCH  17  18
ATOM     18  C   UNL     1       3.171   6.430  -2.698  0.00  0.00    +0.060 C 
ATOM     19  O   UNL     1       2.307   6.770  -1.838  0.00  0.00    -0.548 OA
ATOM     20  O   UNL     1       4.196   5.706  -2.555  0.00  0.00    -0.548 OA
ENDBRANCH  17  18
ENDBRANCH  14  17
BRANCH  15  21
ATOM     21  O   UNL     1       5.367   7.585  -4.741  0.00  0.00    -0.449 OA
BRANCH  21  22
ATOM     22  C   UNL     1       6.769   7.849  -4.851  0.00  0.00    +0.240 C 
BRANCH  22  23
ATOM     23  C   UNL     1       7.165   9.002  -3.902  0.00  0.00    -0.003 C 
ATOM     24  C   UNL     1       6.855   8.621  -2.445  0.00  0.00    +0.014 C 
ATOM     25  C   UNL     1       8.671   9.272  -4.046  0.00  0.00    +0.014 C 
ATOM     26  C   UNL     1       6.385  10.278  -4.259  0.00  0.00    +0.014 C 
ENDBRANCH  22  23
ENDBRANCH  21  22
ENDBRANCH  15  21
ENDBRANCH   5  12
BRANCH  11  27
ATOM     27  C   UNL     1      -1.235   1.885  -2.447  0.00  0.00    +0.421 C 
ATOM     28  F   UNL     1      -1.931   1.266  -3.451  0.00  0.00    -0.166 F 
ATOM     29  F   UNL     1      -1.272   1.003  -1.408  0.00  0.00    -0.166 F 
ATOM     30  F   UNL     1      -2.037   2.920  -2.049  0.00  0.00    -0.166 F 
ENDBRANCH  11  27
BRANCH   1  32
ATOM     31  C   UNL     1       1.891   1.379  -0.084  0.00  0.00    +0.277 C 
ATOM     32  O   UNL     1       1.177   0.969  -1.253  0.00  0.00    -0.495 OA
ENDBRANCH   1  32
TORSDOF 8
