
 OpenBabel09122222393D

 32 33  0  0  0  0  0  0  0  0999 V2000
    9.0340    9.1790   -4.4910 C   0  0  0  0  0  0  0  0  0  0  0  0
    9.8210    8.3700   -3.6790 C   0  0  0  0  0  3  0  0  0  0  0  0
   10.3450    8.8730   -2.4930 C   0  0  0  0  0  3  0  0  0  0  0  0
   10.1060   10.1960   -2.0770 C   0  0  0  0  0  0  0  0  0  0  0  0
   10.5940   10.7040   -0.8400 C   0  0  0  0  0  0  0  0  0  0  0  0
   10.3850   12.0380   -0.4700 C   0  0  0  0  0  0  0  0  0  0  0  0
   11.0260   12.7800    1.1590 Br  0  0  0  0  0  0  0  0  0  0  0  0
    9.6600   12.8740   -1.3090 C   0  0  0  0  0  3  0  0  0  0  0  0
    9.1510   12.3820   -2.5130 C   0  0  0  0  0  3  0  0  0  0  0  0
    9.3470   11.0430   -2.9320 C   0  0  0  0  0  0  0  0  0  0  0  0
    8.8130   10.5250   -4.1570 C   0  0  0  0  0  0  0  0  0  0  0  0
   11.3930    9.8340    0.0530 C   0  0  0  0  0  0  0  0  0  0  0  0
   12.5980   10.0820    0.0610 O   0  0  0  0  0  0  0  0  0  0  0  0
   10.7290    8.8870    0.8300 N   0  0  0  0  0  0  0  0  0  0  0  0
   11.4680    7.9020    1.4820 C   0  0  0  0  0  0  0  0  0  0  0  0
   12.6900    7.7810    1.4720 O   0  0  0  0  0  0  0  0  0  0  0  0
    9.2500    8.7830    0.8490 C   0  0  0  0  0  2  0  0  0  0  0  0
    8.5550    9.5380    2.0010 C   0  0  0  0  0  0  0  0  0  0  0  0
    8.1920    8.8000    2.9630 O   0  0  0  0  0  1  0  0  0  0  0  0
    8.4480   10.7900    1.8740 O   0  0  0  0  0  0  0  0  0  0  0  0
   10.6790    7.0590    2.2190 O   0  0  0  0  0  0  0  0  0  0  0  0
   11.3220    5.8640    2.6700 C   0  0  0  0  0  2  0  0  0  0  0  0
   11.0540    4.7120    1.6760 C   0  0  0  0  0  0  0  0  0  0  0  0
   12.3210    4.4080    0.8610 C   0  0  0  0  0  1  0  0  0  0  0  0
   10.6450    3.4580    2.4650 C   0  0  0  0  0  1  0  0  0  0  0  0
    9.9200    5.0950    0.7100 C   0  0  0  0  0  1  0  0  0  0  0  0
    8.0030   11.4170   -5.0680 C   0  0  0  0  0  0  0  0  0  0  0  0
    6.6690   11.1080   -5.0350 F   0  0  0  0  0  0  0  0  0  0  0  0
    8.0520   12.7570   -4.8260 F   0  0  0  0  0  0  0  0  0  0  0  0
    8.3610   11.2910   -6.3830 F   0  0  0  0  0  0  0  0  0  0  0  0
    7.4330    7.7780   -5.4360 C   0  0  0  0  0  1  0  0  0  0  0  0
    8.5160    8.6840   -5.6600 O   0  0  0  0  0  0  0  0  0  0  0  0
  1 11  2  0  0  0  0
  1  2  1  0  0  0  0
  2  3  2  0  0  0  0
  3  4  1  0  0  0  0
  4  5  1  0  0  0  0
  5  6  2  0  0  0  0
  5 12  1  0  0  0  0
  6  7  1  0  0  0  0
  8  6  1  0  0  0  0
  9  8  2  0  0  0  0
 10  9  1  0  0  0  0
 10  4  2  0  0  0  0
 11 10  1  0  0  0  0
 12 13  2  0  0  0  0
 12 14  1  0  0  0  0
 14 17  1  0  0  0  0
 14 15  1  0  0  0  0
 15 21  1  0  0  0  0
 16 15  2  0  0  0  0
 17 18  1  0  0  0  0
 18 19  1  0  0  0  0
 20 18  2  0  0  0  0
 21 22  1  0  0  0  0
 23 25  1  0  0  0  0
 23 22  1  0  0  0  0
 24 23  1  0  0  0  0
 26 23  1  0  0  0  0
 27 28  1  0  0  0  0
 27 29  1  0  0  0  0
 27 11  1  0  0  0  0
 30 27  1  0  0  0  0
 32 31  1  0  0  0  0
 32  1  1  0  0  0  0
M  END
>  <minimizedAffinity>
-5.019557

$$$$
