
 OpenBabel09122222393D

 32 33  0  0  0  0  0  0  0  0999 V2000
   11.1080    9.0470   -3.3300 C   0  0  0  0  0  0  0  0  0  0  0  0
   11.9050    8.5380   -2.3110 C   0  0  0  0  0  3  0  0  0  0  0  0
   11.6250    8.8500   -0.9850 C   0  0  0  0  0  3  0  0  0  0  0  0
   10.5450    9.6780   -0.6290 C   0  0  0  0  0  0  0  0  0  0  0  0
   10.2190    9.9600    0.7280 C   0  0  0  0  0  0  0  0  0  0  0  0
    9.1690   10.8270    1.0570 C   0  0  0  0  0  0  0  0  0  0  0  0
    8.6960   11.2570    2.8470 Br  0  0  0  0  0  0  0  0  0  0  0  0
    8.4110   11.3960    0.0430 C   0  0  0  0  0  3  0  0  0  0  0  0
    8.7010   11.1060   -1.2920 C   0  0  0  0  0  3  0  0  0  0  0  0
    9.7600   10.2450   -1.6710 C   0  0  0  0  0  0  0  0  0  0  0  0
   10.0540    9.9270   -3.0380 C   0  0  0  0  0  0  0  0  0  0  0  0
   11.0350    9.3840    1.8200 C   0  0  0  0  0  0  0  0  0  0  0  0
   11.8900   10.1440    2.2730 O   0  0  0  0  0  0  0  0  0  0  0  0
   10.7350    8.1010    2.2710 N   0  0  0  0  0  0  0  0  0  0  0  0
   11.6310    7.4470    3.1140 C   0  0  0  0  0  0  0  0  0  0  0  0
   12.6890    7.8990    3.5440 O   0  0  0  0  0  0  0  0  0  0  0  0
    9.5770    7.3350    1.7490 C   0  0  0  0  0  2  0  0  0  0  0  0
    9.7960    6.6740    0.3720 C   0  0  0  0  0  0  0  0  0  0  0  0
   10.9530    6.1900    0.2050 O   0  0  0  0  0  1  0  0  0  0  0  0
    8.8080    6.6650   -0.4150 O   0  0  0  0  0  0  0  0  0  0  0  0
   11.1890    6.2060    3.4850 O   0  0  0  0  0  0  0  0  0  0  0  0
   12.1500    5.1540    3.3550 C   0  0  0  0  0  2  0  0  0  0  0  0
   11.4280    3.7970    3.1920 C   0  0  0  0  0  0  0  0  0  0  0  0
   11.1920    3.4970    1.7030 C   0  0  0  0  0  1  0  0  0  0  0  0
   12.3040    2.6900    3.8000 C   0  0  0  0  0  1  0  0  0  0  0  0
   10.0720    3.8250    3.9150 C   0  0  0  0  0  1  0  0  0  0  0  0
    9.2220   10.5210   -4.1500 C   0  0  0  0  0  0  0  0  0  0  0  0
    8.7370    9.5610   -4.9980 F   0  0  0  0  0  0  0  0  0  0  0  0
    8.1250   11.2440   -3.7850 F   0  0  0  0  0  0  0  0  0  0  0  0
    9.9400   11.3670   -4.9510 F   0  0  0  0  0  0  0  0  0  0  0  0
   12.6200    9.2980   -5.0820 C   0  0  0  0  0  1  0  0  0  0  0  0
   11.3820    8.7380   -4.6370 O   0  0  0  0  0  0  0  0  0  0  0  0
  1 11  2  0  0  0  0
  1  2  1  0  0  0  0
  2  3  2  0  0  0  0
  3  4  1  0  0  0  0
  4  5  1  0  0  0  0
  5  6  2  0  0  0  0
  5 12  1  0  0  0  0
  6  7  1  0  0  0  0
  8  6  1  0  0  0  0
  9  8  2  0  0  0  0
 10  9  1  0  0  0  0
 10  4  2  0  0  0  0
 11 10  1  0  0  0  0
 12 14  1  0  0  0  0
 12 13  2  0  0  0  0
 14 15  1  0  0  0  0
 15 21  1  0  0  0  0
 15 16  2  0  0  0  0
 17 14  1  0  0  0  0
 18 17  1  0  0  0  0
 19 18  1  0  0  0  0
 20 18  2  0  0  0  0
 22 21  1  0  0  0  0
 23 22  1  0  0  0  0
 23 25  1  0  0  0  0
 23 26  1  0  0  0  0
 24 23  1  0  0  0  0
 27 29  1  0  0  0  0
 27 11  1  0  0  0  0
 28 27  1  0  0  0  0
 30 27  1  0  0  0  0
 31 32  1  0  0  0  0
 32  1  1  0  0  0  0
M  END
>  <minimizedAffinity>
-3.60384655

$$$$
