
 OpenBabel09122222393D

 32 33  0  0  0  0  0  0  0  0999 V2000
   10.0410    4.2620    0.6920 C   0  0  0  0  0  0  0  0  0  0  0  0
    9.3200    5.2340    0.0080 C   0  0  0  0  0  3  0  0  0  0  0  0
    9.3560    6.5580    0.4340 C   0  0  0  0  0  3  0  0  0  0  0  0
   10.1090    6.9570    1.5540 C   0  0  0  0  0  0  0  0  0  0  0  0
   10.1950    8.3170    1.9660 C   0  0  0  0  0  0  0  0  0  0  0  0
   10.9110    8.6840    3.1130 C   0  0  0  0  0  0  0  0  0  0  0  0
   11.0470   10.4780    3.7250 Br  0  0  0  0  0  0  0  0  0  0  0  0
   11.5770    7.7090    3.8430 C   0  0  0  0  0  3  0  0  0  0  0  0
   11.5250    6.3750    3.4340 C   0  0  0  0  0  3  0  0  0  0  0  0
   10.8050    5.9570    2.2880 C   0  0  0  0  0  0  0  0  0  0  0  0
   10.7610    4.5920    1.8510 C   0  0  0  0  0  0  0  0  0  0  0  0
    9.4660    9.3650    1.2160 C   0  0  0  0  0  0  0  0  0  0  0  0
    8.2980    9.5240    1.5660 O   0  0  0  0  0  0  0  0  0  0  0  0
   10.1590   10.1010    0.2580 N   0  0  0  0  0  0  0  0  0  0  0  0
    9.4480   10.9110   -0.6250 C   0  0  0  0  0  0  0  0  0  0  0  0
    8.2310   11.0770   -0.6430 O   0  0  0  0  0  0  0  0  0  0  0  0
   11.6140    9.9230    0.0290 C   0  0  0  0  0  2  0  0  0  0  0  0
   11.9900    8.7710   -0.9270 C   0  0  0  0  0  0  0  0  0  0  0  0
   12.6880    7.8590   -0.3940 O   0  0  0  0  0  1  0  0  0  0  0  0
   11.5490    8.8490   -2.1080 O   0  0  0  0  0  0  0  0  0  0  0  0
   10.2670   11.5830   -1.4930 O   0  0  0  0  0  0  0  0  0  0  0  0
   10.0050   12.9850   -1.6130 C   0  0  0  0  0  2  0  0  0  0  0  0
    9.6470   13.3310   -3.0760 C   0  0  0  0  0  0  0  0  0  0  0  0
   10.7290   14.2380   -3.6870 C   0  0  0  0  0  1  0  0  0  0  0  0
    9.5570   12.0310   -3.8890 C   0  0  0  0  0  1  0  0  0  0  0  0
    8.2950   14.0610   -3.1350 C   0  0  0  0  0  1  0  0  0  0  0  0
   11.5010    3.5250    2.6230 C   0  0  0  0  0  0  0  0  0  0  0  0
   12.6920    3.1960    2.0320 F   0  0  0  0  0  0  0  0  0  0  0  0
   11.8240    3.8080    3.9160 F   0  0  0  0  0  0  0  0  0  0  0  0
   10.8060    2.3480    2.6910 F   0  0  0  0  0  0  0  0  0  0  0  0
   11.0440    2.6590   -0.6660 C   0  0  0  0  0  1  0  0  0  0  0  0
   10.0070    2.9580    0.2710 O   0  0  0  0  0  0  0  0  0  0  0  0
  1 11  1  0  0  0  0
  2  3  1  0  0  0  0
  2  1  2  0  0  0  0
  3  4  2  0  0  0  0
  4  5  1  0  0  0  0
  4 10  1  0  0  0  0
  5  6  2  0  0  0  0
  6  7  1  0  0  0  0
  6  8  1  0  0  0  0
  9  8  2  0  0  0  0
 10  9  1  0  0  0  0
 11 10  2  0  0  0  0
 11 27  1  0  0  0  0
 12 13  2  0  0  0  0
 12  5  1  0  0  0  0
 14 12  1  0  0  0  0
 15 14  1  0  0  0  0
 16 15  2  0  0  0  0
 17 14  1  0  0  0  0
 18 19  1  0  0  0  0
 18 17  1  0  0  0  0
 20 18  2  0  0  0  0
 21 15  1  0  0  0  0
 22 21  1  0  0  0  0
 23 22  1  0  0  0  0
 24 23  1  0  0  0  0
 25 23  1  0  0  0  0
 26 23  1  0  0  0  0
 27 30  1  0  0  0  0
 27 29  1  0  0  0  0
 28 27  1  0  0  0  0
 31 32  1  0  0  0  0
 32  1  1  0  0  0  0
M  END
>  <minimizedAffinity>
-5.30634546

$$$$
