
 OpenBabel09122222393D

 32 33  0  0  0  0  0  0  0  0999 V2000
   10.2340    1.9840    0.5950 C   0  0  0  0  0  0  0  0  0  0  0  0
   10.4340    2.8100   -0.5050 C   0  0  0  0  0  3  0  0  0  0  0  0
   10.7710    4.1460   -0.3200 C   0  0  0  0  0  3  0  0  0  0  0  0
   10.9190    4.7050    0.9630 C   0  0  0  0  0  0  0  0  0  0  0  0
   11.3160    6.0580    1.1620 C   0  0  0  0  0  0  0  0  0  0  0  0
   11.4090    6.6050    2.4480 C   0  0  0  0  0  0  0  0  0  0  0  0
   11.9150    8.4070    2.7780 Br  0  0  0  0  0  0  0  0  0  0  0  0
   11.1420    5.8060    3.5510 C   0  0  0  0  0  3  0  0  0  0  0  0
   10.7800    4.4680    3.3720 C   0  0  0  0  0  3  0  0  0  0  0  0
   10.6630    3.8770    2.0910 C   0  0  0  0  0  0  0  0  0  0  0  0
   10.3080    2.5010    1.8980 C   0  0  0  0  0  0  0  0  0  0  0  0
   11.5760    6.9310   -0.0040 C   0  0  0  0  0  0  0  0  0  0  0  0
   12.6920    6.7960   -0.5050 O   0  0  0  0  0  0  0  0  0  0  0  0
   10.5500    7.7550   -0.4620 N   0  0  0  0  0  0  0  0  0  0  0  0
   10.8400    8.7550   -1.3880 C   0  0  0  0  0  0  0  0  0  0  0  0
   11.9370    8.9890   -1.8880 O   0  0  0  0  0  0  0  0  0  0  0  0
    9.1900    7.7200    0.1300 C   0  0  0  0  0  2  0  0  0  0  0  0
    8.6910    9.0630    0.7040 C   0  0  0  0  0  0  0  0  0  0  0  0
    7.5380    9.4030    0.3060 O   0  0  0  0  0  0  0  0  0  0  0  0
    9.4610    9.6530    1.5130 O   0  0  0  0  0  1  0  0  0  0  0  0
    9.7280    9.4660   -1.7540 O   0  0  0  0  0  0  0  0  0  0  0  0
    9.4550    9.4880   -3.1580 C   0  0  0  0  0  2  0  0  0  0  0  0
    9.3660   10.9470   -3.6570 C   0  0  0  0  0  0  0  0  0  0  0  0
    8.4620   11.0310   -4.8980 C   0  0  0  0  0  1  0  0  0  0  0  0
    8.7750   11.8210   -2.5390 C   0  0  0  0  0  1  0  0  0  0  0  0
   10.7640   11.4710   -4.0240 C   0  0  0  0  0  1  0  0  0  0  0  0
   10.0380    1.6130    3.0910 C   0  0  0  0  0  0  0  0  0  0  0  0
    9.5720    0.3800    2.7190 F   0  0  0  0  0  0  0  0  0  0  0  0
   11.0910    1.3480    3.9160 F   0  0  0  0  0  0  0  0  0  0  0  0
    9.0720    2.1210    3.9160 F   0  0  0  0  0  0  0  0  0  0  0  0
   10.3280    0.1650   -0.8560 C   0  0  0  0  0  1  0  0  0  0  0  0
    9.9030    0.6660    0.4140 O   0  0  0  0  0  0  0  0  0  0  0  0
  1 11  1  0  0  0  0
  2  3  1  0  0  0  0
  2  1  2  0  0  0  0
  3  4  2  0  0  0  0
  4  5  1  0  0  0  0
  4 10  1  0  0  0  0
  5  6  2  0  0  0  0
  6  7  1  0  0  0  0
  6  8  1  0  0  0  0
  9  8  2  0  0  0  0
 10  9  1  0  0  0  0
 11 10  2  0  0  0  0
 11 27  1  0  0  0  0
 12  5  1  0  0  0  0
 13 12  2  0  0  0  0
 14 12  1  0  0  0  0
 14 17  1  0  0  0  0
 15 14  1  0  0  0  0
 16 15  2  0  0  0  0
 17 18  1  0  0  0  0
 18 20  1  0  0  0  0
 19 18  2  0  0  0  0
 21 15  1  0  0  0  0
 22 21  1  0  0  0  0
 23 22  1  0  0  0  0
 23 25  1  0  0  0  0
 24 23  1  0  0  0  0
 26 23  1  0  0  0  0
 27 29  1  0  0  0  0
 27 30  1  0  0  0  0
 28 27  1  0  0  0  0
 31 32  1  0  0  0  0
 32  1  1  0  0  0  0
M  END
>  <minimizedAffinity>
-4.10382652

$$$$
