
 OpenBabel09122222393D

 32 33  0  0  0  0  0  0  0  0999 V2000
   10.1020   10.4840   -3.5610 C   0  0  0  0  0  0  0  0  0  0  0  0
   10.9110   10.8920   -2.5070 C   0  0  0  0  0  3  0  0  0  0  0  0
   11.0340   10.0950   -1.3740 C   0  0  0  0  0  3  0  0  0  0  0  0
   10.3560    8.8680   -1.2510 C   0  0  0  0  0  0  0  0  0  0  0  0
   10.5170    8.0200   -0.1190 C   0  0  0  0  0  0  0  0  0  0  0  0
    9.7940    6.8260    0.0020 C   0  0  0  0  0  0  0  0  0  0  0  0
    9.9510    5.6620    1.4970 Br  0  0  0  0  0  0  0  0  0  0  0  0
    8.9300    6.4450   -1.0140 C   0  0  0  0  0  3  0  0  0  0  0  0
    8.7830    7.2530   -2.1450 C   0  0  0  0  0  3  0  0  0  0  0  0
    9.4850    8.4720   -2.3050 C   0  0  0  0  0  0  0  0  0  0  0  0
    9.3550    9.2990   -3.4690 C   0  0  0  0  0  0  0  0  0  0  0  0
   11.4130    8.4260    0.9870 C   0  0  0  0  0  0  0  0  0  0  0  0
   12.4640    7.7880    1.0530 O   0  0  0  0  0  0  0  0  0  0  0  0
   11.0360    9.5000    1.7910 N   0  0  0  0  0  0  0  0  0  0  0  0
   11.7290    9.7410    2.9750 C   0  0  0  0  0  0  0  0  0  0  0  0
   12.6900    9.1050    3.4000 O   0  0  0  0  0  0  0  0  0  0  0  0
    9.8120   10.2930    1.5190 C   0  0  0  0  0  2  0  0  0  0  0  0
    8.4820    9.5580    1.7840 C   0  0  0  0  0  0  0  0  0  0  0  0
    7.6970    9.5290    0.7920 O   0  0  0  0  0  0  0  0  0  0  0  0
    8.3350    9.0510    2.9320 O   0  0  0  0  0  1  0  0  0  0  0  0
   11.2540   10.8380    3.6440 O   0  0  0  0  0  0  0  0  0  0  0  0
   12.2270   11.8510    3.9160 C   0  0  0  0  0  2  0  0  0  0  0  0
   11.9510   13.0960    3.0440 C   0  0  0  0  0  0  0  0  0  0  0  0
   12.5020   14.3580    3.7280 C   0  0  0  0  0  1  0  0  0  0  0  0
   12.6410   12.9150    1.6830 C   0  0  0  0  0  1  0  0  0  0  0  0
   10.4380   13.2690    2.8260 C   0  0  0  0  0  1  0  0  0  0  0  0
    8.4350    8.8840   -4.5940 C   0  0  0  0  0  0  0  0  0  0  0  0
    9.1250    8.5920   -5.7400 F   0  0  0  0  0  0  0  0  0  0  0  0
    7.6470    7.7930   -4.3790 F   0  0  0  0  0  0  0  0  0  0  0  0
    7.5620    9.8750   -4.9520 F   0  0  0  0  0  0  0  0  0  0  0  0
    9.7910   12.6490   -4.3590 C   0  0  0  0  0  1  0  0  0  0  0  0
    9.9820   11.2690   -4.6780 O   0  0  0  0  0  0  0  0  0  0  0  0
  1 11  2  0  0  0  0
  1  2  1  0  0  0  0
  2  3  2  0  0  0  0
  3  4  1  0  0  0  0
  4  5  1  0  0  0  0
  5  6  2  0  0  0  0
  5 12  1  0  0  0  0
  6  7  1  0  0  0  0
  8  6  1  0  0  0  0
  9  8  2  0  0  0  0
 10  9  1  0  0  0  0
 10  4  2  0  0  0  0
 11 10  1  0  0  0  0
 12 13  2  0  0  0  0
 12 14  1  0  0  0  0
 14 15  1  0  0  0  0
 15 16  2  0  0  0  0
 15 21  1  0  0  0  0
 17 18  1  0  0  0  0
 17 14  1  0  0  0  0
 18 20  1  0  0  0  0
 19 18  2  0  0  0  0
 21 22  1  0  0  0  0
 23 24  1  0  0  0  0
 23 22  1  0  0  0  0
 25 23  1  0  0  0  0
 26 23  1  0  0  0  0
 27 29  1  0  0  0  0
 27 11  1  0  0  0  0
 28 27  1  0  0  0  0
 30 27  1  0  0  0  0
 32 31  1  0  0  0  0
 32  1  1  0  0  0  0
M  END
>  <minimizedAffinity>
-3.85839152

$$$$
