REMARK  Name = 
REMARK  9 active torsions:
REMARK  status: ('A' for Active; 'I' for Inactive)
REMARK    1  A    between atoms: C_1  and  O_2
REMARK    2  A    between atoms: O_2  and  C_3
REMARK    3  A    between atoms: C_6  and  C_7
REMARK    4  A    between atoms: C_7  and  C_8
REMARK    5  A    between atoms: C_8  and  C_9
REMARK    6  A    between atoms: C_9  and  C_10
REMARK    7  A    between atoms: C_18  and  S_19
REMARK    8  A    between atoms: S_19  and  C_20
REMARK    9  A    between atoms: N_24  and  C_25
REMARK                            x       y       z     vdW  Elec       q    Type
REMARK                         _______ _______ _______ _____ _____    ______ ____
ROOT
ATOM      1  C   UNL     1       0.071   6.754  -2.286  0.00  0.00    -0.064 C 
ATOM      2  C   UNL     1      -0.199   5.324  -2.722  0.00  0.00    +0.075 C 
ATOM      3  C   UNL     1      -1.387   5.326  -3.620  0.00  0.00    +0.168 C 
ATOM      4  O   UNL     1      -2.341   4.571  -3.407  0.00  0.00    -0.292 OA
ATOM      5  C   UNL     1      -1.318   6.278  -4.765  0.00  0.00    +0.036 C 
ATOM      6  C   UNL     1      -0.560   7.408  -4.640  0.00  0.00    -0.173 C 
ATOM      7  O   UNL     1      -0.450   8.310  -5.523  0.00  0.00    -0.883 OA
ATOM      8  O   UNL     1       0.142   7.610  -3.446  0.00  0.00    -0.807 OA
ENDROOT
BRANCH   1   9
ATOM      9  C   UNL     1      -0.950   7.395  -1.283  0.00  0.00    -0.015 C 
ATOM     10  C   UNL     1      -2.238   7.986  -1.879  0.00  0.00    +0.003 C 
ATOM     11  C   UNL     1      -3.093   8.257  -0.653  0.00  0.00    +0.000 C 
ATOM     12  C   UNL     1      -2.888   7.013   0.192  0.00  0.00    +0.000 C 
ATOM     13  C   UNL     1      -1.466   6.531  -0.115  0.00  0.00    +0.003 C 
ENDBRANCH   1   9
BRANCH   1  14
ATOM     14  C   UNL     1       1.531   6.865  -1.733  0.00  0.00    +0.000 C 
BRANCH  14  15
ATOM     15  C   UNL     1       1.909   6.192  -0.410  0.00  0.00    +0.035 C 
BRANCH  15  19
ATOM     16  C   UNL     1       2.170   1.883  -0.373  0.00  0.00    +0.138 A 
ATOM     17  C   UNL     1       1.301   2.539   0.500  0.00  0.00    +0.047 A 
ATOM     18  C   UNL     1       1.214   3.933   0.480  0.00  0.00    +0.007 A 
ATOM     19  C   UNL     1       1.992   4.686  -0.411  0.00  0.00    -0.046 A 
ATOM     20  C   UNL     1       2.885   4.017  -1.263  0.00  0.00    +0.027 A 
ATOM     21  C   UNL     1       2.980   2.622  -1.239  0.00  0.00    +0.083 A 
ATOM     22 CL   UNL     1       4.106   1.848  -2.294  0.00  0.00    -0.080 Cl
BRANCH  16  24
ATOM     23  C   UNL     1       1.117  -0.096  -0.886  0.00  0.00    +0.277 C 
ATOM     24  O   UNL     1       2.276   0.517  -0.321  0.00  0.00    -0.494 OA
ENDBRANCH  16  24
ENDBRANCH  15  19
ENDBRANCH  14  15
ENDBRANCH   1  14
BRANCH   5  25
ATOM     25  S   UNL     1      -2.307   5.915  -6.162  0.00  0.00    -0.048 S 
BRANCH  25  26
ATOM     26  C   UNL     1      -1.965   4.228  -6.315  0.00  0.00    +0.196 A 
ATOM     27  N   UNL     1      -0.806   3.653  -6.554  0.00  0.00    -0.122 NA
ATOM     28  N   UNL     1      -1.015   2.288  -6.602  0.00  0.00    -0.137 NA
ATOM     29  C   UNL     1      -2.294   2.080  -6.388  0.00  0.00    +0.225 A 
ATOM     30  N   UNL     1      -2.932   3.270  -6.214  0.00  0.00    -0.311 N 
ATOM     31  C   UNL     1      -4.332   3.449  -5.945  0.00  0.00    +0.152 C 
ENDBRANCH  25  26
ENDBRANCH   5  25
TORSDOF 7
