
 OpenBabel09132204463D

 31 34  0  0  1  0  0  0  0  0999 V2000
    0.7720    6.1270   -7.1260 C   0  0  1  0  0  0  0  0  0  0  0  0
    0.9980    7.1960   -8.1820 C   0  0  0  0  0  2  0  0  0  0  0  0
    0.1410    6.8800   -9.3580 C   0  0  0  0  0  0  0  0  0  0  0  0
    0.6240    6.8210  -10.4930 O   0  0  0  0  0  0  0  0  0  0  0  0
   -1.3010    6.6610   -9.0540 C   0  0  2  0  0  3  0  0  0  0  0  0
   -1.6540    6.2040   -7.8150 C   0  0  0  0  0  0  0  0  0  0  0  0
   -2.8380    5.9440   -7.4470 O   0  0  0  0  0  0  0  0  0  0  0  0
   -0.6420    5.9860   -6.8740 O   0  0  0  0  0  0  0  0  0  0  0  0
    1.3470    4.7000   -7.4280 C   0  0  0  0  0  3  0  0  0  0  0  0
    2.7690    4.6270   -8.0090 C   0  0  0  0  0  2  0  0  0  0  0  0
    3.1040    3.1480   -7.9180 C   0  0  0  0  0  2  0  0  0  0  0  0
    2.5880    2.7620   -6.5440 C   0  0  0  0  0  2  0  0  0  0  0  0
    1.3820    3.6700   -6.2810 C   0  0  0  0  0  2  0  0  0  0  0  0
    1.2810    6.6450   -5.7400 C   0  0  0  0  0  2  0  0  0  0  0  0
    2.2280    5.7870   -4.8950 C   0  0  0  0  0  2  0  0  0  0  0  0
    6.3500    7.0630   -4.7520 C   0  0  0  0  0  0  0  0  0  0  0  0
    5.3240    7.9890   -4.5590 C   0  0  0  0  0  3  0  0  0  0  0  0
    3.9920    7.5710   -4.5990 C   0  0  0  0  0  3  0  0  0  0  0  0
    3.6700    6.2260   -4.8310 C   0  0  0  0  0  0  0  0  0  0  0  0
    4.7100    5.3090   -5.0540 C   0  0  0  0  0  3  0  0  0  0  0  0
    6.0440    5.7270   -5.0220 C   0  0  0  0  0  0  0  0  0  0  0  0
    7.2850    4.5640   -5.3200 Cl  0  0  0  0  0  0  0  0  0  0  0  0
    7.7750    8.7320   -5.4380 C   0  0  0  0  0  1  0  0  0  0  0  0
    7.6540    7.4880   -4.7480 O   0  0  0  0  0  0  0  0  0  0  0  0
   -2.4370    6.9170  -10.3600 S   0  0  0  0  0  0  0  0  0  0  0  0
   -2.5520    8.6400  -10.2970 C   0  0  0  0  0  0  0  0  0  0  0  0
   -1.5730    9.5190  -10.3040 N   0  0  0  0  0  0  0  0  0  0  0  0
   -2.1380   10.7780  -10.2290 N   0  0  0  0  0  0  0  0  0  0  0  0
   -3.4410   10.6210  -10.1810 C   0  0  0  0  0  3  0  0  0  0  0  0
   -3.7460    9.2940  -10.2100 N   0  0  0  0  0  0  0  0  0  0  0  0
   -5.0670    8.7290  -10.1880 C   0  0  0  0  0  1  0  0  0  0  0  0
  1  8  1  0  0  0  0
  1 14  1  1  0  0  0
  2  1  1  0  0  0  0
  3  5  1  0  0  0  0
  3  2  1  0  0  0  0
  4  3  2  0  0  0  0
  5 25  1  6  0  0  0
  5  6  1  0  0  0  0
  6  7  2  0  0  0  0
  6  8  1  0  0  0  0
  9  1  1  0  0  0  0
  9 13  1  0  0  0  0
 10 11  1  0  0  0  0
 10  9  1  0  0  0  0
 11 12  1  0  0  0  0
 12 13  1  0  0  0  0
 14 15  1  0  0  0  0
 15 19  1  0  0  0  0
 16 24  1  0  0  0  0
 16 17  1  0  0  0  0
 18 17  2  0  0  0  0
 19 18  1  0  0  0  0
 20 21  1  0  0  0  0
 20 19  2  0  0  0  0
 21 16  2  0  0  0  0
 22 21  1  0  0  0  0
 23 24  1  0  0  0  0
 25 26  1  0  0  0  0
 26 30  1  0  0  0  0
 27 26  2  0  0  0  0
 27 28  1  0  0  0  0
 28 29  2  0  0  0  0
 30 31  1  0  0  0  0
 30 29  1  0  0  0  0
M  END
>  <minimizedAffinity>
63.4587021

$$$$
