
 OpenBabel09132204463D

 31 34  0  0  1  0  0  0  0  0999 V2000
   -1.0360    7.1810   -8.8970 C   0  0  1  0  0  0  0  0  0  0  0  0
   -1.5930    6.9450   -7.5040 C   0  0  0  0  0  2  0  0  0  0  0  0
   -2.7660    6.0350   -7.6180 C   0  0  0  0  0  0  0  0  0  0  0  0
   -3.8500    6.3350   -7.1070 O   0  0  0  0  0  0  0  0  0  0  0  0
   -2.5200    4.7690   -8.3660 C   0  0  2  0  0  3  0  0  0  0  0  0
   -1.5490    4.7480   -9.3270 C   0  0  0  0  0  0  0  0  0  0  0  0
   -1.2700    3.7490  -10.0550 O   0  0  0  0  0  0  0  0  0  0  0  0
   -0.8080    5.9140   -9.5500 O   0  0  0  0  0  0  0  0  0  0  0  0
   -1.8960    8.0660   -9.8650 C   0  0  0  0  0  3  0  0  0  0  0  0
   -3.3960    7.7440   -9.9600 C   0  0  0  0  0  2  0  0  0  0  0  0
   -3.9540    8.9240  -10.7360 C   0  0  0  0  0  2  0  0  0  0  0  0
   -3.2480   10.1130  -10.1110 C   0  0  0  0  0  2  0  0  0  0  0  0
   -1.8760    9.5950   -9.6660 C   0  0  0  0  0  2  0  0  0  0  0  0
    0.4230    7.7380   -8.7900 C   0  0  0  0  0  2  0  0  0  0  0  0
    1.5510    7.1120   -9.6150 C   0  0  0  0  0  2  0  0  0  0  0  0
    3.0900    3.3150   -8.2550 C   0  0  0  0  0  0  0  0  0  0  0  0
    3.4100    3.7830   -9.5300 C   0  0  0  0  0  3  0  0  0  0  0  0
    2.9160    5.0160   -9.9640 C   0  0  0  0  0  3  0  0  0  0  0  0
    2.0990    5.7930   -9.1300 C   0  0  0  0  0  0  0  0  0  0  0  0
    1.7590    5.2980   -7.8610 C   0  0  0  0  0  3  0  0  0  0  0  0
    2.2450    4.0600   -7.4280 C   0  0  0  0  0  0  0  0  0  0  0  0
    1.7840    3.4870   -5.8660 Cl  0  0  0  0  0  0  0  0  0  0  0  0
    3.6510    1.2010   -8.9660 C   0  0  0  0  0  1  0  0  0  0  0  0
    3.5490    2.0870   -7.8510 O   0  0  0  0  0  0  0  0  0  0  0  0
   -3.5780    3.4200   -8.0160 S   0  0  0  0  0  0  0  0  0  0  0  0
   -2.4730    2.4190   -7.1420 C   0  0  0  0  0  0  0  0  0  0  0  0
   -1.2840    2.0000   -7.5190 N   0  0  0  0  0  0  0  0  0  0  0  0
   -0.7720    1.2170   -6.5020 N   0  0  0  0  0  0  0  0  0  0  0  0
   -1.6660    1.1900   -5.5400 C   0  0  0  0  0  3  0  0  0  0  0  0
   -2.7550    1.9210   -5.9030 N   0  0  0  0  0  0  0  0  0  0  0  0
   -3.9330    2.1370   -5.1080 C   0  0  0  0  0  1  0  0  0  0  0  0
  1 14  1  1  0  0  0
  1  2  1  0  0  0  0
  3  2  1  0  0  0  0
  3  4  2  0  0  0  0
  5 25  1  6  0  0  0
  5  3  1  0  0  0  0
  6  5  1  0  0  0  0
  7  6  2  0  0  0  0
  8  6  1  0  0  0  0
  8  1  1  0  0  0  0
  9 13  1  0  0  0  0
  9  1  1  0  0  0  0
 10  9  1  0  0  0  0
 11 12  1  0  0  0  0
 11 10  1  0  0  0  0
 12 13  1  0  0  0  0
 15 19  1  0  0  0  0
 15 14  1  0  0  0  0
 16 24  1  0  0  0  0
 16 21  1  0  0  0  0
 17 16  2  0  0  0  0
 18 17  1  0  0  0  0
 18 19  2  0  0  0  0
 19 20  1  0  0  0  0
 20 21  2  0  0  0  0
 21 22  1  0  0  0  0
 23 24  1  0  0  0  0
 25 26  1  0  0  0  0
 26 30  1  0  0  0  0
 27 26  2  0  0  0  0
 27 28  1  0  0  0  0
 28 29  2  0  0  0  0
 30 29  1  0  0  0  0
 30 31  1  0  0  0  0
M  END
>  <minimizedAffinity>
63.5943375

$$$$
