REMARK  Name = 
REMARK  9 active torsions:
REMARK  status: ('A' for Active; 'I' for Inactive)
REMARK    1  A    between atoms: C_1  and  C_2
REMARK    2  A    between atoms: C_2  and  C_3
REMARK    3  A    between atoms: C_2  and  C_4
REMARK    4  A    between atoms: C_2  and  C_5
REMARK    5  A    between atoms: C_8  and  N_9
REMARK    6  A    between atoms: C_10  and  C_12
REMARK    7  A    between atoms: C_15  and  O_16
REMARK    8  A    between atoms: O_16  and  C_17
REMARK    9  A    between atoms: C_28  and  C_29
REMARK                            x       y       z     vdW  Elec       q    Type
REMARK                         _______ _______ _______ _____ _____    ______ ____
ROOT
ATOM      1  N   UNL     1      -1.519   5.135   1.103  0.00  0.00    -0.243 N 
ATOM      2  C   UNL     1      -2.189   6.046   1.933  0.00  0.00    +0.253 C 
ATOM      3  O   UNL     1      -3.313   5.894   2.408  0.00  0.00    -0.270 OA
ATOM      4  C   UNL     1      -2.276   4.412   0.172  0.00  0.00    +0.168 A 
ATOM      5  N   UNL     1      -1.877   3.297  -0.397  0.00  0.00    -0.232 NA
ATOM      6  C   UNL     1      -2.796   2.904  -1.356  0.00  0.00    +0.130 A 
ATOM      7  C   UNL     1      -3.860   3.755  -1.542  0.00  0.00    +0.056 A 
ATOM      8  S   UNL     1      -3.738   5.067  -0.458  0.00  0.00    -0.051 S 
ENDROOT
BRANCH   1  12
ATOM      9  C   UNL     1       1.644   2.507   0.352  0.00  0.00    -0.005 C 
ATOM     10  C   UNL     1       0.523   2.239   1.375  0.00  0.00    +0.006 C 
ATOM     11  C   UNL     1       0.034   3.450   2.167  0.00  0.00    +0.023 C 
ATOM     12  C   UNL     1      -0.107   4.777   1.398  0.00  0.00    +0.084 C 
ATOM     13  C   UNL     1       0.853   4.968   0.213  0.00  0.00    +0.023 C 
ATOM     14  C   UNL     1       1.252   3.704  -0.533  0.00  0.00    +0.006 C 
BRANCH   9  16
ATOM     15  C   UNL     1       3.340   3.378   2.157  0.00  0.00    +0.011 C 
ATOM     16  C   UNL     1       3.117   2.488   0.925  0.00  0.00    -0.035 C 
ATOM     17  C   UNL     1       4.135   2.911  -0.157  0.00  0.00    +0.011 C 
ATOM     18  C   UNL     1       3.480   1.038   1.336  0.00  0.00    +0.011 C 
ENDBRANCH   9  16
ENDBRANCH   1  12
BRANCH   2  19
ATOM     19  C   UNL     1      -1.471   7.293   2.312  0.00  0.00    +0.038 A 
ATOM     20  C   UNL     1      -1.581   7.766   3.625  0.00  0.00    +0.016 A 
ATOM     21  C   UNL     1      -0.944   8.952   3.995  0.00  0.00    +0.047 A 
ATOM     22  C   UNL     1      -0.197   9.665   3.054  0.00  0.00    +0.128 A 
ATOM     23  C   UNL     1      -0.119   9.217   1.732  0.00  0.00    +0.047 A 
ATOM     24  C   UNL     1      -0.757   8.031   1.360  0.00  0.00    +0.016 A 
BRANCH  22  25
ATOM     25  O   UNL     1       0.356  10.852   3.483  0.00  0.00    -0.456 OA
BRANCH  25  26
ATOM     26  C   UNL     1       1.612  11.165   3.019  0.00  0.00    +0.128 A 
ATOM     27  C   UNL     1       2.702  10.310   3.196  0.00  0.00    +0.046 A 
ATOM     28  C   UNL     1       3.964  10.698   2.744  0.00  0.00    +0.004 A 
ATOM     29  C   UNL     1       4.135  11.941   2.132  0.00  0.00    +0.000 A 
ATOM     30  C   UNL     1       3.048  12.802   1.977  0.00  0.00    +0.004 A 
ATOM     31  C   UNL     1       1.785  12.418   2.430  0.00  0.00    +0.046 A 
ENDBRANCH  25  26
ENDBRANCH  22  25
ENDBRANCH   2  19
BRANCH   7  32
ATOM     32  C   UNL     1      -4.918   3.540  -2.547  0.00  0.00    +0.080 C 
ATOM     33  O   UNL     1      -5.830   4.417  -2.637  0.00  0.00    -0.544 OA
ATOM     34  O   UNL     1      -4.816   2.488  -3.253  0.00  0.00    -0.544 OA
ENDBRANCH   7  32
TORSDOF 6
