
 OpenBabel09132204463D

 34 37  0  0  1  0  0  0  0  0999 V2000
   -3.9140    0.9090    1.7510 N   0  0  0  0  0  0  0  0  0  0  0  0
   -3.0120   -0.1330    1.4910 C   0  0  0  0  0  0  0  0  0  0  0  0
   -3.0150   -0.8550    0.4960 O   0  0  0  0  0  0  0  0  0  0  0  0
   -5.2470    0.7410    1.3560 C   0  0  0  0  0  0  0  0  0  0  0  0
   -6.0990    1.7280    1.1940 N   0  0  0  0  0  0  0  0  0  0  0  0
   -7.3600    1.2210    0.9260 C   0  0  0  0  0  3  0  0  0  0  0  0
   -7.4630   -0.1500    0.9380 C   0  0  0  0  0  0  0  0  0  0  0  0
   -5.9320   -0.8350    1.2510 S   0  0  0  0  0  0  0  0  0  0  0  0
   -4.3850    5.0610    1.6080 C   0  0  1  0  0  3  0  0  0  0  0  0
   -3.6540    4.2360    0.5290 C   0  0  0  0  0  2  0  0  0  0  0  0
   -2.8120    3.0670    1.0350 C   0  0  0  0  0  2  0  0  0  0  0  0
   -3.3970    2.2320    2.1890 C   0  0  1  0  0  3  0  0  0  0  0  0
   -4.3270    2.9850    3.1540 C   0  0  0  0  0  2  0  0  0  0  0  0
   -5.1510    4.1100    2.5450 C   0  0  0  0  0  2  0  0  0  0  0  0
   -3.3770    6.0800    3.8070 C   0  0  0  0  0  1  0  0  0  0  0  0
   -3.5380    6.2110    2.2850 C   0  0  0  0  0  0  0  0  0  0  0  0
   -4.1540    7.5960    1.9890 C   0  0  0  0  0  1  0  0  0  0  0  0
   -2.1140    6.2160    1.6730 C   0  0  0  0  0  1  0  0  0  0  0  0
   -1.9270   -0.3720    2.4810 C   0  0  0  0  0  0  0  0  0  0  0  0
   -2.2710   -0.7220    3.7920 C   0  0  0  0  0  3  0  0  0  0  0  0
   -1.2710   -0.9180    4.7470 C   0  0  0  0  0  3  0  0  0  0  0  0
    0.0710   -0.7630    4.3920 C   0  0  0  0  0  0  0  0  0  0  0  0
    0.4160   -0.3730    3.0950 C   0  0  0  0  0  3  0  0  0  0  0  0
   -0.5840   -0.1760    2.1390 C   0  0  0  0  0  3  0  0  0  0  0  0
    0.9940   -0.9210    5.4040 O   0  0  0  0  0  0  0  0  0  0  0  0
    2.1560   -1.5890    5.0960 C   0  0  0  0  0  0  0  0  0  0  0  0
    2.4070   -2.0910    3.8170 C   0  0  0  0  0  3  0  0  0  0  0  0
    3.5840   -2.7990    3.5730 C   0  0  0  0  0  3  0  0  0  0  0  0
    4.4960   -3.0160    4.6070 C   0  0  0  0  0  3  0  0  0  0  0  0
    4.2320   -2.5330    5.8890 C   0  0  0  0  0  3  0  0  0  0  0  0
    3.0550   -1.8250    6.1370 C   0  0  0  0  0  3  0  0  0  0  0  0
   -8.7260   -0.8810    0.7230 C   0  0  0  0  0  0  0  0  0  0  0  0
   -9.8030   -0.3080    1.0720 O   0  0  0  0  0  1  0  0  0  0  0  0
   -8.6260   -2.0300    0.1900 O   0  0  0  0  0  0  0  0  0  0  0  0
  2  1  1  0  0  0  0
  2 19  1  0  0  0  0
  3  2  2  0  0  0  0
  4  1  1  0  0  0  0
  5  4  2  0  0  0  0
  6  7  2  0  0  0  0
  6  5  1  0  0  0  0
  7  8  1  0  0  0  0
  8  4  1  0  0  0  0
  9 16  1  1  0  0  0
  9 14  1  0  0  0  0
 10 11  1  0  0  0  0
 10  9  1  0  0  0  0
 11 12  1  0  0  0  0
 12  1  1  6  0  0  0
 12 13  1  0  0  0  0
 14 13  1  0  0  0  0
 16 15  1  0  0  0  0
 17 16  1  0  0  0  0
 18 16  1  0  0  0  0
 19 20  1  0  0  0  0
 20 21  2  0  0  0  0
 22 21  1  0  0  0  0
 22 25  1  0  0  0  0
 23 22  2  0  0  0  0
 24 19  2  0  0  0  0
 24 23  1  0  0  0  0
 26 25  1  0  0  0  0
 26 31  1  0  0  0  0
 27 26  2  0  0  0  0
 28 27  1  0  0  0  0
 28 29  2  0  0  0  0
 29 30  1  0  0  0  0
 30 31  2  0  0  0  0
 32  7  1  0  0  0  0
 32 33  1  0  0  0  0
 34 32  2  0  0  0  0
M  END
>  <minimizedAffinity>
82.3802032

$$$$
