REMARK  Name = 
REMARK  7 active torsions:
REMARK  status: ('A' for Active; 'I' for Inactive)
REMARK    1  A    between atoms: C_1  and  N_2
REMARK    2  A    between atoms: N_2  and  C_3
REMARK    3  A    between atoms: C_4  and  C_6
REMARK    4  A    between atoms: C_6  and  N_7
REMARK    5  A    between atoms: C_8  and  C_9
REMARK    6  A    between atoms: C_15  and  C_16
REMARK    7  A    between atoms: C_25  and  C_26
REMARK                            x       y       z     vdW  Elec       q    Type
REMARK                         _______ _______ _______ _____ _____    ______ ____
ROOT
ATOM      1  N   UNL     1       0.384  -1.488  -3.889  0.00  0.00    -0.331 N 
ATOM      2  C   UNL     1      -0.300  -2.692  -3.782  0.00  0.00    +0.054 A 
ATOM      3  C   UNL     1       0.536  -3.699  -4.254  0.00  0.00    -0.011 A 
ATOM      4  C   UNL     1       1.736  -3.062  -4.719  0.00  0.00    +0.004 A 
ATOM      5  C   UNL     1       2.928  -3.537  -5.307  0.00  0.00    +0.011 A 
ATOM      6  C   UNL     1       3.937  -2.642  -5.675  0.00  0.00    +0.010 A 
ATOM      7  C   UNL     1       3.794  -1.265  -5.485  0.00  0.00    -0.001 A 
ATOM      8  C   UNL     1       2.601  -0.779  -4.916  0.00  0.00    +0.036 A 
ATOM      9  C   UNL     1       1.596  -1.686  -4.521  0.00  0.00    +0.051 A 
ENDROOT
BRANCH   2  10
ATOM     10  C   UNL     1      -1.659  -2.809  -3.251  0.00  0.00    +0.002 A 
ATOM     11  C   UNL     1      -1.877  -3.326  -1.975  0.00  0.00    +0.029 A 
ATOM     12  C   UNL     1      -3.181  -3.419  -1.521  0.00  0.00    +0.111 A 
ATOM     13  N   UNL     1      -4.258  -3.041  -2.243  0.00  0.00    -0.263 NA
ATOM     14  C   UNL     1      -4.017  -2.552  -3.479  0.00  0.00    +0.111 A 
ATOM     15  C   UNL     1      -2.751  -2.419  -4.023  0.00  0.00    +0.029 A 
ENDBRANCH   2  10
BRANCH   3  16
ATOM     16  C   UNL     1       0.209  -5.177  -4.291  0.00  0.00    +0.022 C 
ATOM     17  C   UNL     1       0.151  -5.736  -5.722  0.00  0.00    +0.008 C 
ATOM     18  C   UNL     1      -0.209  -7.221  -5.729  0.00  0.00    +0.001 C 
ATOM     19  C   UNL     1       0.736  -8.033  -4.847  0.00  0.00    +0.000 C 
ATOM     20  C   UNL     1       0.783  -7.488  -3.423  0.00  0.00    +0.001 C 
ATOM     21  C   UNL     1       1.149  -6.005  -3.399  0.00  0.00    +0.008 C 
ENDBRANCH   3  16
BRANCH   7  22
ATOM     22  C   UNL     1       4.913  -0.314  -5.874  0.00  0.00    +0.072 C 
ATOM     23  O   UNL     1       4.755   0.916  -5.596  0.00  0.00    -0.545 OA
ATOM     24  O   UNL     1       5.935  -0.821  -6.438  0.00  0.00    -0.545 OA
ENDBRANCH   7  22
BRANCH   1  25
ATOM     25  C   UNL     1      -0.147  -0.203  -3.426  0.00  0.00    +0.218 C 
BRANCH  25  29
ATOM     26  C   UNL     1       2.736   1.210  -1.325  0.00  0.00    +0.131 C 
ATOM     27  N   UNL     1       1.641   0.346  -1.736  0.00  0.00    -0.306 N 
ATOM     28  C   UNL     1       1.598  -0.965  -1.113  0.00  0.00    +0.131 C 
ATOM     29  C   UNL     1       0.819   0.767  -2.772  0.00  0.00    +0.235 C 
ATOM     30  O   UNL     1       0.776   1.955  -3.116  0.00  0.00    -0.274 OA
ENDBRANCH  25  29
ENDBRANCH   1  25
TORSDOF 5
