
 OpenBabel09122223303D

 30 33  0  0  0  0  0  0  0  0999 V2000
    4.3450   -7.5810   -0.0230 N   0  0  0  0  0  0  0  0  0  0  0  0
    5.4530   -6.9930    0.5740 C   0  0  0  0  0  0  0  0  0  0  0  0
    5.4060   -5.6290    0.3060 C   0  0  0  0  0  0  0  0  0  0  0  0
    4.2630   -5.4080   -0.5350 C   0  0  0  0  0  0  0  0  0  0  0  0
    3.7040   -4.2610   -1.1400 C   0  0  0  0  0  3  0  0  0  0  0  0
    2.5620   -4.3730   -1.9390 C   0  0  0  0  0  3  0  0  0  0  0  0
    1.9530   -5.6090   -2.1700 C   0  0  0  0  0  0  0  0  0  0  0  0
    2.5140   -6.7610   -1.5860 C   0  0  0  0  0  3  0  0  0  0  0  0
    3.6500   -6.6430   -0.7590 C   0  0  0  0  0  0  0  0  0  0  0  0
    6.4540   -7.7380    1.3400 C   0  0  0  0  0  0  0  0  0  0  0  0
    7.8140   -7.5150    1.1320 C   0  0  0  0  0  3  0  0  0  0  0  0
    8.7190   -8.2480    1.8800 C   0  0  0  0  0  3  0  0  0  0  0  0
    8.3630   -9.1700    2.7990 N   0  0  0  0  0  0  0  0  0  0  0  0
    7.0380   -9.3720    2.9740 C   0  0  0  0  0  3  0  0  0  0  0  0
    6.0560   -8.6900    2.2760 C   0  0  0  0  0  3  0  0  0  0  0  0
    6.4000   -4.5960    0.7930 C   0  0  0  0  0  3  0  0  0  0  0  0
    6.4810   -4.5270    2.3270 C   0  0  0  0  0  2  0  0  0  0  0  0
    7.4700   -3.4570    2.7880 C   0  0  0  0  0  2  0  0  0  0  0  0
    8.8470   -3.6560    2.1610 C   0  0  0  0  0  2  0  0  0  0  0  0
    8.7700   -3.7100    0.6390 C   0  0  0  0  0  2  0  0  0  0  0  0
    7.7900   -4.7810    0.1620 C   0  0  0  0  0  2  0  0  0  0  0  0
    0.7010   -5.7020   -3.0250 C   0  0  0  0  0  0  0  0  0  0  0  0
    0.0560   -6.7970   -2.9970 O   0  0  0  0  0  1  0  0  0  0  0  0
    0.3790   -4.6700   -3.6970 O   0  0  0  0  0  0  0  0  0  0  0  0
    4.0120   -9.0030    0.0970 C   0  0  0  0  0  2  0  0  0  0  0  0
    1.6340  -11.1080    2.2500 C   0  0  0  0  0  1  0  0  0  0  0  0
    2.3910  -10.6570    1.0940 N   0  0  0  0  0  0  0  0  0  0  0  0
    2.5810  -11.6350    0.0370 C   0  0  0  0  0  1  0  0  0  0  0  0
    2.9870   -9.4040    1.1410 C   0  0  0  0  0  0  0  0  0  0  0  0
    2.6260   -8.5520    1.9630 O   0  0  0  0  0  0  0  0  0  0  0  0
  1 25  1  0  0  0  0
  1  2  1  0  0  0  0
  2 10  1  0  0  0  0
  3  2  2  0  0  0  0
  3 16  1  0  0  0  0
  4  3  1  0  0  0  0
  5  4  2  0  0  0  0
  6  5  1  0  0  0  0
  7  6  2  0  0  0  0
  7  8  1  0  0  0  0
  8  9  2  0  0  0  0
  9  4  1  0  0  0  0
  9  1  1  0  0  0  0
 10 15  1  0  0  0  0
 11 10  2  0  0  0  0
 11 12  1  0  0  0  0
 12 13  2  0  0  0  0
 13 14  1  0  0  0  0
 15 14  2  0  0  0  0
 16 17  1  0  0  0  0
 17 18  1  0  0  0  0
 19 18  1  0  0  0  0
 20 19  1  0  0  0  0
 21 20  1  0  0  0  0
 21 16  1  0  0  0  0
 22 23  1  0  0  0  0
 22  7  1  0  0  0  0
 24 22  2  0  0  0  0
 25 29  1  0  0  0  0
 27 29  1  0  0  0  0
 27 26  1  0  0  0  0
 28 27  1  0  0  0  0
 29 30  2  0  0  0  0
M  END
>  <minimizedAffinity>
17.7432098

$$$$

 OpenBabel09122223303D

 30 33  0  0  0  0  0  0  0  0999 V2000
    5.1640   -7.5570    1.6090 N   0  0  0  0  0  0  0  0  0  0  0  0
    3.9800   -7.7810    0.9200 C   0  0  0  0  0  0  0  0  0  0  0  0
    4.0440   -7.0740   -0.2770 C   0  0  0  0  0  0  0  0  0  0  0  0
    5.2840   -6.3510   -0.2690 C   0  0  0  0  0  0  0  0  0  0  0  0
    5.9030   -5.4640   -1.1760 C   0  0  0  0  0  3  0  0  0  0  0  0
    7.1420   -4.8930   -0.8690 C   0  0  0  0  0  3  0  0  0  0  0  0
    7.7920   -5.1700    0.3360 C   0  0  0  0  0  0  0  0  0  0  0  0
    7.1750   -6.0380    1.2570 C   0  0  0  0  0  3  0  0  0  0  0  0
    5.9390   -6.6340    0.9330 C   0  0  0  0  0  0  0  0  0  0  0  0
    2.8980   -8.6300    1.4210 C   0  0  0  0  0  0  0  0  0  0  0  0
    2.1560   -8.2440    2.5360 C   0  0  0  0  0  3  0  0  0  0  0  0
    1.1460   -9.0840    2.9720 C   0  0  0  0  0  3  0  0  0  0  0  0
    0.8360  -10.2580    2.3820 N   0  0  0  0  0  0  0  0  0  0  0  0
    1.5770  -10.6100    1.3090 C   0  0  0  0  0  3  0  0  0  0  0  0
    2.6080   -9.8410    0.7960 C   0  0  0  0  0  3  0  0  0  0  0  0
    2.9810   -7.0590   -1.3550 C   0  0  0  0  0  3  0  0  0  0  0  0
    1.7880   -7.9720   -1.0250 C   0  0  0  0  0  2  0  0  0  0  0  0
    0.7470   -7.9580   -2.1430 C   0  0  0  0  0  2  0  0  0  0  0  0
    0.2930   -6.5380   -2.4720 C   0  0  0  0  0  2  0  0  0  0  0  0
    1.4740   -5.6360   -2.8140 C   0  0  0  0  0  2  0  0  0  0  0  0
    2.5220   -5.6330   -1.7020 C   0  0  0  0  0  2  0  0  0  0  0  0
    9.1480   -4.5530    0.6380 C   0  0  0  0  0  0  0  0  0  0  0  0
   10.0020   -4.5340   -0.3020 O   0  0  0  0  0  0  0  0  0  0  0  0
    9.3240   -4.0860    1.8090 O   0  0  0  0  0  1  0  0  0  0  0  0
    5.4980   -8.1900    2.8880 C   0  0  0  0  0  2  0  0  0  0  0  0
    5.9330  -11.9850    2.5220 C   0  0  0  0  0  1  0  0  0  0  0  0
    5.3200  -10.7040    2.8360 N   0  0  0  0  0  0  0  0  0  0  0  0
    3.8730  -10.7060    2.9630 C   0  0  0  0  0  1  0  0  0  0  0  0
    6.1230   -9.5720    2.8500 C   0  0  0  0  0  0  0  0  0  0  0  0
    7.3540   -9.6590    2.9380 O   0  0  0  0  0  0  0  0  0  0  0  0
  1 25  1  0  0  0  0
  2 10  1  0  0  0  0
  2  1  1  0  0  0  0
  3  4  1  0  0  0  0
  3  2  2  0  0  0  0
  4  9  1  0  0  0  0
  5  6  1  0  0  0  0
  5  4  2  0  0  0  0
  6  7  2  0  0  0  0
  7 22  1  0  0  0  0
  7  8  1  0  0  0  0
  9  8  2  0  0  0  0
  9  1  1  0  0  0  0
 10 11  1  0  0  0  0
 11 12  2  0  0  0  0
 13 12  1  0  0  0  0
 14 13  2  0  0  0  0
 15 14  1  0  0  0  0
 15 10  2  0  0  0  0
 16 17  1  0  0  0  0
 16  3  1  0  0  0  0
 18 17  1  0  0  0  0
 19 18  1  0  0  0  0
 20 19  1  0  0  0  0
 20 21  1  0  0  0  0
 21 16  1  0  0  0  0
 22 24  1  0  0  0  0
 23 22  2  0  0  0  0
 26 27  1  0  0  0  0
 27 29  1  0  0  0  0
 27 28  1  0  0  0  0
 29 25  1  0  0  0  0
 29 30  2  0  0  0  0
M  END
>  <minimizedAffinity>
19.4453354

$$$$

 OpenBabel09122223303D

 30 33  0  0  0  0  0  0  0  0999 V2000
    5.1400   -7.1600    0.0460 N   0  0  0  0  0  0  0  0  0  0  0  0
    4.5370   -8.3560    0.4120 C   0  0  0  0  0  0  0  0  0  0  0  0
    3.7370   -8.1050    1.5230 C   0  0  0  0  0  0  0  0  0  0  0  0
    3.9230   -6.7240    1.8690 C   0  0  0  0  0  0  0  0  0  0  0  0
    3.4060   -5.8950    2.8880 C   0  0  0  0  0  3  0  0  0  0  0  0
    3.8010   -4.5570    2.9740 C   0  0  0  0  0  3  0  0  0  0  0  0
    4.7170   -4.0080    2.0730 C   0  0  0  0  0  0  0  0  0  0  0  0
    5.2530   -4.8310    1.0640 C   0  0  0  0  0  3  0  0  0  0  0  0
    4.8330   -6.1740    0.9630 C   0  0  0  0  0  0  0  0  0  0  0  0
    4.7450   -9.6200   -0.2950 C   0  0  0  0  0  0  0  0  0  0  0  0
    3.9540  -10.7310   -0.0060 C   0  0  0  0  0  3  0  0  0  0  0  0
    4.1940  -11.9040   -0.7000 C   0  0  0  0  0  3  0  0  0  0  0  0
    5.1540  -12.0390   -1.6400 N   0  0  0  0  0  0  0  0  0  0  0  0
    5.9110  -10.9490   -1.8930 C   0  0  0  0  0  3  0  0  0  0  0  0
    5.7490   -9.7320   -1.2540 C   0  0  0  0  0  3  0  0  0  0  0  0
    2.8680   -9.1200    2.2360 C   0  0  0  0  0  3  0  0  0  0  0  0
    1.4170   -9.1180    1.7300 C   0  0  0  0  0  2  0  0  0  0  0  0
    0.5580  -10.1300    2.4870 C   0  0  0  0  0  2  0  0  0  0  0  0
    1.1670  -11.5300    2.4410 C   0  0  0  0  0  2  0  0  0  0  0  0
    2.6020  -11.5350    2.9570 C   0  0  0  0  0  2  0  0  0  0  0  0
    3.4750  -10.5330    2.2050 C   0  0  0  0  0  2  0  0  0  0  0  0
    5.1150   -2.5450    2.1750 C   0  0  0  0  0  0  0  0  0  0  0  0
    6.3570   -2.2770    2.1680 O   0  0  0  0  0  0  0  0  0  0  0  0
    4.1730   -1.6920    2.2460 O   0  0  0  0  0  1  0  0  0  0  0  0
    6.0060   -7.0080   -1.1260 C   0  0  0  0  0  2  0  0  0  0  0  0
    9.0750   -4.8320   -0.3700 C   0  0  0  0  0  1  0  0  0  0  0  0
    7.9920   -5.7820   -0.1730 N   0  0  0  0  0  0  0  0  0  0  0  0
    8.1380   -6.6870    0.9540 C   0  0  0  0  0  1  0  0  0  0  0  0
    6.9920   -5.8540   -1.1320 C   0  0  0  0  0  0  0  0  0  0  0  0
    6.8130   -4.9380   -1.9440 O   0  0  0  0  0  0  0  0  0  0  0  0
  1  2  1  0  0  0  0
  1  9  1  0  0  0  0
  2  3  2  0  0  0  0
  3  4  1  0  0  0  0
  3 16  1  0  0  0  0
  4  5  1  0  0  0  0
  5  6  2  0  0  0  0
  7 22  1  0  0  0  0
  7  6  1  0  0  0  0
  8  7  2  0  0  0  0
  9  8  1  0  0  0  0
  9  4  2  0  0  0  0
 10 11  1  0  0  0  0
 10  2  1  0  0  0  0
 12 11  2  0  0  0  0
 13 12  1  0  0  0  0
 14 13  2  0  0  0  0
 14 15  1  0  0  0  0
 15 10  2  0  0  0  0
 17 16  1  0  0  0  0
 17 18  1  0  0  0  0
 19 18  1  0  0  0  0
 19 20  1  0  0  0  0
 21 16  1  0  0  0  0
 21 20  1  0  0  0  0
 22 24  1  0  0  0  0
 23 22  2  0  0  0  0
 25  1  1  0  0  0  0
 26 27  1  0  0  0  0
 27 28  1  0  0  0  0
 29 25  1  0  0  0  0
 29 27  1  0  0  0  0
 30 29  2  0  0  0  0
M  END
>  <minimizedAffinity>
19.6896591

$$$$

 OpenBabel09122223303D

 30 33  0  0  0  0  0  0  0  0999 V2000
    4.5140   -6.2620   -0.4650 N   0  0  0  0  0  0  0  0  0  0  0  0
    4.8060   -7.2690    0.4460 C   0  0  0  0  0  0  0  0  0  0  0  0
    3.7820   -8.2080    0.3850 C   0  0  0  0  0  0  0  0  0  0  0  0
    2.8130   -7.7090   -0.5500 C   0  0  0  0  0  0  0  0  0  0  0  0
    1.5730   -8.1910   -1.0220 C   0  0  0  0  0  3  0  0  0  0  0  0
    0.8350   -7.4480   -1.9480 C   0  0  0  0  0  3  0  0  0  0  0  0
    1.2900   -6.2140   -2.4200 C   0  0  0  0  0  0  0  0  0  0  0  0
    2.5160   -5.7150   -1.9420 C   0  0  0  0  0  3  0  0  0  0  0  0
    3.2720   -6.4790   -1.0290 C   0  0  0  0  0  0  0  0  0  0  0  0
    6.0030   -7.2790    1.2890 C   0  0  0  0  0  0  0  0  0  0  0  0
    6.9050   -8.3400    1.2220 C   0  0  0  0  0  3  0  0  0  0  0  0
    8.0200   -8.3030    2.0420 C   0  0  0  0  0  3  0  0  0  0  0  0
    8.2850   -7.3010    2.9070 N   0  0  0  0  0  0  0  0  0  0  0  0
    7.3890   -6.2910    2.9570 C   0  0  0  0  0  3  0  0  0  0  0  0
    6.2450   -6.2350    2.1790 C   0  0  0  0  0  3  0  0  0  0  0  0
    3.7070   -9.4910    1.1850 C   0  0  0  0  0  3  0  0  0  0  0  0
    2.5190   -9.5130    2.1610 C   0  0  0  0  0  2  0  0  0  0  0  0
    2.4860  -10.8060    2.9740 C   0  0  0  0  0  2  0  0  0  0  0  0
    2.4950  -12.0380    2.0730 C   0  0  0  0  0  2  0  0  0  0  0  0
    3.6820  -12.0250    1.1150 C   0  0  0  0  0  2  0  0  0  0  0  0
    3.7240  -10.7400    0.2880 C   0  0  0  0  0  2  0  0  0  0  0  0
    0.4790   -5.4350   -3.4420 C   0  0  0  0  0  0  0  0  0  0  0  0
   -0.0680   -6.0960   -4.3790 O   0  0  0  0  0  0  0  0  0  0  0  0
    0.3940   -4.1760   -3.2760 O   0  0  0  0  0  1  0  0  0  0  0  0
    5.3980   -5.1260   -0.7370 C   0  0  0  0  0  2  0  0  0  0  0  0
    9.2000   -5.2660   -0.2370 C   0  0  0  0  0  1  0  0  0  0  0  0
    7.8340   -4.7700   -0.1930 N   0  0  0  0  0  0  0  0  0  0  0  0
    7.5690   -3.7230    0.7780 C   0  0  0  0  0  1  0  0  0  0  0  0
    6.8710   -5.4130   -0.9590 C   0  0  0  0  0  0  0  0  0  0  0  0
    7.1870   -6.1480   -1.9030 O   0  0  0  0  0  0  0  0  0  0  0  0
  1  2  1  0  0  0  0
  2 10  1  0  0  0  0
  3  2  2  0  0  0  0
  3 16  1  0  0  0  0
  4  3  1  0  0  0  0
  5  4  1  0  0  0  0
  6  5  2  0  0  0  0
  7  6  1  0  0  0  0
  7  8  2  0  0  0  0
  8  9  1  0  0  0  0
  9  4  2  0  0  0  0
  9  1  1  0  0  0  0
 10 15  1  0  0  0  0
 11 10  2  0  0  0  0
 11 12  1  0  0  0  0
 12 13  2  0  0  0  0
 13 14  1  0  0  0  0
 15 14  2  0  0  0  0
 16 17  1  0  0  0  0
 17 18  1  0  0  0  0
 19 18  1  0  0  0  0
 20 19  1  0  0  0  0
 21 20  1  0  0  0  0
 21 16  1  0  0  0  0
 22 24  1  0  0  0  0
 22  7  1  0  0  0  0
 23 22  2  0  0  0  0
 25  1  1  0  0  0  0
 26 27  1  0  0  0  0
 27 28  1  0  0  0  0
 29 25  1  0  0  0  0
 29 27  1  0  0  0  0
 30 29  2  0  0  0  0
M  END
>  <minimizedAffinity>
20.657814

$$$$
