
 OpenBabel09132204463D

 30 33  0  0  0  0  0  0  0  0999 V2000
    4.3450   -7.5810   -0.0230 N   0  0  0  0  0  0  0  0  0  0  0  0
    5.4530   -6.9930    0.5740 C   0  0  0  0  0  0  0  0  0  0  0  0
    5.4060   -5.6290    0.3060 C   0  0  0  0  0  0  0  0  0  0  0  0
    4.2630   -5.4080   -0.5350 C   0  0  0  0  0  0  0  0  0  0  0  0
    3.7040   -4.2610   -1.1400 C   0  0  0  0  0  3  0  0  0  0  0  0
    2.5620   -4.3730   -1.9390 C   0  0  0  0  0  3  0  0  0  0  0  0
    1.9530   -5.6090   -2.1700 C   0  0  0  0  0  0  0  0  0  0  0  0
    2.5140   -6.7610   -1.5860 C   0  0  0  0  0  3  0  0  0  0  0  0
    3.6500   -6.6430   -0.7590 C   0  0  0  0  0  0  0  0  0  0  0  0
    6.4540   -7.7380    1.3400 C   0  0  0  0  0  0  0  0  0  0  0  0
    7.8140   -7.5150    1.1320 C   0  0  0  0  0  3  0  0  0  0  0  0
    8.7190   -8.2480    1.8800 C   0  0  0  0  0  3  0  0  0  0  0  0
    8.3630   -9.1700    2.7990 N   0  0  0  0  0  0  0  0  0  0  0  0
    7.0380   -9.3720    2.9740 C   0  0  0  0  0  3  0  0  0  0  0  0
    6.0560   -8.6900    2.2760 C   0  0  0  0  0  3  0  0  0  0  0  0
    6.4000   -4.5960    0.7930 C   0  0  0  0  0  3  0  0  0  0  0  0
    6.4810   -4.5270    2.3270 C   0  0  0  0  0  2  0  0  0  0  0  0
    7.4700   -3.4570    2.7880 C   0  0  0  0  0  2  0  0  0  0  0  0
    8.8470   -3.6560    2.1610 C   0  0  0  0  0  2  0  0  0  0  0  0
    8.7700   -3.7100    0.6390 C   0  0  0  0  0  2  0  0  0  0  0  0
    7.7900   -4.7810    0.1620 C   0  0  0  0  0  2  0  0  0  0  0  0
    0.7010   -5.7020   -3.0250 C   0  0  0  0  0  0  0  0  0  0  0  0
    0.0560   -6.7970   -2.9970 O   0  0  0  0  0  1  0  0  0  0  0  0
    0.3790   -4.6700   -3.6970 O   0  0  0  0  0  0  0  0  0  0  0  0
    4.0120   -9.0030    0.0970 C   0  0  0  0  0  2  0  0  0  0  0  0
    1.6340  -11.1080    2.2500 C   0  0  0  0  0  1  0  0  0  0  0  0
    2.3910  -10.6570    1.0940 N   0  0  0  0  0  0  0  0  0  0  0  0
    2.5810  -11.6350    0.0370 C   0  0  0  0  0  1  0  0  0  0  0  0
    2.9870   -9.4040    1.1410 C   0  0  0  0  0  0  0  0  0  0  0  0
    2.6260   -8.5520    1.9630 O   0  0  0  0  0  0  0  0  0  0  0  0
  1 25  1  0  0  0  0
  1  2  1  0  0  0  0
  2 10  1  0  0  0  0
  3  2  2  0  0  0  0
  3 16  1  0  0  0  0
  4  3  1  0  0  0  0
  5  4  2  0  0  0  0
  6  5  1  0  0  0  0
  7  6  2  0  0  0  0
  7  8  1  0  0  0  0
  8  9  2  0  0  0  0
  9  4  1  0  0  0  0
  9  1  1  0  0  0  0
 10 15  1  0  0  0  0
 11 10  2  0  0  0  0
 11 12  1  0  0  0  0
 12 13  2  0  0  0  0
 13 14  1  0  0  0  0
 15 14  2  0  0  0  0
 16 17  1  0  0  0  0
 17 18  1  0  0  0  0
 19 18  1  0  0  0  0
 20 19  1  0  0  0  0
 21 20  1  0  0  0  0
 21 16  1  0  0  0  0
 22 23  1  0  0  0  0
 22  7  1  0  0  0  0
 24 22  2  0  0  0  0
 25 29  1  0  0  0  0
 27 29  1  0  0  0  0
 27 26  1  0  0  0  0
 28 27  1  0  0  0  0
 29 30  2  0  0  0  0
M  END
>  <minimizedAffinity>
17.7432098

$$$$
