REMARK  Name = 
REMARK  7 active torsions:
REMARK  status: ('A' for Active; 'I' for Inactive)
REMARK    1  A    between atoms: C_2  and  C_4
REMARK    2  A    between atoms: C_5  and  C_6
REMARK    3  A    between atoms: C_9  and  N_10
REMARK    4  A    between atoms: C_11  and  C_13
REMARK    5  A    between atoms: C_13  and  N_14
REMARK    6  A    between atoms: C_15  and  C_17
REMARK    7  A    between atoms: C_21  and  C_22
REMARK                            x       y       z     vdW  Elec       q    Type
REMARK                         _______ _______ _______ _____ _____    ______ ____
ROOT
ATOM      1  N   UNL     1       1.812  -6.714  -1.063  0.00  0.00    -0.297 N 
ATOM      2  C   UNL     1       2.392  -6.997   0.146  0.00  0.00    +0.245 C 
ATOM      3  O   UNL     1       1.929  -6.481   1.161  0.00  0.00    -0.270 OA
ATOM      4  H   UNL     1       1.097  -6.008  -0.936  0.00  0.00    +0.150 HD
ENDROOT
BRANCH   2   5
ATOM      5  C   UNL     1       3.507  -7.956   0.289  0.00  0.00    +0.039 A 
ATOM      6  C   UNL     1       3.370  -8.962   1.243  0.00  0.00    +0.014 A 
ATOM      7  C   UNL     1       4.405  -9.878   1.461  0.00  0.00    +0.011 A 
ATOM      8  C   UNL     1       5.595  -9.798   0.703  0.00  0.00    +0.004 A 
ATOM      9  C   UNL     1       6.823 -10.547   0.685  0.00  0.00    -0.009 A 
ATOM     10  C   UNL     1       7.589 -10.064  -0.387  0.00  0.00    +0.076 A 
ATOM     11  N   UNL     1       6.939  -8.935  -0.845  0.00  0.00    -0.335 N 
ATOM     12  C   UNL     1       5.709  -8.780  -0.241  0.00  0.00    +0.051 A 
ATOM     13  C   UNL     1       4.695  -7.821  -0.433  0.00  0.00    +0.039 A 
ATOM     14  C   UNL     1       7.509  -8.005  -1.807  0.00  0.00    +0.163 C 
ATOM     15  C   UNL     1       8.928  -7.661  -1.396  0.00  0.00    +0.250 C 
ATOM     16  O   UNL     1       9.882  -8.544  -1.973  0.00  0.00    -0.488 OA
ATOM     17  C   UNL     1       9.809  -9.875  -1.682  0.00  0.00    +0.148 A 
ATOM     18  C   UNL     1      10.891 -10.588  -2.217  0.00  0.00    +0.049 A 
ATOM     19  C   UNL     1      10.983 -11.965  -2.063  0.00  0.00    +0.023 A 
ATOM     20  C   UNL     1       9.971 -12.597  -1.376  0.00  0.00    +0.112 A 
ATOM     21  N   UNL     1       8.913 -11.950  -0.849  0.00  0.00    -0.250 NA
ATOM     22  C   UNL     1       8.834 -10.596  -0.985  0.00  0.00    +0.129 A 
BRANCH   9  23
ATOM     23  C   UNL     1       7.203 -11.669   1.634  0.00  0.00    +0.022 C 
ATOM     24  C   UNL     1       7.190 -11.225   3.110  0.00  0.00    +0.008 C 
ATOM     25  C   UNL     1       7.610 -12.360   4.040  0.00  0.00    +0.001 C 
ATOM     26  C   UNL     1       6.757 -13.606   3.825  0.00  0.00    +0.000 C 
ATOM     27  C   UNL     1       6.776 -14.057   2.367  0.00  0.00    +0.001 C 
ATOM     28  C   UNL     1       6.356 -12.933   1.421  0.00  0.00    +0.008 C 
ENDBRANCH   9  23
ENDBRANCH   2   5
BRANCH   1  29
ATOM     29  C   UNL     1       2.021  -7.229  -2.432  0.00  0.00    +0.111 C 
ATOM     30  C   UNL     1       0.771  -6.946  -3.319  0.00  0.00    +0.035 C 
ATOM     31  C   UNL     1       0.211  -8.294  -3.765  0.00  0.00    +0.003 C 
ATOM     32  C   UNL     1       1.396  -9.229  -3.705  0.00  0.00    +0.003 C 
ATOM     33  C   UNL     1       2.103  -8.781  -2.436  0.00  0.00    +0.035 C 
BRANCH  29  35
ATOM     34  N   UNL     1       3.692  -5.322  -3.004  0.00  0.00    -0.284 N 
ATOM     35  C   UNL     1       3.272  -6.612  -3.137  0.00  0.00    +0.241 C 
ATOM     36  O   UNL     1       3.948  -7.296  -3.922  0.00  0.00    -0.273 OA
ATOM     37  H   UNL     1       4.610  -5.220  -3.420  0.00  0.00    +0.155 HD
BRANCH  34  41
ATOM     38  C   UNL     1       2.373  -1.652  -1.358  0.00  0.00    -0.025 A 
ATOM     39  C   UNL     1       1.436  -2.629  -1.705  0.00  0.00    +0.010 A 
ATOM     40  C   UNL     1       1.837  -3.856  -2.254  0.00  0.00    +0.024 A 
ATOM     41  C   UNL     1       3.183  -4.145  -2.436  0.00  0.00    +0.033 A 
ATOM     42  C   UNL     1       4.123  -3.159  -2.108  0.00  0.00    +0.024 A 
ATOM     43  C   UNL     1       3.726  -1.934  -1.559  0.00  0.00    +0.010 A 
BRANCH  38  45
ATOM     44  C   UNL     1       2.526   0.791  -0.882  0.00  0.00    +0.025 C 
ATOM     45  C   UNL     1       1.903  -0.393  -0.767  0.00  0.00    +0.009 C 
BRANCH  44  47
ATOM     46  O   UNL     1       0.858   1.983   0.323  0.00  0.00    -0.545 OA
ATOM     47  C   UNL     1       1.975   2.072  -0.255  0.00  0.00    +0.065 C 
ATOM     48  O   UNL     1       2.730   3.075  -0.409  0.00  0.00    -0.545 OA
ENDBRANCH  44  47
ENDBRANCH  38  45
ENDBRANCH  34  41
ENDBRANCH  29  35
ENDBRANCH   1  29
TORSDOF 7
