
 OpenBabel09182209113D

 48 54  0  0  0  0  0  0  0  0999 V2000
    2.6480  -11.8970    3.7430 N   0  0  0  0  0  0  0  0  0  0  0  0
    2.1550  -10.7870    3.1070 C   0  0  0  0  0  0  0  0  0  0  0  0
    1.0790  -10.8690    2.5190 O   0  0  0  0  0  0  0  0  0  0  0  0
    2.0510  -12.6910    3.5430 H   0  0  0  0  0  0  0  0  0  0  0  0
    2.8300   -9.4740    3.1620 C   0  0  0  0  0  0  0  0  0  0  0  0
    2.4650   -8.6080    4.1900 C   0  0  0  0  0  3  0  0  0  0  0  0
    3.0330   -7.3310    4.2770 C   0  0  0  0  0  3  0  0  0  0  0  0
    3.9930   -6.9160    3.3270 C   0  0  0  0  0  0  0  0  0  0  0  0
    4.7380   -5.7030    3.1220 C   0  0  0  0  0  0  0  0  0  0  0  0
    5.6390   -5.9410    2.0730 C   0  0  0  0  0  0  0  0  0  0  0  0
    5.2910   -7.1650    1.5380 N   0  0  0  0  0  0  0  0  0  0  0  0
    4.3360   -7.7990    2.3060 C   0  0  0  0  0  0  0  0  0  0  0  0
    3.7340   -9.0660    2.1790 C   0  0  0  0  0  3  0  0  0  0  0  0
    5.8320   -7.6910    0.2950 C   0  0  0  0  0  2  0  0  0  0  0  0
    5.7710   -6.6170   -0.7750 C   0  0  0  0  0  2  0  0  0  0  0  0
    6.9570   -5.8330   -0.8140 O   0  0  0  0  0  0  0  0  0  0  0  0
    7.3130   -5.1210    0.2930 C   0  0  0  0  0  0  0  0  0  0  0  0
    8.4250   -4.3010    0.0540 C   0  0  0  0  0  3  0  0  0  0  0  0
    8.9670   -3.5210    1.0670 C   0  0  0  0  0  3  0  0  0  0  0  0
    8.3780   -3.5930    2.3090 C   0  0  0  0  0  3  0  0  0  0  0  0
    7.3120   -4.3700    2.5820 N   0  0  0  0  0  0  0  0  0  0  0  0
    6.7690   -5.1200    1.5820 C   0  0  0  0  0  0  0  0  0  0  0  0
    4.5930   -4.4160    3.9140 C   0  0  0  0  0  3  0  0  0  0  0  0
    3.1750   -3.8180    3.8150 C   0  0  0  0  0  2  0  0  0  0  0  0
    3.0650   -2.5070    4.5890 C   0  0  0  0  0  2  0  0  0  0  0  0
    3.4990   -2.6760    6.0420 C   0  0  0  0  0  2  0  0  0  0  0  0
    4.9070   -3.2570    6.1450 C   0  0  0  0  0  2  0  0  0  0  0  0
    5.0350   -4.5710    5.3770 C   0  0  0  0  0  2  0  0  0  0  0  0
    3.8130  -12.1280    4.6200 C   0  0  0  0  0  0  0  0  0  0  0  0
    3.5230  -11.6100    6.0610 C   0  0  0  0  0  2  0  0  0  0  0  0
    4.5330  -10.5060    6.3630 C   0  0  0  0  0  2  0  0  0  0  0  0
    5.7060  -10.8160    5.4620 C   0  0  0  0  0  2  0  0  0  0  0  0
    5.0240  -11.2590    4.1780 C   0  0  0  0  0  2  0  0  0  0  0  0
    4.3000  -14.4940    3.6600 N   0  0  0  0  0  0  0  0  0  0  0  0
    4.2240  -13.6330    4.7140 C   0  0  0  0  0  0  0  0  0  0  0  0
    4.4720  -14.1460    5.8170 O   0  0  0  0  0  0  0  0  0  0  0  0
    4.7490  -15.3530    3.9550 H   0  0  0  0  0  0  0  0  0  0  0  0
    2.9560  -14.5100   -0.3540 C   0  0  0  0  0  0  0  0  0  0  0  0
    4.0540  -13.7230    0.0030 C   0  0  0  0  0  3  0  0  0  0  0  0
    4.5260  -13.6920    1.3230 C   0  0  0  0  0  3  0  0  0  0  0  0
    3.9320  -14.4720    2.3070 C   0  0  0  0  0  0  0  0  0  0  0  0
    2.8180  -15.2460    1.9560 C   0  0  0  0  0  3  0  0  0  0  0  0
    2.3450  -15.2800    0.6380 C   0  0  0  0  0  3  0  0  0  0  0  0
    2.0650  -15.6060   -2.4090 C   0  0  0  0  0  3  0  0  0  0  0  0
    2.5150  -14.5230   -1.7540 C   0  0  0  0  0  3  0  0  0  0  0  0
    1.9740  -14.5500   -4.5380 O   0  0  0  0  0  0  0  0  0  0  0  0
    1.6040  -15.5510   -3.8660 C   0  0  0  0  0  0  0  0  0  0  0  0
    0.8910  -16.5380   -4.2080 O   0  0  0  0  0  1  0  0  0  0  0  0
  1 29  1  0  0  0  0
  2  5  1  0  0  0  0
  2  1  1  0  0  0  0
  3  2  2  0  0  0  0
  4  1  1  0  0  0  0
  5  6  1  0  0  0  0
  6  7  2  0  0  0  0
  8  7  1  0  0  0  0
  9  8  1  0  0  0  0
  9 23  1  0  0  0  0
 10  9  2  0  0  0  0
 11 10  1  0  0  0  0
 11 12  1  0  0  0  0
 12  8  2  0  0  0  0
 13 12  1  0  0  0  0
 13  5  2  0  0  0  0
 14 11  1  0  0  0  0
 15 14  1  0  0  0  0
 16 15  1  0  0  0  0
 16 17  1  0  0  0  0
 17 22  1  0  0  0  0
 18 17  2  0  0  0  0
 18 19  1  0  0  0  0
 19 20  2  0  0  0  0
 20 21  1  0  0  0  0
 22 10  1  0  0  0  0
 22 21  2  0  0  0  0
 23 28  1  0  0  0  0
 24 23  1  0  0  0  0
 24 25  1  0  0  0  0
 25 26  1  0  0  0  0
 26 27  1  0  0  0  0
 28 27  1  0  0  0  0
 29 35  1  0  0  0  0
 29 30  1  0  0  0  0
 30 31  1  0  0  0  0
 32 31  1  0  0  0  0
 33 29  1  0  0  0  0
 33 32  1  0  0  0  0
 34 37  1  0  0  0  0
 34 35  1  0  0  0  0
 35 36  2  0  0  0  0
 38 39  2  0  0  0  0
 38 43  1  0  0  0  0
 39 40  1  0  0  0  0
 40 41  2  0  0  0  0
 41 34  1  0  0  0  0
 42 41  1  0  0  0  0
 43 42  2  0  0  0  0
 44 45  2  0  0  0  0
 45 38  1  0  0  0  0
 46 47  2  0  0  0  0
 47 44  1  0  0  0  0
 48 47  1  0  0  0  0
M  END
>  <minimizedAffinity>
-9.85988045

$$$$
