
 OpenBabel09182209113D

 48 54  0  0  0  0  0  0  0  0999 V2000
    4.5260  -13.0290    1.9930 N   0  0  0  0  0  0  0  0  0  0  0  0
    3.8920  -11.9090    1.5230 C   0  0  0  0  0  0  0  0  0  0  0  0
    3.8200  -11.7340    0.3080 O   0  0  0  0  0  0  0  0  0  0  0  0
    4.9410  -13.5310    1.2170 H   0  0  0  0  0  0  0  0  0  0  0  0
    3.2270  -10.9370    2.4150 C   0  0  0  0  0  0  0  0  0  0  0  0
    3.9980   -9.8890    2.9120 C   0  0  0  0  0  3  0  0  0  0  0  0
    3.4430   -8.9570    3.7960 C   0  0  0  0  0  3  0  0  0  0  0  0
    2.0880   -9.0650    4.1810 C   0  0  0  0  0  0  0  0  0  0  0  0
    1.2330   -8.3090    5.0580 C   0  0  0  0  0  0  0  0  0  0  0  0
   -0.0620   -8.8360    4.9320 C   0  0  0  0  0  0  0  0  0  0  0  0
    0.0650   -9.9890    4.1830 N   0  0  0  0  0  0  0  0  0  0  0  0
    1.3390  -10.1240    3.6740 C   0  0  0  0  0  0  0  0  0  0  0  0
    1.9010  -11.0980    2.8240 C   0  0  0  0  0  3  0  0  0  0  0  0
   -1.0040  -10.9590    4.0000 C   0  0  0  0  0  2  0  0  0  0  0  0
   -1.6330  -11.2750    5.3440 C   0  0  0  0  0  2  0  0  0  0  0  0
   -2.7260  -10.4130    5.6390 O   0  0  0  0  0  0  0  0  0  0  0  0
   -2.5000   -9.0710    5.7310 C   0  0  0  0  0  0  0  0  0  0  0  0
   -3.6420   -8.3760    6.1560 C   0  0  0  0  0  3  0  0  0  0  0  0
   -3.6300   -6.9930    6.2790 C   0  0  0  0  0  3  0  0  0  0  0  0
   -2.4620   -6.3370    5.9590 C   0  0  0  0  0  3  0  0  0  0  0  0
   -1.3450   -6.9650    5.5450 N   0  0  0  0  0  0  0  0  0  0  0  0
   -1.3530   -8.3250    5.4430 C   0  0  0  0  0  0  0  0  0  0  0  0
    1.6530   -7.1420    5.9330 C   0  0  0  0  0  3  0  0  0  0  0  0
    2.6370   -7.5600    7.0430 C   0  0  0  0  0  2  0  0  0  0  0  0
    3.0150   -6.3770    7.9310 C   0  0  0  0  0  2  0  0  0  0  0  0
    3.5610   -5.2130    7.1100 C   0  0  0  0  0  2  0  0  0  0  0  0
    2.5850   -4.7870    6.0170 C   0  0  0  0  0  2  0  0  0  0  0  0
    2.1960   -5.9600    5.1170 C   0  0  0  0  0  2  0  0  0  0  0  0
    4.6940  -13.6070    3.3420 C   0  0  0  0  0  0  0  0  0  0  0  0
    3.3240  -13.6710    4.0830 C   0  0  0  0  0  2  0  0  0  0  0  0
    3.4340  -12.7910    5.3260 C   0  0  0  0  0  2  0  0  0  0  0  0
    4.9130  -12.7630    5.6340 C   0  0  0  0  0  2  0  0  0  0  0  0
    5.5340  -12.6660    4.2500 C   0  0  0  0  0  2  0  0  0  0  0  0
    5.1680  -15.9460    2.3120 N   0  0  0  0  0  0  0  0  0  0  0  0
    5.3090  -15.0440    3.3240 C   0  0  0  0  0  0  0  0  0  0  0  0
    5.9500  -15.4610    4.3010 O   0  0  0  0  0  0  0  0  0  0  0  0
    5.7950  -16.7260    2.4640 H   0  0  0  0  0  0  0  0  0  0  0  0
    3.0510  -16.3530   -1.3310 C   0  0  0  0  0  0  0  0  0  0  0  0
    2.3440  -16.1860   -0.1380 C   0  0  0  0  0  3  0  0  0  0  0  0
    3.0130  -16.0490    1.0880 C   0  0  0  0  0  3  0  0  0  0  0  0
    4.4000  -16.0430    1.1420 C   0  0  0  0  0  0  0  0  0  0  0  0
    5.1110  -16.2310   -0.0510 C   0  0  0  0  0  3  0  0  0  0  0  0
    4.4470  -16.3670   -1.2760 C   0  0  0  0  0  3  0  0  0  0  0  0
    1.9180  -15.4370   -3.3550 C   0  0  0  0  0  3  0  0  0  0  0  0
    2.3050  -16.4710   -2.5900 C   0  0  0  0  0  3  0  0  0  0  0  0
    1.6060  -15.0180   -5.6750 O   0  0  0  0  0  0  0  0  0  0  0  0
    1.1560  -15.6270   -4.6660 C   0  0  0  0  0  0  0  0  0  0  0  0
    0.1480  -16.3830   -4.5600 O   0  0  0  0  0  1  0  0  0  0  0  0
  1 29  1  0  0  0  0
  2  1  1  0  0  0  0
  2  5  1  0  0  0  0
  3  2  2  0  0  0  0
  4  1  1  0  0  0  0
  5 13  2  0  0  0  0
  5  6  1  0  0  0  0
  6  7  2  0  0  0  0
  7  8  1  0  0  0  0
  8  9  1  0  0  0  0
  9 23  1  0  0  0  0
 10  9  2  0  0  0  0
 10 22  1  0  0  0  0
 11 10  1  0  0  0  0
 12  8  2  0  0  0  0
 12 11  1  0  0  0  0
 13 12  1  0  0  0  0
 14 11  1  0  0  0  0
 14 15  1  0  0  0  0
 15 16  1  0  0  0  0
 16 17  1  0  0  0  0
 17 18  1  0  0  0  0
 18 19  2  0  0  0  0
 20 19  1  0  0  0  0
 21 20  2  0  0  0  0
 22 21  1  0  0  0  0
 22 17  2  0  0  0  0
 23 24  1  0  0  0  0
 24 25  1  0  0  0  0
 26 25  1  0  0  0  0
 27 26  1  0  0  0  0
 28 23  1  0  0  0  0
 28 27  1  0  0  0  0
 29 30  1  0  0  0  0
 29 33  1  0  0  0  0
 30 31  1  0  0  0  0
 31 32  1  0  0  0  0
 33 32  1  0  0  0  0
 34 37  1  0  0  0  0
 34 35  1  0  0  0  0
 35 29  1  0  0  0  0
 35 36  2  0  0  0  0
 38 43  2  0  0  0  0
 38 39  1  0  0  0  0
 39 40  2  0  0  0  0
 40 41  1  0  0  0  0
 41 34  1  0  0  0  0
 42 41  2  0  0  0  0
 43 42  1  0  0  0  0
 44 45  2  0  0  0  0
 45 38  1  0  0  0  0
 46 47  2  0  0  0  0
 47 48  1  0  0  0  0
 47 44  1  0  0  0  0
M  END
>  <minimizedAffinity>
-7.90874577

$$$$
