
 OpenBabel09142202283D

 48 54  0  0  0  0  0  0  0  0999 V2000
    2.3280  -12.0280    3.7280 N   0  0  0  0  0  0  0  0  0  0  0  0
    1.7630  -10.8560    3.2970 C   0  0  0  0  0  0  0  0  0  0  0  0
    0.5840  -10.8580    2.9510 O   0  0  0  0  0  0  0  0  0  0  0  0
    1.6660  -12.7850    3.6060 H   0  0  0  0  0  0  0  0  0  0  0  0
    2.4950   -9.5720    3.2990 C   0  0  0  0  0  0  0  0  0  0  0  0
    2.2230   -8.6810    4.3350 C   0  0  0  0  0  3  0  0  0  0  0  0
    2.8480   -7.4290    4.3750 C   0  0  0  0  0  3  0  0  0  0  0  0
    3.7720   -7.0650    3.3710 C   0  0  0  0  0  0  0  0  0  0  0  0
    4.5560   -5.8870    3.1110 C   0  0  0  0  0  0  0  0  0  0  0  0
    5.3880   -6.1740    2.0180 C   0  0  0  0  0  0  0  0  0  0  0  0
    4.9600   -7.3880    1.5180 N   0  0  0  0  0  0  0  0  0  0  0  0
    4.0220   -7.9720    2.3430 C   0  0  0  0  0  0  0  0  0  0  0  0
    3.3610   -9.2130    2.2640 C   0  0  0  0  0  3  0  0  0  0  0  0
    5.4100   -7.9480    0.2540 C   0  0  0  0  0  2  0  0  0  0  0  0
    5.3380   -6.8840   -0.8240 C   0  0  0  0  0  2  0  0  0  0  0  0
    6.5520   -6.1510   -0.9370 O   0  0  0  0  0  0  0  0  0  0  0  0
    6.9970   -5.4440    0.1420 C   0  0  0  0  0  0  0  0  0  0  0  0
    8.1280   -4.6750   -0.1670 C   0  0  0  0  0  3  0  0  0  0  0  0
    8.7560   -3.9090    0.8060 C   0  0  0  0  0  3  0  0  0  0  0  0
    8.2330   -3.9440    2.0790 C   0  0  0  0  0  3  0  0  0  0  0  0
    7.1500   -4.6710    2.4180 N   0  0  0  0  0  0  0  0  0  0  0  0
    6.5230   -5.4070    1.4570 C   0  0  0  0  0  0  0  0  0  0  0  0
    4.5070   -4.5870    3.8930 C   0  0  0  0  0  3  0  0  0  0  0  0
    3.1220   -3.9130    3.8360 C   0  0  0  0  0  2  0  0  0  0  0  0
    3.1100   -2.5920    4.5990 C   0  0  0  0  0  2  0  0  0  0  0  0
    3.5840   -2.7710    6.0380 C   0  0  0  0  0  2  0  0  0  0  0  0
    4.9610   -3.4270    6.1000 C   0  0  0  0  0  2  0  0  0  0  0  0
    4.9910   -4.7530    5.3420 C   0  0  0  0  0  2  0  0  0  0  0  0
    3.6420  -12.3640    4.3130 C   0  0  0  0  0  0  0  0  0  0  0  0
    3.7710  -13.9040    4.5190 C   0  0  0  0  0  2  0  0  0  0  0  0
    3.9450  -14.1530    6.0140 C   0  0  0  0  0  2  0  0  0  0  0  0
    4.5320  -12.8650    6.5420 C   0  0  0  0  0  2  0  0  0  0  0  0
    3.7650  -11.8110    5.7600 C   0  0  0  0  0  2  0  0  0  0  0  0
    4.9990  -12.1370    2.1070 N   0  0  0  0  0  0  0  0  0  0  0  0
    4.8450  -11.8850    3.4380 C   0  0  0  0  0  0  0  0  0  0  0  0
    5.7820  -11.2550    3.9550 O   0  0  0  0  0  0  0  0  0  0  0  0
    5.7620  -11.5800    1.7430 H   0  0  0  0  0  0  0  0  0  0  0  0
    3.1060  -14.3780   -0.9440 C   0  0  0  0  0  0  0  0  0  0  0  0
    3.7360  -15.0440    0.1110 C   0  0  0  0  0  3  0  0  0  0  0  0
    4.3740  -14.3340    1.1380 C   0  0  0  0  0  3  0  0  0  0  0  0
    4.3670  -12.9450    1.1510 C   0  0  0  0  0  0  0  0  0  0  0  0
    3.7540  -12.2760    0.0830 C   0  0  0  0  0  3  0  0  0  0  0  0
    3.1150  -12.9820   -0.9430 C   0  0  0  0  0  3  0  0  0  0  0  0
    2.0540  -14.6970   -3.1830 C   0  0  0  0  0  3  0  0  0  0  0  0
    2.4340  -15.1670   -1.9840 C   0  0  0  0  0  3  0  0  0  0  0  0
    0.6050  -16.4790   -3.7970 O   0  0  0  0  0  1  0  0  0  0  0  0
    1.3710  -15.5760   -4.2300 C   0  0  0  0  0  0  0  0  0  0  0  0
    1.6780  -15.2760   -5.4200 O   0  0  0  0  0  0  0  0  0  0  0  0
  1 29  1  0  0  0  0
  2  5  1  0  0  0  0
  2  1  1  0  0  0  0
  3  2  2  0  0  0  0
  4  1  1  0  0  0  0
  5  6  1  0  0  0  0
  6  7  2  0  0  0  0
  8  7  1  0  0  0  0
  9  8  1  0  0  0  0
  9 23  1  0  0  0  0
 10  9  2  0  0  0  0
 11 10  1  0  0  0  0
 11 12  1  0  0  0  0
 12  8  2  0  0  0  0
 13 12  1  0  0  0  0
 13  5  2  0  0  0  0
 14 11  1  0  0  0  0
 15 14  1  0  0  0  0
 16 15  1  0  0  0  0
 16 17  1  0  0  0  0
 17 22  1  0  0  0  0
 18 17  2  0  0  0  0
 18 19  1  0  0  0  0
 19 20  2  0  0  0  0
 20 21  1  0  0  0  0
 22 10  1  0  0  0  0
 22 21  2  0  0  0  0
 23 28  1  0  0  0  0
 24 23  1  0  0  0  0
 24 25  1  0  0  0  0
 25 26  1  0  0  0  0
 26 27  1  0  0  0  0
 28 27  1  0  0  0  0
 29 30  1  0  0  0  0
 29 33  1  0  0  0  0
 30 31  1  0  0  0  0
 31 32  1  0  0  0  0
 33 32  1  0  0  0  0
 34 35  1  0  0  0  0
 35 36  2  0  0  0  0
 35 29  1  0  0  0  0
 37 34  1  0  0  0  0
 38 43  2  0  0  0  0
 38 39  1  0  0  0  0
 39 40  2  0  0  0  0
 40 41  1  0  0  0  0
 41 34  1  0  0  0  0
 42 41  2  0  0  0  0
 43 42  1  0  0  0  0
 44 45  2  0  0  0  0
 45 38  1  0  0  0  0
 47 46  1  0  0  0  0
 47 44  1  0  0  0  0
 48 47  2  0  0  0  0
M  END
>  <minimizedAffinity>
-10.4157743

$$$$

 OpenBabel09142202283D

 48 54  0  0  0  0  0  0  0  0999 V2000
    2.6480  -11.8970    3.7430 N   0  0  0  0  0  0  0  0  0  0  0  0
    2.1550  -10.7870    3.1070 C   0  0  0  0  0  0  0  0  0  0  0  0
    1.0790  -10.8690    2.5190 O   0  0  0  0  0  0  0  0  0  0  0  0
    2.0510  -12.6910    3.5430 H   0  0  0  0  0  0  0  0  0  0  0  0
    2.8300   -9.4740    3.1620 C   0  0  0  0  0  0  0  0  0  0  0  0
    2.4650   -8.6080    4.1900 C   0  0  0  0  0  3  0  0  0  0  0  0
    3.0330   -7.3310    4.2770 C   0  0  0  0  0  3  0  0  0  0  0  0
    3.9930   -6.9160    3.3270 C   0  0  0  0  0  0  0  0  0  0  0  0
    4.7380   -5.7030    3.1220 C   0  0  0  0  0  0  0  0  0  0  0  0
    5.6390   -5.9410    2.0730 C   0  0  0  0  0  0  0  0  0  0  0  0
    5.2910   -7.1650    1.5380 N   0  0  0  0  0  0  0  0  0  0  0  0
    4.3360   -7.7990    2.3060 C   0  0  0  0  0  0  0  0  0  0  0  0
    3.7340   -9.0660    2.1790 C   0  0  0  0  0  3  0  0  0  0  0  0
    5.8320   -7.6910    0.2950 C   0  0  0  0  0  2  0  0  0  0  0  0
    5.7710   -6.6170   -0.7750 C   0  0  0  0  0  2  0  0  0  0  0  0
    6.9570   -5.8330   -0.8140 O   0  0  0  0  0  0  0  0  0  0  0  0
    7.3130   -5.1210    0.2930 C   0  0  0  0  0  0  0  0  0  0  0  0
    8.4250   -4.3010    0.0540 C   0  0  0  0  0  3  0  0  0  0  0  0
    8.9670   -3.5210    1.0670 C   0  0  0  0  0  3  0  0  0  0  0  0
    8.3780   -3.5930    2.3090 C   0  0  0  0  0  3  0  0  0  0  0  0
    7.3120   -4.3700    2.5820 N   0  0  0  0  0  0  0  0  0  0  0  0
    6.7690   -5.1200    1.5820 C   0  0  0  0  0  0  0  0  0  0  0  0
    4.5930   -4.4160    3.9140 C   0  0  0  0  0  3  0  0  0  0  0  0
    3.1750   -3.8180    3.8150 C   0  0  0  0  0  2  0  0  0  0  0  0
    3.0650   -2.5070    4.5890 C   0  0  0  0  0  2  0  0  0  0  0  0
    3.4990   -2.6760    6.0420 C   0  0  0  0  0  2  0  0  0  0  0  0
    4.9070   -3.2570    6.1450 C   0  0  0  0  0  2  0  0  0  0  0  0
    5.0350   -4.5710    5.3770 C   0  0  0  0  0  2  0  0  0  0  0  0
    3.8130  -12.1280    4.6200 C   0  0  0  0  0  0  0  0  0  0  0  0
    3.5230  -11.6100    6.0610 C   0  0  0  0  0  2  0  0  0  0  0  0
    4.5330  -10.5060    6.3630 C   0  0  0  0  0  2  0  0  0  0  0  0
    5.7060  -10.8160    5.4620 C   0  0  0  0  0  2  0  0  0  0  0  0
    5.0240  -11.2590    4.1780 C   0  0  0  0  0  2  0  0  0  0  0  0
    4.3000  -14.4940    3.6600 N   0  0  0  0  0  0  0  0  0  0  0  0
    4.2240  -13.6330    4.7140 C   0  0  0  0  0  0  0  0  0  0  0  0
    4.4720  -14.1460    5.8170 O   0  0  0  0  0  0  0  0  0  0  0  0
    4.7490  -15.3530    3.9550 H   0  0  0  0  0  0  0  0  0  0  0  0
    2.9560  -14.5100   -0.3540 C   0  0  0  0  0  0  0  0  0  0  0  0
    4.0540  -13.7230    0.0030 C   0  0  0  0  0  3  0  0  0  0  0  0
    4.5260  -13.6920    1.3230 C   0  0  0  0  0  3  0  0  0  0  0  0
    3.9320  -14.4720    2.3070 C   0  0  0  0  0  0  0  0  0  0  0  0
    2.8180  -15.2460    1.9560 C   0  0  0  0  0  3  0  0  0  0  0  0
    2.3450  -15.2800    0.6380 C   0  0  0  0  0  3  0  0  0  0  0  0
    2.0650  -15.6060   -2.4090 C   0  0  0  0  0  3  0  0  0  0  0  0
    2.5150  -14.5230   -1.7540 C   0  0  0  0  0  3  0  0  0  0  0  0
    1.9740  -14.5500   -4.5380 O   0  0  0  0  0  0  0  0  0  0  0  0
    1.6040  -15.5510   -3.8660 C   0  0  0  0  0  0  0  0  0  0  0  0
    0.8910  -16.5380   -4.2080 O   0  0  0  0  0  1  0  0  0  0  0  0
  1 29  1  0  0  0  0
  2  5  1  0  0  0  0
  2  1  1  0  0  0  0
  3  2  2  0  0  0  0
  4  1  1  0  0  0  0
  5  6  1  0  0  0  0
  6  7  2  0  0  0  0
  8  7  1  0  0  0  0
  9  8  1  0  0  0  0
  9 23  1  0  0  0  0
 10  9  2  0  0  0  0
 11 10  1  0  0  0  0
 11 12  1  0  0  0  0
 12  8  2  0  0  0  0
 13 12  1  0  0  0  0
 13  5  2  0  0  0  0
 14 11  1  0  0  0  0
 15 14  1  0  0  0  0
 16 15  1  0  0  0  0
 16 17  1  0  0  0  0
 17 22  1  0  0  0  0
 18 17  2  0  0  0  0
 18 19  1  0  0  0  0
 19 20  2  0  0  0  0
 20 21  1  0  0  0  0
 22 10  1  0  0  0  0
 22 21  2  0  0  0  0
 23 28  1  0  0  0  0
 24 23  1  0  0  0  0
 24 25  1  0  0  0  0
 25 26  1  0  0  0  0
 26 27  1  0  0  0  0
 28 27  1  0  0  0  0
 29 35  1  0  0  0  0
 29 30  1  0  0  0  0
 30 31  1  0  0  0  0
 32 31  1  0  0  0  0
 33 29  1  0  0  0  0
 33 32  1  0  0  0  0
 34 37  1  0  0  0  0
 34 35  1  0  0  0  0
 35 36  2  0  0  0  0
 38 39  2  0  0  0  0
 38 43  1  0  0  0  0
 39 40  1  0  0  0  0
 40 41  2  0  0  0  0
 41 34  1  0  0  0  0
 42 41  1  0  0  0  0
 43 42  2  0  0  0  0
 44 45  2  0  0  0  0
 45 38  1  0  0  0  0
 46 47  2  0  0  0  0
 47 44  1  0  0  0  0
 48 47  1  0  0  0  0
M  END
>  <minimizedAffinity>
-9.85988045

$$$$

 OpenBabel09142202283D

 48 54  0  0  0  0  0  0  0  0999 V2000
    2.4330  -13.4290    3.1000 N   0  0  0  0  0  0  0  0  0  0  0  0
    1.7470  -12.3400    2.6320 C   0  0  0  0  0  0  0  0  0  0  0  0
    0.5750  -12.4800    2.2870 O   0  0  0  0  0  0  0  0  0  0  0  0
    1.8580  -14.2570    3.0020 H   0  0  0  0  0  0  0  0  0  0  0  0
    2.3350  -10.9850    2.5930 C   0  0  0  0  0  0  0  0  0  0  0  0
    3.0520  -10.6280    1.4530 C   0  0  0  0  0  3  0  0  0  0  0  0
    3.6720   -9.3770    1.3680 C   0  0  0  0  0  3  0  0  0  0  0  0
    3.5620   -8.4560    2.4350 C   0  0  0  0  0  0  0  0  0  0  0  0
    4.0730   -7.1330    2.6720 C   0  0  0  0  0  0  0  0  0  0  0  0
    3.5130   -6.6800    3.8770 C   0  0  0  0  0  0  0  0  0  0  0  0
    2.8740   -7.7690    4.4350 N   0  0  0  0  0  0  0  0  0  0  0  0
    2.8430   -8.8390    3.5650 C   0  0  0  0  0  0  0  0  0  0  0  0
    2.2590  -10.1150    3.6840 C   0  0  0  0  0  3  0  0  0  0  0  0
    2.3470   -7.7930    5.7910 C   0  0  0  0  0  2  0  0  0  0  0  0
    3.3920   -7.2520    6.7480 C   0  0  0  0  0  2  0  0  0  0  0  0
    3.2740   -5.8460    6.9310 O   0  0  0  0  0  0  0  0  0  0  0  0
    3.4160   -5.0260    5.8500 C   0  0  0  0  0  0  0  0  0  0  0  0
    3.4050   -3.6720    6.2150 C   0  0  0  0  0  3  0  0  0  0  0  0
    3.5010   -2.6750    5.2540 C   0  0  0  0  0  3  0  0  0  0  0  0
    3.5970   -3.0670    3.9380 C   0  0  0  0  0  3  0  0  0  0  0  0
    3.6090   -4.3560    3.5450 N   0  0  0  0  0  0  0  0  0  0  0  0
    3.5330   -5.3340    4.4910 C   0  0  0  0  0  0  0  0  0  0  0  0
    5.0200   -6.3620    1.7700 C   0  0  0  0  0  3  0  0  0  0  0  0
    6.4560   -6.9220    1.8040 C   0  0  0  0  0  2  0  0  0  0  0  0
    7.3950   -6.1090    0.9180 C   0  0  0  0  0  2  0  0  0  0  0  0
    6.8710   -6.0070   -0.5110 C   0  0  0  0  0  2  0  0  0  0  0  0
    5.4530   -5.4420   -0.5510 C   0  0  0  0  0  2  0  0  0  0  0  0
    4.4980   -6.2450    0.3300 C   0  0  0  0  0  2  0  0  0  0  0  0
    3.7750  -13.6030    3.6940 C   0  0  0  0  0  0  0  0  0  0  0  0
    3.7180  -13.4000    5.2390 C   0  0  0  0  0  2  0  0  0  0  0  0
    4.6070  -12.2070    5.5770 C   0  0  0  0  0  2  0  0  0  0  0  0
    5.6010  -12.1480    4.4410 C   0  0  0  0  0  2  0  0  0  0  0  0
    4.7380  -12.4730    3.2330 C   0  0  0  0  0  2  0  0  0  0  0  0
    4.4730  -15.5970    2.1810 N   0  0  0  0  0  0  0  0  0  0  0  0
    4.3980  -15.0070    3.4070 C   0  0  0  0  0  0  0  0  0  0  0  0
    4.8390  -15.6980    4.3400 O   0  0  0  0  0  0  0  0  0  0  0  0
    5.0670  -16.4160    2.2340 H   0  0  0  0  0  0  0  0  0  0  0  0
    2.6990  -14.9660   -1.6110 C   0  0  0  0  0  0  0  0  0  0  0  0
    3.7050  -14.1040   -1.1680 C   0  0  0  0  0  3  0  0  0  0  0  0
    4.3140  -14.2820    0.0840 C   0  0  0  0  0  3  0  0  0  0  0  0
    3.9540  -15.3440    0.9020 C   0  0  0  0  0  0  0  0  0  0  0  0
    2.9310  -16.1980    0.4690 C   0  0  0  0  0  3  0  0  0  0  0  0
    2.3230  -16.0240   -0.7790 C   0  0  0  0  0  3  0  0  0  0  0  0
    1.6890  -15.7230   -3.7620 C   0  0  0  0  0  3  0  0  0  0  0  0
    2.1090  -14.7500   -2.9370 C   0  0  0  0  0  3  0  0  0  0  0  0
    1.7650  -14.7590   -5.9340 O   0  0  0  0  0  0  0  0  0  0  0  0
    1.0670  -15.4300   -5.1270 C   0  0  0  0  0  0  0  0  0  0  0  0
   -0.0970  -15.9070   -5.2640 O   0  0  0  0  0  1  0  0  0  0  0  0
  1 29  1  0  0  0  0
  2  1  1  0  0  0  0
  3  2  2  0  0  0  0
  4  1  1  0  0  0  0
  5  2  1  0  0  0  0
  5 13  1  0  0  0  0
  6  5  2  0  0  0  0
  7  6  1  0  0  0  0
  7  8  2  0  0  0  0
  8  9  1  0  0  0  0
  8 12  1  0  0  0  0
  9 10  2  0  0  0  0
 10 11  1  0  0  0  0
 10 22  1  0  0  0  0
 11 14  1  0  0  0  0
 12 13  2  0  0  0  0
 12 11  1  0  0  0  0
 14 15  1  0  0  0  0
 15 16  1  0  0  0  0
 17 18  1  0  0  0  0
 17 16  1  0  0  0  0
 19 18  2  0  0  0  0
 20 19  1  0  0  0  0
 21 20  2  0  0  0  0
 21 22  1  0  0  0  0
 22 17  2  0  0  0  0
 23 24  1  0  0  0  0
 23  9  1  0  0  0  0
 25 24  1  0  0  0  0
 26 25  1  0  0  0  0
 27 26  1  0  0  0  0
 27 28  1  0  0  0  0
 28 23  1  0  0  0  0
 29 30  1  0  0  0  0
 30 31  1  0  0  0  0
 32 31  1  0  0  0  0
 33 29  1  0  0  0  0
 33 32  1  0  0  0  0
 34 37  1  0  0  0  0
 34 35  1  0  0  0  0
 35 29  1  0  0  0  0
 35 36  2  0  0  0  0
 38 39  2  0  0  0  0
 38 43  1  0  0  0  0
 39 40  1  0  0  0  0
 40 41  2  0  0  0  0
 41 34  1  0  0  0  0
 42 41  1  0  0  0  0
 43 42  2  0  0  0  0
 44 45  2  0  0  0  0
 45 38  1  0  0  0  0
 46 47  2  0  0  0  0
 47 44  1  0  0  0  0
 48 47  1  0  0  0  0
M  END
>  <minimizedAffinity>
-9.48142338

$$$$

 OpenBabel09142202283D

 48 54  0  0  0  0  0  0  0  0999 V2000
    1.8510  -11.6930    5.1110 N   0  0  0  0  0  0  0  0  0  0  0  0
    1.3750  -10.6450    4.3680 C   0  0  0  0  0  0  0  0  0  0  0  0
    0.2350  -10.7120    3.9110 O   0  0  0  0  0  0  0  0  0  0  0  0
    1.1780  -12.4490    5.0970 H   0  0  0  0  0  0  0  0  0  0  0  0
    2.1480   -9.4040    4.1530 C   0  0  0  0  0  0  0  0  0  0  0  0
    1.9780   -8.3740    5.0750 C   0  0  0  0  0  3  0  0  0  0  0  0
    2.6460   -7.1560    4.9090 C   0  0  0  0  0  3  0  0  0  0  0  0
    3.5130   -6.9660    3.8090 C   0  0  0  0  0  0  0  0  0  0  0  0
    4.3170   -5.8670    3.3460 C   0  0  0  0  0  0  0  0  0  0  0  0
    5.0640   -6.3300    2.2520 C   0  0  0  0  0  0  0  0  0  0  0  0
    4.5620   -7.5800    1.9460 N   0  0  0  0  0  0  0  0  0  0  0  0
    3.6620   -8.0100    2.8990 C   0  0  0  0  0  0  0  0  0  0  0  0
    2.9550   -9.2220    3.0270 C   0  0  0  0  0  3  0  0  0  0  0  0
    4.9060   -8.3200    0.7430 C   0  0  0  0  0  2  0  0  0  0  0  0
    4.7980   -7.4040   -0.4610 C   0  0  0  0  0  2  0  0  0  0  0  0
    6.0260   -6.7460   -0.7450 O   0  0  0  0  0  0  0  0  0  0  0  0
    6.5670   -5.9230    0.1990 C   0  0  0  0  0  0  0  0  0  0  0  0
    7.7000   -5.2500   -0.2800 C   0  0  0  0  0  3  0  0  0  0  0  0
    8.4190   -4.3910    0.5410 C   0  0  0  0  0  3  0  0  0  0  0  0
    7.9810   -4.2360    1.8370 C   0  0  0  0  0  3  0  0  0  0  0  0
    6.9000   -4.8660    2.3380 N   0  0  0  0  0  0  0  0  0  0  0  0
    6.1840   -5.6940    1.5250 C   0  0  0  0  0  0  0  0  0  0  0  0
    4.3660   -4.4750    3.9490 C   0  0  0  0  0  3  0  0  0  0  0  0
    2.9810   -3.8000    3.9930 C   0  0  0  0  0  2  0  0  0  0  0  0
    3.0630   -2.3900    4.5700 C   0  0  0  0  0  2  0  0  0  0  0  0
    3.7300   -2.3830    5.9420 C   0  0  0  0  0  2  0  0  0  0  0  0
    5.1070   -3.0390    5.9020 C   0  0  0  0  0  2  0  0  0  0  0  0
    5.0440   -4.4540    5.3280 C   0  0  0  0  0  2  0  0  0  0  0  0
    3.0890  -11.9010    5.8910 C   0  0  0  0  0  0  0  0  0  0  0  0
    3.3210  -10.7140    6.8750 C   0  0  0  0  0  2  0  0  0  0  0  0
    4.6380  -10.0480    6.4860 C   0  0  0  0  0  2  0  0  0  0  0  0
    5.4170  -11.1390    5.7890 C   0  0  0  0  0  2  0  0  0  0  0  0
    4.3410  -11.8400    4.9740 C   0  0  0  0  0  2  0  0  0  0  0  0
    3.5440  -14.4310    6.2770 N   0  0  0  0  0  0  0  0  0  0  0  0
    3.0790  -13.2280    6.7180 C   0  0  0  0  0  0  0  0  0  0  0  0
    2.5820  -13.2520    7.8550 O   0  0  0  0  0  0  0  0  0  0  0  0
    3.5820  -15.0830    7.0510 H   0  0  0  0  0  0  0  0  0  0  0  0
    4.6270  -16.0050    2.5000 C   0  0  0  0  0  0  0  0  0  0  0  0
    5.6120  -15.4620    3.3290 C   0  0  0  0  0  3  0  0  0  0  0  0
    5.2890  -14.9300    4.5870 C   0  0  0  0  0  3  0  0  0  0  0  0
    3.9820  -14.9610    5.0550 C   0  0  0  0  0  0  0  0  0  0  0  0
    2.9900  -15.4870    4.2170 C   0  0  0  0  0  3  0  0  0  0  0  0
    3.3090  -16.0190    2.9620 C   0  0  0  0  0  3  0  0  0  0  0  0
    4.5700  -16.1430    0.0110 C   0  0  0  0  0  3  0  0  0  0  0  0
    5.0200  -16.5690    1.2030 C   0  0  0  0  0  3  0  0  0  0  0  0
    4.1290  -17.1070   -2.1180 O   0  0  0  0  0  0  0  0  0  0  0  0
    5.0320  -16.7620   -1.3080 C   0  0  0  0  0  0  0  0  0  0  0  0
    6.2900  -16.8530   -1.4110 O   0  0  0  0  0  1  0  0  0  0  0  0
  1 29  1  0  0  0  0
  2  1  1  0  0  0  0
  3  2  2  0  0  0  0
  4  1  1  0  0  0  0
  5  2  1  0  0  0  0
  5  6  1  0  0  0  0
  7  6  2  0  0  0  0
  8  7  1  0  0  0  0
  9  8  1  0  0  0  0
  9 23  1  0  0  0  0
 10  9  2  0  0  0  0
 11 10  1  0  0  0  0
 11 12  1  0  0  0  0
 12 13  1  0  0  0  0
 12  8  2  0  0  0  0
 13  5  2  0  0  0  0
 14 11  1  0  0  0  0
 15 14  1  0  0  0  0
 16 15  1  0  0  0  0
 16 17  1  0  0  0  0
 17 22  1  0  0  0  0
 18 17  2  0  0  0  0
 18 19  1  0  0  0  0
 19 20  2  0  0  0  0
 20 21  1  0  0  0  0
 22 10  1  0  0  0  0
 22 21  2  0  0  0  0
 23 24  1  0  0  0  0
 23 28  1  0  0  0  0
 24 25  1  0  0  0  0
 25 26  1  0  0  0  0
 27 26  1  0  0  0  0
 28 27  1  0  0  0  0
 29 35  1  0  0  0  0
 29 30  1  0  0  0  0
 31 30  1  0  0  0  0
 32 31  1  0  0  0  0
 33 32  1  0  0  0  0
 33 29  1  0  0  0  0
 34 35  1  0  0  0  0
 34 37  1  0  0  0  0
 35 36  2  0  0  0  0
 38 43  2  0  0  0  0
 38 39  1  0  0  0  0
 39 40  2  0  0  0  0
 40 41  1  0  0  0  0
 41 34  1  0  0  0  0
 42 41  2  0  0  0  0
 43 42  1  0  0  0  0
 44 45  2  0  0  0  0
 45 38  1  0  0  0  0
 46 47  2  0  0  0  0
 47 44  1  0  0  0  0
 48 47  1  0  0  0  0
M  END
>  <minimizedAffinity>
-8.81106186

$$$$

 OpenBabel09142202283D

 48 54  0  0  0  0  0  0  0  0999 V2000
    4.8060  -11.1070    2.2490 N   0  0  0  0  0  0  0  0  0  0  0  0
    4.6560  -10.7600    3.5660 C   0  0  0  0  0  0  0  0  0  0  0  0
    5.6430  -10.3860    4.1960 O   0  0  0  0  0  0  0  0  0  0  0  0
    5.7890  -11.0830    2.0040 H   0  0  0  0  0  0  0  0  0  0  0  0
    3.3420  -10.7470    4.2410 C   0  0  0  0  0  0  0  0  0  0  0  0
    2.6730   -9.5270    4.3190 C   0  0  0  0  0  3  0  0  0  0  0  0
    1.4440   -9.4340    4.9820 C   0  0  0  0  0  3  0  0  0  0  0  0
    0.8640  -10.5820    5.5670 C   0  0  0  0  0  0  0  0  0  0  0  0
   -0.3410  -10.8250    6.3130 C   0  0  0  0  0  0  0  0  0  0  0  0
   -0.4310  -12.2110    6.5190 C   0  0  0  0  0  0  0  0  0  0  0  0
    0.7760  -12.7380    6.1050 N   0  0  0  0  0  0  0  0  0  0  0  0
    1.5560  -11.7880    5.4800 C   0  0  0  0  0  0  0  0  0  0  0  0
    2.8170  -11.8840    4.8600 C   0  0  0  0  0  3  0  0  0  0  0  0
    1.1860  -14.1130    6.3470 C   0  0  0  0  0  2  0  0  0  0  0  0
    0.9310  -14.4670    7.7990 C   0  0  0  0  0  2  0  0  0  0  0  0
   -0.3640  -15.0210    7.9970 O   0  0  0  0  0  0  0  0  0  0  0  0
   -1.4580  -14.2670    7.6840 C   0  0  0  0  0  0  0  0  0  0  0  0
   -2.6520  -14.8980    8.0570 C   0  0  0  0  0  3  0  0  0  0  0  0
   -3.8820  -14.3100    7.7920 C   0  0  0  0  0  3  0  0  0  0  0  0
   -3.8790  -13.0950    7.1450 C   0  0  0  0  0  3  0  0  0  0  0  0
   -2.7550  -12.4560    6.7670 N   0  0  0  0  0  0  0  0  0  0  0  0
   -1.5480  -13.0260    7.0450 C   0  0  0  0  0  0  0  0  0  0  0  0
   -1.3420   -9.7780    6.7670 C   0  0  0  0  0  3  0  0  0  0  0  0
   -0.6940   -8.6750    7.6280 C   0  0  0  0  0  2  0  0  0  0  0  0
   -1.7270   -7.6550    8.1010 C   0  0  0  0  0  2  0  0  0  0  0  0
   -2.5070   -7.0640    6.9310 C   0  0  0  0  0  2  0  0  0  0  0  0
   -3.1600   -8.1510    6.0820 C   0  0  0  0  0  2  0  0  0  0  0  0
   -2.1410   -9.1810    5.5980 C   0  0  0  0  0  2  0  0  0  0  0  0
    3.8510  -11.4770    1.1840 C   0  0  0  0  0  0  0  0  0  0  0  0
    3.2210  -12.8730    1.4750 C   0  0  0  0  0  2  0  0  0  0  0  0
    3.6140  -13.8020    0.3300 C   0  0  0  0  0  2  0  0  0  0  0  0
    3.8730  -12.8720   -0.8320 C   0  0  0  0  0  2  0  0  0  0  0  0
    4.5850  -11.7050   -0.1670 C   0  0  0  0  0  2  0  0  0  0  0  0
    2.8570   -9.1160    0.7470 N   0  0  0  0  0  0  0  0  0  0  0  0
    2.6920  -10.4430    1.0100 C   0  0  0  0  0  0  0  0  0  0  0  0
    1.5110  -10.7970    1.1540 O   0  0  0  0  0  0  0  0  0  0  0  0
    1.9620   -8.7030    0.5130 H   0  0  0  0  0  0  0  0  0  0  0  0
    6.1320   -6.4370    0.8840 C   0  0  0  0  0  0  0  0  0  0  0  0
    5.7870   -7.0440   -0.3270 C   0  0  0  0  0  3  0  0  0  0  0  0
    4.7090   -7.9380   -0.4090 C   0  0  0  0  0  3  0  0  0  0  0  0
    3.9330   -8.2170    0.7090 C   0  0  0  0  0  0  0  0  0  0  0  0
    4.2900   -7.6260    1.9280 C   0  0  0  0  0  3  0  0  0  0  0  0
    5.3640   -6.7330    2.0130 C   0  0  0  0  0  3  0  0  0  0  0  0
    8.0150   -5.1680   -0.1470 C   0  0  0  0  0  3  0  0  0  0  0  0
    7.2560   -5.4930    0.9120 C   0  0  0  0  0  3  0  0  0  0  0  0
    9.9400   -4.1010   -1.0460 O   0  0  0  0  0  0  0  0  0  0  0  0
    9.1630   -4.1630   -0.0550 C   0  0  0  0  0  0  0  0  0  0  0  0
    9.1830   -3.5160    1.0310 O   0  0  0  0  0  1  0  0  0  0  0  0
  1  2  1  0  0  0  0
  2  3  2  0  0  0  0
  2  5  1  0  0  0  0
  4  1  1  0  0  0  0
  5  6  2  0  0  0  0
  5 13  1  0  0  0  0
  6  7  1  0  0  0  0
  7  8  2  0  0  0  0
  8  9  1  0  0  0  0
  9 10  2  0  0  0  0
  9 23  1  0  0  0  0
 10 22  1  0  0  0  0
 11 14  1  0  0  0  0
 11 10  1  0  0  0  0
 12  8  1  0  0  0  0
 12 11  1  0  0  0  0
 13 12  2  0  0  0  0
 14 15  1  0  0  0  0
 15 16  1  0  0  0  0
 17 16  1  0  0  0  0
 17 18  1  0  0  0  0
 19 18  2  0  0  0  0
 20 19  1  0  0  0  0
 21 22  1  0  0  0  0
 21 20  2  0  0  0  0
 22 17  2  0  0  0  0
 23 24  1  0  0  0  0
 24 25  1  0  0  0  0
 26 25  1  0  0  0  0
 27 26  1  0  0  0  0
 28 27  1  0  0  0  0
 28 23  1  0  0  0  0
 29 30  1  0  0  0  0
 29  1  1  0  0  0  0
 31 30  1  0  0  0  0
 32 33  1  0  0  0  0
 32 31  1  0  0  0  0
 33 29  1  0  0  0  0
 34 35  1  0  0  0  0
 35 36  2  0  0  0  0
 35 29  1  0  0  0  0
 37 34  1  0  0  0  0
 38 45  1  0  0  0  0
 38 43  1  0  0  0  0
 39 38  2  0  0  0  0
 40 39  1  0  0  0  0
 40 41  2  0  0  0  0
 41 34  1  0  0  0  0
 41 42  1  0  0  0  0
 42 43  2  0  0  0  0
 44 47  1  0  0  0  0
 44 45  2  0  0  0  0
 46 47  2  0  0  0  0
 47 48  1  0  0  0  0
M  END
>  <minimizedAffinity>
-8.26670074

$$$$

 OpenBabel09142202283D

 48 54  0  0  0  0  0  0  0  0999 V2000
    4.2960   -9.1260    4.7780 N   0  0  0  0  0  0  0  0  0  0  0  0
    4.8560  -10.3690    4.9190 C   0  0  0  0  0  0  0  0  0  0  0  0
    5.9720  -10.4620    5.4250 O   0  0  0  0  0  0  0  0  0  0  0  0
    4.9690   -8.4210    5.0520 H   0  0  0  0  0  0  0  0  0  0  0  0
    4.1420  -11.6100    4.5550 C   0  0  0  0  0  0  0  0  0  0  0  0
    3.4520  -12.2740    5.5670 C   0  0  0  0  0  3  0  0  0  0  0  0
    2.7890  -13.4780    5.3010 C   0  0  0  0  0  3  0  0  0  0  0  0
    2.8030  -14.0230    3.9970 C   0  0  0  0  0  0  0  0  0  0  0  0
    2.2550  -15.2130    3.4040 C   0  0  0  0  0  0  0  0  0  0  0  0
    2.5010  -15.1410    2.0240 C   0  0  0  0  0  0  0  0  0  0  0  0
    3.3460  -14.0650    1.8410 N   0  0  0  0  0  0  0  0  0  0  0  0
    3.5040  -13.3420    3.0050 C   0  0  0  0  0  0  0  0  0  0  0  0
    4.2180  -12.1570    3.2720 C   0  0  0  0  0  3  0  0  0  0  0  0
    4.0200  -13.7670    0.5870 C   0  0  0  0  0  2  0  0  0  0  0  0
    4.6590  -15.0320    0.0450 C   0  0  0  0  0  2  0  0  0  0  0  0
    3.7830  -15.7480   -0.8170 O   0  0  0  0  0  0  0  0  0  0  0  0
    2.5990  -16.2090   -0.3190 C   0  0  0  0  0  0  0  0  0  0  0  0
    1.9140  -17.0030   -1.2490 C   0  0  0  0  0  3  0  0  0  0  0  0
    0.6680  -17.5390   -0.9480 C   0  0  0  0  0  3  0  0  0  0  0  0
    0.1360  -17.2530    0.2890 C   0  0  0  0  0  3  0  0  0  0  0  0
    0.7600  -16.4930    1.2100 N   0  0  0  0  0  0  0  0  0  0  0  0
    1.9900  -15.9830    0.9200 C   0  0  0  0  0  0  0  0  0  0  0  0
    1.5240  -16.3250    4.1350 C   0  0  0  0  0  3  0  0  0  0  0  0
    2.4120  -17.0290    5.1800 C   0  0  0  0  0  2  0  0  0  0  0  0
    1.6660  -18.1650    5.8740 C   0  0  0  0  0  2  0  0  0  0  0  0
    0.3560  -17.6820    6.4900 C   0  0  0  0  0  2  0  0  0  0  0  0
   -0.5320  -16.9940    5.4560 C   0  0  0  0  0  2  0  0  0  0  0  0
    0.1990  -15.8520    4.7520 C   0  0  0  0  0  2  0  0  0  0  0  0
    2.9650   -8.6590    4.3370 C   0  0  0  0  0  0  0  0  0  0  0  0
    2.9430   -7.1050    4.2210 C   0  0  0  0  0  2  0  0  0  0  0  0
    1.9040   -6.5860    5.2120 C   0  0  0  0  0  2  0  0  0  0  0  0
    0.9510   -7.7440    5.3940 C   0  0  0  0  0  2  0  0  0  0  0  0
    1.8890   -8.9400    5.4230 C   0  0  0  0  0  2  0  0  0  0  0  0
    3.1800   -9.0740    1.7810 N   0  0  0  0  0  0  0  0  0  0  0  0
    2.5270   -9.2590    2.9630 C   0  0  0  0  0  0  0  0  0  0  0  0
    1.4870   -9.9330    2.8780 O   0  0  0  0  0  0  0  0  0  0  0  0
    2.7980   -9.6990    1.0810 H   0  0  0  0  0  0  0  0  0  0  0  0
    6.1650   -6.4690    0.2910 C   0  0  0  0  0  0  0  0  0  0  0  0
    6.4740   -7.3480    1.3320 C   0  0  0  0  0  3  0  0  0  0  0  0
    5.5090   -8.2240    1.8510 C   0  0  0  0  0  3  0  0  0  0  0  0
    4.2270   -8.2640    1.3190 C   0  0  0  0  0  0  0  0  0  0  0  0
    3.9100   -7.3680    0.2890 C   0  0  0  0  0  3  0  0  0  0  0  0
    4.8700   -6.4940   -0.2320 C   0  0  0  0  0  3  0  0  0  0  0  0
    8.0740   -4.8810    0.5230 C   0  0  0  0  0  3  0  0  0  0  0  0
    7.2160   -5.5870   -0.2320 C   0  0  0  0  0  3  0  0  0  0  0  0
    9.5760   -3.0410    0.6320 O   0  0  0  0  0  1  0  0  0  0  0  0
    9.1600   -3.9920   -0.0830 C   0  0  0  0  0  0  0  0  0  0  0  0
    9.4990   -4.3340   -1.2530 O   0  0  0  0  0  0  0  0  0  0  0  0
  1  2  1  0  0  0  0
  1  4  1  0  0  0  0
  2  3  2  0  0  0  0
  5  2  1  0  0  0  0
  5  6  1  0  0  0  0
  7  6  2  0  0  0  0
  8  7  1  0  0  0  0
  9  8  1  0  0  0  0
  9 23  1  0  0  0  0
 10  9  2  0  0  0  0
 11 10  1  0  0  0  0
 11 12  1  0  0  0  0
 12 13  1  0  0  0  0
 12  8  2  0  0  0  0
 13  5  2  0  0  0  0
 14 11  1  0  0  0  0
 15 14  1  0  0  0  0
 16 17  1  0  0  0  0
 16 15  1  0  0  0  0
 17 22  1  0  0  0  0
 18 19  1  0  0  0  0
 18 17  2  0  0  0  0
 19 20  2  0  0  0  0
 20 21  1  0  0  0  0
 22 21  2  0  0  0  0
 22 10  1  0  0  0  0
 23 28  1  0  0  0  0
 23 24  1  0  0  0  0
 24 25  1  0  0  0  0
 25 26  1  0  0  0  0
 27 26  1  0  0  0  0
 28 27  1  0  0  0  0
 29  1  1  0  0  0  0
 29 33  1  0  0  0  0
 30 29  1  0  0  0  0
 30 31  1  0  0  0  0
 31 32  1  0  0  0  0
 32 33  1  0  0  0  0
 34 35  1  0  0  0  0
 35 29  1  0  0  0  0
 36 35  2  0  0  0  0
 37 34  1  0  0  0  0
 38 39  1  0  0  0  0
 39 40  2  0  0  0  0
 41 34  1  0  0  0  0
 41 40  1  0  0  0  0
 42 41  2  0  0  0  0
 43 42  1  0  0  0  0
 43 38  2  0  0  0  0
 45 38  1  0  0  0  0
 45 44  2  0  0  0  0
 47 44  1  0  0  0  0
 47 46  1  0  0  0  0
 48 47  2  0  0  0  0
M  END
>  <minimizedAffinity>
-8.22502232

$$$$

 OpenBabel09142202283D

 48 54  0  0  0  0  0  0  0  0999 V2000
    3.1750  -13.4760    2.0260 N   0  0  0  0  0  0  0  0  0  0  0  0
    2.3030  -12.4660    1.7120 C   0  0  0  0  0  0  0  0  0  0  0  0
    1.6340  -12.5570    0.6850 O   0  0  0  0  0  0  0  0  0  0  0  0
    3.1990  -14.1470    1.2670 H   0  0  0  0  0  0  0  0  0  0  0  0
    2.0790  -11.3040    2.5970 C   0  0  0  0  0  0  0  0  0  0  0  0
    0.8860  -11.2640    3.3140 C   0  0  0  0  0  3  0  0  0  0  0  0
    0.5900  -10.1720    4.1380 C   0  0  0  0  0  3  0  0  0  0  0  0
    1.5100   -9.1060    4.2600 C   0  0  0  0  0  0  0  0  0  0  0  0
    1.5110   -7.8630    4.9850 C   0  0  0  0  0  0  0  0  0  0  0  0
    2.7730   -7.2770    4.8030 C   0  0  0  0  0  0  0  0  0  0  0  0
    3.4100   -8.0310    3.8370 N   0  0  0  0  0  0  0  0  0  0  0  0
    2.6940   -9.1680    3.5290 C   0  0  0  0  0  0  0  0  0  0  0  0
    2.9790  -10.2370    2.6570 C   0  0  0  0  0  3  0  0  0  0  0  0
    4.6560   -7.6410    3.1950 C   0  0  0  0  0  2  0  0  0  0  0  0
    4.5640   -6.1940    2.7530 C   0  0  0  0  0  2  0  0  0  0  0  0
    5.0230   -5.2960    3.7560 O   0  0  0  0  0  0  0  0  0  0  0  0
    4.3860   -5.2730    4.9620 C   0  0  0  0  0  0  0  0  0  0  0  0
    4.8680   -4.2500    5.7900 C   0  0  0  0  0  3  0  0  0  0  0  0
    4.3740   -4.0810    7.0760 C   0  0  0  0  0  3  0  0  0  0  0  0
    3.4030   -4.9590    7.5050 C   0  0  0  0  0  3  0  0  0  0  0  0
    2.9150   -5.9570    6.7420 N   0  0  0  0  0  0  0  0  0  0  0  0
    3.3880   -6.1090    5.4730 C   0  0  0  0  0  0  0  0  0  0  0  0
    0.3680   -7.3070    5.8150 C   0  0  0  0  0  3  0  0  0  0  0  0
   -0.9610   -7.2650    5.0360 C   0  0  0  0  0  2  0  0  0  0  0  0
   -2.0860   -6.6690    5.8790 C   0  0  0  0  0  2  0  0  0  0  0  0
   -2.2410   -7.4040    7.2070 C   0  0  0  0  0  2  0  0  0  0  0  0
   -0.9300   -7.4380    7.9880 C   0  0  0  0  0  2  0  0  0  0  0  0
    0.2080   -8.0340    7.1590 C   0  0  0  0  0  2  0  0  0  0  0  0
    4.0250  -13.7520    3.2020 C   0  0  0  0  0  0  0  0  0  0  0  0
    3.2010  -13.6060    4.5170 C   0  0  0  0  0  2  0  0  0  0  0  0
    3.8350  -12.4820    5.3320 C   0  0  0  0  0  2  0  0  0  0  0  0
    5.2680  -12.4380    4.8570 C   0  0  0  0  0  2  0  0  0  0  0  0
    5.1240  -12.6650    3.3610 C   0  0  0  0  0  2  0  0  0  0  0  0
    4.6580  -16.0240    2.1100 N   0  0  0  0  0  0  0  0  0  0  0  0
    4.6630  -15.1780    3.1790 C   0  0  0  0  0  0  0  0  0  0  0  0
    5.1930  -15.6420    4.2010 O   0  0  0  0  0  0  0  0  0  0  0  0
    5.2770  -16.8040    2.2930 H   0  0  0  0  0  0  0  0  0  0  0  0
    2.5580  -16.2010   -1.5610 C   0  0  0  0  0  0  0  0  0  0  0  0
    3.7630  -15.4960   -1.4880 C   0  0  0  0  0  3  0  0  0  0  0  0
    4.4850  -15.4150   -0.2880 C   0  0  0  0  0  3  0  0  0  0  0  0
    4.0360  -16.0640    0.8540 C   0  0  0  0  0  0  0  0  0  0  0  0
    2.8180  -16.7540    0.7890 C   0  0  0  0  0  3  0  0  0  0  0  0
    2.0960  -16.8380   -0.4080 C   0  0  0  0  0  3  0  0  0  0  0  0
    1.7820  -15.2750   -3.7430 C   0  0  0  0  0  3  0  0  0  0  0  0
    1.8520  -16.2730   -2.8460 C   0  0  0  0  0  3  0  0  0  0  0  0
   -0.0630  -16.0250   -5.0430 O   0  0  0  0  0  1  0  0  0  0  0  0
    1.0430  -15.4200   -5.0730 C   0  0  0  0  0  0  0  0  0  0  0  0
    1.6570  -14.9040   -6.0510 O   0  0  0  0  0  0  0  0  0  0  0  0
  1 29  1  0  0  0  0
  2  1  1  0  0  0  0
  2  5  1  0  0  0  0
  3  2  2  0  0  0  0
  4  1  1  0  0  0  0
  5 13  2  0  0  0  0
  5  6  1  0  0  0  0
  6  7  2  0  0  0  0
  7  8  1  0  0  0  0
  8  9  1  0  0  0  0
  9 23  1  0  0  0  0
 10  9  2  0  0  0  0
 10 22  1  0  0  0  0
 11 10  1  0  0  0  0
 12 11  1  0  0  0  0
 12  8  2  0  0  0  0
 13 12  1  0  0  0  0
 14 11  1  0  0  0  0
 15 14  1  0  0  0  0
 15 16  1  0  0  0  0
 16 17  1  0  0  0  0
 17 22  2  0  0  0  0
 17 18  1  0  0  0  0
 18 19  2  0  0  0  0
 19 20  1  0  0  0  0
 21 20  2  0  0  0  0
 22 21  1  0  0  0  0
 23 28  1  0  0  0  0
 24 23  1  0  0  0  0
 24 25  1  0  0  0  0
 25 26  1  0  0  0  0
 26 27  1  0  0  0  0
 28 27  1  0  0  0  0
 29 33  1  0  0  0  0
 29 30  1  0  0  0  0
 30 31  1  0  0  0  0
 32 31  1  0  0  0  0
 33 32  1  0  0  0  0
 34 37  1  0  0  0  0
 34 35  1  0  0  0  0
 35 29  1  0  0  0  0
 35 36  2  0  0  0  0
 38 39  2  0  0  0  0
 38 43  1  0  0  0  0
 39 40  1  0  0  0  0
 40 41  2  0  0  0  0
 41 34  1  0  0  0  0
 42 41  1  0  0  0  0
 43 42  2  0  0  0  0
 44 45  2  0  0  0  0
 45 38  1  0  0  0  0
 47 46  1  0  0  0  0
 47 44  1  0  0  0  0
 48 47  2  0  0  0  0
M  END
>  <minimizedAffinity>
-8.1548624

$$$$

 OpenBabel09142202283D

 48 54  0  0  0  0  0  0  0  0999 V2000
    4.5260  -13.0290    1.9930 N   0  0  0  0  0  0  0  0  0  0  0  0
    3.8920  -11.9090    1.5230 C   0  0  0  0  0  0  0  0  0  0  0  0
    3.8200  -11.7340    0.3080 O   0  0  0  0  0  0  0  0  0  0  0  0
    4.9410  -13.5310    1.2170 H   0  0  0  0  0  0  0  0  0  0  0  0
    3.2270  -10.9370    2.4150 C   0  0  0  0  0  0  0  0  0  0  0  0
    3.9980   -9.8890    2.9120 C   0  0  0  0  0  3  0  0  0  0  0  0
    3.4430   -8.9570    3.7960 C   0  0  0  0  0  3  0  0  0  0  0  0
    2.0880   -9.0650    4.1810 C   0  0  0  0  0  0  0  0  0  0  0  0
    1.2330   -8.3090    5.0580 C   0  0  0  0  0  0  0  0  0  0  0  0
   -0.0620   -8.8360    4.9320 C   0  0  0  0  0  0  0  0  0  0  0  0
    0.0650   -9.9890    4.1830 N   0  0  0  0  0  0  0  0  0  0  0  0
    1.3390  -10.1240    3.6740 C   0  0  0  0  0  0  0  0  0  0  0  0
    1.9010  -11.0980    2.8240 C   0  0  0  0  0  3  0  0  0  0  0  0
   -1.0040  -10.9590    4.0000 C   0  0  0  0  0  2  0  0  0  0  0  0
   -1.6330  -11.2750    5.3440 C   0  0  0  0  0  2  0  0  0  0  0  0
   -2.7260  -10.4130    5.6390 O   0  0  0  0  0  0  0  0  0  0  0  0
   -2.5000   -9.0710    5.7310 C   0  0  0  0  0  0  0  0  0  0  0  0
   -3.6420   -8.3760    6.1560 C   0  0  0  0  0  3  0  0  0  0  0  0
   -3.6300   -6.9930    6.2790 C   0  0  0  0  0  3  0  0  0  0  0  0
   -2.4620   -6.3370    5.9590 C   0  0  0  0  0  3  0  0  0  0  0  0
   -1.3450   -6.9650    5.5450 N   0  0  0  0  0  0  0  0  0  0  0  0
   -1.3530   -8.3250    5.4430 C   0  0  0  0  0  0  0  0  0  0  0  0
    1.6530   -7.1420    5.9330 C   0  0  0  0  0  3  0  0  0  0  0  0
    2.6370   -7.5600    7.0430 C   0  0  0  0  0  2  0  0  0  0  0  0
    3.0150   -6.3770    7.9310 C   0  0  0  0  0  2  0  0  0  0  0  0
    3.5610   -5.2130    7.1100 C   0  0  0  0  0  2  0  0  0  0  0  0
    2.5850   -4.7870    6.0170 C   0  0  0  0  0  2  0  0  0  0  0  0
    2.1960   -5.9600    5.1170 C   0  0  0  0  0  2  0  0  0  0  0  0
    4.6940  -13.6070    3.3420 C   0  0  0  0  0  0  0  0  0  0  0  0
    3.3240  -13.6710    4.0830 C   0  0  0  0  0  2  0  0  0  0  0  0
    3.4340  -12.7910    5.3260 C   0  0  0  0  0  2  0  0  0  0  0  0
    4.9130  -12.7630    5.6340 C   0  0  0  0  0  2  0  0  0  0  0  0
    5.5340  -12.6660    4.2500 C   0  0  0  0  0  2  0  0  0  0  0  0
    5.1680  -15.9460    2.3120 N   0  0  0  0  0  0  0  0  0  0  0  0
    5.3090  -15.0440    3.3240 C   0  0  0  0  0  0  0  0  0  0  0  0
    5.9500  -15.4610    4.3010 O   0  0  0  0  0  0  0  0  0  0  0  0
    5.7950  -16.7260    2.4640 H   0  0  0  0  0  0  0  0  0  0  0  0
    3.0510  -16.3530   -1.3310 C   0  0  0  0  0  0  0  0  0  0  0  0
    2.3440  -16.1860   -0.1380 C   0  0  0  0  0  3  0  0  0  0  0  0
    3.0130  -16.0490    1.0880 C   0  0  0  0  0  3  0  0  0  0  0  0
    4.4000  -16.0430    1.1420 C   0  0  0  0  0  0  0  0  0  0  0  0
    5.1110  -16.2310   -0.0510 C   0  0  0  0  0  3  0  0  0  0  0  0
    4.4470  -16.3670   -1.2760 C   0  0  0  0  0  3  0  0  0  0  0  0
    1.9180  -15.4370   -3.3550 C   0  0  0  0  0  3  0  0  0  0  0  0
    2.3050  -16.4710   -2.5900 C   0  0  0  0  0  3  0  0  0  0  0  0
    1.6060  -15.0180   -5.6750 O   0  0  0  0  0  0  0  0  0  0  0  0
    1.1560  -15.6270   -4.6660 C   0  0  0  0  0  0  0  0  0  0  0  0
    0.1480  -16.3830   -4.5600 O   0  0  0  0  0  1  0  0  0  0  0  0
  1 29  1  0  0  0  0
  2  1  1  0  0  0  0
  2  5  1  0  0  0  0
  3  2  2  0  0  0  0
  4  1  1  0  0  0  0
  5 13  2  0  0  0  0
  5  6  1  0  0  0  0
  6  7  2  0  0  0  0
  7  8  1  0  0  0  0
  8  9  1  0  0  0  0
  9 23  1  0  0  0  0
 10  9  2  0  0  0  0
 10 22  1  0  0  0  0
 11 10  1  0  0  0  0
 12  8  2  0  0  0  0
 12 11  1  0  0  0  0
 13 12  1  0  0  0  0
 14 11  1  0  0  0  0
 14 15  1  0  0  0  0
 15 16  1  0  0  0  0
 16 17  1  0  0  0  0
 17 18  1  0  0  0  0
 18 19  2  0  0  0  0
 20 19  1  0  0  0  0
 21 20  2  0  0  0  0
 22 21  1  0  0  0  0
 22 17  2  0  0  0  0
 23 24  1  0  0  0  0
 24 25  1  0  0  0  0
 26 25  1  0  0  0  0
 27 26  1  0  0  0  0
 28 23  1  0  0  0  0
 28 27  1  0  0  0  0
 29 30  1  0  0  0  0
 29 33  1  0  0  0  0
 30 31  1  0  0  0  0
 31 32  1  0  0  0  0
 33 32  1  0  0  0  0
 34 37  1  0  0  0  0
 34 35  1  0  0  0  0
 35 29  1  0  0  0  0
 35 36  2  0  0  0  0
 38 43  2  0  0  0  0
 38 39  1  0  0  0  0
 39 40  2  0  0  0  0
 40 41  1  0  0  0  0
 41 34  1  0  0  0  0
 42 41  2  0  0  0  0
 43 42  1  0  0  0  0
 44 45  2  0  0  0  0
 45 38  1  0  0  0  0
 46 47  2  0  0  0  0
 47 48  1  0  0  0  0
 47 44  1  0  0  0  0
M  END
>  <minimizedAffinity>
-7.90874577

$$$$

 OpenBabel09142202283D

 48 54  0  0  0  0  0  0  0  0999 V2000
    4.0830  -11.3660    2.0260 N   0  0  0  0  0  0  0  0  0  0  0  0
    3.9360  -10.2250    1.2800 C   0  0  0  0  0  0  0  0  0  0  0  0
    3.4050  -10.3040    0.1740 O   0  0  0  0  0  0  0  0  0  0  0  0
    3.7910  -12.1660    1.4780 H   0  0  0  0  0  0  0  0  0  0  0  0
    4.3230   -8.8900    1.7820 C   0  0  0  0  0  0  0  0  0  0  0  0
    3.4940   -8.2960    2.7300 C   0  0  0  0  0  3  0  0  0  0  0  0
    3.7770   -7.0150    3.2160 C   0  0  0  0  0  3  0  0  0  0  0  0
    4.9180   -6.3180    2.7580 C   0  0  0  0  0  0  0  0  0  0  0  0
    5.4750   -5.0200    3.0310 C   0  0  0  0  0  0  0  0  0  0  0  0
    6.7040   -4.9450    2.3570 C   0  0  0  0  0  0  0  0  0  0  0  0
    6.7660   -6.0620    1.5470 N   0  0  0  0  0  0  0  0  0  0  0  0
    5.7290   -6.9330    1.8060 C   0  0  0  0  0  0  0  0  0  0  0  0
    5.4250   -8.2000    1.2710 C   0  0  0  0  0  3  0  0  0  0  0  0
    7.7750   -6.2640    0.5190 C   0  0  0  0  0  2  0  0  0  0  0  0
    7.9020   -5.0040   -0.3160 C   0  0  0  0  0  2  0  0  0  0  0  0
    8.8820   -4.1140    0.2020 O   0  0  0  0  0  0  0  0  0  0  0  0
    8.7190   -3.6130    1.4600 C   0  0  0  0  0  0  0  0  0  0  0  0
    9.6930   -2.6540    1.7720 C   0  0  0  0  0  3  0  0  0  0  0  0
    9.7230   -2.0500    3.0220 C   0  0  0  0  0  3  0  0  0  0  0  0
    8.7700   -2.4350    3.9380 C   0  0  0  0  0  3  0  0  0  0  0  0
    7.8190   -3.3540    3.6790 N   0  0  0  0  0  0  0  0  0  0  0  0
    7.7800   -3.9330    2.4460 C   0  0  0  0  0  0  0  0  0  0  0  0
    4.8580   -3.9450    3.9070 C   0  0  0  0  0  3  0  0  0  0  0  0
    3.3740   -3.6920    3.5760 C   0  0  0  0  0  2  0  0  0  0  0  0
    2.7880   -2.5840    4.4450 C   0  0  0  0  0  2  0  0  0  0  0  0
    2.9870   -2.8710    5.9300 C   0  0  0  0  0  2  0  0  0  0  0  0
    4.4560   -3.1100    6.2660 C   0  0  0  0  0  2  0  0  0  0  0  0
    5.0600   -4.2190    5.4050 C   0  0  0  0  0  2  0  0  0  0  0  0
    4.5530  -11.6210    3.4030 C   0  0  0  0  0  0  0  0  0  0  0  0
    3.3430  -11.7720    4.3740 C   0  0  0  0  0  2  0  0  0  0  0  0
    3.4440  -10.6550    5.4090 C   0  0  0  0  0  2  0  0  0  0  0  0
    4.9140  -10.3090    5.4420 C   0  0  0  0  0  2  0  0  0  0  0  0
    5.3020  -10.3850    3.9750 C   0  0  0  0  0  2  0  0  0  0  0  0
    5.2820  -14.0390    2.7850 N   0  0  0  0  0  0  0  0  0  0  0  0
    5.4400  -12.9030    3.5230 C   0  0  0  0  0  0  0  0  0  0  0  0
    6.3470  -12.9590    4.3680 O   0  0  0  0  0  0  0  0  0  0  0  0
    6.0780  -14.6490    2.9290 H   0  0  0  0  0  0  0  0  0  0  0  0
    2.2240  -15.5710    0.2930 C   0  0  0  0  0  0  0  0  0  0  0  0
    3.2880  -14.8650   -0.2750 C   0  0  0  0  0  3  0  0  0  0  0  0
    4.3180  -14.3420    0.5200 C   0  0  0  0  0  3  0  0  0  0  0  0
    4.3240  -14.5420    1.8950 C   0  0  0  0  0  0  0  0  0  0  0  0
    3.2470  -15.2320    2.4680 C   0  0  0  0  0  3  0  0  0  0  0  0
    2.2180  -15.7560    1.6770 C   0  0  0  0  0  3  0  0  0  0  0  0
    0.3210  -17.0900   -0.2470 C   0  0  0  0  0  3  0  0  0  0  0  0
    1.1820  -16.1170   -0.5860 C   0  0  0  0  0  3  0  0  0  0  0  0
   -0.4060  -17.7820   -2.4030 O   0  0  0  0  0  0  0  0  0  0  0  0
   -0.7550  -17.6040   -1.2040 C   0  0  0  0  0  0  0  0  0  0  0  0
   -1.8790  -17.7810   -0.6530 O   0  0  0  0  0  1  0  0  0  0  0  0
  1 29  1  0  0  0  0
  2  5  1  0  0  0  0
  2  1  1  0  0  0  0
  3  2  2  0  0  0  0
  4  1  1  0  0  0  0
  5  6  1  0  0  0  0
  6  7  2  0  0  0  0
  8  9  1  0  0  0  0
  8  7  1  0  0  0  0
  9 23  1  0  0  0  0
 10 22  1  0  0  0  0
 10  9  2  0  0  0  0
 11 12  1  0  0  0  0
 11 10  1  0  0  0  0
 12  8  2  0  0  0  0
 13  5  2  0  0  0  0
 13 12  1  0  0  0  0
 14 11  1  0  0  0  0
 15 16  1  0  0  0  0
 15 14  1  0  0  0  0
 16 17  1  0  0  0  0
 17 18  2  0  0  0  0
 17 22  1  0  0  0  0
 18 19  1  0  0  0  0
 19 20  2  0  0  0  0
 21 20  1  0  0  0  0
 22 21  2  0  0  0  0
 23 28  1  0  0  0  0
 24 23  1  0  0  0  0
 24 25  1  0  0  0  0
 25 26  1  0  0  0  0
 26 27  1  0  0  0  0
 28 27  1  0  0  0  0
 29 35  1  0  0  0  0
 29 33  1  0  0  0  0
 29 30  1  0  0  0  0
 30 31  1  0  0  0  0
 31 32  1  0  0  0  0
 33 32  1  0  0  0  0
 34 37  1  0  0  0  0
 34 35  1  0  0  0  0
 35 36  2  0  0  0  0
 38 43  1  0  0  0  0
 39 38  2  0  0  0  0
 39 40  1  0  0  0  0
 40 41  2  0  0  0  0
 41 42  1  0  0  0  0
 41 34  1  0  0  0  0
 43 42  2  0  0  0  0
 45 44  2  0  0  0  0
 45 38  1  0  0  0  0
 46 47  2  0  0  0  0
 47 48  1  0  0  0  0
 47 44  1  0  0  0  0
M  END
>  <minimizedAffinity>
-7.85774803

$$$$

 OpenBabel09142202283D

 48 54  0  0  0  0  0  0  0  0999 V2000
    4.4210   -9.3970    0.3330 N   0  0  0  0  0  0  0  0  0  0  0  0
    4.8430   -8.1270    0.0360 C   0  0  0  0  0  0  0  0  0  0  0  0
    4.9880   -7.8110   -1.1430 O   0  0  0  0  0  0  0  0  0  0  0  0
    4.3740   -9.9430   -0.5190 H   0  0  0  0  0  0  0  0  0  0  0  0
    5.0610   -7.0970    1.0730 C   0  0  0  0  0  0  0  0  0  0  0  0
    4.0500   -6.9090    2.0130 C   0  0  0  0  0  3  0  0  0  0  0  0
    4.1720   -5.9220    2.9970 C   0  0  0  0  0  3  0  0  0  0  0  0
    5.3310   -5.1150    3.0530 C   0  0  0  0  0  0  0  0  0  0  0  0
    5.7560   -4.0320    3.8990 C   0  0  0  0  0  0  0  0  0  0  0  0
    7.0750   -3.7150    3.5370 C   0  0  0  0  0  0  0  0  0  0  0  0
    7.3380   -4.4300    2.3850 N   0  0  0  0  0  0  0  0  0  0  0  0
    6.3240   -5.3200    2.0990 C   0  0  0  0  0  0  0  0  0  0  0  0
    6.1900   -6.2760    1.0730 C   0  0  0  0  0  3  0  0  0  0  0  0
    8.5160   -4.2260    1.5560 C   0  0  0  0  0  2  0  0  0  0  0  0
    8.7070   -2.7420    1.3070 C   0  0  0  0  0  2  0  0  0  0  0  0
    9.5320   -2.1350    2.2930 O   0  0  0  0  0  0  0  0  0  0  0  0
    9.1300   -2.1620    3.5970 C   0  0  0  0  0  0  0  0  0  0  0  0
    9.9790   -1.4120    4.4220 C   0  0  0  0  0  3  0  0  0  0  0  0
    9.7630   -1.3420    5.7920 C   0  0  0  0  0  3  0  0  0  0  0  0
    8.6930   -2.0430    6.3030 C   0  0  0  0  0  3  0  0  0  0  0  0
    7.8550   -2.7780    5.5460 N   0  0  0  0  0  0  0  0  0  0  0  0
    8.0580   -2.8290    4.1990 C   0  0  0  0  0  0  0  0  0  0  0  0
    4.9380   -3.3770    4.9970 C   0  0  0  0  0  3  0  0  0  0  0  0
    3.5530   -2.9140    4.5050 C   0  0  0  0  0  2  0  0  0  0  0  0
    2.7650   -2.2270    5.6170 C   0  0  0  0  0  2  0  0  0  0  0  0
    2.6510   -3.1120    6.8540 C   0  0  0  0  0  2  0  0  0  0  0  0
    4.0220   -3.5630    7.3520 C   0  0  0  0  0  2  0  0  0  0  0  0
    4.8240   -4.2560    6.2520 C   0  0  0  0  0  2  0  0  0  0  0  0
    4.0370  -10.0680    1.5920 C   0  0  0  0  0  0  0  0  0  0  0  0
    4.6420   -9.3180    2.8170 C   0  0  0  0  0  2  0  0  0  0  0  0
    5.5800  -10.2880    3.5300 C   0  0  0  0  0  2  0  0  0  0  0  0
    5.0580  -11.6550    3.1560 C   0  0  0  0  0  2  0  0  0  0  0  0
    4.6870  -11.4760    1.6930 C   0  0  0  0  0  2  0  0  0  0  0  0
    1.7080  -11.2030    1.3830 N   0  0  0  0  0  0  0  0  0  0  0  0
    2.4900  -10.1630    1.7900 C   0  0  0  0  0  0  0  0  0  0  0  0
    1.8680   -9.2270    2.3190 O   0  0  0  0  0  0  0  0  0  0  0  0
    0.7800  -11.1040    1.7770 H   0  0  0  0  0  0  0  0  0  0  0  0
    2.3360  -14.5050   -1.1910 C   0  0  0  0  0  0  0  0  0  0  0  0
    2.1200  -14.7230    0.1730 C   0  0  0  0  0  3  0  0  0  0  0  0
    1.9100  -13.6530    1.0550 C   0  0  0  0  0  3  0  0  0  0  0  0
    1.8780  -12.3460    0.5880 C   0  0  0  0  0  0  0  0  0  0  0  0
    2.1140  -12.1230   -0.7750 C   0  0  0  0  0  3  0  0  0  0  0  0
    2.3230  -13.1890   -1.6580 C   0  0  0  0  0  3  0  0  0  0  0  0
    1.8210  -15.9040   -3.1890 C   0  0  0  0  0  3  0  0  0  0  0  0
    2.5290  -15.6600   -2.0750 C   0  0  0  0  0  3  0  0  0  0  0  0
    1.0890  -17.5970   -4.6910 O   0  0  0  0  0  0  0  0  0  0  0  0
    2.0830  -17.1200   -4.0790 C   0  0  0  0  0  0  0  0  0  0  0  0
    3.2900  -17.4960   -4.0770 O   0  0  0  0  0  1  0  0  0  0  0  0
  1 29  1  0  0  0  0
  2  1  1  0  0  0  0
  2  5  1  0  0  0  0
  3  2  2  0  0  0  0
  4  1  1  0  0  0  0
  5  6  1  0  0  0  0
  6  7  2  0  0  0  0
  7  8  1  0  0  0  0
  8  9  1  0  0  0  0
  9 23  1  0  0  0  0
 10  9  2  0  0  0  0
 10 22  1  0  0  0  0
 11 10  1  0  0  0  0
 12 11  1  0  0  0  0
 12  8  2  0  0  0  0
 13  5  2  0  0  0  0
 13 12  1  0  0  0  0
 14 11  1  0  0  0  0
 15 14  1  0  0  0  0
 15 16  1  0  0  0  0
 16 17  1  0  0  0  0
 17 22  2  0  0  0  0
 17 18  1  0  0  0  0
 18 19  2  0  0  0  0
 19 20  1  0  0  0  0
 21 20  2  0  0  0  0
 22 21  1  0  0  0  0
 23 28  1  0  0  0  0
 24 23  1  0  0  0  0
 24 25  1  0  0  0  0
 25 26  1  0  0  0  0
 26 27  1  0  0  0  0
 28 27  1  0  0  0  0
 29 33  1  0  0  0  0
 29 35  1  0  0  0  0
 29 30  1  0  0  0  0
 30 31  1  0  0  0  0
 32 31  1  0  0  0  0
 33 32  1  0  0  0  0
 34 37  1  0  0  0  0
 34 35  1  0  0  0  0
 35 36  2  0  0  0  0
 38 39  1  0  0  0  0
 39 40  2  0  0  0  0
 41 40  1  0  0  0  0
 41 34  1  0  0  0  0
 42 41  2  0  0  0  0
 43 38  2  0  0  0  0
 43 42  1  0  0  0  0
 44 45  2  0  0  0  0
 45 38  1  0  0  0  0
 46 47  2  0  0  0  0
 47 48  1  0  0  0  0
 47 44  1  0  0  0  0
M  END
>  <minimizedAffinity>
-7.82901287

$$$$
