
 OpenBabel09182209113D

 48 54  0  0  0  0  0  0  0  0999 V2000
    4.0830  -11.3660    2.0260 N   0  0  0  0  0  0  0  0  0  0  0  0
    3.9360  -10.2250    1.2800 C   0  0  0  0  0  0  0  0  0  0  0  0
    3.4050  -10.3040    0.1740 O   0  0  0  0  0  0  0  0  0  0  0  0
    3.7910  -12.1660    1.4780 H   0  0  0  0  0  0  0  0  0  0  0  0
    4.3230   -8.8900    1.7820 C   0  0  0  0  0  0  0  0  0  0  0  0
    3.4940   -8.2960    2.7300 C   0  0  0  0  0  3  0  0  0  0  0  0
    3.7770   -7.0150    3.2160 C   0  0  0  0  0  3  0  0  0  0  0  0
    4.9180   -6.3180    2.7580 C   0  0  0  0  0  0  0  0  0  0  0  0
    5.4750   -5.0200    3.0310 C   0  0  0  0  0  0  0  0  0  0  0  0
    6.7040   -4.9450    2.3570 C   0  0  0  0  0  0  0  0  0  0  0  0
    6.7660   -6.0620    1.5470 N   0  0  0  0  0  0  0  0  0  0  0  0
    5.7290   -6.9330    1.8060 C   0  0  0  0  0  0  0  0  0  0  0  0
    5.4250   -8.2000    1.2710 C   0  0  0  0  0  3  0  0  0  0  0  0
    7.7750   -6.2640    0.5190 C   0  0  0  0  0  2  0  0  0  0  0  0
    7.9020   -5.0040   -0.3160 C   0  0  0  0  0  2  0  0  0  0  0  0
    8.8820   -4.1140    0.2020 O   0  0  0  0  0  0  0  0  0  0  0  0
    8.7190   -3.6130    1.4600 C   0  0  0  0  0  0  0  0  0  0  0  0
    9.6930   -2.6540    1.7720 C   0  0  0  0  0  3  0  0  0  0  0  0
    9.7230   -2.0500    3.0220 C   0  0  0  0  0  3  0  0  0  0  0  0
    8.7700   -2.4350    3.9380 C   0  0  0  0  0  3  0  0  0  0  0  0
    7.8190   -3.3540    3.6790 N   0  0  0  0  0  0  0  0  0  0  0  0
    7.7800   -3.9330    2.4460 C   0  0  0  0  0  0  0  0  0  0  0  0
    4.8580   -3.9450    3.9070 C   0  0  0  0  0  3  0  0  0  0  0  0
    3.3740   -3.6920    3.5760 C   0  0  0  0  0  2  0  0  0  0  0  0
    2.7880   -2.5840    4.4450 C   0  0  0  0  0  2  0  0  0  0  0  0
    2.9870   -2.8710    5.9300 C   0  0  0  0  0  2  0  0  0  0  0  0
    4.4560   -3.1100    6.2660 C   0  0  0  0  0  2  0  0  0  0  0  0
    5.0600   -4.2190    5.4050 C   0  0  0  0  0  2  0  0  0  0  0  0
    4.5530  -11.6210    3.4030 C   0  0  0  0  0  0  0  0  0  0  0  0
    3.3430  -11.7720    4.3740 C   0  0  0  0  0  2  0  0  0  0  0  0
    3.4440  -10.6550    5.4090 C   0  0  0  0  0  2  0  0  0  0  0  0
    4.9140  -10.3090    5.4420 C   0  0  0  0  0  2  0  0  0  0  0  0
    5.3020  -10.3850    3.9750 C   0  0  0  0  0  2  0  0  0  0  0  0
    5.2820  -14.0390    2.7850 N   0  0  0  0  0  0  0  0  0  0  0  0
    5.4400  -12.9030    3.5230 C   0  0  0  0  0  0  0  0  0  0  0  0
    6.3470  -12.9590    4.3680 O   0  0  0  0  0  0  0  0  0  0  0  0
    6.0780  -14.6490    2.9290 H   0  0  0  0  0  0  0  0  0  0  0  0
    2.2240  -15.5710    0.2930 C   0  0  0  0  0  0  0  0  0  0  0  0
    3.2880  -14.8650   -0.2750 C   0  0  0  0  0  3  0  0  0  0  0  0
    4.3180  -14.3420    0.5200 C   0  0  0  0  0  3  0  0  0  0  0  0
    4.3240  -14.5420    1.8950 C   0  0  0  0  0  0  0  0  0  0  0  0
    3.2470  -15.2320    2.4680 C   0  0  0  0  0  3  0  0  0  0  0  0
    2.2180  -15.7560    1.6770 C   0  0  0  0  0  3  0  0  0  0  0  0
    0.3210  -17.0900   -0.2470 C   0  0  0  0  0  3  0  0  0  0  0  0
    1.1820  -16.1170   -0.5860 C   0  0  0  0  0  3  0  0  0  0  0  0
   -0.4060  -17.7820   -2.4030 O   0  0  0  0  0  0  0  0  0  0  0  0
   -0.7550  -17.6040   -1.2040 C   0  0  0  0  0  0  0  0  0  0  0  0
   -1.8790  -17.7810   -0.6530 O   0  0  0  0  0  1  0  0  0  0  0  0
  1 29  1  0  0  0  0
  2  5  1  0  0  0  0
  2  1  1  0  0  0  0
  3  2  2  0  0  0  0
  4  1  1  0  0  0  0
  5  6  1  0  0  0  0
  6  7  2  0  0  0  0
  8  9  1  0  0  0  0
  8  7  1  0  0  0  0
  9 23  1  0  0  0  0
 10 22  1  0  0  0  0
 10  9  2  0  0  0  0
 11 12  1  0  0  0  0
 11 10  1  0  0  0  0
 12  8  2  0  0  0  0
 13  5  2  0  0  0  0
 13 12  1  0  0  0  0
 14 11  1  0  0  0  0
 15 16  1  0  0  0  0
 15 14  1  0  0  0  0
 16 17  1  0  0  0  0
 17 18  2  0  0  0  0
 17 22  1  0  0  0  0
 18 19  1  0  0  0  0
 19 20  2  0  0  0  0
 21 20  1  0  0  0  0
 22 21  2  0  0  0  0
 23 28  1  0  0  0  0
 24 23  1  0  0  0  0
 24 25  1  0  0  0  0
 25 26  1  0  0  0  0
 26 27  1  0  0  0  0
 28 27  1  0  0  0  0
 29 35  1  0  0  0  0
 29 33  1  0  0  0  0
 29 30  1  0  0  0  0
 30 31  1  0  0  0  0
 31 32  1  0  0  0  0
 33 32  1  0  0  0  0
 34 37  1  0  0  0  0
 34 35  1  0  0  0  0
 35 36  2  0  0  0  0
 38 43  1  0  0  0  0
 39 38  2  0  0  0  0
 39 40  1  0  0  0  0
 40 41  2  0  0  0  0
 41 42  1  0  0  0  0
 41 34  1  0  0  0  0
 43 42  2  0  0  0  0
 45 44  2  0  0  0  0
 45 38  1  0  0  0  0
 46 47  2  0  0  0  0
 47 48  1  0  0  0  0
 47 44  1  0  0  0  0
M  END
>  <minimizedAffinity>
-7.85774803

$$$$
