REMARK  Name = 
REMARK  12 active torsions:
REMARK  status: ('A' for Active; 'I' for Inactive)
REMARK    1  A    between atoms: C_1  and  C_2
REMARK    2  A    between atoms: C_2  and  C_3
REMARK    3  A    between atoms: C_2  and  C_4
REMARK    4  A    between atoms: C_4  and  C_5
REMARK    5  A    between atoms: C_5  and  N_6
REMARK    6  A    between atoms: C_9  and  C_10
REMARK    7  A    between atoms: C_17  and  O_18
REMARK    8  A    between atoms: O_18  and  C_19
REMARK    9  A    between atoms: C_19  and  C_20
REMARK   10  A    between atoms: N_22  and  C_23
REMARK   11  A    between atoms: N_22  and  C_24
REMARK   12  A    between atoms: C_29  and  O_30
REMARK                            x       y       z     vdW  Elec       q    Type
REMARK                         _______ _______ _______ _____ _____    ______ ____
ROOT
ATOM      1  C   UNL     1       0.256   2.979  -4.951  0.00  0.00    +0.308 C 
ATOM      2  N   UNL     1       0.548   1.928  -5.694  0.00  0.00    -0.131 N 
ATOM      3  S   UNL     1       0.334   0.410  -5.087  0.00  0.00    +0.141 S 
ATOM      4  O   UNL     1      -0.868  -0.192  -5.610  0.00  0.00    -0.129 OA
ATOM      5  O   UNL     1       1.601  -0.285  -5.163  0.00  0.00    -0.129 OA
ATOM      6  C   UNL     1       0.094   0.760  -3.357  0.00  0.00    +0.178 A 
ATOM      7  C   UNL     1      -1.230  -0.019  -2.377  0.00  0.00    +0.080 A 
ATOM      8  C   UNL     1      -1.663   0.686  -0.770  0.00  0.00    +0.123 A 
ATOM      9  C   UNL     1      -0.797   2.179  -0.153  0.00  0.00    +0.050 A 
ATOM     10  C   UNL     1       0.424   3.008  -1.198  0.00  0.00    +0.054 A 
ATOM     11  C   UNL     1       0.867   2.303  -2.798  0.00  0.00    +0.148 A 
ATOM     12  N   UNL     1       1.217   3.183  -3.898  0.00  0.00    -0.200 N 
ATOM     13  H   UNL     1       1.480   1.950  -6.080  0.00  0.00    +0.339 HD
ATOM     14  H   UNL     1       1.350   4.139  -3.559  0.00  0.00    +0.298 HD
ENDROOT
BRANCH   1  18
ATOM     15  N   UNL     1      -1.147   2.038  -2.255  0.00  0.00    -0.292 N 
ATOM     16  C   UNL     1      -1.753   2.145  -3.659  0.00  0.00    +0.271 A 
ATOM     17  O   UNL     1      -2.674   1.491  -4.129  0.00  0.00    -0.267 OA
ATOM     18  C   UNL     1      -1.130   3.279  -4.430  0.00  0.00    +0.170 A 
ATOM     19  C   UNL     1      -1.422   4.446  -3.824  0.00  0.00    +0.148 A 
ATOM     20  C   UNL     1      -2.236   4.415  -2.602  0.00  0.00    +0.060 A 
ATOM     21  C   UNL     1      -3.078   5.477  -2.263  0.00  0.00    +0.016 A 
ATOM     22  C   UNL     1      -3.869   5.381  -1.127  0.00  0.00    +0.021 A 
ATOM     23  C   UNL     1      -3.793   4.223  -0.377  0.00  0.00    +0.113 A 
ATOM     24  N   UNL     1      -2.976   3.185  -0.667  0.00  0.00    -0.237 NA
ATOM     25  C   UNL     1      -2.148   3.283  -1.743  0.00  0.00    +0.147 A 
BRANCH  19  26
ATOM     26  O   UNL     1      -0.820   5.649  -4.118  0.00  0.00    -0.505 OA
ATOM     27  H   UNL     1      -0.684   5.710  -5.082  0.00  0.00    +0.292 HD
ENDBRANCH  19  26
BRANCH  15  28
ATOM     28  C   UNL     1       0.332   0.883  -1.297  0.00  0.00    +0.127 C 
BRANCH  28  29
ATOM     29  C   UNL     1       0.861  -0.802  -1.488  0.00  0.00    +0.025 C 
BRANCH  29  31
ATOM     30  C   UNL     1       2.148  -0.886   0.741  0.00  0.00    +0.007 C 
ATOM     31  C   UNL     1       2.217  -1.069  -0.775  0.00  0.00    -0.016 C 
ATOM     32  C   UNL     1       2.685  -2.494  -1.093  0.00  0.00    +0.007 C 
ENDBRANCH  29  31
ENDBRANCH  28  29
ENDBRANCH  15  28
ENDBRANCH   1  18
BRANCH   8  33
ATOM     33  O   UNL     1      -2.611   0.186   0.074  0.00  0.00    -0.483 OA
BRANCH  33  34
ATOM     34  C   UNL     1      -3.018  -1.147  -0.156  0.00  0.00    +0.324 C 
BRANCH  34  35
ATOM     35  C   UNL     1      -3.853  -1.517  -1.394  0.00  0.00    +0.253 C 
ATOM     36  O   UNL     1      -3.531  -2.515  -2.048  0.00  0.00    -0.272 OA
ATOM     37  N   UNL     1      -4.949  -0.737  -1.723  0.00  0.00    -0.305 N 
ATOM     38  C   UNL     1      -5.383   0.431  -0.975  0.00  0.00    +0.131 C 
ATOM     39  C   UNL     1      -5.640  -0.986  -2.978  0.00  0.00    +0.131 C 
ENDBRANCH  34  35
ENDBRANCH  33  34
ENDBRANCH   8  33
TORSDOF 8
