REMARK  Name = 
REMARK  6 active torsions:
REMARK  status: ('A' for Active; 'I' for Inactive)
REMARK    1  A    between atoms: C_2  and  C_4
REMARK    2  A    between atoms: C_4  and  C_6
REMARK    3  A    between atoms: C_7  and  C_9
REMARK    4  A    between atoms: N_13  and  C_14
REMARK    5  A    between atoms: C_14  and  C_15
REMARK    6  A    between atoms: C_18  and  O_19
REMARK                            x       y       z     vdW  Elec       q    Type
REMARK                         _______ _______ _______ _____ _____    ______ ____
ROOT
ATOM      1  C   UNL     1       6.937   0.352  -0.342  0.00  0.00    +0.034 A 
ATOM      2  C   UNL     1       7.656   0.326  -1.526  0.00  0.00    +0.026 A 
ATOM      3  C   UNL     1       8.960  -0.140  -1.243  0.00  0.00    +0.020 A 
ATOM      4  C   UNL     1       9.018  -0.389   0.110  0.00  0.00    +0.086 A 
ATOM      5  N   UNL     1       7.777  -0.112   0.655  0.00  0.00    -0.343 N 
ENDROOT
BRANCH   1   7
ATOM      6  C   UNL     1       4.691  -0.284  -0.179  0.00  0.00    +0.046 C 
ATOM      7  C   UNL     1       5.582   0.724  -0.050  0.00  0.00    -0.080 C 
ATOM      8  O   UNL     1       5.525   1.933   0.301  0.00  0.00    -0.872 OA
BRANCH   6   9
ATOM      9  C   UNL     1       3.210  -0.306   0.081  0.00  0.00    +0.201 C 
ATOM     10  O   UNL     1       2.486   0.672   0.251  0.00  0.00    -0.286 OA
BRANCH   9  12
ATOM     11  O   UNL     1       1.231  -1.742   0.052  0.00  0.00    -0.541 OA
ATOM     12  C   UNL     1       2.508  -1.698   0.117  0.00  0.00    +0.111 C 
ATOM     13  O   UNL     1       3.266  -2.727   0.201  0.00  0.00    -0.541 OA
ENDBRANCH   9  12
ENDBRANCH   6   9
ENDBRANCH   1   7
BRANCH   5  14
ATOM     14  C   UNL     1       7.452  -0.200   2.076  0.00  0.00    +0.157 C 
BRANCH  14  15
ATOM     15  C   UNL     1       7.758  -1.566   2.658  0.00  0.00    -0.028 A 
ATOM     16  C   UNL     1       8.866  -1.757   3.498  0.00  0.00    +0.009 A 
ATOM     17  C   UNL     1       9.144  -3.018   4.031  0.00  0.00    +0.046 A 
ATOM     18  C   UNL     1       8.311  -4.091   3.725  0.00  0.00    +0.117 A 
ATOM     19  C   UNL     1       7.208  -3.922   2.897  0.00  0.00    +0.046 A 
ATOM     20  C   UNL     1       6.931  -2.662   2.364  0.00  0.00    +0.009 A 
BRANCH  18  21
ATOM     21  O   UNL     1       8.554  -5.337   4.229  0.00  0.00    -0.507 OA
ATOM     22  H   UNL     1       9.344  -5.280   4.787  0.00  0.00    +0.292 HD
ENDBRANCH  18  21
ENDBRANCH  14  15
ENDBRANCH   5  14
TORSDOF 6
