
 OpenBabel09122222393D

 22 23  0  0  0  0  0  0  0  0999 V2000
    8.8180   -3.5450    0.9650 C   0  0  0  0  0  0  0  0  0  0  0  0
    8.4580   -2.9570    2.1660 C   0  0  0  0  0  3  0  0  0  0  0  0
    9.2600   -1.8090    2.3560 C   0  0  0  0  0  3  0  0  0  0  0  0
   10.1000   -1.7150    1.2690 C   0  0  0  0  0  3  0  0  0  0  0  0
    9.8130   -2.7600    0.4090 N   0  0  0  0  0  0  0  0  0  0  0  0
    7.5410   -5.5040    1.0380 C   0  0  0  0  0  2  0  0  0  0  0  0
    8.3310   -4.7090    0.2820 C   0  0  0  0  0  0  0  0  0  0  0  0
    8.7330   -4.7180   -0.9120 O   0  0  0  0  0  0  0  0  0  0  0  0
    6.8100   -6.7680    0.6760 C   0  0  0  0  0  0  0  0  0  0  0  0
    6.9860   -7.8780    1.1730 O   0  0  0  0  0  0  0  0  0  0  0  0
    5.5470   -7.6510   -1.2220 O   0  0  0  0  0  0  0  0  0  0  0  0
    5.7030   -6.6690   -0.4170 C   0  0  0  0  0  0  0  0  0  0  0  0
    5.0010   -5.5980   -0.4350 O   0  0  0  0  0  1  0  0  0  0  0  0
   10.5280   -3.0360   -0.8340 C   0  0  0  0  0  2  0  0  0  0  0  0
   11.1350   -1.7890   -1.4450 C   0  0  0  0  0  0  0  0  0  0  0  0
   10.3280   -0.6990   -1.8050 C   0  0  0  0  0  3  0  0  0  0  0  0
   10.8930    0.4480   -2.3680 C   0  0  0  0  0  3  0  0  0  0  0  0
   12.2690    0.5060   -2.5700 C   0  0  0  0  0  0  0  0  0  0  0  0
   13.0860   -0.5610   -2.2180 C   0  0  0  0  0  3  0  0  0  0  0  0
   12.5210   -1.7070   -1.6560 C   0  0  0  0  0  3  0  0  0  0  0  0
   12.8540    1.6120   -3.1180 O   0  0  0  0  0  0  0  0  0  0  0  0
   12.1540    2.2590   -3.2930 H   0  0  0  0  0  0  0  0  0  0  0  0
  1  2  2  0  0  0  0
  2  3  1  0  0  0  0
  4  3  2  0  0  0  0
  5  1  1  0  0  0  0
  5  4  1  0  0  0  0
  7  1  1  0  0  0  0
  7  6  1  0  0  0  0
  8  7  2  0  0  0  0
  9  6  1  0  0  0  0
  9 10  2  0  0  0  0
 11 12  2  0  0  0  0
 12  9  1  0  0  0  0
 13 12  1  0  0  0  0
 14  5  1  0  0  0  0
 15 14  1  0  0  0  0
 16 15  2  0  0  0  0
 17 16  1  0  0  0  0
 18 17  2  0  0  0  0
 18 19  1  0  0  0  0
 19 20  2  0  0  0  0
 20 15  1  0  0  0  0
 21 18  1  0  0  0  0
 22 21  1  0  0  0  0
M  END
>  <minimizedAffinity>
-6.54052544

$$$$
