
 OpenBabel09122222393D

 22 23  0  0  0  0  0  0  0  0999 V2000
   11.4300   -2.7930   -1.2500 C   0  0  0  0  0  0  0  0  0  0  0  0
   12.6290   -3.4190   -1.5480 C   0  0  0  0  0  3  0  0  0  0  0  0
   13.3500   -2.5940   -2.4410 C   0  0  0  0  0  3  0  0  0  0  0  0
   12.5780   -1.4780   -2.6760 C   0  0  0  0  0  3  0  0  0  0  0  0
   11.4180   -1.5890   -1.9310 N   0  0  0  0  0  0  0  0  0  0  0  0
   10.4140   -2.6780    0.8550 C   0  0  0  0  0  2  0  0  0  0  0  0
   10.3350   -3.1710   -0.4010 C   0  0  0  0  0  0  0  0  0  0  0  0
    9.5060   -3.8710   -1.0410 O   0  0  0  0  0  0  0  0  0  0  0  0
    9.4540   -2.8050    2.0060 C   0  0  0  0  0  0  0  0  0  0  0  0
    8.4400   -3.4980    2.0350 O   0  0  0  0  0  0  0  0  0  0  0  0
    9.2570   -0.8460    3.4560 O   0  0  0  0  0  0  0  0  0  0  0  0
    9.7800   -2.0040    3.3040 C   0  0  0  0  0  0  0  0  0  0  0  0
   10.5540   -2.5670    4.1540 O   0  0  0  0  0  1  0  0  0  0  0  0
   10.3180   -0.6280   -1.9520 C   0  0  0  0  0  2  0  0  0  0  0  0
   10.5750    0.5670   -1.0550 C   0  0  0  0  0  0  0  0  0  0  0  0
   11.4890    1.5640   -1.4310 C   0  0  0  0  0  3  0  0  0  0  0  0
   11.7220    2.6630   -0.6000 C   0  0  0  0  0  3  0  0  0  0  0  0
   11.0380    2.7670    0.6080 C   0  0  0  0  0  0  0  0  0  0  0  0
   10.1270    1.7930    0.9960 C   0  0  0  0  0  3  0  0  0  0  0  0
    9.8950    0.6940    0.1670 C   0  0  0  0  0  3  0  0  0  0  0  0
   11.2420    3.8280    1.4430 O   0  0  0  0  0  0  0  0  0  0  0  0
   11.8920    4.4130    1.0240 H   0  0  0  0  0  0  0  0  0  0  0  0
  1  7  1  0  0  0  0
  2  1  2  0  0  0  0
  3  2  1  0  0  0  0
  4  3  2  0  0  0  0
  4  5  1  0  0  0  0
  5  1  1  0  0  0  0
  6  9  1  0  0  0  0
  7  6  1  0  0  0  0
  8  7  2  0  0  0  0
  9 10  2  0  0  0  0
  9 12  1  0  0  0  0
 12 11  2  0  0  0  0
 12 13  1  0  0  0  0
 14  5  1  0  0  0  0
 14 15  1  0  0  0  0
 15 20  1  0  0  0  0
 16 15  2  0  0  0  0
 16 17  1  0  0  0  0
 17 18  2  0  0  0  0
 18 19  1  0  0  0  0
 18 21  1  0  0  0  0
 20 19  2  0  0  0  0
 22 21  1  0  0  0  0
M  END
>  <minimizedAffinity>
-6.5941081

$$$$
