
 OpenBabel09122222393D

 22 23  0  0  0  0  0  0  0  0999 V2000
    4.1430   -7.5680    3.4210 C   0  0  0  0  0  0  0  0  0  0  0  0
    3.2490   -8.5460    3.8260 C   0  0  0  0  0  3  0  0  0  0  0  0
    2.4160   -7.9980    4.8270 C   0  0  0  0  0  3  0  0  0  0  0  0
    2.8150   -6.6950    5.0200 C   0  0  0  0  0  3  0  0  0  0  0  0
    3.8520   -6.4250    4.1460 N   0  0  0  0  0  0  0  0  0  0  0  0
    4.7970   -7.1770    1.2080 C   0  0  0  0  0  2  0  0  0  0  0  0
    5.1910   -7.5710    2.4400 C   0  0  0  0  0  0  0  0  0  0  0  0
    6.2820   -7.9210    2.9640 O   0  0  0  0  0  0  0  0  0  0  0  0
    5.5970   -7.0030   -0.0540 C   0  0  0  0  0  0  0  0  0  0  0  0
    5.4930   -7.6720   -1.0790 O   0  0  0  0  0  0  0  0  0  0  0  0
    7.1660   -5.4640    1.0180 O   0  0  0  0  0  1  0  0  0  0  0  0
    6.6450   -5.8490   -0.0850 C   0  0  0  0  0  0  0  0  0  0  0  0
    6.9310   -5.3580   -1.2330 O   0  0  0  0  0  0  0  0  0  0  0  0
    4.5840   -5.1620    4.0830 C   0  0  0  0  0  2  0  0  0  0  0  0
    3.8280   -4.0210    4.7360 C   0  0  0  0  0  0  0  0  0  0  0  0
    2.7050   -3.4540    4.1130 C   0  0  0  0  0  3  0  0  0  0  0  0
    2.0140   -2.4030    4.7190 C   0  0  0  0  0  3  0  0  0  0  0  0
    2.4440   -1.9170    5.9500 C   0  0  0  0  0  0  0  0  0  0  0  0
    3.5520   -2.4660    6.5840 C   0  0  0  0  0  3  0  0  0  0  0  0
    4.2440   -3.5170    5.9780 C   0  0  0  0  0  3  0  0  0  0  0  0
    1.7910   -0.8900    6.5700 O   0  0  0  0  0  0  0  0  0  0  0  0
    1.0460   -0.6330    6.0070 H   0  0  0  0  0  0  0  0  0  0  0  0
  1  2  2  0  0  0  0
  1  5  1  0  0  0  0
  2  3  1  0  0  0  0
  3  4  2  0  0  0  0
  5  4  1  0  0  0  0
  6  7  1  0  0  0  0
  7  8  2  0  0  0  0
  7  1  1  0  0  0  0
  9  6  1  0  0  0  0
 10  9  2  0  0  0  0
 12  9  1  0  0  0  0
 12 11  1  0  0  0  0
 13 12  2  0  0  0  0
 14  5  1  0  0  0  0
 14 15  1  0  0  0  0
 15 20  1  0  0  0  0
 16 17  1  0  0  0  0
 16 15  2  0  0  0  0
 17 18  2  0  0  0  0
 18 21  1  0  0  0  0
 18 19  1  0  0  0  0
 20 19  2  0  0  0  0
 22 21  1  0  0  0  0
M  END
>  <minimizedAffinity>
-6.24799061

$$$$
