
 OpenBabel09092210413D

 43 48  0  0  0  0  0  0  0  0999 V2000
    9.5580   -0.0640    3.1870 C   0  0  0  0  0  0  0  0  0  0  0  0
    8.7470    0.2470    4.2760 C   0  0  0  0  0  3  0  0  0  0  0  0
    7.4570   -0.2860    4.3680 C   0  0  0  0  0  3  0  0  0  0  0  0
    6.9570   -1.1410    3.3760 C   0  0  0  0  0  0  0  0  0  0  0  0
    7.7680   -1.4270    2.2450 C   0  0  0  0  0  0  0  0  0  0  0  0
    9.0660   -0.8990    2.1800 C   0  0  0  0  0  3  0  0  0  0  0  0
    7.3330   -2.3180    1.1460 C   0  0  0  0  0  3  0  0  0  0  0  0
    6.0640   -2.3190    0.7000 C   0  0  0  0  0  0  0  0  0  0  0  0
    5.0510   -1.2930    1.1290 C   0  0  0  0  0  2  0  0  0  0  0  0
    4.6670   -1.6050    2.5010 N   0  0  0  0  0  0  0  0  0  0  0  0
    5.5870   -1.6890    3.5280 C   0  0  0  0  0  0  0  0  0  0  0  0
    5.0170   -2.5000    4.5200 C   0  0  0  0  0  0  0  0  0  0  0  0
    3.6850   -2.8430    4.0640 C   0  0  0  0  0  0  0  0  0  0  0  0
    2.6310   -3.6600    4.5310 C   0  0  0  0  0  3  0  0  0  0  0  0
    1.4560   -3.8100    3.7710 C   0  0  0  0  0  3  0  0  0  0  0  0
    1.2770   -3.1320    2.5610 C   0  0  0  0  0  0  0  0  0  0  0  0
    2.2690   -2.2590    2.1320 C   0  0  0  0  0  3  0  0  0  0  0  0
    3.4750   -2.1890    2.8520 C   0  0  0  0  0  0  0  0  0  0  0  0
    0.0210   -3.3800    1.8020 C   0  0  0  0  0  0  0  0  0  0  0  0
   -0.9830   -3.7280    2.4130 O   0  0  0  0  0  0  0  0  0  0  0  0
   -0.0820   -3.2250    0.4150 N   0  0  0  0  0  0  0  0  0  0  0  0
    0.9720   -3.1380   -0.8360 S   0  0  0  0  0  0  0  0  0  0  0  0
    0.3260   -3.7800   -1.9560 O   0  0  0  0  0  0  0  0  0  0  0  0
    1.4600   -1.7860   -0.9370 O   0  0  0  0  0  0  0  0  0  0  0  0
    2.2360   -4.1100   -0.3550 N   0  0  0  0  0  0  0  0  0  0  0  0
    2.0070   -5.5640   -0.3790 C   0  0  0  0  0  2  0  0  0  0  0  0
    3.0010   -6.2680    0.5430 C   0  0  0  0  0  2  0  0  0  0  0  0
    4.2550   -6.8060   -0.1550 C   0  0  0  0  0  2  0  0  0  0  0  0
    5.2230   -5.7620   -0.7220 C   0  0  0  0  0  2  0  0  0  0  0  0
    5.6520   -4.7220    0.2170 N   0  0  0  0  0  0  0  0  0  0  0  0
    6.2750   -5.1680    1.4620 C   0  0  0  0  0  1  0  0  0  0  0  0
    5.5240   -3.3930   -0.1800 C   0  0  0  0  0  0  0  0  0  0  0  0
    4.8900   -3.0670   -1.1840 O   0  0  0  0  0  0  0  0  0  0  0  0
   -1.0250   -3.3860    0.0710 H   0  0  0  0  0  0  0  0  0  0  0  0
    3.0830   -3.8200   -0.8680 H   0  0  0  0  0  0  0  0  0  0  0  0
    5.7660   -2.9830    5.7520 C   0  0  0  0  0  3  0  0  0  0  0  0
    5.0820   -2.7250    7.1010 C   0  0  0  0  0  2  0  0  0  0  0  0
    5.9820   -3.1450    8.2650 C   0  0  0  0  0  2  0  0  0  0  0  0
    6.3890   -4.6130    8.1480 C   0  0  0  0  0  2  0  0  0  0  0  0
    7.0280   -4.9180    6.7970 C   0  0  0  0  0  2  0  0  0  0  0  0
    6.1440   -4.4720    5.6320 C   0  0  0  0  0  2  0  0  0  0  0  0
   11.1070    1.7370    3.3180 C   0  0  0  0  0  1  0  0  0  0  0  0
   10.8360    0.3810    2.9830 O   0  0  0  0  0  0  0  0  0  0  0  0
  1  2  1  0  0  0  0
  2  3  2  0  0  0  0
  4 11  1  0  0  0  0
  4  3  1  0  0  0  0
  5  4  2  0  0  0  0
  6  5  1  0  0  0  0
  6  1  2  0  0  0  0
  7  5  1  0  0  0  0
  8  9  1  0  0  0  0
  8  7  2  0  0  0  0
  9 10  1  0  0  0  0
 10 18  1  0  0  0  0
 10 11  1  0  0  0  0
 11 12  2  0  0  0  0
 12 36  1  0  0  0  0
 13 12  1  0  0  0  0
 13 14  1  0  0  0  0
 15 14  2  0  0  0  0
 16 15  1  0  0  0  0
 17 16  2  0  0  0  0
 17 18  1  0  0  0  0
 18 13  2  0  0  0  0
 19 20  2  0  0  0  0
 19 16  1  0  0  0  0
 21 19  1  0  0  0  0
 22 25  1  0  0  0  0
 22 21  1  0  0  0  0
 23 22  2  0  0  0  0
 24 22  2  0  0  0  0
 26 25  1  0  0  0  0
 26 27  1  0  0  0  0
 28 27  1  0  0  0  0
 29 28  1  0  0  0  0
 29 30  1  0  0  0  0
 30 31  1  0  0  0  0
 32 30  1  0  0  0  0
 32  8  1  0  0  0  0
 33 32  2  0  0  0  0
 34 21  1  0  0  0  0
 35 25  1  0  0  0  0
 36 37  1  0  0  0  0
 37 38  1  0  0  0  0
 39 38  1  0  0  0  0
 40 39  1  0  0  0  0
 41 36  1  0  0  0  0
 41 40  1  0  0  0  0
 43  1  1  0  0  0  0
 43 42  1  0  0  0  0
M  END
>  <minimizedAffinity>
-4.55064631

$$$$
