
 OpenBabel09092210413D

 43 48  0  0  0  0  0  0  0  0999 V2000
    9.7550   -0.4190    3.1550 C   0  0  0  0  0  0  0  0  0  0  0  0
    9.6060   -0.9650    4.4290 C   0  0  0  0  0  3  0  0  0  0  0  0
    8.6270   -1.9340    4.6690 C   0  0  0  0  0  3  0  0  0  0  0  0
    7.7830   -2.3780    3.6420 C   0  0  0  0  0  0  0  0  0  0  0  0
    7.9070   -1.7950    2.3530 C   0  0  0  0  0  0  0  0  0  0  0  0
    8.9070   -0.8380    2.1260 C   0  0  0  0  0  3  0  0  0  0  0  0
    7.0660   -2.1950    1.2020 C   0  0  0  0  0  3  0  0  0  0  0  0
    5.7610   -2.4890    1.3510 C   0  0  0  0  0  0  0  0  0  0  0  0
    5.0140   -2.2410    2.6340 C   0  0  0  0  0  2  0  0  0  0  0  0
    5.4460   -3.2510    3.5940 N   0  0  0  0  0  0  0  0  0  0  0  0
    6.7710   -3.4190    3.9480 C   0  0  0  0  0  0  0  0  0  0  0  0
    6.9040   -4.7350    4.4130 C   0  0  0  0  0  0  0  0  0  0  0  0
    5.5810   -5.3250    4.3810 C   0  0  0  0  0  0  0  0  0  0  0  0
    5.0300   -6.6000    4.6420 C   0  0  0  0  0  3  0  0  0  0  0  0
    3.6580   -6.8380    4.4410 C   0  0  0  0  0  3  0  0  0  0  0  0
    2.7940   -5.8210    4.0210 C   0  0  0  0  0  0  0  0  0  0  0  0
    3.3050   -4.5420    3.8430 C   0  0  0  0  0  3  0  0  0  0  0  0
    4.6920   -4.3390    3.9560 C   0  0  0  0  0  0  0  0  0  0  0  0
    1.3650   -6.1700    3.7950 C   0  0  0  0  0  0  0  0  0  0  0  0
    0.8790   -7.1110    4.4130 O   0  0  0  0  0  0  0  0  0  0  0  0
    0.5320   -5.4700    2.9150 N   0  0  0  0  0  0  0  0  0  0  0  0
    0.7540   -4.4370    1.6630 S   0  0  0  0  0  0  0  0  0  0  0  0
   -0.3040   -4.7080    0.7200 O   0  0  0  0  0  0  0  0  0  0  0  0
    0.9580   -3.1100    2.1890 O   0  0  0  0  0  0  0  0  0  0  0  0
    2.1850   -4.9470    0.9800 N   0  0  0  0  0  0  0  0  0  0  0  0
    2.1470   -6.2010    0.2100 C   0  0  0  0  0  2  0  0  0  0  0  0
    3.5500   -6.7950    0.1020 C   0  0  0  0  0  2  0  0  0  0  0  0
    4.3030   -6.4360   -1.1840 C   0  0  0  0  0  2  0  0  0  0  0  0
    4.7020   -4.9660   -1.3550 C   0  0  0  0  0  2  0  0  0  0  0  0
    5.4360   -4.3760   -0.2320 N   0  0  0  0  0  0  0  0  0  0  0  0
    6.6670   -5.0490    0.1830 C   0  0  0  0  0  1  0  0  0  0  0  0
    4.9680   -3.1750    0.2940 C   0  0  0  0  0  0  0  0  0  0  0  0
    3.8680   -2.7110   -0.0100 O   0  0  0  0  0  0  0  0  0  0  0  0
   -0.4250   -5.8110    2.9250 H   0  0  0  0  0  0  0  0  0  0  0  0
    2.5970   -4.1580    0.4590 H   0  0  0  0  0  0  0  0  0  0  0  0
    8.2380   -5.3830    4.7490 C   0  0  0  0  0  3  0  0  0  0  0  0
    8.4410   -5.7850    6.2160 C   0  0  0  0  0  2  0  0  0  0  0  0
    9.8580   -6.3120    6.4520 C   0  0  0  0  0  2  0  0  0  0  0  0
   10.1700   -7.4900    5.5310 C   0  0  0  0  0  2  0  0  0  0  0  0
    9.9290   -7.1420    4.0650 C   0  0  0  0  0  2  0  0  0  0  0  0
    8.5250   -6.5860    3.8320 C   0  0  0  0  0  2  0  0  0  0  0  0
   10.8160    1.6540    3.6420 C   0  0  0  0  0  1  0  0  0  0  0  0
   10.6740    0.5250    2.7870 O   0  0  0  0  0  0  0  0  0  0  0  0
  1  2  1  0  0  0  0
  2  3  2  0  0  0  0
  4 11  1  0  0  0  0
  4  3  1  0  0  0  0
  5  4  2  0  0  0  0
  6  5  1  0  0  0  0
  6  1  2  0  0  0  0
  7  8  2  0  0  0  0
  7  5  1  0  0  0  0
  8  9  1  0  0  0  0
  9 10  1  0  0  0  0
 10 11  1  0  0  0  0
 10 18  1  0  0  0  0
 11 12  2  0  0  0  0
 12 36  1  0  0  0  0
 13 12  1  0  0  0  0
 13 14  1  0  0  0  0
 15 14  2  0  0  0  0
 16 15  1  0  0  0  0
 17 18  1  0  0  0  0
 17 16  2  0  0  0  0
 18 13  2  0  0  0  0
 19 16  1  0  0  0  0
 19 20  2  0  0  0  0
 21 34  1  0  0  0  0
 21 19  1  0  0  0  0
 22 24  2  0  0  0  0
 22 21  1  0  0  0  0
 23 22  2  0  0  0  0
 25 22  1  0  0  0  0
 26 25  1  0  0  0  0
 27 26  1  0  0  0  0
 28 27  1  0  0  0  0
 29 28  1  0  0  0  0
 29 30  1  0  0  0  0
 30 31  1  0  0  0  0
 30 32  1  0  0  0  0
 32  8  1  0  0  0  0
 33 32  2  0  0  0  0
 35 25  1  0  0  0  0
 36 37  1  0  0  0  0
 37 38  1  0  0  0  0
 39 38  1  0  0  0  0
 40 39  1  0  0  0  0
 41 40  1  0  0  0  0
 41 36  1  0  0  0  0
 43  1  1  0  0  0  0
 43 42  1  0  0  0  0
M  END
>  <minimizedAffinity>
-3.87559891

$$$$
