
 OpenBabel09082221163D

 43 48  0  0  0  0  0  0  0  0999 V2000
    2.5410   -4.9370    5.4560 C   0  0  0  0  0  0  0  0  0  0  0  0
    2.2990   -4.0730    4.3900 C   0  0  0  0  0  3  0  0  0  0  0  0
    3.3470   -3.3380    3.8280 C   0  0  0  0  0  3  0  0  0  0  0  0
    4.6550   -3.4550    4.3170 C   0  0  0  0  0  0  0  0  0  0  0  0
    4.8970   -4.3050    5.4300 C   0  0  0  0  0  0  0  0  0  0  0  0
    3.8360   -5.0490    5.9690 C   0  0  0  0  0  3  0  0  0  0  0  0
    6.2400   -4.4980    6.0200 C   0  0  0  0  0  3  0  0  0  0  0  0
    7.1130   -3.4800    6.1370 C   0  0  0  0  0  0  0  0  0  0  0  0
    6.7300   -2.0490    5.8740 C   0  0  0  0  0  2  0  0  0  0  0  0
    6.5950   -1.8900    4.4300 N   0  0  0  0  0  0  0  0  0  0  0  0
    5.7330   -2.6620    3.6760 C   0  0  0  0  0  0  0  0  0  0  0  0
    6.2220   -2.6540    2.3620 C   0  0  0  0  0  0  0  0  0  0  0  0
    7.3810   -1.7850    2.3540 C   0  0  0  0  0  0  0  0  0  0  0  0
    8.3550   -1.4000    1.4050 C   0  0  0  0  0  3  0  0  0  0  0  0
    9.4150   -0.5520    1.7770 C   0  0  0  0  0  3  0  0  0  0  0  0
    9.5180   -0.0360    3.0720 C   0  0  0  0  0  0  0  0  0  0  0  0
    8.5220   -0.3380    3.9930 C   0  0  0  0  0  3  0  0  0  0  0  0
    7.5200   -1.2590    3.6370 C   0  0  0  0  0  0  0  0  0  0  0  0
   10.6930    0.8200    3.3900 C   0  0  0  0  0  0  0  0  0  0  0  0
   11.2360    1.4430    2.4850 O   0  0  0  0  0  0  0  0  0  0  0  0
   11.2130    0.9630    4.6820 N   0  0  0  0  0  0  0  0  0  0  0  0
   11.1000    0.1330    6.0900 S   0  0  0  0  0  0  0  0  0  0  0  0
   12.3840    0.2560    6.7370 O   0  0  0  0  0  0  0  0  0  0  0  0
    9.8890    0.5270    6.7640 O   0  0  0  0  0  0  0  0  0  0  0  0
   10.9280   -1.4500    5.6010 N   0  0  0  0  0  0  0  0  0  0  0  0
   12.1260   -2.1160    5.0630 C   0  0  0  0  0  2  0  0  0  0  0  0
   11.7210   -3.3140    4.2050 C   0  0  0  0  0  2  0  0  0  0  0  0
   11.7280   -4.6600    4.9370 C   0  0  0  0  0  2  0  0  0  0  0  0
   10.6780   -4.8460    6.0370 C   0  0  0  0  0  2  0  0  0  0  0  0
    9.2940   -4.5640    5.6440 N   0  0  0  0  0  0  0  0  0  0  0  0
    8.7660   -5.3030    4.4980 C   0  0  0  0  0  1  0  0  0  0  0  0
    8.5550   -3.6910    6.4390 C   0  0  0  0  0  0  0  0  0  0  0  0
    9.0770   -3.0080    7.3210 O   0  0  0  0  0  0  0  0  0  0  0  0
   11.9820    1.6260    4.7250 H   0  0  0  0  0  0  0  0  0  0  0  0
   10.4720   -1.9780    6.3610 H   0  0  0  0  0  0  0  0  0  0  0  0
    5.6580   -3.5170    1.2430 C   0  0  0  0  0  3  0  0  0  0  0  0
    5.2540   -2.7790   -0.0390 C   0  0  0  0  0  2  0  0  0  0  0  0
    4.5940   -3.7300   -1.0380 C   0  0  0  0  0  2  0  0  0  0  0  0
    5.5100   -4.9070   -1.3690 C   0  0  0  0  0  2  0  0  0  0  0  0
    5.9730   -5.6350   -0.1120 C   0  0  0  0  0  2  0  0  0  0  0  0
    6.6060   -4.6820    0.9010 C   0  0  0  0  0  2  0  0  0  0  0  0
    2.0810   -6.5730    7.1210 C   0  0  0  0  0  1  0  0  0  0  0  0
    1.6100   -5.7170    6.0870 O   0  0  0  0  0  0  0  0  0  0  0  0
  1  6  1  0  0  0  0
  1 43  1  0  0  0  0
  2  1  2  0  0  0  0
  3  4  2  0  0  0  0
  3  2  1  0  0  0  0
  4  5  1  0  0  0  0
  5  6  2  0  0  0  0
  5  7  1  0  0  0  0
  7  8  2  0  0  0  0
  8 32  1  0  0  0  0
  9  8  1  0  0  0  0
 10  9  1  0  0  0  0
 11  4  1  0  0  0  0
 11 10  1  0  0  0  0
 12 11  2  0  0  0  0
 13 12  1  0  0  0  0
 13 18  1  0  0  0  0
 14 15  1  0  0  0  0
 14 13  2  0  0  0  0
 15 16  2  0  0  0  0
 16 19  1  0  0  0  0
 16 17  1  0  0  0  0
 18 17  2  0  0  0  0
 18 10  1  0  0  0  0
 19 21  1  0  0  0  0
 20 19  2  0  0  0  0
 21 34  1  0  0  0  0
 21 22  1  0  0  0  0
 22 23  2  0  0  0  0
 22 24  2  0  0  0  0
 25 22  1  0  0  0  0
 25 35  1  0  0  0  0
 26 25  1  0  0  0  0
 27 28  1  0  0  0  0
 27 26  1  0  0  0  0
 28 29  1  0  0  0  0
 30 29  1  0  0  0  0
 30 32  1  0  0  0  0
 31 30  1  0  0  0  0
 32 33  2  0  0  0  0
 36 12  1  0  0  0  0
 37 36  1  0  0  0  0
 38 37  1  0  0  0  0
 39 38  1  0  0  0  0
 39 40  1  0  0  0  0
 40 41  1  0  0  0  0
 41 36  1  0  0  0  0
 43 42  1  0  0  0  0
M  END
>  <minimizedAffinity>
-4.75884199

$$$$

 OpenBabel09082221163D

 43 48  0  0  0  0  0  0  0  0999 V2000
    2.2330   -1.2550    5.9700 C   0  0  0  0  0  0  0  0  0  0  0  0
    2.3920   -1.0020    4.6080 C   0  0  0  0  0  3  0  0  0  0  0  0
    3.6590   -0.7130    4.0900 C   0  0  0  0  0  3  0  0  0  0  0  0
    4.7870   -0.6750    4.9210 C   0  0  0  0  0  0  0  0  0  0  0  0
    4.6200   -0.8930    6.3150 C   0  0  0  0  0  0  0  0  0  0  0  0
    3.3450   -1.2010    6.8130 C   0  0  0  0  0  3  0  0  0  0  0  0
    5.7470   -0.8750    7.2750 C   0  0  0  0  0  3  0  0  0  0  0  0
    6.7600    0.0030    7.1570 C   0  0  0  0  0  0  0  0  0  0  0  0
    6.7300    1.1510    6.1840 C   0  0  0  0  0  2  0  0  0  0  0  0
    6.9320    0.5990    4.8500 N   0  0  0  0  0  0  0  0  0  0  0  0
    6.1090   -0.3760    4.3180 C   0  0  0  0  0  0  0  0  0  0  0  0
    6.8520   -1.0430    3.3330 C   0  0  0  0  0  0  0  0  0  0  0  0
    8.1360   -0.3760    3.2560 C   0  0  0  0  0  0  0  0  0  0  0  0
    9.3420   -0.5740    2.5460 C   0  0  0  0  0  3  0  0  0  0  0  0
   10.4480    0.2660    2.7740 C   0  0  0  0  0  3  0  0  0  0  0  0
   10.3800    1.3360    3.6710 C   0  0  0  0  0  0  0  0  0  0  0  0
    9.1750    1.5940    4.3130 C   0  0  0  0  0  3  0  0  0  0  0  0
    8.1070    0.6950    4.1480 C   0  0  0  0  0  0  0  0  0  0  0  0
   11.6090    2.1490    3.8810 C   0  0  0  0  0  0  0  0  0  0  0  0
   12.4400    2.2120    2.9830 O   0  0  0  0  0  0  0  0  0  0  0  0
   11.8670    2.8620    5.0580 N   0  0  0  0  0  0  0  0  0  0  0  0
   11.3040    2.8300    6.5950 S   0  0  0  0  0  0  0  0  0  0  0  0
   12.4240    3.1560    7.4450 O   0  0  0  0  0  0  0  0  0  0  0  0
   10.0810    3.5910    6.6560 O   0  0  0  0  0  0  0  0  0  0  0  0
   10.9280    1.2270    6.8450 N   0  0  0  0  0  0  0  0  0  0  0  0
   12.0550    0.2960    7.0180 C   0  0  0  0  0  2  0  0  0  0  0  0
   11.6080   -1.1330    6.7160 C   0  0  0  0  0  2  0  0  0  0  0  0
   11.1970   -1.9510    7.9450 C   0  0  0  0  0  2  0  0  0  0  0  0
    9.9260   -1.5010    8.6720 C   0  0  0  0  0  2  0  0  0  0  0  0
    8.7380   -1.3430    7.8290 N   0  0  0  0  0  0  0  0  0  0  0  0
    8.3230   -2.5030    7.0410 C   0  0  0  0  0  1  0  0  0  0  0  0
    8.0370   -0.1410    7.9070 C   0  0  0  0  0  0  0  0  0  0  0  0
    8.4890    0.8430    8.4940 O   0  0  0  0  0  0  0  0  0  0  0  0
   12.7270    3.4020    5.0090 H   0  0  0  0  0  0  0  0  0  0  0  0
   10.2280    1.1700    7.6010 H   0  0  0  0  0  0  0  0  0  0  0  0
    6.3740   -2.2960    2.6150 C   0  0  0  0  0  3  0  0  0  0  0  0
    6.4690   -2.2730    1.0840 C   0  0  0  0  0  2  0  0  0  0  0  0
    5.8500   -3.5320    0.4750 C   0  0  0  0  0  2  0  0  0  0  0  0
    6.5070   -4.7950    1.0290 C   0  0  0  0  0  2  0  0  0  0  0  0
    6.4760   -4.8270    2.5540 C   0  0  0  0  0  2  0  0  0  0  0  0
    7.0660   -3.5570    3.1650 C   0  0  0  0  0  2  0  0  0  0  0  0
    0.8150   -0.9310    7.8530 C   0  0  0  0  0  1  0  0  0  0  0  0
    1.0560   -1.5580    6.5980 O   0  0  0  0  0  0  0  0  0  0  0  0
  1 43  1  0  0  0  0
  1  6  1  0  0  0  0
  2  1  2  0  0  0  0
  3  2  1  0  0  0  0
  3  4  2  0  0  0  0
  4  5  1  0  0  0  0
  5  6  2  0  0  0  0
  5  7  1  0  0  0  0
  8  7  2  0  0  0  0
  8 32  1  0  0  0  0
  9  8  1  0  0  0  0
 10  9  1  0  0  0  0
 11 10  1  0  0  0  0
 11  4  1  0  0  0  0
 12 11  2  0  0  0  0
 13 12  1  0  0  0  0
 13 18  1  0  0  0  0
 14 15  1  0  0  0  0
 14 13  2  0  0  0  0
 15 16  2  0  0  0  0
 16 19  1  0  0  0  0
 16 17  1  0  0  0  0
 18 17  2  0  0  0  0
 18 10  1  0  0  0  0
 19 21  1  0  0  0  0
 20 19  2  0  0  0  0
 21 22  1  0  0  0  0
 22 24  2  0  0  0  0
 22 25  1  0  0  0  0
 22 23  2  0  0  0  0
 25 26  1  0  0  0  0
 25 35  1  0  0  0  0
 27 26  1  0  0  0  0
 27 28  1  0  0  0  0
 28 29  1  0  0  0  0
 30 32  1  0  0  0  0
 30 29  1  0  0  0  0
 31 30  1  0  0  0  0
 32 33  2  0  0  0  0
 34 21  1  0  0  0  0
 36 41  1  0  0  0  0
 36 12  1  0  0  0  0
 37 36  1  0  0  0  0
 38 39  1  0  0  0  0
 38 37  1  0  0  0  0
 39 40  1  0  0  0  0
 40 41  1  0  0  0  0
 43 42  1  0  0  0  0
M  END
>  <minimizedAffinity>
-4.60235357

$$$$

 OpenBabel09082221163D

 43 48  0  0  0  0  0  0  0  0999 V2000
    9.5580   -0.0640    3.1870 C   0  0  0  0  0  0  0  0  0  0  0  0
    8.7470    0.2470    4.2760 C   0  0  0  0  0  3  0  0  0  0  0  0
    7.4570   -0.2860    4.3680 C   0  0  0  0  0  3  0  0  0  0  0  0
    6.9570   -1.1410    3.3760 C   0  0  0  0  0  0  0  0  0  0  0  0
    7.7680   -1.4270    2.2450 C   0  0  0  0  0  0  0  0  0  0  0  0
    9.0660   -0.8990    2.1800 C   0  0  0  0  0  3  0  0  0  0  0  0
    7.3330   -2.3180    1.1460 C   0  0  0  0  0  3  0  0  0  0  0  0
    6.0640   -2.3190    0.7000 C   0  0  0  0  0  0  0  0  0  0  0  0
    5.0510   -1.2930    1.1290 C   0  0  0  0  0  2  0  0  0  0  0  0
    4.6670   -1.6050    2.5010 N   0  0  0  0  0  0  0  0  0  0  0  0
    5.5870   -1.6890    3.5280 C   0  0  0  0  0  0  0  0  0  0  0  0
    5.0170   -2.5000    4.5200 C   0  0  0  0  0  0  0  0  0  0  0  0
    3.6850   -2.8430    4.0640 C   0  0  0  0  0  0  0  0  0  0  0  0
    2.6310   -3.6600    4.5310 C   0  0  0  0  0  3  0  0  0  0  0  0
    1.4560   -3.8100    3.7710 C   0  0  0  0  0  3  0  0  0  0  0  0
    1.2770   -3.1320    2.5610 C   0  0  0  0  0  0  0  0  0  0  0  0
    2.2690   -2.2590    2.1320 C   0  0  0  0  0  3  0  0  0  0  0  0
    3.4750   -2.1890    2.8520 C   0  0  0  0  0  0  0  0  0  0  0  0
    0.0210   -3.3800    1.8020 C   0  0  0  0  0  0  0  0  0  0  0  0
   -0.9830   -3.7280    2.4130 O   0  0  0  0  0  0  0  0  0  0  0  0
   -0.0820   -3.2250    0.4150 N   0  0  0  0  0  0  0  0  0  0  0  0
    0.9720   -3.1380   -0.8360 S   0  0  0  0  0  0  0  0  0  0  0  0
    0.3260   -3.7800   -1.9560 O   0  0  0  0  0  0  0  0  0  0  0  0
    1.4600   -1.7860   -0.9370 O   0  0  0  0  0  0  0  0  0  0  0  0
    2.2360   -4.1100   -0.3550 N   0  0  0  0  0  0  0  0  0  0  0  0
    2.0070   -5.5640   -0.3790 C   0  0  0  0  0  2  0  0  0  0  0  0
    3.0010   -6.2680    0.5430 C   0  0  0  0  0  2  0  0  0  0  0  0
    4.2550   -6.8060   -0.1550 C   0  0  0  0  0  2  0  0  0  0  0  0
    5.2230   -5.7620   -0.7220 C   0  0  0  0  0  2  0  0  0  0  0  0
    5.6520   -4.7220    0.2170 N   0  0  0  0  0  0  0  0  0  0  0  0
    6.2750   -5.1680    1.4620 C   0  0  0  0  0  1  0  0  0  0  0  0
    5.5240   -3.3930   -0.1800 C   0  0  0  0  0  0  0  0  0  0  0  0
    4.8900   -3.0670   -1.1840 O   0  0  0  0  0  0  0  0  0  0  0  0
   -1.0250   -3.3860    0.0710 H   0  0  0  0  0  0  0  0  0  0  0  0
    3.0830   -3.8200   -0.8680 H   0  0  0  0  0  0  0  0  0  0  0  0
    5.7660   -2.9830    5.7520 C   0  0  0  0  0  3  0  0  0  0  0  0
    5.0820   -2.7250    7.1010 C   0  0  0  0  0  2  0  0  0  0  0  0
    5.9820   -3.1450    8.2650 C   0  0  0  0  0  2  0  0  0  0  0  0
    6.3890   -4.6130    8.1480 C   0  0  0  0  0  2  0  0  0  0  0  0
    7.0280   -4.9180    6.7970 C   0  0  0  0  0  2  0  0  0  0  0  0
    6.1440   -4.4720    5.6320 C   0  0  0  0  0  2  0  0  0  0  0  0
   11.1070    1.7370    3.3180 C   0  0  0  0  0  1  0  0  0  0  0  0
   10.8360    0.3810    2.9830 O   0  0  0  0  0  0  0  0  0  0  0  0
  1  2  1  0  0  0  0
  2  3  2  0  0  0  0
  4 11  1  0  0  0  0
  4  3  1  0  0  0  0
  5  4  2  0  0  0  0
  6  5  1  0  0  0  0
  6  1  2  0  0  0  0
  7  5  1  0  0  0  0
  8  9  1  0  0  0  0
  8  7  2  0  0  0  0
  9 10  1  0  0  0  0
 10 18  1  0  0  0  0
 10 11  1  0  0  0  0
 11 12  2  0  0  0  0
 12 36  1  0  0  0  0
 13 12  1  0  0  0  0
 13 14  1  0  0  0  0
 15 14  2  0  0  0  0
 16 15  1  0  0  0  0
 17 16  2  0  0  0  0
 17 18  1  0  0  0  0
 18 13  2  0  0  0  0
 19 20  2  0  0  0  0
 19 16  1  0  0  0  0
 21 19  1  0  0  0  0
 22 25  1  0  0  0  0
 22 21  1  0  0  0  0
 23 22  2  0  0  0  0
 24 22  2  0  0  0  0
 26 25  1  0  0  0  0
 26 27  1  0  0  0  0
 28 27  1  0  0  0  0
 29 28  1  0  0  0  0
 29 30  1  0  0  0  0
 30 31  1  0  0  0  0
 32 30  1  0  0  0  0
 32  8  1  0  0  0  0
 33 32  2  0  0  0  0
 34 21  1  0  0  0  0
 35 25  1  0  0  0  0
 36 37  1  0  0  0  0
 37 38  1  0  0  0  0
 39 38  1  0  0  0  0
 40 39  1  0  0  0  0
 41 36  1  0  0  0  0
 41 40  1  0  0  0  0
 43  1  1  0  0  0  0
 43 42  1  0  0  0  0
M  END
>  <minimizedAffinity>
-4.55064631

$$$$

 OpenBabel09082221163D

 43 48  0  0  0  0  0  0  0  0999 V2000
   11.1900   -2.3320    9.1030 C   0  0  0  0  0  0  0  0  0  0  0  0
   11.9780   -2.3520    7.9530 C   0  0  0  0  0  3  0  0  0  0  0  0
   11.3810   -2.2850    6.6900 C   0  0  0  0  0  3  0  0  0  0  0  0
    9.9900   -2.1910    6.5530 C   0  0  0  0  0  0  0  0  0  0  0  0
    9.1830   -2.2110    7.7230 C   0  0  0  0  0  0  0  0  0  0  0  0
    9.8000   -2.2600    8.9810 C   0  0  0  0  0  3  0  0  0  0  0  0
    7.7060   -2.1160    7.6850 C   0  0  0  0  0  3  0  0  0  0  0  0
    6.9840   -2.7280    6.7280 C   0  0  0  0  0  0  0  0  0  0  0  0
    7.5860   -3.7080    5.7580 C   0  0  0  0  0  2  0  0  0  0  0  0
    8.3800   -2.9450    4.8010 N   0  0  0  0  0  0  0  0  0  0  0  0
    9.4090   -2.1080    5.1900 C   0  0  0  0  0  0  0  0  0  0  0  0
    9.5760   -1.1650    4.1660 C   0  0  0  0  0  0  0  0  0  0  0  0
    8.6420   -1.5190    3.1170 C   0  0  0  0  0  0  0  0  0  0  0  0
    8.2530   -0.9670    1.8750 C   0  0  0  0  0  3  0  0  0  0  0  0
    7.2320   -1.5690    1.1170 C   0  0  0  0  0  3  0  0  0  0  0  0
    6.6020   -2.7430    1.5420 C   0  0  0  0  0  0  0  0  0  0  0  0
    7.0330   -3.3440    2.7190 C   0  0  0  0  0  3  0  0  0  0  0  0
    7.9880   -2.6840    3.5120 C   0  0  0  0  0  0  0  0  0  0  0  0
    5.5040   -3.2890    0.6990 C   0  0  0  0  0  0  0  0  0  0  0  0
    5.4990   -3.0440   -0.5010 O   0  0  0  0  0  0  0  0  0  0  0  0
    4.4700   -4.0860    1.2050 N   0  0  0  0  0  0  0  0  0  0  0  0
    3.8440   -4.3920    2.6870 S   0  0  0  0  0  0  0  0  0  0  0  0
    2.4260   -4.5810    2.4980 O   0  0  0  0  0  0  0  0  0  0  0  0
    4.6470   -5.4010    3.3300 O   0  0  0  0  0  0  0  0  0  0  0  0
    4.0590   -2.9590    3.5100 N   0  0  0  0  0  0  0  0  0  0  0  0
    3.1790   -1.8390    3.1400 C   0  0  0  0  0  2  0  0  0  0  0  0
    3.8070   -0.5130    3.5660 C   0  0  0  0  0  2  0  0  0  0  0  0
    3.3310    0.0170    4.9240 C   0  0  0  0  0  2  0  0  0  0  0  0
    3.7400   -0.7970    6.1560 C   0  0  0  0  0  2  0  0  0  0  0  0
    5.1700   -1.0910    6.2730 N   0  0  0  0  0  0  0  0  0  0  0  0
    6.0860    0.0500    6.2610 C   0  0  0  0  0  1  0  0  0  0  0  0
    5.5490   -2.4140    6.4820 C   0  0  0  0  0  0  0  0  0  0  0  0
    4.7550   -3.3490    6.3690 O   0  0  0  0  0  0  0  0  0  0  0  0
    3.8370   -4.4140    0.4810 H   0  0  0  0  0  0  0  0  0  0  0  0
    4.0630   -3.1620    4.5210 H   0  0  0  0  0  0  0  0  0  0  0  0
   10.4980    0.0410    4.2680 C   0  0  0  0  0  3  0  0  0  0  0  0
   11.0190    0.6050    2.9400 C   0  0  0  0  0  2  0  0  0  0  0  0
   12.0250    1.7330    3.1780 C   0  0  0  0  0  2  0  0  0  0  0  0
   11.4160    2.8480    4.0260 C   0  0  0  0  0  2  0  0  0  0  0  0
   10.8400    2.3150    5.3340 C   0  0  0  0  0  2  0  0  0  0  0  0
    9.8580    1.1670    5.1010 C   0  0  0  0  0  2  0  0  0  0  0  0
   10.6660   -2.4290   11.4210 C   0  0  0  0  0  1  0  0  0  0  0  0
   11.6470   -2.3830   10.3920 O   0  0  0  0  0  0  0  0  0  0  0  0
  1 43  1  0  0  0  0
  2  1  2  0  0  0  0
  3  2  1  0  0  0  0
  4  3  2  0  0  0  0
  4  5  1  0  0  0  0
  5  6  2  0  0  0  0
  6  1  1  0  0  0  0
  7  5  1  0  0  0  0
  8  7  2  0  0  0  0
  9  8  1  0  0  0  0
 10 11  1  0  0  0  0
 10  9  1  0  0  0  0
 11  4  1  0  0  0  0
 12 36  1  0  0  0  0
 12 11  2  0  0  0  0
 13 18  1  0  0  0  0
 13 12  1  0  0  0  0
 14 13  2  0  0  0  0
 15 16  2  0  0  0  0
 15 14  1  0  0  0  0
 16 17  1  0  0  0  0
 17 18  2  0  0  0  0
 18 10  1  0  0  0  0
 19 21  1  0  0  0  0
 19 16  1  0  0  0  0
 20 19  2  0  0  0  0
 21 22  1  0  0  0  0
 22 24  2  0  0  0  0
 22 25  1  0  0  0  0
 23 22  2  0  0  0  0
 25 35  1  0  0  0  0
 26 25  1  0  0  0  0
 26 27  1  0  0  0  0
 27 28  1  0  0  0  0
 28 29  1  0  0  0  0
 29 30  1  0  0  0  0
 30 32  1  0  0  0  0
 31 30  1  0  0  0  0
 32  8  1  0  0  0  0
 33 32  2  0  0  0  0
 34 21  1  0  0  0  0
 36 41  1  0  0  0  0
 37 38  1  0  0  0  0
 37 36  1  0  0  0  0
 38 39  1  0  0  0  0
 39 40  1  0  0  0  0
 41 40  1  0  0  0  0
 43 42  1  0  0  0  0
M  END
>  <minimizedAffinity>
-4.37742662

$$$$

 OpenBabel09082221163D

 43 48  0  0  0  0  0  0  0  0999 V2000
   11.2400    2.3460    5.0370 C   0  0  0  0  0  0  0  0  0  0  0  0
   10.1400    3.0240    4.5150 C   0  0  0  0  0  3  0  0  0  0  0  0
    8.9640    2.3300    4.2130 C   0  0  0  0  0  3  0  0  0  0  0  0
    8.8650    0.9490    4.4310 C   0  0  0  0  0  0  0  0  0  0  0  0
    9.9990    0.2500    4.9260 C   0  0  0  0  0  0  0  0  0  0  0  0
   11.1630    0.9660    5.2410 C   0  0  0  0  0  3  0  0  0  0  0  0
    9.9950   -1.2070    5.1910 C   0  0  0  0  0  3  0  0  0  0  0  0
    9.3530   -2.0690    4.3820 C   0  0  0  0  0  0  0  0  0  0  0  0
    8.7720   -1.6600    3.0560 C   0  0  0  0  0  2  0  0  0  0  0  0
    7.5710   -0.8770    3.3280 N   0  0  0  0  0  0  0  0  0  0  0  0
    7.5890    0.2630    4.1070 C   0  0  0  0  0  0  0  0  0  0  0  0
    6.2900    0.4390    4.6030 C   0  0  0  0  0  0  0  0  0  0  0  0
    5.4780   -0.6150    4.0280 C   0  0  0  0  0  0  0  0  0  0  0  0
    4.1400   -1.0510    4.1570 C   0  0  0  0  0  3  0  0  0  0  0  0
    3.6940   -2.1930    3.4650 C   0  0  0  0  0  3  0  0  0  0  0  0
    4.5380   -2.9030    2.6060 C   0  0  0  0  0  0  0  0  0  0  0  0
    5.8310   -2.4360    2.4040 C   0  0  0  0  0  3  0  0  0  0  0  0
    6.2930   -1.3510    3.1700 C   0  0  0  0  0  0  0  0  0  0  0  0
    3.9960   -4.1210    1.9450 C   0  0  0  0  0  0  0  0  0  0  0  0
    2.7880   -4.2050    1.7540 O   0  0  0  0  0  0  0  0  0  0  0  0
    4.7980   -5.1850    1.5160 N   0  0  0  0  0  0  0  0  0  0  0  0
    6.3180   -5.7080    1.8310 S   0  0  0  0  0  0  0  0  0  0  0  0
    6.2720   -7.1490    1.7720 O   0  0  0  0  0  0  0  0  0  0  0  0
    7.2420   -4.9610    1.0150 O   0  0  0  0  0  0  0  0  0  0  0  0
    6.5640   -5.2730    3.4200 N   0  0  0  0  0  0  0  0  0  0  0  0
    5.8580   -6.0600    4.4440 C   0  0  0  0  0  2  0  0  0  0  0  0
    5.7540   -5.2610    5.7420 C   0  0  0  0  0  2  0  0  0  0  0  0
    6.8520   -5.5590    6.7700 C   0  0  0  0  0  2  0  0  0  0  0  0
    8.2740   -5.1310    6.3930 C   0  0  0  0  0  2  0  0  0  0  0  0
    8.4250   -3.7340    5.9770 N   0  0  0  0  0  0  0  0  0  0  0  0
    7.9650   -2.7090    6.9130 C   0  0  0  0  0  1  0  0  0  0  0  0
    9.0760   -3.4790    4.7720 C   0  0  0  0  0  0  0  0  0  0  0  0
    9.3400   -4.3740    3.9680 O   0  0  0  0  0  0  0  0  0  0  0  0
    4.2680   -5.9100    1.0400 H   0  0  0  0  0  0  0  0  0  0  0  0
    7.5790   -5.2010    3.5850 H   0  0  0  0  0  0  0  0  0  0  0  0
    5.9130    1.4870    5.6390 C   0  0  0  0  0  3  0  0  0  0  0  0
    4.7750    2.4400    5.2500 C   0  0  0  0  0  2  0  0  0  0  0  0
    4.5710    3.5170    6.3170 C   0  0  0  0  0  2  0  0  0  0  0  0
    4.3000    2.8960    7.6860 C   0  0  0  0  0  2  0  0  0  0  0  0
    5.3860    1.9030    8.0830 C   0  0  0  0  0  2  0  0  0  0  0  0
    5.6140    0.8430    7.0060 C   0  0  0  0  0  2  0  0  0  0  0  0
   12.3960    4.0990    6.1560 C   0  0  0  0  0  1  0  0  0  0  0  0
   12.4410    2.9060    5.3810 O   0  0  0  0  0  0  0  0  0  0  0  0
  1  6  1  0  0  0  0
  1 43  1  0  0  0  0
  2  1  2  0  0  0  0
  3  4  2  0  0  0  0
  3  2  1  0  0  0  0
  4  5  1  0  0  0  0
  5  7  1  0  0  0  0
  5  6  2  0  0  0  0
  8 32  1  0  0  0  0
  8  7  2  0  0  0  0
  9 10  1  0  0  0  0
  9  8  1  0  0  0  0
 10 11  1  0  0  0  0
 11  4  1  0  0  0  0
 11 12  2  0  0  0  0
 12 36  1  0  0  0  0
 13 14  1  0  0  0  0
 13 12  1  0  0  0  0
 15 14  2  0  0  0  0
 16 15  1  0  0  0  0
 17 16  2  0  0  0  0
 17 18  1  0  0  0  0
 18 10  1  0  0  0  0
 18 13  2  0  0  0  0
 19 16  1  0  0  0  0
 20 19  2  0  0  0  0
 21 22  1  0  0  0  0
 21 19  1  0  0  0  0
 22 25  1  0  0  0  0
 23 22  2  0  0  0  0
 24 22  2  0  0  0  0
 25 35  1  0  0  0  0
 25 26  1  0  0  0  0
 26 27  1  0  0  0  0
 27 28  1  0  0  0  0
 29 28  1  0  0  0  0
 30 29  1  0  0  0  0
 30 31  1  0  0  0  0
 32 30  1  0  0  0  0
 33 32  2  0  0  0  0
 34 21  1  0  0  0  0
 36 41  1  0  0  0  0
 37 36  1  0  0  0  0
 37 38  1  0  0  0  0
 38 39  1  0  0  0  0
 39 40  1  0  0  0  0
 41 40  1  0  0  0  0
 43 42  1  0  0  0  0
M  END
>  <minimizedAffinity>
-4.21665192

$$$$

 OpenBabel09082221163D

 43 48  0  0  0  0  0  0  0  0999 V2000
   10.4560   -0.0260    8.8740 C   0  0  0  0  0  0  0  0  0  0  0  0
   11.3000   -0.3380    7.8100 C   0  0  0  0  0  3  0  0  0  0  0  0
   10.7670   -0.7760    6.5940 C   0  0  0  0  0  3  0  0  0  0  0  0
    9.3830   -0.9060    6.4170 C   0  0  0  0  0  0  0  0  0  0  0  0
    8.5230   -0.6270    7.5130 C   0  0  0  0  0  0  0  0  0  0  0  0
    9.0740   -0.1700    8.7190 C   0  0  0  0  0  3  0  0  0  0  0  0
    7.0490   -0.7320    7.4290 C   0  0  0  0  0  3  0  0  0  0  0  0
    6.4510   -1.7160    6.7310 C   0  0  0  0  0  0  0  0  0  0  0  0
    7.2090   -2.8850    6.1630 C   0  0  0  0  0  2  0  0  0  0  0  0
    7.9620   -2.4000    5.0120 N   0  0  0  0  0  0  0  0  0  0  0  0
    8.8690   -1.3620    5.1020 C   0  0  0  0  0  0  0  0  0  0  0  0
    8.9840   -0.8100    3.8190 C   0  0  0  0  0  0  0  0  0  0  0  0
    8.1520   -1.6100    2.9430 C   0  0  0  0  0  0  0  0  0  0  0  0
    7.7700   -1.5640    1.5840 C   0  0  0  0  0  3  0  0  0  0  0  0
    6.8630   -2.5080    1.0670 C   0  0  0  0  0  3  0  0  0  0  0  0
    6.3460   -3.5350    1.8620 C   0  0  0  0  0  0  0  0  0  0  0  0
    6.7780   -3.6440    3.1780 C   0  0  0  0  0  3  0  0  0  0  0  0
    7.6110   -2.6420    3.7070 C   0  0  0  0  0  0  0  0  0  0  0  0
    5.3620   -4.4660    1.2450 C   0  0  0  0  0  0  0  0  0  0  0  0
    5.3930   -4.6450    0.0330 O   0  0  0  0  0  0  0  0  0  0  0  0
    4.3970   -5.1640    1.9810 N   0  0  0  0  0  0  0  0  0  0  0  0
    3.7320   -5.0230    3.4710 S   0  0  0  0  0  0  0  0  0  0  0  0
    2.3550   -5.4370    3.3420 O   0  0  0  0  0  0  0  0  0  0  0  0
    4.6080   -5.6480    4.4300 O   0  0  0  0  0  0  0  0  0  0  0  0
    3.7430   -3.3810    3.7550 N   0  0  0  0  0  0  0  0  0  0  0  0
    2.7640   -2.5690    3.0130 C   0  0  0  0  0  2  0  0  0  0  0  0
    3.2180   -1.1120    2.9660 C   0  0  0  0  0  2  0  0  0  0  0  0
    2.6150   -0.2150    4.0530 C   0  0  0  0  0  2  0  0  0  0  0  0
    3.0460   -0.5060    5.4950 C   0  0  0  0  0  2  0  0  0  0  0  0
    4.4930   -0.5650    5.7220 N   0  0  0  0  0  0  0  0  0  0  0  0
    5.2750    0.6070    5.3300 C   0  0  0  0  0  1  0  0  0  0  0  0
    5.0050   -1.6820    6.3770 C   0  0  0  0  0  0  0  0  0  0  0  0
    4.3260   -2.6890    6.5820 O   0  0  0  0  0  0  0  0  0  0  0  0
    3.8440   -5.7930    1.4060 H   0  0  0  0  0  0  0  0  0  0  0  0
    3.7160   -3.2270    4.7740 H   0  0  0  0  0  0  0  0  0  0  0  0
    9.7600    0.4630    3.5110 C   0  0  0  0  0  3  0  0  0  0  0  0
    9.5100    1.6480    4.4520 C   0  0  0  0  0  2  0  0  0  0  0  0
   10.2500    2.8980    3.9720 C   0  0  0  0  0  2  0  0  0  0  0  0
   11.7480    2.6350    3.8330 C   0  0  0  0  0  2  0  0  0  0  0  0
   12.0320    1.4300    2.9430 C   0  0  0  0  0  2  0  0  0  0  0  0
   11.2710    0.1870    3.4030 C   0  0  0  0  0  2  0  0  0  0  0  0
   10.2360    1.6130   10.5850 C   0  0  0  0  0  1  0  0  0  0  0  0
   10.8470    0.4200   10.1070 O   0  0  0  0  0  0  0  0  0  0  0  0
  1 43  1  0  0  0  0
  2  1  2  0  0  0  0
  3  2  1  0  0  0  0
  4  3  2  0  0  0  0
  4  5  1  0  0  0  0
  5  6  2  0  0  0  0
  6  1  1  0  0  0  0
  7  5  1  0  0  0  0
  8  7  2  0  0  0  0
  9  8  1  0  0  0  0
 10 11  1  0  0  0  0
 10  9  1  0  0  0  0
 11  4  1  0  0  0  0
 12 11  2  0  0  0  0
 13 18  1  0  0  0  0
 13 12  1  0  0  0  0
 14 13  2  0  0  0  0
 15 14  1  0  0  0  0
 15 16  2  0  0  0  0
 16 17  1  0  0  0  0
 17 18  2  0  0  0  0
 18 10  1  0  0  0  0
 19 16  1  0  0  0  0
 19 21  1  0  0  0  0
 20 19  2  0  0  0  0
 21 22  1  0  0  0  0
 22 25  1  0  0  0  0
 22 24  2  0  0  0  0
 23 22  2  0  0  0  0
 25 35  1  0  0  0  0
 26 25  1  0  0  0  0
 27 26  1  0  0  0  0
 27 28  1  0  0  0  0
 28 29  1  0  0  0  0
 29 30  1  0  0  0  0
 30 32  1  0  0  0  0
 31 30  1  0  0  0  0
 32 33  2  0  0  0  0
 32  8  1  0  0  0  0
 34 21  1  0  0  0  0
 36 12  1  0  0  0  0
 36 37  1  0  0  0  0
 38 37  1  0  0  0  0
 39 38  1  0  0  0  0
 40 41  1  0  0  0  0
 40 39  1  0  0  0  0
 41 36  1  0  0  0  0
 43 42  1  0  0  0  0
M  END
>  <minimizedAffinity>
-4.20708609

$$$$

 OpenBabel09082221163D

 43 48  0  0  0  0  0  0  0  0999 V2000
    8.0840    2.2360    9.3220 C   0  0  0  0  0  0  0  0  0  0  0  0
    9.2770    1.8920    8.6890 C   0  0  0  0  0  3  0  0  0  0  0  0
    9.2550    1.1770    7.4870 C   0  0  0  0  0  3  0  0  0  0  0  0
    8.0430    0.7980    6.8950 C   0  0  0  0  0  0  0  0  0  0  0  0
    6.8270    1.1130    7.5590 C   0  0  0  0  0  0  0  0  0  0  0  0
    6.8680    1.8470    8.7540 C   0  0  0  0  0  3  0  0  0  0  0  0
    5.4960    0.7580    7.0170 C   0  0  0  0  0  3  0  0  0  0  0  0
    5.2810   -0.4120    6.3860 C   0  0  0  0  0  0  0  0  0  0  0  0
    6.2970   -1.5210    6.3630 C   0  0  0  0  0  2  0  0  0  0  0  0
    7.3610   -1.1200    5.4500 N   0  0  0  0  0  0  0  0  0  0  0  0
    8.0760    0.0520    5.6130 C   0  0  0  0  0  0  0  0  0  0  0  0
    8.5880    0.3940    4.3530 C   0  0  0  0  0  0  0  0  0  0  0  0
    8.2010   -0.6640    3.4430 C   0  0  0  0  0  0  0  0  0  0  0  0
    8.3250   -0.9080    2.0570 C   0  0  0  0  0  3  0  0  0  0  0  0
    7.7540   -2.0590    1.4820 C   0  0  0  0  0  3  0  0  0  0  0  0
    7.0860   -3.0090    2.2600 C   0  0  0  0  0  0  0  0  0  0  0  0
    7.0300   -2.8260    3.6370 C   0  0  0  0  0  3  0  0  0  0  0  0
    7.5220   -1.6290    4.1860 C   0  0  0  0  0  0  0  0  0  0  0  0
    6.4770   -4.1760    1.5650 C   0  0  0  0  0  0  0  0  0  0  0  0
    6.9550   -4.5470    0.4990 O   0  0  0  0  0  0  0  0  0  0  0  0
    5.3840   -4.8880    2.0720 N   0  0  0  0  0  0  0  0  0  0  0  0
    4.2220   -4.6110    3.1920 S   0  0  0  0  0  0  0  0  0  0  0  0
    3.0270   -5.2570    2.7060 O   0  0  0  0  0  0  0  0  0  0  0  0
    4.7540   -4.9170    4.4960 O   0  0  0  0  0  0  0  0  0  0  0  0
    3.9780   -2.9650    3.1080 N   0  0  0  0  0  0  0  0  0  0  0  0
    3.2550   -2.4570    1.9300 C   0  0  0  0  0  2  0  0  0  0  0  0
    3.5580   -0.9740    1.7270 C   0  0  0  0  0  2  0  0  0  0  0  0
    2.5260   -0.0180    2.3370 C   0  0  0  0  0  2  0  0  0  0  0  0
    2.4410    0.0090    3.8670 C   0  0  0  0  0  2  0  0  0  0  0  0
    3.7110    0.2230    4.5670 N   0  0  0  0  0  0  0  0  0  0  0  0
    4.4690    1.4240    4.2160 C   0  0  0  0  0  1  0  0  0  0  0  0
    4.0590   -0.6720    5.5750 C   0  0  0  0  0  0  0  0  0  0  0  0
    3.4490   -1.7270    5.7540 O   0  0  0  0  0  0  0  0  0  0  0  0
    5.1330   -5.6860    1.4940 H   0  0  0  0  0  0  0  0  0  0  0  0
    3.5760   -2.6490    4.0040 H   0  0  0  0  0  0  0  0  0  0  0  0
    9.2990    1.7060    4.0560 C   0  0  0  0  0  3  0  0  0  0  0  0
    8.5690    2.9820    4.4930 C   0  0  0  0  0  2  0  0  0  0  0  0
    9.3230    4.2320    4.0350 C   0  0  0  0  0  2  0  0  0  0  0  0
   10.7580    4.2360    4.5580 C   0  0  0  0  0  2  0  0  0  0  0  0
   11.5000    2.9570    4.1860 C   0  0  0  0  0  2  0  0  0  0  0  0
   10.7340    1.7050    4.6160 C   0  0  0  0  0  2  0  0  0  0  0  0
    6.7700    2.7530   11.2370 C   0  0  0  0  0  1  0  0  0  0  0  0
    7.9670    2.9390   10.4910 O   0  0  0  0  0  0  0  0  0  0  0  0
  1 43  1  0  0  0  0
  2  1  2  0  0  0  0
  3  2  1  0  0  0  0
  4  3  2  0  0  0  0
  4  5  1  0  0  0  0
  5  6  2  0  0  0  0
  6  1  1  0  0  0  0
  7  5  1  0  0  0  0
  8  7  2  0  0  0  0
  9  8  1  0  0  0  0
 10 11  1  0  0  0  0
 10  9  1  0  0  0  0
 11  4  1  0  0  0  0
 12 11  2  0  0  0  0
 13 18  1  0  0  0  0
 13 12  1  0  0  0  0
 14 13  2  0  0  0  0
 15 14  1  0  0  0  0
 15 16  2  0  0  0  0
 16 17  1  0  0  0  0
 17 18  2  0  0  0  0
 18 10  1  0  0  0  0
 19 21  1  0  0  0  0
 19 16  1  0  0  0  0
 20 19  2  0  0  0  0
 21 22  1  0  0  0  0
 22 24  2  0  0  0  0
 23 22  2  0  0  0  0
 25 22  1  0  0  0  0
 25 35  1  0  0  0  0
 26 25  1  0  0  0  0
 27 26  1  0  0  0  0
 27 28  1  0  0  0  0
 28 29  1  0  0  0  0
 29 30  1  0  0  0  0
 30 32  1  0  0  0  0
 31 30  1  0  0  0  0
 32 33  2  0  0  0  0
 32  8  1  0  0  0  0
 34 21  1  0  0  0  0
 36 12  1  0  0  0  0
 36 37  1  0  0  0  0
 36 41  1  0  0  0  0
 38 37  1  0  0  0  0
 38 39  1  0  0  0  0
 40 39  1  0  0  0  0
 40 41  1  0  0  0  0
 43 42  1  0  0  0  0
M  END
>  <minimizedAffinity>
-4.114223

$$$$

 OpenBabel09082221163D

 43 48  0  0  0  0  0  0  0  0999 V2000
    8.2930   -0.9070    9.5910 C   0  0  0  0  0  0  0  0  0  0  0  0
    9.2630   -1.4810    8.7700 C   0  0  0  0  0  3  0  0  0  0  0  0
    8.9880   -1.7230    7.4200 C   0  0  0  0  0  3  0  0  0  0  0  0
    7.7440   -1.3930    6.8660 C   0  0  0  0  0  0  0  0  0  0  0  0
    6.7410   -0.8450    7.7100 C   0  0  0  0  0  0  0  0  0  0  0  0
    7.0410   -0.5920    9.0570 C   0  0  0  0  0  3  0  0  0  0  0  0
    5.3970   -0.4630    7.2220 C   0  0  0  0  0  3  0  0  0  0  0  0
    4.7450   -1.1980    6.3020 C   0  0  0  0  0  0  0  0  0  0  0  0
    5.2250   -2.5520    5.8550 C   0  0  0  0  0  2  0  0  0  0  0  0
    6.3870   -2.3420    4.9990 N   0  0  0  0  0  0  0  0  0  0  0  0
    7.5100   -1.6580    5.4250 C   0  0  0  0  0  0  0  0  0  0  0  0
    8.1530   -1.1760    4.2760 C   0  0  0  0  0  0  0  0  0  0  0  0
    7.3970   -1.6620    3.1400 C   0  0  0  0  0  0  0  0  0  0  0  0
    7.4530   -1.4960    1.7370 C   0  0  0  0  0  3  0  0  0  0  0  0
    6.4820   -2.0920    0.9110 C   0  0  0  0  0  3  0  0  0  0  0  0
    5.4640   -2.8920    1.4400 C   0  0  0  0  0  0  0  0  0  0  0  0
    5.4470   -3.1340    2.8080 C   0  0  0  0  0  3  0  0  0  0  0  0
    6.3650   -2.4590    3.6310 C   0  0  0  0  0  0  0  0  0  0  0  0
    4.4560   -3.4500    0.4980 C   0  0  0  0  0  0  0  0  0  0  0  0
    4.7730   -3.6320   -0.6720 O   0  0  0  0  0  0  0  0  0  0  0  0
    3.1540   -3.7930    0.8800 N   0  0  0  0  0  0  0  0  0  0  0  0
    2.1710   -3.4400    2.1420 S   0  0  0  0  0  0  0  0  0  0  0  0
    0.8310   -3.3810    1.6100 O   0  0  0  0  0  0  0  0  0  0  0  0
    2.4950   -4.3150    3.2400 O   0  0  0  0  0  0  0  0  0  0  0  0
    2.6160   -1.8920    2.5670 N   0  0  0  0  0  0  0  0  0  0  0  0
    2.1960   -0.8060    1.6660 C   0  0  0  0  0  2  0  0  0  0  0  0
    3.0780    0.4230    1.8770 C   0  0  0  0  0  2  0  0  0  0  0  0
    2.5040    1.4700    2.8390 C   0  0  0  0  0  2  0  0  0  0  0  0
    2.3930    1.0570    4.3100 C   0  0  0  0  0  2  0  0  0  0  0  0
    3.6200    0.5280    4.9120 N   0  0  0  0  0  0  0  0  0  0  0  0
    4.8090    1.3790    4.8540 C   0  0  0  0  0  1  0  0  0  0  0  0
    3.5470   -0.6940    5.5760 C   0  0  0  0  0  0  0  0  0  0  0  0
    2.5570   -1.4230    5.4980 O   0  0  0  0  0  0  0  0  0  0  0  0
    2.6180   -4.2080    0.1220 H   0  0  0  0  0  0  0  0  0  0  0  0
    2.3510   -1.7350    3.5510 H   0  0  0  0  0  0  0  0  0  0  0  0
    9.3420   -0.2280    4.3060 C   0  0  0  0  0  3  0  0  0  0  0  0
   10.5050   -0.5750    3.3680 C   0  0  0  0  0  2  0  0  0  0  0  0
   11.6840    0.3780    3.5760 C   0  0  0  0  0  2  0  0  0  0  0  0
   11.2600    1.8320    3.3810 C   0  0  0  0  0  2  0  0  0  0  0  0
   10.0710    2.1990    4.2630 C   0  0  0  0  0  2  0  0  0  0  0  0
    8.9030    1.2310    4.0800 C   0  0  0  0  0  2  0  0  0  0  0  0
    9.7440   -0.7310   11.4680 C   0  0  0  0  0  1  0  0  0  0  0  0
    8.4370   -0.6120   10.9190 O   0  0  0  0  0  0  0  0  0  0  0  0
  1 43  1  0  0  0  0
  2  1  2  0  0  0  0
  3  2  1  0  0  0  0
  4  3  2  0  0  0  0
  4  5  1  0  0  0  0
  5  6  2  0  0  0  0
  6  1  1  0  0  0  0
  7  5  1  0  0  0  0
  8  7  2  0  0  0  0
  9  8  1  0  0  0  0
 10 11  1  0  0  0  0
 10  9  1  0  0  0  0
 11  4  1  0  0  0  0
 12 36  1  0  0  0  0
 12 11  2  0  0  0  0
 13 18  1  0  0  0  0
 13 12  1  0  0  0  0
 14 13  2  0  0  0  0
 15 16  2  0  0  0  0
 15 14  1  0  0  0  0
 16 17  1  0  0  0  0
 17 18  2  0  0  0  0
 18 10  1  0  0  0  0
 19 21  1  0  0  0  0
 19 16  1  0  0  0  0
 20 19  2  0  0  0  0
 21 22  1  0  0  0  0
 22 25  1  0  0  0  0
 22 24  2  0  0  0  0
 23 22  2  0  0  0  0
 25 35  1  0  0  0  0
 26 27  1  0  0  0  0
 26 25  1  0  0  0  0
 27 28  1  0  0  0  0
 28 29  1  0  0  0  0
 29 30  1  0  0  0  0
 30 32  1  0  0  0  0
 31 30  1  0  0  0  0
 32  8  1  0  0  0  0
 33 32  2  0  0  0  0
 34 21  1  0  0  0  0
 37 38  1  0  0  0  0
 37 36  1  0  0  0  0
 39 38  1  0  0  0  0
 39 40  1  0  0  0  0
 41 40  1  0  0  0  0
 41 36  1  0  0  0  0
 43 42  1  0  0  0  0
M  END
>  <minimizedAffinity>
-3.96888089

$$$$

 OpenBabel09082221163D

 43 48  0  0  0  0  0  0  0  0999 V2000
    9.0920   -6.7640    4.6140 C   0  0  0  0  0  0  0  0  0  0  0  0
   10.1700   -6.7060    5.4950 C   0  0  0  0  0  3  0  0  0  0  0  0
   10.5810   -5.4790    6.0250 C   0  0  0  0  0  3  0  0  0  0  0  0
    9.9210   -4.2900    5.6870 C   0  0  0  0  0  0  0  0  0  0  0  0
    8.8480   -4.3410    4.7570 C   0  0  0  0  0  0  0  0  0  0  0  0
    8.4380   -5.5840    4.2510 C   0  0  0  0  0  3  0  0  0  0  0  0
    8.0870   -3.1440    4.3360 C   0  0  0  0  0  3  0  0  0  0  0  0
    8.6920   -1.9580    4.1360 C   0  0  0  0  0  0  0  0  0  0  0  0
   10.1890   -1.8020    4.1220 C   0  0  0  0  0  2  0  0  0  0  0  0
   10.6520   -1.9110    5.5000 N   0  0  0  0  0  0  0  0  0  0  0  0
   10.3890   -3.0160    6.2870 C   0  0  0  0  0  0  0  0  0  0  0  0
   10.4710   -2.5950    7.6220 C   0  0  0  0  0  0  0  0  0  0  0  0
   10.8620   -1.2000    7.5960 C   0  0  0  0  0  0  0  0  0  0  0  0
   11.0510   -0.1800    8.5560 C   0  0  0  0  0  3  0  0  0  0  0  0
   11.3850    1.1260    8.1510 C   0  0  0  0  0  3  0  0  0  0  0  0
   11.5790    1.4460    6.8030 C   0  0  0  0  0  0  0  0  0  0  0  0
   11.4800    0.4340    5.8560 C   0  0  0  0  0  3  0  0  0  0  0  0
   11.0550   -0.8430    6.2630 C   0  0  0  0  0  0  0  0  0  0  0  0
   11.8900    2.8600    6.4610 C   0  0  0  0  0  0  0  0  0  0  0  0
   12.4400    3.5660    7.2970 O   0  0  0  0  0  0  0  0  0  0  0  0
   11.5970    3.4330    5.2180 N   0  0  0  0  0  0  0  0  0  0  0  0
   10.6110    3.0670    3.9620 S   0  0  0  0  0  0  0  0  0  0  0  0
   10.1500    4.3250    3.4270 O   0  0  0  0  0  0  0  0  0  0  0  0
   11.2720    2.1000    3.1210 O   0  0  0  0  0  0  0  0  0  0  0  0
    9.3110    2.3170    4.6860 N   0  0  0  0  0  0  0  0  0  0  0  0
    8.3800    3.1750    5.4370 C   0  0  0  0  0  2  0  0  0  0  0  0
    7.5850    2.3390    6.4390 C   0  0  0  0  0  2  0  0  0  0  0  0
    6.2100    1.8780    5.9420 C   0  0  0  0  0  2  0  0  0  0  0  0
    6.2040    0.8630    4.7940 C   0  0  0  0  0  2  0  0  0  0  0  0
    7.0230   -0.3340    5.0040 N   0  0  0  0  0  0  0  0  0  0  0  0
    6.7470   -1.1270    6.2010 C   0  0  0  0  0  1  0  0  0  0  0  0
    7.9340   -0.6830    4.0100 C   0  0  0  0  0  0  0  0  0  0  0  0
    8.2110    0.0760    3.0800 O   0  0  0  0  0  0  0  0  0  0  0  0
   11.9250    4.3910    5.1390 H   0  0  0  0  0  0  0  0  0  0  0  0
    8.8450    1.7220    3.9850 H   0  0  0  0  0  0  0  0  0  0  0  0
   10.0880   -3.4640    8.8090 C   0  0  0  0  0  3  0  0  0  0  0  0
   11.1490   -3.6090    9.9080 C   0  0  0  0  0  2  0  0  0  0  0  0
   10.6960   -4.5980   10.9840 C   0  0  0  0  0  2  0  0  0  0  0  0
    9.3560   -4.1820   11.5900 C   0  0  0  0  0  2  0  0  0  0  0  0
    8.2890   -3.9780   10.5190 C   0  0  0  0  0  2  0  0  0  0  0  0
    8.7510   -3.0140    9.4270 C   0  0  0  0  0  2  0  0  0  0  0  0
    7.3760   -7.7590    3.3010 C   0  0  0  0  0  1  0  0  0  0  0  0
    8.5870   -7.8960    4.0350 O   0  0  0  0  0  0  0  0  0  0  0  0
  1  2  1  0  0  0  0
  2  3  2  0  0  0  0
  4  3  1  0  0  0  0
  4 11  1  0  0  0  0
  5  4  2  0  0  0  0
  6  1  2  0  0  0  0
  6  5  1  0  0  0  0
  7  5  1  0  0  0  0
  8  7  2  0  0  0  0
  9  8  1  0  0  0  0
  9 10  1  0  0  0  0
 10 18  1  0  0  0  0
 10 11  1  0  0  0  0
 11 12  2  0  0  0  0
 12 36  1  0  0  0  0
 13 12  1  0  0  0  0
 13 14  1  0  0  0  0
 15 14  2  0  0  0  0
 16 15  1  0  0  0  0
 17 18  1  0  0  0  0
 17 16  2  0  0  0  0
 18 13  2  0  0  0  0
 19 16  1  0  0  0  0
 19 20  2  0  0  0  0
 21 19  1  0  0  0  0
 22 25  1  0  0  0  0
 22 21  1  0  0  0  0
 23 22  2  0  0  0  0
 24 22  2  0  0  0  0
 25 26  1  0  0  0  0
 26 27  1  0  0  0  0
 28 27  1  0  0  0  0
 29 30  1  0  0  0  0
 29 28  1  0  0  0  0
 30 31  1  0  0  0  0
 32  8  1  0  0  0  0
 32 30  1  0  0  0  0
 33 32  2  0  0  0  0
 34 21  1  0  0  0  0
 35 25  1  0  0  0  0
 36 41  1  0  0  0  0
 36 37  1  0  0  0  0
 37 38  1  0  0  0  0
 38 39  1  0  0  0  0
 40 39  1  0  0  0  0
 41 40  1  0  0  0  0
 42 43  1  0  0  0  0
 43  1  1  0  0  0  0
M  END
>  <minimizedAffinity>
-3.87732148

$$$$

 OpenBabel09082221163D

 43 48  0  0  0  0  0  0  0  0999 V2000
    9.7550   -0.4190    3.1550 C   0  0  0  0  0  0  0  0  0  0  0  0
    9.6060   -0.9650    4.4290 C   0  0  0  0  0  3  0  0  0  0  0  0
    8.6270   -1.9340    4.6690 C   0  0  0  0  0  3  0  0  0  0  0  0
    7.7830   -2.3780    3.6420 C   0  0  0  0  0  0  0  0  0  0  0  0
    7.9070   -1.7950    2.3530 C   0  0  0  0  0  0  0  0  0  0  0  0
    8.9070   -0.8380    2.1260 C   0  0  0  0  0  3  0  0  0  0  0  0
    7.0660   -2.1950    1.2020 C   0  0  0  0  0  3  0  0  0  0  0  0
    5.7610   -2.4890    1.3510 C   0  0  0  0  0  0  0  0  0  0  0  0
    5.0140   -2.2410    2.6340 C   0  0  0  0  0  2  0  0  0  0  0  0
    5.4460   -3.2510    3.5940 N   0  0  0  0  0  0  0  0  0  0  0  0
    6.7710   -3.4190    3.9480 C   0  0  0  0  0  0  0  0  0  0  0  0
    6.9040   -4.7350    4.4130 C   0  0  0  0  0  0  0  0  0  0  0  0
    5.5810   -5.3250    4.3810 C   0  0  0  0  0  0  0  0  0  0  0  0
    5.0300   -6.6000    4.6420 C   0  0  0  0  0  3  0  0  0  0  0  0
    3.6580   -6.8380    4.4410 C   0  0  0  0  0  3  0  0  0  0  0  0
    2.7940   -5.8210    4.0210 C   0  0  0  0  0  0  0  0  0  0  0  0
    3.3050   -4.5420    3.8430 C   0  0  0  0  0  3  0  0  0  0  0  0
    4.6920   -4.3390    3.9560 C   0  0  0  0  0  0  0  0  0  0  0  0
    1.3650   -6.1700    3.7950 C   0  0  0  0  0  0  0  0  0  0  0  0
    0.8790   -7.1110    4.4130 O   0  0  0  0  0  0  0  0  0  0  0  0
    0.5320   -5.4700    2.9150 N   0  0  0  0  0  0  0  0  0  0  0  0
    0.7540   -4.4370    1.6630 S   0  0  0  0  0  0  0  0  0  0  0  0
   -0.3040   -4.7080    0.7200 O   0  0  0  0  0  0  0  0  0  0  0  0
    0.9580   -3.1100    2.1890 O   0  0  0  0  0  0  0  0  0  0  0  0
    2.1850   -4.9470    0.9800 N   0  0  0  0  0  0  0  0  0  0  0  0
    2.1470   -6.2010    0.2100 C   0  0  0  0  0  2  0  0  0  0  0  0
    3.5500   -6.7950    0.1020 C   0  0  0  0  0  2  0  0  0  0  0  0
    4.3030   -6.4360   -1.1840 C   0  0  0  0  0  2  0  0  0  0  0  0
    4.7020   -4.9660   -1.3550 C   0  0  0  0  0  2  0  0  0  0  0  0
    5.4360   -4.3760   -0.2320 N   0  0  0  0  0  0  0  0  0  0  0  0
    6.6670   -5.0490    0.1830 C   0  0  0  0  0  1  0  0  0  0  0  0
    4.9680   -3.1750    0.2940 C   0  0  0  0  0  0  0  0  0  0  0  0
    3.8680   -2.7110   -0.0100 O   0  0  0  0  0  0  0  0  0  0  0  0
   -0.4250   -5.8110    2.9250 H   0  0  0  0  0  0  0  0  0  0  0  0
    2.5970   -4.1580    0.4590 H   0  0  0  0  0  0  0  0  0  0  0  0
    8.2380   -5.3830    4.7490 C   0  0  0  0  0  3  0  0  0  0  0  0
    8.4410   -5.7850    6.2160 C   0  0  0  0  0  2  0  0  0  0  0  0
    9.8580   -6.3120    6.4520 C   0  0  0  0  0  2  0  0  0  0  0  0
   10.1700   -7.4900    5.5310 C   0  0  0  0  0  2  0  0  0  0  0  0
    9.9290   -7.1420    4.0650 C   0  0  0  0  0  2  0  0  0  0  0  0
    8.5250   -6.5860    3.8320 C   0  0  0  0  0  2  0  0  0  0  0  0
   10.8160    1.6540    3.6420 C   0  0  0  0  0  1  0  0  0  0  0  0
   10.6740    0.5250    2.7870 O   0  0  0  0  0  0  0  0  0  0  0  0
  1  2  1  0  0  0  0
  2  3  2  0  0  0  0
  4 11  1  0  0  0  0
  4  3  1  0  0  0  0
  5  4  2  0  0  0  0
  6  5  1  0  0  0  0
  6  1  2  0  0  0  0
  7  8  2  0  0  0  0
  7  5  1  0  0  0  0
  8  9  1  0  0  0  0
  9 10  1  0  0  0  0
 10 11  1  0  0  0  0
 10 18  1  0  0  0  0
 11 12  2  0  0  0  0
 12 36  1  0  0  0  0
 13 12  1  0  0  0  0
 13 14  1  0  0  0  0
 15 14  2  0  0  0  0
 16 15  1  0  0  0  0
 17 18  1  0  0  0  0
 17 16  2  0  0  0  0
 18 13  2  0  0  0  0
 19 16  1  0  0  0  0
 19 20  2  0  0  0  0
 21 34  1  0  0  0  0
 21 19  1  0  0  0  0
 22 24  2  0  0  0  0
 22 21  1  0  0  0  0
 23 22  2  0  0  0  0
 25 22  1  0  0  0  0
 26 25  1  0  0  0  0
 27 26  1  0  0  0  0
 28 27  1  0  0  0  0
 29 28  1  0  0  0  0
 29 30  1  0  0  0  0
 30 31  1  0  0  0  0
 30 32  1  0  0  0  0
 32  8  1  0  0  0  0
 33 32  2  0  0  0  0
 35 25  1  0  0  0  0
 36 37  1  0  0  0  0
 37 38  1  0  0  0  0
 39 38  1  0  0  0  0
 40 39  1  0  0  0  0
 41 40  1  0  0  0  0
 41 36  1  0  0  0  0
 43  1  1  0  0  0  0
 43 42  1  0  0  0  0
M  END
>  <minimizedAffinity>
-3.87559891

$$$$
