
 OpenBabel09092210413D

 43 48  0  0  0  0  0  0  0  0999 V2000
    8.2930   -0.9070    9.5910 C   0  0  0  0  0  0  0  0  0  0  0  0
    9.2630   -1.4810    8.7700 C   0  0  0  0  0  3  0  0  0  0  0  0
    8.9880   -1.7230    7.4200 C   0  0  0  0  0  3  0  0  0  0  0  0
    7.7440   -1.3930    6.8660 C   0  0  0  0  0  0  0  0  0  0  0  0
    6.7410   -0.8450    7.7100 C   0  0  0  0  0  0  0  0  0  0  0  0
    7.0410   -0.5920    9.0570 C   0  0  0  0  0  3  0  0  0  0  0  0
    5.3970   -0.4630    7.2220 C   0  0  0  0  0  3  0  0  0  0  0  0
    4.7450   -1.1980    6.3020 C   0  0  0  0  0  0  0  0  0  0  0  0
    5.2250   -2.5520    5.8550 C   0  0  0  0  0  2  0  0  0  0  0  0
    6.3870   -2.3420    4.9990 N   0  0  0  0  0  0  0  0  0  0  0  0
    7.5100   -1.6580    5.4250 C   0  0  0  0  0  0  0  0  0  0  0  0
    8.1530   -1.1760    4.2760 C   0  0  0  0  0  0  0  0  0  0  0  0
    7.3970   -1.6620    3.1400 C   0  0  0  0  0  0  0  0  0  0  0  0
    7.4530   -1.4960    1.7370 C   0  0  0  0  0  3  0  0  0  0  0  0
    6.4820   -2.0920    0.9110 C   0  0  0  0  0  3  0  0  0  0  0  0
    5.4640   -2.8920    1.4400 C   0  0  0  0  0  0  0  0  0  0  0  0
    5.4470   -3.1340    2.8080 C   0  0  0  0  0  3  0  0  0  0  0  0
    6.3650   -2.4590    3.6310 C   0  0  0  0  0  0  0  0  0  0  0  0
    4.4560   -3.4500    0.4980 C   0  0  0  0  0  0  0  0  0  0  0  0
    4.7730   -3.6320   -0.6720 O   0  0  0  0  0  0  0  0  0  0  0  0
    3.1540   -3.7930    0.8800 N   0  0  0  0  0  0  0  0  0  0  0  0
    2.1710   -3.4400    2.1420 S   0  0  0  0  0  0  0  0  0  0  0  0
    0.8310   -3.3810    1.6100 O   0  0  0  0  0  0  0  0  0  0  0  0
    2.4950   -4.3150    3.2400 O   0  0  0  0  0  0  0  0  0  0  0  0
    2.6160   -1.8920    2.5670 N   0  0  0  0  0  0  0  0  0  0  0  0
    2.1960   -0.8060    1.6660 C   0  0  0  0  0  2  0  0  0  0  0  0
    3.0780    0.4230    1.8770 C   0  0  0  0  0  2  0  0  0  0  0  0
    2.5040    1.4700    2.8390 C   0  0  0  0  0  2  0  0  0  0  0  0
    2.3930    1.0570    4.3100 C   0  0  0  0  0  2  0  0  0  0  0  0
    3.6200    0.5280    4.9120 N   0  0  0  0  0  0  0  0  0  0  0  0
    4.8090    1.3790    4.8540 C   0  0  0  0  0  1  0  0  0  0  0  0
    3.5470   -0.6940    5.5760 C   0  0  0  0  0  0  0  0  0  0  0  0
    2.5570   -1.4230    5.4980 O   0  0  0  0  0  0  0  0  0  0  0  0
    2.6180   -4.2080    0.1220 H   0  0  0  0  0  0  0  0  0  0  0  0
    2.3510   -1.7350    3.5510 H   0  0  0  0  0  0  0  0  0  0  0  0
    9.3420   -0.2280    4.3060 C   0  0  0  0  0  3  0  0  0  0  0  0
   10.5050   -0.5750    3.3680 C   0  0  0  0  0  2  0  0  0  0  0  0
   11.6840    0.3780    3.5760 C   0  0  0  0  0  2  0  0  0  0  0  0
   11.2600    1.8320    3.3810 C   0  0  0  0  0  2  0  0  0  0  0  0
   10.0710    2.1990    4.2630 C   0  0  0  0  0  2  0  0  0  0  0  0
    8.9030    1.2310    4.0800 C   0  0  0  0  0  2  0  0  0  0  0  0
    9.7440   -0.7310   11.4680 C   0  0  0  0  0  1  0  0  0  0  0  0
    8.4370   -0.6120   10.9190 O   0  0  0  0  0  0  0  0  0  0  0  0
  1 43  1  0  0  0  0
  2  1  2  0  0  0  0
  3  2  1  0  0  0  0
  4  3  2  0  0  0  0
  4  5  1  0  0  0  0
  5  6  2  0  0  0  0
  6  1  1  0  0  0  0
  7  5  1  0  0  0  0
  8  7  2  0  0  0  0
  9  8  1  0  0  0  0
 10 11  1  0  0  0  0
 10  9  1  0  0  0  0
 11  4  1  0  0  0  0
 12 36  1  0  0  0  0
 12 11  2  0  0  0  0
 13 18  1  0  0  0  0
 13 12  1  0  0  0  0
 14 13  2  0  0  0  0
 15 16  2  0  0  0  0
 15 14  1  0  0  0  0
 16 17  1  0  0  0  0
 17 18  2  0  0  0  0
 18 10  1  0  0  0  0
 19 21  1  0  0  0  0
 19 16  1  0  0  0  0
 20 19  2  0  0  0  0
 21 22  1  0  0  0  0
 22 25  1  0  0  0  0
 22 24  2  0  0  0  0
 23 22  2  0  0  0  0
 25 35  1  0  0  0  0
 26 27  1  0  0  0  0
 26 25  1  0  0  0  0
 27 28  1  0  0  0  0
 28 29  1  0  0  0  0
 29 30  1  0  0  0  0
 30 32  1  0  0  0  0
 31 30  1  0  0  0  0
 32  8  1  0  0  0  0
 33 32  2  0  0  0  0
 34 21  1  0  0  0  0
 37 38  1  0  0  0  0
 37 36  1  0  0  0  0
 39 38  1  0  0  0  0
 39 40  1  0  0  0  0
 41 40  1  0  0  0  0
 41 36  1  0  0  0  0
 43 42  1  0  0  0  0
M  END
>  <minimizedAffinity>
-3.96888089

$$$$
