REMARK  Name = 
REMARK  4 active torsions:
REMARK  status: ('A' for Active; 'I' for Inactive)
REMARK    1  A    between atoms: C_1  and  O_2
REMARK    2  A    between atoms: O_2  and  C_3
REMARK    3  A    between atoms: C_14  and  C_15
REMARK    4  A    between atoms: N_38  and  C_39
REMARK                            x       y       z     vdW  Elec       q    Type
REMARK                         _______ _______ _______ _____ _____    ______ ____
ROOT
ATOM      1  C   UNL     1       0.442  -1.334   3.581  0.00  0.00    +0.121 A 
ATOM      2  C   UNL     1       1.218  -0.180   3.491  0.00  0.00    +0.046 A 
ATOM      3  C   UNL     1       2.330  -0.013   4.323  0.00  0.00    +0.014 A 
ATOM      4  C   UNL     1       2.688  -0.996   5.255  0.00  0.00    +0.006 A 
ATOM      5  C   UNL     1       1.875  -2.155   5.376  0.00  0.00    -0.012 A 
ATOM      6  C   UNL     1       0.775  -2.314   4.520  0.00  0.00    +0.054 A 
ATOM      7  C   UNL     1       2.168  -3.250   6.328  0.00  0.00    +0.019 C 
ATOM      8  C   UNL     1       2.645  -3.003   7.562  0.00  0.00    +0.035 C 
ATOM      9  C   UNL     1       2.723  -1.616   8.140  0.00  0.00    +0.162 C 
ATOM     10  N   UNL     1       3.824  -0.927   7.476  0.00  0.00    -0.335 N 
ATOM     11  C   UNL     1       3.885  -0.775   6.104  0.00  0.00    +0.054 A 
ATOM     12  C   UNL     1       5.235  -0.591   5.774  0.00  0.00    -0.011 A 
ATOM     13  C   UNL     1       5.971  -0.574   7.022  0.00  0.00    +0.004 A 
ATOM     14  C   UNL     1       7.331  -0.498   7.398  0.00  0.00    +0.011 A 
ATOM     15  C   UNL     1       7.700  -0.572   8.754  0.00  0.00    +0.014 A 
ATOM     16  C   UNL     1       6.742  -0.682   9.767  0.00  0.00    +0.040 A 
ATOM     17  C   UNL     1       5.397  -0.672   9.418  0.00  0.00    +0.039 A 
ATOM     18  C   UNL     1       5.045  -0.691   8.057  0.00  0.00    +0.051 A 
ATOM     19  C   UNL     1       7.222  -0.795  11.171  0.00  0.00    +0.264 C 
ATOM     20  O   UNL     1       8.310  -0.315  11.467  0.00  0.00    -0.269 OA
ATOM     21  N   UNL     1       6.487  -1.417  12.187  0.00  0.00    -0.172 N 
ATOM     22  S   UNL     1       5.230  -2.465  12.251  0.00  0.00    +0.112 S 
ATOM     23  O   UNL     1       5.461  -3.307  13.400  0.00  0.00    -0.138 OA
ATOM     24  O   UNL     1       4.002  -1.724  12.109  0.00  0.00    -0.138 OA
ATOM     25  N   UNL     1       5.428  -3.402  10.888  0.00  0.00    -0.177 NA
ATOM     26  C   UNL     1       6.521  -4.388  10.909  0.00  0.00    +0.107 C 
ATOM     27  C   UNL     1       6.906  -4.777   9.483  0.00  0.00    +0.018 C 
ATOM     28  C   UNL     1       6.234  -6.052   8.961  0.00  0.00    +0.020 C 
ATOM     29  C   UNL     1       4.719  -5.985   8.741  0.00  0.00    +0.108 C 
ATOM     30  N   UNL     1       4.249  -4.868   7.917  0.00  0.00    -0.301 N 
ATOM     31  C   UNL     1       4.824  -4.742   6.578  0.00  0.00    +0.132 C 
ATOM     32  C   UNL     1       3.228  -4.068   8.424  0.00  0.00    +0.244 C 
ATOM     33  O   UNL     1       2.859  -4.142   9.597  0.00  0.00    -0.270 OA
ATOM     34  H   UNL     1       6.942  -1.357  13.094  0.00  0.00    +0.178 HD
ATOM     35  H   UNL     1       4.514  -3.808  10.636  0.00  0.00    +0.149 HD
ENDROOT
BRANCH  12  36
ATOM     36  C   UNL     1       5.760  -0.549   4.347  0.00  0.00    +0.022 C 
ATOM     37  C   UNL     1       7.070   0.220   4.133  0.00  0.00    +0.008 C 
ATOM     38  C   UNL     1       7.430   0.293   2.648  0.00  0.00    +0.001 C 
ATOM     39  C   UNL     1       7.526  -1.102   2.033  0.00  0.00    +0.000 C 
ATOM     40  C   UNL     1       6.258  -1.915   2.271  0.00  0.00    +0.001 C 
ATOM     41  C   UNL     1       5.879  -1.964   3.751  0.00  0.00    +0.008 C 
ENDBRANCH  12  36
BRANCH   1  43
ATOM     42  C   UNL     1      -1.053  -0.651   1.861  0.00  0.00    +0.277 C 
ATOM     43  O   UNL     1      -0.660  -1.623   2.823  0.00  0.00    -0.495 OA
ENDBRANCH   1  43
TORSDOF 2
