
 OpenBabel09092210413D

 43 48  0  0  0  0  0  0  0  0999 V2000
   11.1630   -0.4840    4.0090 C   0  0  0  0  0  0  0  0  0  0  0  0
   10.9330   -1.0980    5.2390 C   0  0  0  0  0  3  0  0  0  0  0  0
    9.7430   -1.7980    5.4650 C   0  0  0  0  0  3  0  0  0  0  0  0
    8.7650   -1.8990    4.4670 C   0  0  0  0  0  0  0  0  0  0  0  0
    8.9790   -1.2390    3.2270 C   0  0  0  0  0  0  0  0  0  0  0  0
   10.1870   -0.5590    3.0110 C   0  0  0  0  0  3  0  0  0  0  0  0
    8.0090   -1.2860    2.1090 C   0  0  0  0  0  3  0  0  0  0  0  0
    6.6820   -1.2420    2.3260 C   0  0  0  0  0  0  0  0  0  0  0  0
    6.0880   -0.9390    3.6750 C   0  0  0  0  0  2  0  0  0  0  0  0
    6.2790   -2.1200    4.5110 N   0  0  0  0  0  0  0  0  0  0  0  0
    7.5260   -2.6640    4.7540 C   0  0  0  0  0  0  0  0  0  0  0  0
    7.3240   -4.0090    5.0920 C   0  0  0  0  0  0  0  0  0  0  0  0
    5.8920   -4.2260    5.1060 C   0  0  0  0  0  0  0  0  0  0  0  0
    5.0340   -5.3330    5.2940 C   0  0  0  0  0  3  0  0  0  0  0  0
    3.6400   -5.1820    5.1740 C   0  0  0  0  0  3  0  0  0  0  0  0
    3.0600   -3.9370    4.9050 C   0  0  0  0  0  0  0  0  0  0  0  0
    3.8860   -2.8250    4.8020 C   0  0  0  0  0  3  0  0  0  0  0  0
    5.2800   -3.0040    4.8320 C   0  0  0  0  0  0  0  0  0  0  0  0
    1.5810   -3.8760    4.7540 C   0  0  0  0  0  0  0  0  0  0  0  0
    0.8900   -4.7140    5.3210 O   0  0  0  0  0  0  0  0  0  0  0  0
    0.9260   -2.8960    3.9990 N   0  0  0  0  0  0  0  0  0  0  0  0
    1.3570   -1.8350    2.8280 S   0  0  0  0  0  0  0  0  0  0  0  0
    0.2220   -1.7220    1.9440 O   0  0  0  0  0  0  0  0  0  0  0  0
    1.9320   -0.6680    3.4500 O   0  0  0  0  0  0  0  0  0  0  0  0
    2.5660   -2.6290    2.0030 N   0  0  0  0  0  0  0  0  0  0  0  0
    2.1580   -3.7440    1.1320 C   0  0  0  0  0  2  0  0  0  0  0  0
    3.3450   -4.6700    0.8730 C   0  0  0  0  0  2  0  0  0  0  0  0
    4.1060   -4.3910   -0.4280 C   0  0  0  0  0  2  0  0  0  0  0  0
    4.8740   -3.0670   -0.5000 C   0  0  0  0  0  2  0  0  0  0  0  0
    5.7910   -2.8070    0.6130 N   0  0  0  0  0  0  0  0  0  0  0  0
    6.8160   -3.8170    0.8790 C   0  0  0  0  0  1  0  0  0  0  0  0
    5.6860   -1.5860    1.2730 C   0  0  0  0  0  0  0  0  0  0  0  0
    4.7370   -0.8220    1.0900 O   0  0  0  0  0  0  0  0  0  0  0  0
   -0.0870   -2.9740    4.0480 H   0  0  0  0  0  0  0  0  0  0  0  0
    3.1490   -1.9260    1.5230 H   0  0  0  0  0  0  0  0  0  0  0  0
    8.4510   -5.0150    5.2750 C   0  0  0  0  0  3  0  0  0  0  0  0
    8.4920   -5.7430    6.6250 C   0  0  0  0  0  2  0  0  0  0  0  0
    9.7310   -6.6330    6.7330 C   0  0  0  0  0  2  0  0  0  0  0  0
    9.7920   -7.6380    5.5850 C   0  0  0  0  0  2  0  0  0  0  0  0
    9.7030   -6.9520    4.2260 C   0  0  0  0  0  2  0  0  0  0  0  0
    8.4820   -6.0380    4.1250 C   0  0  0  0  0  2  0  0  0  0  0  0
   12.0840    1.4330    2.9430 C   0  0  0  0  0  1  0  0  0  0  0  0
   12.2830    0.2190    3.6590 O   0  0  0  0  0  0  0  0  0  0  0  0
  1  2  1  0  0  0  0
  2  3  2  0  0  0  0
  4 11  1  0  0  0  0
  4  3  1  0  0  0  0
  5  4  2  0  0  0  0
  6  5  1  0  0  0  0
  6  1  2  0  0  0  0
  7  8  2  0  0  0  0
  7  5  1  0  0  0  0
  8  9  1  0  0  0  0
  9 10  1  0  0  0  0
 10 11  1  0  0  0  0
 10 18  1  0  0  0  0
 11 12  2  0  0  0  0
 12 13  1  0  0  0  0
 12 36  1  0  0  0  0
 13 14  1  0  0  0  0
 15 14  2  0  0  0  0
 16 15  1  0  0  0  0
 17 18  1  0  0  0  0
 17 16  2  0  0  0  0
 18 13  2  0  0  0  0
 19 16  1  0  0  0  0
 19 20  2  0  0  0  0
 21 34  1  0  0  0  0
 21 19  1  0  0  0  0
 22 24  2  0  0  0  0
 22 21  1  0  0  0  0
 23 22  2  0  0  0  0
 25 22  1  0  0  0  0
 26 25  1  0  0  0  0
 27 26  1  0  0  0  0
 28 27  1  0  0  0  0
 29 28  1  0  0  0  0
 29 30  1  0  0  0  0
 30 31  1  0  0  0  0
 30 32  1  0  0  0  0
 32  8  1  0  0  0  0
 33 32  2  0  0  0  0
 35 25  1  0  0  0  0
 36 37  1  0  0  0  0
 37 38  1  0  0  0  0
 39 38  1  0  0  0  0
 40 39  1  0  0  0  0
 41 40  1  0  0  0  0
 41 36  1  0  0  0  0
 42 43  1  0  0  0  0
 43  1  1  0  0  0  0
M  END
>  <minimizedAffinity>
-4.24985552

$$$$
