
 OpenBabel09082221323D

 43 48  0  0  0  0  0  0  0  0999 V2000
    2.5390   -4.9280    5.4690 C   0  0  0  0  0  0  0  0  0  0  0  0
    2.2960   -4.0680    4.3990 C   0  0  0  0  0  3  0  0  0  0  0  0
    3.3440   -3.3320    3.8370 C   0  0  0  0  0  3  0  0  0  0  0  0
    4.6510   -3.4440    4.3300 C   0  0  0  0  0  0  0  0  0  0  0  0
    4.8930   -4.2900    5.4460 C   0  0  0  0  0  0  0  0  0  0  0  0
    3.8330   -5.0350    5.9840 C   0  0  0  0  0  3  0  0  0  0  0  0
    6.2360   -4.4780    6.0390 C   0  0  0  0  0  3  0  0  0  0  0  0
    7.1050   -3.4570    6.1540 C   0  0  0  0  0  0  0  0  0  0  0  0
    6.7190   -2.0270    5.8860 C   0  0  0  0  0  2  0  0  0  0  0  0
    6.5870   -1.8740    4.4410 N   0  0  0  0  0  0  0  0  0  0  0  0
    5.7280   -2.6510    3.6880 C   0  0  0  0  0  0  0  0  0  0  0  0
    6.2200   -2.6450    2.3750 C   0  0  0  0  0  0  0  0  0  0  0  0
    7.3770   -1.7730    2.3660 C   0  0  0  0  0  0  0  0  0  0  0  0
    8.3510   -1.3880    1.4180 C   0  0  0  0  0  3  0  0  0  0  0  0
    9.4080   -0.5370    1.7890 C   0  0  0  0  0  3  0  0  0  0  0  0
    9.5080   -0.0170    3.0840 C   0  0  0  0  0  0  0  0  0  0  0  0
    8.5100   -0.3180    4.0030 C   0  0  0  0  0  3  0  0  0  0  0  0
    7.5120   -1.2420    3.6480 C   0  0  0  0  0  0  0  0  0  0  0  0
   10.6800    0.8440    3.4010 C   0  0  0  0  0  0  0  0  0  0  0  0
   11.2230    1.4650    2.4950 O   0  0  0  0  0  0  0  0  0  0  0  0
   11.1960    0.9920    4.6930 N   0  0  0  0  0  0  0  0  0  0  0  0
   11.0840    0.1670    6.1030 S   0  0  0  0  0  0  0  0  0  0  0  0
   12.3660    0.2950    6.7530 O   0  0  0  0  0  0  0  0  0  0  0  0
    9.8690    0.5590    6.7740 O   0  0  0  0  0  0  0  0  0  0  0  0
   10.9170   -1.4190    5.6190 N   0  0  0  0  0  0  0  0  0  0  0  0
   12.1170   -2.0830    5.0860 C   0  0  0  0  0  2  0  0  0  0  0  0
   11.7170   -3.2850    4.2310 C   0  0  0  0  0  2  0  0  0  0  0  0
   11.7260   -4.6290    4.9680 C   0  0  0  0  0  2  0  0  0  0  0  0
   10.6740   -4.8140    6.0660 C   0  0  0  0  0  2  0  0  0  0  0  0
    9.2910   -4.5360    5.6690 N   0  0  0  0  0  0  0  0  0  0  0  0
    8.7660   -5.2800    4.5240 C   0  0  0  0  0  1  0  0  0  0  0  0
    8.5480   -3.6630    6.4600 C   0  0  0  0  0  0  0  0  0  0  0  0
    9.0660   -2.9760    7.3410 O   0  0  0  0  0  0  0  0  0  0  0  0
   11.9640    1.6570    4.7350 H   0  0  0  0  0  0  0  0  0  0  0  0
   10.4600   -1.9450    6.3800 H   0  0  0  0  0  0  0  0  0  0  0  0
    5.6610   -3.5130    1.2580 C   0  0  0  0  0  3  0  0  0  0  0  0
    5.2720   -2.7820   -0.0340 C   0  0  0  0  0  2  0  0  0  0  0  0
    4.6150   -3.7370   -1.0320 C   0  0  0  0  0  2  0  0  0  0  0  0
    5.5270   -4.9220   -1.3450 C   0  0  0  0  0  2  0  0  0  0  0  0
    5.9750   -5.6440   -0.0790 C   0  0  0  0  0  2  0  0  0  0  0  0
    6.6040   -4.6860    0.9330 C   0  0  0  0  0  2  0  0  0  0  0  0
    2.0930   -6.8460    6.8050 C   0  0  0  0  0  1  0  0  0  0  0  0
    1.6080   -5.7080    6.1000 O   0  0  0  0  0  0  0  0  0  0  0  0
  1  6  1  0  0  0  0
  1 43  1  0  0  0  0
  2  1  2  0  0  0  0
  3  4  2  0  0  0  0
  3  2  1  0  0  0  0
  4  5  1  0  0  0  0
  5  6  2  0  0  0  0
  5  7  1  0  0  0  0
  7  8  2  0  0  0  0
  8 32  1  0  0  0  0
  9  8  1  0  0  0  0
 10  9  1  0  0  0  0
 11  4  1  0  0  0  0
 11 10  1  0  0  0  0
 12 11  2  0  0  0  0
 13 12  1  0  0  0  0
 13 18  1  0  0  0  0
 14 15  1  0  0  0  0
 14 13  2  0  0  0  0
 15 16  2  0  0  0  0
 16 19  1  0  0  0  0
 16 17  1  0  0  0  0
 18 17  2  0  0  0  0
 18 10  1  0  0  0  0
 19 21  1  0  0  0  0
 20 19  2  0  0  0  0
 21 34  1  0  0  0  0
 21 22  1  0  0  0  0
 22 23  2  0  0  0  0
 22 24  2  0  0  0  0
 25 22  1  0  0  0  0
 25 35  1  0  0  0  0
 26 25  1  0  0  0  0
 27 28  1  0  0  0  0
 27 26  1  0  0  0  0
 28 29  1  0  0  0  0
 30 29  1  0  0  0  0
 30 32  1  0  0  0  0
 31 30  1  0  0  0  0
 32 33  2  0  0  0  0
 36 12  1  0  0  0  0
 37 36  1  0  0  0  0
 38 37  1  0  0  0  0
 39 38  1  0  0  0  0
 39 40  1  0  0  0  0
 40 41  1  0  0  0  0
 41 36  1  0  0  0  0
 43 42  1  0  0  0  0
M  END
>  <minimizedAffinity>
-4.74977446

$$$$

 OpenBabel09082221323D

 43 48  0  0  0  0  0  0  0  0999 V2000
    2.1970   -1.1890    5.9380 C   0  0  0  0  0  0  0  0  0  0  0  0
    2.3610   -0.9440    4.5760 C   0  0  0  0  0  3  0  0  0  0  0  0
    3.6300   -0.6660    4.0590 C   0  0  0  0  0  3  0  0  0  0  0  0
    4.7570   -0.6320    4.8910 C   0  0  0  0  0  0  0  0  0  0  0  0
    4.5860   -0.8410    6.2860 C   0  0  0  0  0  0  0  0  0  0  0  0
    3.3080   -1.1380    6.7840 C   0  0  0  0  0  3  0  0  0  0  0  0
    5.7110   -0.8270    7.2480 C   0  0  0  0  0  3  0  0  0  0  0  0
    6.7300    0.0440    7.1270 C   0  0  0  0  0  0  0  0  0  0  0  0
    6.7110    1.1870    6.1490 C   0  0  0  0  0  2  0  0  0  0  0  0
    6.9110    0.6260    4.8180 N   0  0  0  0  0  0  0  0  0  0  0  0
    6.0830   -0.3450    4.2890 C   0  0  0  0  0  0  0  0  0  0  0  0
    6.8220   -1.0220    3.3090 C   0  0  0  0  0  0  0  0  0  0  0  0
    8.1110   -0.3650    3.2310 C   0  0  0  0  0  0  0  0  0  0  0  0
    9.3170   -0.5740    2.5240 C   0  0  0  0  0  3  0  0  0  0  0  0
   10.4280    0.2590    2.7500 C   0  0  0  0  0  3  0  0  0  0  0  0
   10.3660    1.3340    3.6420 C   0  0  0  0  0  0  0  0  0  0  0  0
    9.1620    1.6040    4.2800 C   0  0  0  0  0  3  0  0  0  0  0  0
    8.0880    0.7110    4.1170 C   0  0  0  0  0  0  0  0  0  0  0  0
   11.6010    2.1390    3.8500 C   0  0  0  0  0  0  0  0  0  0  0  0
   12.4330    2.1920    2.9520 O   0  0  0  0  0  0  0  0  0  0  0  0
   11.8620    2.8560    5.0230 N   0  0  0  0  0  0  0  0  0  0  0  0
   11.2950    2.8360    6.5600 S   0  0  0  0  0  0  0  0  0  0  0  0
   12.4160    3.1580    7.4100 O   0  0  0  0  0  0  0  0  0  0  0  0
   10.0780    3.6060    6.6140 O   0  0  0  0  0  0  0  0  0  0  0  0
   10.9070    1.2370    6.8160 N   0  0  0  0  0  0  0  0  0  0  0  0
   12.0280    0.2990    6.9970 C   0  0  0  0  0  2  0  0  0  0  0  0
   11.5720   -1.1280    6.7010 C   0  0  0  0  0  2  0  0  0  0  0  0
   11.1530   -1.9380    7.9340 C   0  0  0  0  0  2  0  0  0  0  0  0
    9.8830   -1.4740    8.6560 C   0  0  0  0  0  2  0  0  0  0  0  0
    8.6980   -1.3120    7.8100 N   0  0  0  0  0  0  0  0  0  0  0  0
    8.2770   -2.4740    7.0270 C   0  0  0  0  0  1  0  0  0  0  0  0
    8.0060   -0.1060    7.8810 C   0  0  0  0  0  0  0  0  0  0  0  0
    8.4630    0.8780    8.4630 O   0  0  0  0  0  0  0  0  0  0  0  0
   12.7250    3.3900    4.9730 H   0  0  0  0  0  0  0  0  0  0  0  0
   10.2070    1.1890    7.5720 H   0  0  0  0  0  0  0  0  0  0  0  0
    6.3370   -2.2750    2.5970 C   0  0  0  0  0  3  0  0  0  0  0  0
    6.3860   -2.2410    1.0640 C   0  0  0  0  0  2  0  0  0  0  0  0
    5.7640   -3.5030    0.4640 C   0  0  0  0  0  2  0  0  0  0  0  0
    6.4500   -4.7620    0.9900 C   0  0  0  0  0  2  0  0  0  0  0  0
    6.4640   -4.8050    2.5140 C   0  0  0  0  0  2  0  0  0  0  0  0
    7.0580   -3.5320    3.1170 C   0  0  0  0  0  2  0  0  0  0  0  0
   -0.1390   -0.7790    6.1240 C   0  0  0  0  0  1  0  0  0  0  0  0
    1.0170   -1.4810    6.5670 O   0  0  0  0  0  0  0  0  0  0  0  0
  1 43  1  0  0  0  0
  1  6  1  0  0  0  0
  2  1  2  0  0  0  0
  3  2  1  0  0  0  0
  3  4  2  0  0  0  0
  4  5  1  0  0  0  0
  5  6  2  0  0  0  0
  5  7  1  0  0  0  0
  8  7  2  0  0  0  0
  8 32  1  0  0  0  0
  9  8  1  0  0  0  0
 10  9  1  0  0  0  0
 11 10  1  0  0  0  0
 11  4  1  0  0  0  0
 12 11  2  0  0  0  0
 13 12  1  0  0  0  0
 13 18  1  0  0  0  0
 14 15  1  0  0  0  0
 14 13  2  0  0  0  0
 15 16  2  0  0  0  0
 16 19  1  0  0  0  0
 16 17  1  0  0  0  0
 18 17  2  0  0  0  0
 18 10  1  0  0  0  0
 19 21  1  0  0  0  0
 20 19  2  0  0  0  0
 21 22  1  0  0  0  0
 22 24  2  0  0  0  0
 22 25  1  0  0  0  0
 22 23  2  0  0  0  0
 25 26  1  0  0  0  0
 25 35  1  0  0  0  0
 27 26  1  0  0  0  0
 27 28  1  0  0  0  0
 28 29  1  0  0  0  0
 30 32  1  0  0  0  0
 30 29  1  0  0  0  0
 31 30  1  0  0  0  0
 32 33  2  0  0  0  0
 34 21  1  0  0  0  0
 36 41  1  0  0  0  0
 36 12  1  0  0  0  0
 37 36  1  0  0  0  0
 38 39  1  0  0  0  0
 38 37  1  0  0  0  0
 39 40  1  0  0  0  0
 40 41  1  0  0  0  0
 42 43  1  0  0  0  0
M  END
>  <minimizedAffinity>
-4.56865168

$$$$

 OpenBabel09082221323D

 43 48  0  0  0  0  0  0  0  0999 V2000
    9.5590   -0.0690    3.1990 C   0  0  0  0  0  0  0  0  0  0  0  0
    8.7600    0.2610    4.2930 C   0  0  0  0  0  3  0  0  0  0  0  0
    7.4660   -0.2570    4.4010 C   0  0  0  0  0  3  0  0  0  0  0  0
    6.9480   -1.1160    3.4220 C   0  0  0  0  0  0  0  0  0  0  0  0
    7.7460   -1.4220    2.2860 C   0  0  0  0  0  0  0  0  0  0  0  0
    9.0490   -0.9080    2.2050 C   0  0  0  0  0  3  0  0  0  0  0  0
    7.2920   -2.3180    1.1990 C   0  0  0  0  0  3  0  0  0  0  0  0
    6.0180   -2.3110    0.7650 C   0  0  0  0  0  0  0  0  0  0  0  0
    5.0200   -1.2700    1.1930 C   0  0  0  0  0  2  0  0  0  0  0  0
    4.6450   -1.5650    2.5720 N   0  0  0  0  0  0  0  0  0  0  0  0
    5.5740   -1.6490    3.5920 C   0  0  0  0  0  0  0  0  0  0  0  0
    5.0050   -2.4450    4.5960 C   0  0  0  0  0  0  0  0  0  0  0  0
    3.6650   -2.7780    4.1560 C   0  0  0  0  0  0  0  0  0  0  0  0
    2.6070   -3.5800    4.6390 C   0  0  0  0  0  3  0  0  0  0  0  0
    1.4240   -3.7250    3.8910 C   0  0  0  0  0  3  0  0  0  0  0  0
    1.2410   -3.0560    2.6770 C   0  0  0  0  0  0  0  0  0  0  0  0
    2.2380   -2.1980    2.2310 C   0  0  0  0  0  3  0  0  0  0  0  0
    3.4510   -2.1330    2.9390 C   0  0  0  0  0  0  0  0  0  0  0  0
   -0.0240   -3.2980    1.9320 C   0  0  0  0  0  0  0  0  0  0  0  0
   -1.0260   -3.6300    2.5550 O   0  0  0  0  0  0  0  0  0  0  0  0
   -0.1380   -3.1560    0.5440 N   0  0  0  0  0  0  0  0  0  0  0  0
    0.9050   -3.0920   -0.7170 S   0  0  0  0  0  0  0  0  0  0  0  0
    0.2430   -3.7370   -1.8250 O   0  0  0  0  0  0  0  0  0  0  0  0
    1.4060   -1.7460   -0.8350 O   0  0  0  0  0  0  0  0  0  0  0  0
    2.1640   -4.0720   -0.2390 N   0  0  0  0  0  0  0  0  0  0  0  0
    1.9190   -5.5230   -0.2460 C   0  0  0  0  0  2  0  0  0  0  0  0
    2.9150   -6.2290    0.6730 C   0  0  0  0  0  2  0  0  0  0  0  0
    4.1560   -6.7870   -0.0310 C   0  0  0  0  0  2  0  0  0  0  0  0
    5.1300   -5.7580   -0.6170 C   0  0  0  0  0  2  0  0  0  0  0  0
    5.5780   -4.7140    0.3080 N   0  0  0  0  0  0  0  0  0  0  0  0
    6.2080   -5.1540    1.5530 C   0  0  0  0  0  1  0  0  0  0  0  0
    5.4600   -3.3870   -0.0990 C   0  0  0  0  0  0  0  0  0  0  0  0
    4.8200   -3.0640   -1.1010 O   0  0  0  0  0  0  0  0  0  0  0  0
   -1.0860   -3.3100    0.2100 H   0  0  0  0  0  0  0  0  0  0  0  0
    3.0090   -3.7950   -0.7610 H   0  0  0  0  0  0  0  0  0  0  0  0
    5.7600   -2.9240    5.8260 C   0  0  0  0  0  3  0  0  0  0  0  0
    5.0950   -2.6410    7.1790 C   0  0  0  0  0  2  0  0  0  0  0  0
    6.0010   -3.0590    8.3380 C   0  0  0  0  0  2  0  0  0  0  0  0
    6.3860   -4.5340    8.2340 C   0  0  0  0  0  2  0  0  0  0  0  0
    7.0050   -4.8640    6.8800 C   0  0  0  0  0  2  0  0  0  0  0  0
    6.1160   -4.4190    5.7200 C   0  0  0  0  0  2  0  0  0  0  0  0
   11.1280    1.7160    3.3060 C   0  0  0  0  0  1  0  0  0  0  0  0
   10.8390    0.3610    2.9800 O   0  0  0  0  0  0  0  0  0  0  0  0
  1  2  1  0  0  0  0
  2  3  2  0  0  0  0
  4 11  1  0  0  0  0
  4  3  1  0  0  0  0
  5  4  2  0  0  0  0
  6  5  1  0  0  0  0
  6  1  2  0  0  0  0
  7  5  1  0  0  0  0
  8  9  1  0  0  0  0
  8  7  2  0  0  0  0
  9 10  1  0  0  0  0
 10 18  1  0  0  0  0
 10 11  1  0  0  0  0
 11 12  2  0  0  0  0
 12 36  1  0  0  0  0
 13 12  1  0  0  0  0
 13 14  1  0  0  0  0
 15 14  2  0  0  0  0
 16 15  1  0  0  0  0
 17 16  2  0  0  0  0
 17 18  1  0  0  0  0
 18 13  2  0  0  0  0
 19 20  2  0  0  0  0
 19 16  1  0  0  0  0
 21 19  1  0  0  0  0
 22 25  1  0  0  0  0
 22 21  1  0  0  0  0
 23 22  2  0  0  0  0
 24 22  2  0  0  0  0
 26 25  1  0  0  0  0
 26 27  1  0  0  0  0
 28 27  1  0  0  0  0
 29 28  1  0  0  0  0
 29 30  1  0  0  0  0
 30 31  1  0  0  0  0
 32 30  1  0  0  0  0
 32  8  1  0  0  0  0
 33 32  2  0  0  0  0
 34 21  1  0  0  0  0
 35 25  1  0  0  0  0
 36 37  1  0  0  0  0
 37 38  1  0  0  0  0
 39 38  1  0  0  0  0
 40 39  1  0  0  0  0
 41 36  1  0  0  0  0
 41 40  1  0  0  0  0
 43  1  1  0  0  0  0
 43 42  1  0  0  0  0
M  END
>  <minimizedAffinity>
-4.54802322

$$$$

 OpenBabel09082221323D

 43 48  0  0  0  0  0  0  0  0999 V2000
   11.0080   -2.0560    9.1960 C   0  0  0  0  0  0  0  0  0  0  0  0
   11.8330   -2.1060    8.0730 C   0  0  0  0  0  3  0  0  0  0  0  0
   11.2760   -2.0810    6.7900 C   0  0  0  0  0  3  0  0  0  0  0  0
    9.8900   -2.0010    6.6060 C   0  0  0  0  0  0  0  0  0  0  0  0
    9.0460   -1.9910    7.7490 C   0  0  0  0  0  0  0  0  0  0  0  0
    9.6220   -1.9970    9.0280 C   0  0  0  0  0  3  0  0  0  0  0  0
    7.5700   -1.9080    7.6620 C   0  0  0  0  0  3  0  0  0  0  0  0
    6.8830   -2.5540    6.7010 C   0  0  0  0  0  0  0  0  0  0  0  0
    7.5220   -3.5590    5.7820 C   0  0  0  0  0  2  0  0  0  0  0  0
    8.3410   -2.8190    4.8280 N   0  0  0  0  0  0  0  0  0  0  0  0
    9.3520   -1.9640    5.2230 C   0  0  0  0  0  0  0  0  0  0  0  0
    9.5470   -1.0520    4.1770 C   0  0  0  0  0  0  0  0  0  0  0  0
    8.6490   -1.4440    3.1090 C   0  0  0  0  0  0  0  0  0  0  0  0
    8.2970   -0.9330    1.8400 C   0  0  0  0  0  3  0  0  0  0  0  0
    7.3040   -1.5650    1.0680 C   0  0  0  0  0  3  0  0  0  0  0  0
    6.6670   -2.7290    1.5090 C   0  0  0  0  0  0  0  0  0  0  0  0
    7.0640   -3.2910    2.7170 C   0  0  0  0  0  3  0  0  0  0  0  0
    7.9890   -2.6010    3.5190 C   0  0  0  0  0  0  0  0  0  0  0  0
    5.6010   -3.3090    0.6490 C   0  0  0  0  0  0  0  0  0  0  0  0
    5.6330   -3.1010   -0.5590 O   0  0  0  0  0  0  0  0  0  0  0  0
    4.5560   -4.0970    1.1450 N   0  0  0  0  0  0  0  0  0  0  0  0
    3.8840   -4.3620    2.6150 S   0  0  0  0  0  0  0  0  0  0  0  0
    2.4740   -4.5660    2.3870 O   0  0  0  0  0  0  0  0  0  0  0  0
    4.6730   -5.3450    3.3140 O   0  0  0  0  0  0  0  0  0  0  0  0
    4.0640   -2.9040    3.4000 N   0  0  0  0  0  0  0  0  0  0  0  0
    3.1890   -1.8010    2.9690 C   0  0  0  0  0  2  0  0  0  0  0  0
    3.7960   -0.4590    3.3740 C   0  0  0  0  0  2  0  0  0  0  0  0
    3.2730    0.1090    4.6980 C   0  0  0  0  0  2  0  0  0  0  0  0
    3.6470   -0.6630    5.9680 C   0  0  0  0  0  2  0  0  0  0  0  0
    5.0750   -0.9440    6.1390 N   0  0  0  0  0  0  0  0  0  0  0  0
    5.9840    0.2020    6.1210 C   0  0  0  0  0  1  0  0  0  0  0  0
    5.4550   -2.2580    6.4010 C   0  0  0  0  0  0  0  0  0  0  0  0
    4.6700   -3.2010    6.2910 O   0  0  0  0  0  0  0  0  0  0  0  0
    3.9480   -4.4510    0.4120 H   0  0  0  0  0  0  0  0  0  0  0  0
    4.0370   -3.0750    4.4170 H   0  0  0  0  0  0  0  0  0  0  0  0
   10.4570    0.1630    4.2710 C   0  0  0  0  0  3  0  0  0  0  0  0
   11.0520    0.6640    2.9490 C   0  0  0  0  0  2  0  0  0  0  0  0
   12.0390    1.8080    3.1860 C   0  0  0  0  0  2  0  0  0  0  0  0
   11.3790    2.9600    3.9420 C   0  0  0  0  0  2  0  0  0  0  0  0
   10.7310    2.4890    5.2400 C   0  0  0  0  0  2  0  0  0  0  0  0
    9.7670    1.3260    5.0090 C   0  0  0  0  0  2  0  0  0  0  0  0
   10.4630   -1.7010   11.4840 C   0  0  0  0  0  1  0  0  0  0  0  0
   11.4240   -2.0650   10.4990 O   0  0  0  0  0  0  0  0  0  0  0  0
  1 43  1  0  0  0  0
  2  1  2  0  0  0  0
  3  2  1  0  0  0  0
  4  3  2  0  0  0  0
  4  5  1  0  0  0  0
  5  6  2  0  0  0  0
  6  1  1  0  0  0  0
  7  5  1  0  0  0  0
  8  7  2  0  0  0  0
  9  8  1  0  0  0  0
 10 11  1  0  0  0  0
 10  9  1  0  0  0  0
 11  4  1  0  0  0  0
 12 36  1  0  0  0  0
 12 11  2  0  0  0  0
 13 18  1  0  0  0  0
 13 12  1  0  0  0  0
 14 13  2  0  0  0  0
 15 16  2  0  0  0  0
 15 14  1  0  0  0  0
 16 17  1  0  0  0  0
 17 18  2  0  0  0  0
 18 10  1  0  0  0  0
 19 21  1  0  0  0  0
 19 16  1  0  0  0  0
 20 19  2  0  0  0  0
 21 22  1  0  0  0  0
 22 24  2  0  0  0  0
 22 25  1  0  0  0  0
 23 22  2  0  0  0  0
 25 35  1  0  0  0  0
 26 27  1  0  0  0  0
 26 25  1  0  0  0  0
 27 28  1  0  0  0  0
 28 29  1  0  0  0  0
 29 30  1  0  0  0  0
 30 32  1  0  0  0  0
 31 30  1  0  0  0  0
 32  8  1  0  0  0  0
 33 32  2  0  0  0  0
 34 21  1  0  0  0  0
 36 41  1  0  0  0  0
 37 38  1  0  0  0  0
 37 36  1  0  0  0  0
 38 39  1  0  0  0  0
 39 40  1  0  0  0  0
 41 40  1  0  0  0  0
 43 42  1  0  0  0  0
M  END
>  <minimizedAffinity>
-4.35589123

$$$$

 OpenBabel09082221323D

 43 48  0  0  0  0  0  0  0  0999 V2000
   11.1630   -0.4840    4.0090 C   0  0  0  0  0  0  0  0  0  0  0  0
   10.9330   -1.0980    5.2390 C   0  0  0  0  0  3  0  0  0  0  0  0
    9.7430   -1.7980    5.4650 C   0  0  0  0  0  3  0  0  0  0  0  0
    8.7650   -1.8990    4.4670 C   0  0  0  0  0  0  0  0  0  0  0  0
    8.9790   -1.2390    3.2270 C   0  0  0  0  0  0  0  0  0  0  0  0
   10.1870   -0.5590    3.0110 C   0  0  0  0  0  3  0  0  0  0  0  0
    8.0090   -1.2860    2.1090 C   0  0  0  0  0  3  0  0  0  0  0  0
    6.6820   -1.2420    2.3260 C   0  0  0  0  0  0  0  0  0  0  0  0
    6.0880   -0.9390    3.6750 C   0  0  0  0  0  2  0  0  0  0  0  0
    6.2790   -2.1200    4.5110 N   0  0  0  0  0  0  0  0  0  0  0  0
    7.5260   -2.6640    4.7540 C   0  0  0  0  0  0  0  0  0  0  0  0
    7.3240   -4.0090    5.0920 C   0  0  0  0  0  0  0  0  0  0  0  0
    5.8920   -4.2260    5.1060 C   0  0  0  0  0  0  0  0  0  0  0  0
    5.0340   -5.3330    5.2940 C   0  0  0  0  0  3  0  0  0  0  0  0
    3.6400   -5.1820    5.1740 C   0  0  0  0  0  3  0  0  0  0  0  0
    3.0600   -3.9370    4.9050 C   0  0  0  0  0  0  0  0  0  0  0  0
    3.8860   -2.8250    4.8020 C   0  0  0  0  0  3  0  0  0  0  0  0
    5.2800   -3.0040    4.8320 C   0  0  0  0  0  0  0  0  0  0  0  0
    1.5810   -3.8760    4.7540 C   0  0  0  0  0  0  0  0  0  0  0  0
    0.8900   -4.7140    5.3210 O   0  0  0  0  0  0  0  0  0  0  0  0
    0.9260   -2.8960    3.9990 N   0  0  0  0  0  0  0  0  0  0  0  0
    1.3570   -1.8350    2.8280 S   0  0  0  0  0  0  0  0  0  0  0  0
    0.2220   -1.7220    1.9440 O   0  0  0  0  0  0  0  0  0  0  0  0
    1.9320   -0.6680    3.4500 O   0  0  0  0  0  0  0  0  0  0  0  0
    2.5660   -2.6290    2.0030 N   0  0  0  0  0  0  0  0  0  0  0  0
    2.1580   -3.7440    1.1320 C   0  0  0  0  0  2  0  0  0  0  0  0
    3.3450   -4.6700    0.8730 C   0  0  0  0  0  2  0  0  0  0  0  0
    4.1060   -4.3910   -0.4280 C   0  0  0  0  0  2  0  0  0  0  0  0
    4.8740   -3.0670   -0.5000 C   0  0  0  0  0  2  0  0  0  0  0  0
    5.7910   -2.8070    0.6130 N   0  0  0  0  0  0  0  0  0  0  0  0
    6.8160   -3.8170    0.8790 C   0  0  0  0  0  1  0  0  0  0  0  0
    5.6860   -1.5860    1.2730 C   0  0  0  0  0  0  0  0  0  0  0  0
    4.7370   -0.8220    1.0900 O   0  0  0  0  0  0  0  0  0  0  0  0
   -0.0870   -2.9740    4.0480 H   0  0  0  0  0  0  0  0  0  0  0  0
    3.1490   -1.9260    1.5230 H   0  0  0  0  0  0  0  0  0  0  0  0
    8.4510   -5.0150    5.2750 C   0  0  0  0  0  3  0  0  0  0  0  0
    8.4920   -5.7430    6.6250 C   0  0  0  0  0  2  0  0  0  0  0  0
    9.7310   -6.6330    6.7330 C   0  0  0  0  0  2  0  0  0  0  0  0
    9.7920   -7.6380    5.5850 C   0  0  0  0  0  2  0  0  0  0  0  0
    9.7030   -6.9520    4.2260 C   0  0  0  0  0  2  0  0  0  0  0  0
    8.4820   -6.0380    4.1250 C   0  0  0  0  0  2  0  0  0  0  0  0
   12.0840    1.4330    2.9430 C   0  0  0  0  0  1  0  0  0  0  0  0
   12.2830    0.2190    3.6590 O   0  0  0  0  0  0  0  0  0  0  0  0
  1  2  1  0  0  0  0
  2  3  2  0  0  0  0
  4 11  1  0  0  0  0
  4  3  1  0  0  0  0
  5  4  2  0  0  0  0
  6  5  1  0  0  0  0
  6  1  2  0  0  0  0
  7  8  2  0  0  0  0
  7  5  1  0  0  0  0
  8  9  1  0  0  0  0
  9 10  1  0  0  0  0
 10 11  1  0  0  0  0
 10 18  1  0  0  0  0
 11 12  2  0  0  0  0
 12 13  1  0  0  0  0
 12 36  1  0  0  0  0
 13 14  1  0  0  0  0
 15 14  2  0  0  0  0
 16 15  1  0  0  0  0
 17 18  1  0  0  0  0
 17 16  2  0  0  0  0
 18 13  2  0  0  0  0
 19 16  1  0  0  0  0
 19 20  2  0  0  0  0
 21 34  1  0  0  0  0
 21 19  1  0  0  0  0
 22 24  2  0  0  0  0
 22 21  1  0  0  0  0
 23 22  2  0  0  0  0
 25 22  1  0  0  0  0
 26 25  1  0  0  0  0
 27 26  1  0  0  0  0
 28 27  1  0  0  0  0
 29 28  1  0  0  0  0
 29 30  1  0  0  0  0
 30 31  1  0  0  0  0
 30 32  1  0  0  0  0
 32  8  1  0  0  0  0
 33 32  2  0  0  0  0
 35 25  1  0  0  0  0
 36 37  1  0  0  0  0
 37 38  1  0  0  0  0
 39 38  1  0  0  0  0
 40 39  1  0  0  0  0
 41 40  1  0  0  0  0
 41 36  1  0  0  0  0
 42 43  1  0  0  0  0
 43  1  1  0  0  0  0
M  END
>  <minimizedAffinity>
-4.24985552

$$$$

 OpenBabel09082221323D

 43 48  0  0  0  0  0  0  0  0999 V2000
   11.2370    2.2990    5.1880 C   0  0  0  0  0  0  0  0  0  0  0  0
   10.1590    3.0020    4.6530 C   0  0  0  0  0  3  0  0  0  0  0  0
    8.9800    2.3300    4.3110 C   0  0  0  0  0  3  0  0  0  0  0  0
    8.8580    0.9470    4.5010 C   0  0  0  0  0  0  0  0  0  0  0  0
    9.9700    0.2230    5.0090 C   0  0  0  0  0  0  0  0  0  0  0  0
   11.1360    0.9170    5.3640 C   0  0  0  0  0  3  0  0  0  0  0  0
    9.9410   -1.2380    5.2460 C   0  0  0  0  0  3  0  0  0  0  0  0
    9.3060   -2.0770    4.4060 C   0  0  0  0  0  0  0  0  0  0  0  0
    8.7620   -1.6350    3.0750 C   0  0  0  0  0  2  0  0  0  0  0  0
    7.5660   -0.8410    3.3330 N   0  0  0  0  0  0  0  0  0  0  0  0
    7.5810    0.2850    4.1340 C   0  0  0  0  0  0  0  0  0  0  0  0
    6.2730    0.4690    4.6030 C   0  0  0  0  0  0  0  0  0  0  0  0
    5.4610   -0.5620    3.9900 C   0  0  0  0  0  0  0  0  0  0  0  0
    4.1140   -0.9820    4.0790 C   0  0  0  0  0  3  0  0  0  0  0  0
    3.6690   -2.1040    3.3560 C   0  0  0  0  0  3  0  0  0  0  0  0
    4.5230   -2.8100    2.5030 C   0  0  0  0  0  0  0  0  0  0  0  0
    5.8270   -2.3580    2.3400 C   0  0  0  0  0  3  0  0  0  0  0  0
    6.2850   -1.2940    3.1370 C   0  0  0  0  0  0  0  0  0  0  0  0
    3.9800   -4.0080    1.8070 C   0  0  0  0  0  0  0  0  0  0  0  0
    2.7770   -4.0710    1.5860 O   0  0  0  0  0  0  0  0  0  0  0  0
    4.7780   -5.0750    1.3770 N   0  0  0  0  0  0  0  0  0  0  0  0
    6.2830   -5.6240    1.7170 S   0  0  0  0  0  0  0  0  0  0  0  0
    6.2190   -7.0640    1.6300 O   0  0  0  0  0  0  0  0  0  0  0  0
    7.2360   -4.8760    0.9370 O   0  0  0  0  0  0  0  0  0  0  0  0
    6.4970   -5.2220    3.3190 N   0  0  0  0  0  0  0  0  0  0  0  0
    5.7570   -6.0180    4.3120 C   0  0  0  0  0  2  0  0  0  0  0  0
    5.6330   -5.2430    5.6220 C   0  0  0  0  0  2  0  0  0  0  0  0
    6.7020   -5.5750    6.6690 C   0  0  0  0  0  2  0  0  0  0  0  0
    8.1390   -5.1600    6.3330 C   0  0  0  0  0  2  0  0  0  0  0  0
    8.3180   -3.7580    5.9470 N   0  0  0  0  0  0  0  0  0  0  0  0
    7.8510   -2.7430    6.8910 C   0  0  0  0  0  1  0  0  0  0  0  0
    9.0010   -3.4900    4.7630 C   0  0  0  0  0  0  0  0  0  0  0  0
    9.2720   -4.3730    3.9480 O   0  0  0  0  0  0  0  0  0  0  0  0
    4.2490   -5.7830    0.8750 H   0  0  0  0  0  0  0  0  0  0  0  0
    7.5100   -5.1680    3.5090 H   0  0  0  0  0  0  0  0  0  0  0  0
    5.8860    1.5030    5.6500 C   0  0  0  0  0  3  0  0  0  0  0  0
    4.7500    2.4600    5.2640 C   0  0  0  0  0  2  0  0  0  0  0  0
    4.5350    3.5230    6.3430 C   0  0  0  0  0  2  0  0  0  0  0  0
    4.2530    2.8830    7.7020 C   0  0  0  0  0  2  0  0  0  0  0  0
    5.3380    1.8860    8.0940 C   0  0  0  0  0  2  0  0  0  0  0  0
    5.5760    0.8410    7.0050 C   0  0  0  0  0  2  0  0  0  0  0  0
   12.4080    4.1480    6.1210 C   0  0  0  0  0  1  0  0  0  0  0  0
   12.4360    2.8360    5.5700 O   0  0  0  0  0  0  0  0  0  0  0  0
  1  6  1  0  0  0  0
  1 43  1  0  0  0  0
  2  1  2  0  0  0  0
  3  4  2  0  0  0  0
  3  2  1  0  0  0  0
  4  5  1  0  0  0  0
  5  7  1  0  0  0  0
  5  6  2  0  0  0  0
  8 32  1  0  0  0  0
  8  7  2  0  0  0  0
  9 10  1  0  0  0  0
  9  8  1  0  0  0  0
 10 11  1  0  0  0  0
 11  4  1  0  0  0  0
 11 12  2  0  0  0  0
 12 36  1  0  0  0  0
 13 14  1  0  0  0  0
 13 12  1  0  0  0  0
 15 14  2  0  0  0  0
 16 15  1  0  0  0  0
 17 16  2  0  0  0  0
 17 18  1  0  0  0  0
 18 10  1  0  0  0  0
 18 13  2  0  0  0  0
 19 16  1  0  0  0  0
 20 19  2  0  0  0  0
 21 22  1  0  0  0  0
 21 19  1  0  0  0  0
 22 25  1  0  0  0  0
 23 22  2  0  0  0  0
 24 22  2  0  0  0  0
 25 35  1  0  0  0  0
 25 26  1  0  0  0  0
 26 27  1  0  0  0  0
 27 28  1  0  0  0  0
 29 28  1  0  0  0  0
 30 29  1  0  0  0  0
 30 31  1  0  0  0  0
 32 30  1  0  0  0  0
 33 32  2  0  0  0  0
 34 21  1  0  0  0  0
 36 41  1  0  0  0  0
 37 36  1  0  0  0  0
 37 38  1  0  0  0  0
 38 39  1  0  0  0  0
 39 40  1  0  0  0  0
 41 40  1  0  0  0  0
 43 42  1  0  0  0  0
M  END
>  <minimizedAffinity>
-4.21111679

$$$$

 OpenBabel09082221323D

 43 48  0  0  0  0  0  0  0  0999 V2000
    9.7890    0.5160    8.9710 C   0  0  0  0  0  0  0  0  0  0  0  0
   10.7330    0.0780    8.0450 C   0  0  0  0  0  3  0  0  0  0  0  0
   10.3220   -0.4640    6.8230 C   0  0  0  0  0  3  0  0  0  0  0  0
    8.9620   -0.5720    6.5030 C   0  0  0  0  0  0  0  0  0  0  0  0
    7.9970   -0.1620    7.4620 C   0  0  0  0  0  0  0  0  0  0  0  0
    8.4290    0.3960    8.6740 C   0  0  0  0  0  3  0  0  0  0  0  0
    6.5380   -0.2350    7.2200 C   0  0  0  0  0  3  0  0  0  0  0  0
    5.9840   -1.2660    6.5560 C   0  0  0  0  0  0  0  0  0  0  0  0
    6.7540   -2.5060    6.1920 C   0  0  0  0  0  2  0  0  0  0  0  0
    7.6480   -2.1580    5.0930 N   0  0  0  0  0  0  0  0  0  0  0  0
    8.5790   -1.1410    5.1870 C   0  0  0  0  0  0  0  0  0  0  0  0
    8.8570   -0.7210    3.8780 C   0  0  0  0  0  0  0  0  0  0  0  0
    8.0970   -1.5810    2.9940 C   0  0  0  0  0  0  0  0  0  0  0  0
    7.8700   -1.6590    1.6010 C   0  0  0  0  0  3  0  0  0  0  0  0
    6.9900   -2.6240    1.0760 C   0  0  0  0  0  3  0  0  0  0  0  0
    6.3490   -3.5530    1.9010 C   0  0  0  0  0  0  0  0  0  0  0  0
    6.6280   -3.5430    3.2620 C   0  0  0  0  0  3  0  0  0  0  0  0
    7.4350   -2.5180    3.7860 C   0  0  0  0  0  0  0  0  0  0  0  0
    5.4040   -4.5120    1.2670 C   0  0  0  0  0  0  0  0  0  0  0  0
    5.5620   -4.8110    0.0890 O   0  0  0  0  0  0  0  0  0  0  0  0
    4.3380   -5.1070    1.9520 N   0  0  0  0  0  0  0  0  0  0  0  0
    3.5170   -4.8020    3.3360 S   0  0  0  0  0  0  0  0  0  0  0  0
    2.1490   -5.1890    3.0910 O   0  0  0  0  0  0  0  0  0  0  0  0
    4.2570   -5.3530    4.4440 O   0  0  0  0  0  0  0  0  0  0  0  0
    3.5600   -3.1420    3.4620 N   0  0  0  0  0  0  0  0  0  0  0  0
    2.7010   -2.3800    2.5400 C   0  0  0  0  0  2  0  0  0  0  0  0
    3.2130   -0.9480    2.4070 C   0  0  0  0  0  2  0  0  0  0  0  0
    2.5290    0.0680    3.3280 C   0  0  0  0  0  2  0  0  0  0  0  0
    2.7860   -0.0900    4.8310 C   0  0  0  0  0  2  0  0  0  0  0  0
    4.1950   -0.1670    5.2260 N   0  0  0  0  0  0  0  0  0  0  0  0
    5.0610    0.9390    4.8160 C   0  0  0  0  0  1  0  0  0  0  0  0
    4.5890   -1.2280    6.0370 C   0  0  0  0  0  0  0  0  0  0  0  0
    3.8530   -2.1910    6.2590 O   0  0  0  0  0  0  0  0  0  0  0  0
    3.8270   -5.7750    1.3800 H   0  0  0  0  0  0  0  0  0  0  0  0
    3.4270   -2.8870    4.4520 H   0  0  0  0  0  0  0  0  0  0  0  0
    9.7100    0.4930    3.5420 C   0  0  0  0  0  3  0  0  0  0  0  0
    9.4680    1.7440    4.3950 C   0  0  0  0  0  2  0  0  0  0  0  0
   10.2940    2.9270    3.8860 C   0  0  0  0  0  2  0  0  0  0  0  0
   11.7830    2.5870    3.8500 C   0  0  0  0  0  2  0  0  0  0  0  0
   12.0560    1.3170    3.0510 C   0  0  0  0  0  2  0  0  0  0  0  0
   11.2090    0.1420    3.5390 C   0  0  0  0  0  2  0  0  0  0  0  0
    8.9420    1.4870   10.9710 C   0  0  0  0  0  1  0  0  0  0  0  0
   10.0580    1.0710   10.1930 O   0  0  0  0  0  0  0  0  0  0  0  0
  1 43  1  0  0  0  0
  2  1  2  0  0  0  0
  3  2  1  0  0  0  0
  4  3  2  0  0  0  0
  4  5  1  0  0  0  0
  5  6  2  0  0  0  0
  6  1  1  0  0  0  0
  7  5  1  0  0  0  0
  8  7  2  0  0  0  0
  9  8  1  0  0  0  0
 10 11  1  0  0  0  0
 10  9  1  0  0  0  0
 11  4  1  0  0  0  0
 12 11  2  0  0  0  0
 13 18  1  0  0  0  0
 13 12  1  0  0  0  0
 14 13  2  0  0  0  0
 15 14  1  0  0  0  0
 15 16  2  0  0  0  0
 16 17  1  0  0  0  0
 17 18  2  0  0  0  0
 18 10  1  0  0  0  0
 19 16  1  0  0  0  0
 19 21  1  0  0  0  0
 20 19  2  0  0  0  0
 21 22  1  0  0  0  0
 22 25  1  0  0  0  0
 22 24  2  0  0  0  0
 23 22  2  0  0  0  0
 25 35  1  0  0  0  0
 26 25  1  0  0  0  0
 27 26  1  0  0  0  0
 27 28  1  0  0  0  0
 28 29  1  0  0  0  0
 29 30  1  0  0  0  0
 30 32  1  0  0  0  0
 31 30  1  0  0  0  0
 32 33  2  0  0  0  0
 32  8  1  0  0  0  0
 34 21  1  0  0  0  0
 36 12  1  0  0  0  0
 36 37  1  0  0  0  0
 38 37  1  0  0  0  0
 39 38  1  0  0  0  0
 40 41  1  0  0  0  0
 40 39  1  0  0  0  0
 41 36  1  0  0  0  0
 43 42  1  0  0  0  0
M  END
>  <minimizedAffinity>
-4.191082

$$$$

 OpenBabel09082221323D

 43 48  0  0  0  0  0  0  0  0999 V2000
   10.2800    1.6890    3.9820 C   0  0  0  0  0  0  0  0  0  0  0  0
    9.2010    2.4310    4.4580 C   0  0  0  0  0  3  0  0  0  0  0  0
    7.9450    1.8340    4.6030 C   0  0  0  0  0  3  0  0  0  0  0  0
    7.7450    0.4860    4.2790 C   0  0  0  0  0  0  0  0  0  0  0  0
    8.8340   -0.2620    3.7550 C   0  0  0  0  0  0  0  0  0  0  0  0
   10.0910    0.3480    3.6350 C   0  0  0  0  0  3  0  0  0  0  0  0
    8.7270   -1.6910    3.3840 C   0  0  0  0  0  3  0  0  0  0  0  0
    7.6220   -2.1860    2.7950 C   0  0  0  0  0  0  0  0  0  0  0  0
    6.5100   -1.3080    2.2880 C   0  0  0  0  0  2  0  0  0  0  0  0
    5.7810   -0.8110    3.4490 N   0  0  0  0  0  0  0  0  0  0  0  0
    6.3960   -0.1030    4.4640 C   0  0  0  0  0  0  0  0  0  0  0  0
    5.5990   -0.2560    5.6080 C   0  0  0  0  0  0  0  0  0  0  0  0
    4.4440   -1.0360    5.2100 C   0  0  0  0  0  0  0  0  0  0  0  0
    3.3210   -1.5920    5.8630 C   0  0  0  0  0  3  0  0  0  0  0  0
    2.3950   -2.3720    5.1460 C   0  0  0  0  0  3  0  0  0  0  0  0
    2.5310   -2.5870    3.7710 C   0  0  0  0  0  0  0  0  0  0  0  0
    3.5830   -1.9760    3.1000 C   0  0  0  0  0  3  0  0  0  0  0  0
    4.5510   -1.2770    3.8420 C   0  0  0  0  0  0  0  0  0  0  0  0
    1.5280   -3.4580    3.0990 C   0  0  0  0  0  0  0  0  0  0  0  0
    0.4050   -3.5510    3.5810 O   0  0  0  0  0  0  0  0  0  0  0  0
    1.7950   -4.1760    1.9280 N   0  0  0  0  0  0  0  0  0  0  0  0
    3.1420   -4.6580    1.1300 S   0  0  0  0  0  0  0  0  0  0  0  0
    2.8320   -5.9410    0.5480 O   0  0  0  0  0  0  0  0  0  0  0  0
    3.6110   -3.5670    0.3140 O   0  0  0  0  0  0  0  0  0  0  0  0
    4.2530   -4.9080    2.3460 N   0  0  0  0  0  0  0  0  0  0  0  0
    4.0680   -6.1050    3.1820 C   0  0  0  0  0  2  0  0  0  0  0  0
    4.7950   -5.9330    4.5150 C   0  0  0  0  0  2  0  0  0  0  0  0
    6.2010   -6.5430    4.5630 C   0  0  0  0  0  2  0  0  0  0  0  0
    7.2630   -5.8840    3.6770 C   0  0  0  0  0  2  0  0  0  0  0  0
    7.4040   -4.4340    3.8330 N   0  0  0  0  0  0  0  0  0  0  0  0
    7.6820   -3.9340    5.1790 C   0  0  0  0  0  1  0  0  0  0  0  0
    7.3590   -3.6470    2.6840 C   0  0  0  0  0  0  0  0  0  0  0  0
    7.0080   -4.1000    1.5940 O   0  0  0  0  0  0  0  0  0  0  0  0
    0.9820   -4.6760    1.5800 H   0  0  0  0  0  0  0  0  0  0  0  0
    5.1990   -4.8310    1.9440 H   0  0  0  0  0  0  0  0  0  0  0  0
    6.0030    0.2290    6.9920 C   0  0  0  0  0  3  0  0  0  0  0  0
    7.3840   -0.2180    7.4870 C   0  0  0  0  0  2  0  0  0  0  0  0
    7.6240    0.2300    8.9290 C   0  0  0  0  0  2  0  0  0  0  0  0
    7.4730    1.7430    9.0710 C   0  0  0  0  0  2  0  0  0  0  0  0
    6.1290    2.2300    8.5410 C   0  0  0  0  0  2  0  0  0  0  0  0
    5.8730    1.7590    7.1100 C   0  0  0  0  0  2  0  0  0  0  0  0
   12.4120    1.3690    2.9770 C   0  0  0  0  0  1  0  0  0  0  0  0
   11.5560    2.1490    3.8040 O   0  0  0  0  0  0  0  0  0  0  0  0
  1  2  1  0  0  0  0
  2  3  2  0  0  0  0
  4 11  1  0  0  0  0
  4  3  1  0  0  0  0
  5  4  2  0  0  0  0
  6  5  1  0  0  0  0
  6  1  2  0  0  0  0
  7  5  1  0  0  0  0
  8  7  2  0  0  0  0
  9  8  1  0  0  0  0
  9 10  1  0  0  0  0
 10 18  1  0  0  0  0
 10 11  1  0  0  0  0
 11 12  2  0  0  0  0
 12 36  1  0  0  0  0
 13 12  1  0  0  0  0
 13 14  1  0  0  0  0
 15 14  2  0  0  0  0
 16 15  1  0  0  0  0
 17 16  2  0  0  0  0
 17 18  1  0  0  0  0
 18 13  2  0  0  0  0
 19 20  2  0  0  0  0
 19 16  1  0  0  0  0
 21 19  1  0  0  0  0
 22 21  1  0  0  0  0
 22 25  1  0  0  0  0
 23 22  2  0  0  0  0
 24 22  2  0  0  0  0
 25 26  1  0  0  0  0
 26 27  1  0  0  0  0
 27 28  1  0  0  0  0
 29 30  1  0  0  0  0
 29 28  1  0  0  0  0
 30 31  1  0  0  0  0
 32  8  1  0  0  0  0
 32 30  1  0  0  0  0
 33 32  2  0  0  0  0
 34 21  1  0  0  0  0
 35 25  1  0  0  0  0
 36 41  1  0  0  0  0
 36 37  1  0  0  0  0
 37 38  1  0  0  0  0
 38 39  1  0  0  0  0
 40 39  1  0  0  0  0
 41 40  1  0  0  0  0
 42 43  1  0  0  0  0
 43  1  1  0  0  0  0
M  END
>  <minimizedAffinity>
-3.7442627

$$$$

 OpenBabel09082221323D

 43 48  0  0  0  0  0  0  0  0999 V2000
    8.4240   -6.6470    5.1990 C   0  0  0  0  0  0  0  0  0  0  0  0
    7.1070   -6.2160    5.3520 C   0  0  0  0  0  3  0  0  0  0  0  0
    6.8140   -4.8490    5.3860 C   0  0  0  0  0  3  0  0  0  0  0  0
    7.8280   -3.8900    5.2650 C   0  0  0  0  0  0  0  0  0  0  0  0
    9.1750   -4.3270    5.1490 C   0  0  0  0  0  0  0  0  0  0  0  0
    9.4480   -5.7020    5.0960 C   0  0  0  0  0  3  0  0  0  0  0  0
   10.3170   -3.3940    5.0140 C   0  0  0  0  0  3  0  0  0  0  0  0
   10.3620   -2.2320    5.6920 C   0  0  0  0  0  0  0  0  0  0  0  0
    9.3790   -1.8860    6.7770 C   0  0  0  0  0  2  0  0  0  0  0  0
    8.1110   -1.5670    6.1320 N   0  0  0  0  0  0  0  0  0  0  0  0
    7.4600   -2.4520    5.2940 C   0  0  0  0  0  0  0  0  0  0  0  0
    6.6330   -1.6890    4.4580 C   0  0  0  0  0  0  0  0  0  0  0  0
    6.7700   -0.3100    4.8820 C   0  0  0  0  0  0  0  0  0  0  0  0
    6.2860    0.9410    4.4390 C   0  0  0  0  0  3  0  0  0  0  0  0
    6.6890    2.1280    5.0790 C   0  0  0  0  0  3  0  0  0  0  0  0
    7.5410    2.1070    6.1880 C   0  0  0  0  0  0  0  0  0  0  0  0
    7.9570    0.8790    6.6870 C   0  0  0  0  0  3  0  0  0  0  0  0
    7.6230   -0.2920    5.9840 C   0  0  0  0  0  0  0  0  0  0  0  0
    7.9480    3.4100    6.7790 C   0  0  0  0  0  0  0  0  0  0  0  0
    7.2080    4.3780    6.6490 O   0  0  0  0  0  0  0  0  0  0  0  0
    9.1390    3.5920    7.4920 N   0  0  0  0  0  0  0  0  0  0  0  0
   10.5540    2.7810    7.6370 S   0  0  0  0  0  0  0  0  0  0  0  0
   11.5810    3.7820    7.8010 O   0  0  0  0  0  0  0  0  0  0  0  0
   10.3860    1.7260    8.6040 O   0  0  0  0  0  0  0  0  0  0  0  0
   10.7630    2.0810    6.1400 N   0  0  0  0  0  0  0  0  0  0  0  0
   11.1470    2.9730    5.0340 C   0  0  0  0  0  2  0  0  0  0  0  0
   10.7970    2.3300    3.6940 C   0  0  0  0  0  2  0  0  0  0  0  0
   11.9500    1.5740    3.0230 C   0  0  0  0  0  2  0  0  0  0  0  0
   12.4350    0.3030    3.7270 C   0  0  0  0  0  2  0  0  0  0  0  0
   11.3940   -0.6760    4.0510 N   0  0  0  0  0  0  0  0  0  0  0  0
   10.5670   -1.1580    2.9450 C   0  0  0  0  0  1  0  0  0  0  0  0
   11.3270   -1.1480    5.3600 C   0  0  0  0  0  0  0  0  0  0  0  0
   11.9660   -0.6290    6.2770 O   0  0  0  0  0  0  0  0  0  0  0  0
    9.2310    4.5320    7.8690 H   0  0  0  0  0  0  0  0  0  0  0  0
   11.3860    1.2660    6.2460 H   0  0  0  0  0  0  0  0  0  0  0  0
    5.8650   -2.2600    3.2760 C   0  0  0  0  0  3  0  0  0  0  0  0
    4.3790   -1.8890    3.1950 C   0  0  0  0  0  2  0  0  0  0  0  0
    3.6910   -2.6170    2.0390 C   0  0  0  0  0  2  0  0  0  0  0  0
    4.3850   -2.3230    0.7100 C   0  0  0  0  0  2  0  0  0  0  0  0
    5.8770   -2.6320    0.7690 C   0  0  0  0  0  2  0  0  0  0  0  0
    6.5610   -1.9310    1.9420 C   0  0  0  0  0  2  0  0  0  0  0  0
   10.1350   -8.2330    5.6620 C   0  0  0  0  0  1  0  0  0  0  0  0
    8.8420   -7.9480    5.1400 O   0  0  0  0  0  0  0  0  0  0  0  0
  1  2  1  0  0  0  0
  2  3  2  0  0  0  0
  4 11  1  0  0  0  0
  4  3  1  0  0  0  0
  5  4  2  0  0  0  0
  6  5  1  0  0  0  0
  6  1  2  0  0  0  0
  7  5  1  0  0  0  0
  7  8  2  0  0  0  0
  8  9  1  0  0  0  0
 10  9  1  0  0  0  0
 11 10  1  0  0  0  0
 12 13  1  0  0  0  0
 12 11  2  0  0  0  0
 13 18  1  0  0  0  0
 14 13  2  0  0  0  0
 14 15  1  0  0  0  0
 15 16  2  0  0  0  0
 16 17  1  0  0  0  0
 16 19  1  0  0  0  0
 18 10  1  0  0  0  0
 18 17  2  0  0  0  0
 19 21  1  0  0  0  0
 20 19  2  0  0  0  0
 21 22  1  0  0  0  0
 21 34  1  0  0  0  0
 22 23  2  0  0  0  0
 22 24  2  0  0  0  0
 25 35  1  0  0  0  0
 25 22  1  0  0  0  0
 26 25  1  0  0  0  0
 27 26  1  0  0  0  0
 28 27  1  0  0  0  0
 28 29  1  0  0  0  0
 29 30  1  0  0  0  0
 30 32  1  0  0  0  0
 31 30  1  0  0  0  0
 32  8  1  0  0  0  0
 32 33  2  0  0  0  0
 36 12  1  0  0  0  0
 37 36  1  0  0  0  0
 38 37  1  0  0  0  0
 39 40  1  0  0  0  0
 39 38  1  0  0  0  0
 40 41  1  0  0  0  0
 41 36  1  0  0  0  0
 43  1  1  0  0  0  0
 43 42  1  0  0  0  0
M  END
>  <minimizedAffinity>
-3.73107553

$$$$

 OpenBabel09082221323D

 43 48  0  0  0  0  0  0  0  0999 V2000
   10.8820    1.9300    3.8320 C   0  0  0  0  0  0  0  0  0  0  0  0
   10.7010    1.0180    2.7940 C   0  0  0  0  0  3  0  0  0  0  0  0
   10.2130   -0.2650    3.0630 C   0  0  0  0  0  3  0  0  0  0  0  0
    9.8950   -0.6570    4.3700 C   0  0  0  0  0  0  0  0  0  0  0  0
   10.1170    0.2580    5.4340 C   0  0  0  0  0  0  0  0  0  0  0  0
   10.5890    1.5470    5.1430 C   0  0  0  0  0  3  0  0  0  0  0  0
    9.8130   -0.0590    6.8480 C   0  0  0  0  0  3  0  0  0  0  0  0
   10.0390   -1.2820    7.3600 C   0  0  0  0  0  0  0  0  0  0  0  0
   10.7940   -2.3490    6.6150 C   0  0  0  0  0  2  0  0  0  0  0  0
    9.9190   -2.8500    5.5610 N   0  0  0  0  0  0  0  0  0  0  0  0
    9.3680   -2.0260    4.5990 C   0  0  0  0  0  0  0  0  0  0  0  0
    8.2170   -2.6680    4.1220 C   0  0  0  0  0  0  0  0  0  0  0  0
    8.1420   -3.9470    4.7990 C   0  0  0  0  0  0  0  0  0  0  0  0
    7.2280   -5.0240    4.8370 C   0  0  0  0  0  3  0  0  0  0  0  0
    7.4560   -6.1220    5.6870 C   0  0  0  0  0  3  0  0  0  0  0  0
    8.6020   -6.2020    6.4850 C   0  0  0  0  0  0  0  0  0  0  0  0
    9.5520   -5.1920    6.3940 C   0  0  0  0  0  3  0  0  0  0  0  0
    9.2680   -4.0580    5.6120 C   0  0  0  0  0  0  0  0  0  0  0  0
    8.7440   -7.3800    7.3840 C   0  0  0  0  0  0  0  0  0  0  0  0
    8.1870   -8.4280    7.0820 O   0  0  0  0  0  0  0  0  0  0  0  0
    9.4970   -7.3590    8.5640 N   0  0  0  0  0  0  0  0  0  0  0  0
   10.1010   -6.1980    9.5490 S   0  0  0  0  0  0  0  0  0  0  0  0
   10.0350   -6.7270   10.8900 O   0  0  0  0  0  0  0  0  0  0  0  0
   11.3470   -5.7270    8.9980 O   0  0  0  0  0  0  0  0  0  0  0  0
    8.9880   -4.9650    9.4350 N   0  0  0  0  0  0  0  0  0  0  0  0
    7.6990   -5.1640   10.1170 C   0  0  0  0  0  2  0  0  0  0  0  0
    6.6370   -4.2450    9.5150 C   0  0  0  0  0  2  0  0  0  0  0  0
    6.4320   -2.9240   10.2640 C   0  0  0  0  0  2  0  0  0  0  0  0
    7.5960   -1.9280   10.2240 C   0  0  0  0  0  2  0  0  0  0  0  0
    8.1050   -1.6050    8.8880 N   0  0  0  0  0  0  0  0  0  0  0  0
    7.1410   -1.0890    7.9160 C   0  0  0  0  0  1  0  0  0  0  0  0
    9.4750   -1.7200    8.6670 C   0  0  0  0  0  0  0  0  0  0  0  0
   10.2260   -2.2670    9.4770 O   0  0  0  0  0  0  0  0  0  0  0  0
    9.5270   -8.2640    9.0270 H   0  0  0  0  0  0  0  0  0  0  0  0
    9.4540   -4.0800    9.6880 H   0  0  0  0  0  0  0  0  0  0  0  0
    7.2220   -2.0250    3.1680 C   0  0  0  0  0  3  0  0  0  0  0  0
    6.9810   -2.7660    1.8460 C   0  0  0  0  0  2  0  0  0  0  0  0
    6.0580   -1.9650    0.9260 C   0  0  0  0  0  2  0  0  0  0  0  0
    4.7290   -1.6520    1.6100 C   0  0  0  0  0  2  0  0  0  0  0  0
    4.9330   -0.9590    2.9540 C   0  0  0  0  0  2  0  0  0  0  0  0
    5.8780   -1.7430    3.8640 C   0  0  0  0  0  2  0  0  0  0  0  0
   10.5450    4.2430    4.2770 C   0  0  0  0  0  1  0  0  0  0  0  0
   11.3410    3.2130    3.7030 O   0  0  0  0  0  0  0  0  0  0  0  0
  1  6  1  0  0  0  0
  2  3  1  0  0  0  0
  2  1  2  0  0  0  0
  3  4  2  0  0  0  0
  4 11  1  0  0  0  0
  4  5  1  0  0  0  0
  5  7  1  0  0  0  0
  6  5  2  0  0  0  0
  7  8  2  0  0  0  0
  8 32  1  0  0  0  0
  9  8  1  0  0  0  0
 10 18  1  0  0  0  0
 10  9  1  0  0  0  0
 11 10  1  0  0  0  0
 12 11  2  0  0  0  0
 12 13  1  0  0  0  0
 13 14  2  0  0  0  0
 13 18  1  0  0  0  0
 14 15  1  0  0  0  0
 15 16  2  0  0  0  0
 16 19  1  0  0  0  0
 17 16  1  0  0  0  0
 18 17  2  0  0  0  0
 19 21  1  0  0  0  0
 20 19  2  0  0  0  0
 21 34  1  0  0  0  0
 21 22  1  0  0  0  0
 22 23  2  0  0  0  0
 24 22  2  0  0  0  0
 25 22  1  0  0  0  0
 25 35  1  0  0  0  0
 25 26  1  0  0  0  0
 27 26  1  0  0  0  0
 27 28  1  0  0  0  0
 29 28  1  0  0  0  0
 30 29  1  0  0  0  0
 31 30  1  0  0  0  0
 32 30  1  0  0  0  0
 32 33  2  0  0  0  0
 36 41  1  0  0  0  0
 36 12  1  0  0  0  0
 37 36  1  0  0  0  0
 38 39  1  0  0  0  0
 38 37  1  0  0  0  0
 39 40  1  0  0  0  0
 40 41  1  0  0  0  0
 43  1  1  0  0  0  0
 43 42  1  0  0  0  0
M  END
>  <minimizedAffinity>
-3.67350411

$$$$
