
 OpenBabel09092210413D

 43 48  0  0  0  0  0  0  0  0999 V2000
    9.5590   -0.0690    3.1990 C   0  0  0  0  0  0  0  0  0  0  0  0
    8.7600    0.2610    4.2930 C   0  0  0  0  0  3  0  0  0  0  0  0
    7.4660   -0.2570    4.4010 C   0  0  0  0  0  3  0  0  0  0  0  0
    6.9480   -1.1160    3.4220 C   0  0  0  0  0  0  0  0  0  0  0  0
    7.7460   -1.4220    2.2860 C   0  0  0  0  0  0  0  0  0  0  0  0
    9.0490   -0.9080    2.2050 C   0  0  0  0  0  3  0  0  0  0  0  0
    7.2920   -2.3180    1.1990 C   0  0  0  0  0  3  0  0  0  0  0  0
    6.0180   -2.3110    0.7650 C   0  0  0  0  0  0  0  0  0  0  0  0
    5.0200   -1.2700    1.1930 C   0  0  0  0  0  2  0  0  0  0  0  0
    4.6450   -1.5650    2.5720 N   0  0  0  0  0  0  0  0  0  0  0  0
    5.5740   -1.6490    3.5920 C   0  0  0  0  0  0  0  0  0  0  0  0
    5.0050   -2.4450    4.5960 C   0  0  0  0  0  0  0  0  0  0  0  0
    3.6650   -2.7780    4.1560 C   0  0  0  0  0  0  0  0  0  0  0  0
    2.6070   -3.5800    4.6390 C   0  0  0  0  0  3  0  0  0  0  0  0
    1.4240   -3.7250    3.8910 C   0  0  0  0  0  3  0  0  0  0  0  0
    1.2410   -3.0560    2.6770 C   0  0  0  0  0  0  0  0  0  0  0  0
    2.2380   -2.1980    2.2310 C   0  0  0  0  0  3  0  0  0  0  0  0
    3.4510   -2.1330    2.9390 C   0  0  0  0  0  0  0  0  0  0  0  0
   -0.0240   -3.2980    1.9320 C   0  0  0  0  0  0  0  0  0  0  0  0
   -1.0260   -3.6300    2.5550 O   0  0  0  0  0  0  0  0  0  0  0  0
   -0.1380   -3.1560    0.5440 N   0  0  0  0  0  0  0  0  0  0  0  0
    0.9050   -3.0920   -0.7170 S   0  0  0  0  0  0  0  0  0  0  0  0
    0.2430   -3.7370   -1.8250 O   0  0  0  0  0  0  0  0  0  0  0  0
    1.4060   -1.7460   -0.8350 O   0  0  0  0  0  0  0  0  0  0  0  0
    2.1640   -4.0720   -0.2390 N   0  0  0  0  0  0  0  0  0  0  0  0
    1.9190   -5.5230   -0.2460 C   0  0  0  0  0  2  0  0  0  0  0  0
    2.9150   -6.2290    0.6730 C   0  0  0  0  0  2  0  0  0  0  0  0
    4.1560   -6.7870   -0.0310 C   0  0  0  0  0  2  0  0  0  0  0  0
    5.1300   -5.7580   -0.6170 C   0  0  0  0  0  2  0  0  0  0  0  0
    5.5780   -4.7140    0.3080 N   0  0  0  0  0  0  0  0  0  0  0  0
    6.2080   -5.1540    1.5530 C   0  0  0  0  0  1  0  0  0  0  0  0
    5.4600   -3.3870   -0.0990 C   0  0  0  0  0  0  0  0  0  0  0  0
    4.8200   -3.0640   -1.1010 O   0  0  0  0  0  0  0  0  0  0  0  0
   -1.0860   -3.3100    0.2100 H   0  0  0  0  0  0  0  0  0  0  0  0
    3.0090   -3.7950   -0.7610 H   0  0  0  0  0  0  0  0  0  0  0  0
    5.7600   -2.9240    5.8260 C   0  0  0  0  0  3  0  0  0  0  0  0
    5.0950   -2.6410    7.1790 C   0  0  0  0  0  2  0  0  0  0  0  0
    6.0010   -3.0590    8.3380 C   0  0  0  0  0  2  0  0  0  0  0  0
    6.3860   -4.5340    8.2340 C   0  0  0  0  0  2  0  0  0  0  0  0
    7.0050   -4.8640    6.8800 C   0  0  0  0  0  2  0  0  0  0  0  0
    6.1160   -4.4190    5.7200 C   0  0  0  0  0  2  0  0  0  0  0  0
   11.1280    1.7160    3.3060 C   0  0  0  0  0  1  0  0  0  0  0  0
   10.8390    0.3610    2.9800 O   0  0  0  0  0  0  0  0  0  0  0  0
  1  2  1  0  0  0  0
  2  3  2  0  0  0  0
  4 11  1  0  0  0  0
  4  3  1  0  0  0  0
  5  4  2  0  0  0  0
  6  5  1  0  0  0  0
  6  1  2  0  0  0  0
  7  5  1  0  0  0  0
  8  9  1  0  0  0  0
  8  7  2  0  0  0  0
  9 10  1  0  0  0  0
 10 18  1  0  0  0  0
 10 11  1  0  0  0  0
 11 12  2  0  0  0  0
 12 36  1  0  0  0  0
 13 12  1  0  0  0  0
 13 14  1  0  0  0  0
 15 14  2  0  0  0  0
 16 15  1  0  0  0  0
 17 16  2  0  0  0  0
 17 18  1  0  0  0  0
 18 13  2  0  0  0  0
 19 20  2  0  0  0  0
 19 16  1  0  0  0  0
 21 19  1  0  0  0  0
 22 25  1  0  0  0  0
 22 21  1  0  0  0  0
 23 22  2  0  0  0  0
 24 22  2  0  0  0  0
 26 25  1  0  0  0  0
 26 27  1  0  0  0  0
 28 27  1  0  0  0  0
 29 28  1  0  0  0  0
 29 30  1  0  0  0  0
 30 31  1  0  0  0  0
 32 30  1  0  0  0  0
 32  8  1  0  0  0  0
 33 32  2  0  0  0  0
 34 21  1  0  0  0  0
 35 25  1  0  0  0  0
 36 37  1  0  0  0  0
 37 38  1  0  0  0  0
 39 38  1  0  0  0  0
 40 39  1  0  0  0  0
 41 36  1  0  0  0  0
 41 40  1  0  0  0  0
 43  1  1  0  0  0  0
 43 42  1  0  0  0  0
M  END
>  <minimizedAffinity>
-4.54802322

$$$$
