
 OpenBabel09092210413D

 43 48  0  0  0  0  0  0  0  0999 V2000
   11.2370    2.2990    5.1880 C   0  0  0  0  0  0  0  0  0  0  0  0
   10.1590    3.0020    4.6530 C   0  0  0  0  0  3  0  0  0  0  0  0
    8.9800    2.3300    4.3110 C   0  0  0  0  0  3  0  0  0  0  0  0
    8.8580    0.9470    4.5010 C   0  0  0  0  0  0  0  0  0  0  0  0
    9.9700    0.2230    5.0090 C   0  0  0  0  0  0  0  0  0  0  0  0
   11.1360    0.9170    5.3640 C   0  0  0  0  0  3  0  0  0  0  0  0
    9.9410   -1.2380    5.2460 C   0  0  0  0  0  3  0  0  0  0  0  0
    9.3060   -2.0770    4.4060 C   0  0  0  0  0  0  0  0  0  0  0  0
    8.7620   -1.6350    3.0750 C   0  0  0  0  0  2  0  0  0  0  0  0
    7.5660   -0.8410    3.3330 N   0  0  0  0  0  0  0  0  0  0  0  0
    7.5810    0.2850    4.1340 C   0  0  0  0  0  0  0  0  0  0  0  0
    6.2730    0.4690    4.6030 C   0  0  0  0  0  0  0  0  0  0  0  0
    5.4610   -0.5620    3.9900 C   0  0  0  0  0  0  0  0  0  0  0  0
    4.1140   -0.9820    4.0790 C   0  0  0  0  0  3  0  0  0  0  0  0
    3.6690   -2.1040    3.3560 C   0  0  0  0  0  3  0  0  0  0  0  0
    4.5230   -2.8100    2.5030 C   0  0  0  0  0  0  0  0  0  0  0  0
    5.8270   -2.3580    2.3400 C   0  0  0  0  0  3  0  0  0  0  0  0
    6.2850   -1.2940    3.1370 C   0  0  0  0  0  0  0  0  0  0  0  0
    3.9800   -4.0080    1.8070 C   0  0  0  0  0  0  0  0  0  0  0  0
    2.7770   -4.0710    1.5860 O   0  0  0  0  0  0  0  0  0  0  0  0
    4.7780   -5.0750    1.3770 N   0  0  0  0  0  0  0  0  0  0  0  0
    6.2830   -5.6240    1.7170 S   0  0  0  0  0  0  0  0  0  0  0  0
    6.2190   -7.0640    1.6300 O   0  0  0  0  0  0  0  0  0  0  0  0
    7.2360   -4.8760    0.9370 O   0  0  0  0  0  0  0  0  0  0  0  0
    6.4970   -5.2220    3.3190 N   0  0  0  0  0  0  0  0  0  0  0  0
    5.7570   -6.0180    4.3120 C   0  0  0  0  0  2  0  0  0  0  0  0
    5.6330   -5.2430    5.6220 C   0  0  0  0  0  2  0  0  0  0  0  0
    6.7020   -5.5750    6.6690 C   0  0  0  0  0  2  0  0  0  0  0  0
    8.1390   -5.1600    6.3330 C   0  0  0  0  0  2  0  0  0  0  0  0
    8.3180   -3.7580    5.9470 N   0  0  0  0  0  0  0  0  0  0  0  0
    7.8510   -2.7430    6.8910 C   0  0  0  0  0  1  0  0  0  0  0  0
    9.0010   -3.4900    4.7630 C   0  0  0  0  0  0  0  0  0  0  0  0
    9.2720   -4.3730    3.9480 O   0  0  0  0  0  0  0  0  0  0  0  0
    4.2490   -5.7830    0.8750 H   0  0  0  0  0  0  0  0  0  0  0  0
    7.5100   -5.1680    3.5090 H   0  0  0  0  0  0  0  0  0  0  0  0
    5.8860    1.5030    5.6500 C   0  0  0  0  0  3  0  0  0  0  0  0
    4.7500    2.4600    5.2640 C   0  0  0  0  0  2  0  0  0  0  0  0
    4.5350    3.5230    6.3430 C   0  0  0  0  0  2  0  0  0  0  0  0
    4.2530    2.8830    7.7020 C   0  0  0  0  0  2  0  0  0  0  0  0
    5.3380    1.8860    8.0940 C   0  0  0  0  0  2  0  0  0  0  0  0
    5.5760    0.8410    7.0050 C   0  0  0  0  0  2  0  0  0  0  0  0
   12.4080    4.1480    6.1210 C   0  0  0  0  0  1  0  0  0  0  0  0
   12.4360    2.8360    5.5700 O   0  0  0  0  0  0  0  0  0  0  0  0
  1  6  1  0  0  0  0
  1 43  1  0  0  0  0
  2  1  2  0  0  0  0
  3  4  2  0  0  0  0
  3  2  1  0  0  0  0
  4  5  1  0  0  0  0
  5  7  1  0  0  0  0
  5  6  2  0  0  0  0
  8 32  1  0  0  0  0
  8  7  2  0  0  0  0
  9 10  1  0  0  0  0
  9  8  1  0  0  0  0
 10 11  1  0  0  0  0
 11  4  1  0  0  0  0
 11 12  2  0  0  0  0
 12 36  1  0  0  0  0
 13 14  1  0  0  0  0
 13 12  1  0  0  0  0
 15 14  2  0  0  0  0
 16 15  1  0  0  0  0
 17 16  2  0  0  0  0
 17 18  1  0  0  0  0
 18 10  1  0  0  0  0
 18 13  2  0  0  0  0
 19 16  1  0  0  0  0
 20 19  2  0  0  0  0
 21 22  1  0  0  0  0
 21 19  1  0  0  0  0
 22 25  1  0  0  0  0
 23 22  2  0  0  0  0
 24 22  2  0  0  0  0
 25 35  1  0  0  0  0
 25 26  1  0  0  0  0
 26 27  1  0  0  0  0
 27 28  1  0  0  0  0
 29 28  1  0  0  0  0
 30 29  1  0  0  0  0
 30 31  1  0  0  0  0
 32 30  1  0  0  0  0
 33 32  2  0  0  0  0
 34 21  1  0  0  0  0
 36 41  1  0  0  0  0
 37 36  1  0  0  0  0
 37 38  1  0  0  0  0
 38 39  1  0  0  0  0
 39 40  1  0  0  0  0
 41 40  1  0  0  0  0
 43 42  1  0  0  0  0
M  END
>  <minimizedAffinity>
-4.21111679

$$$$
