
 OpenBabel09092210413D

 43 48  0  0  0  0  0  0  0  0999 V2000
   11.0080   -2.0560    9.1960 C   0  0  0  0  0  0  0  0  0  0  0  0
   11.8330   -2.1060    8.0730 C   0  0  0  0  0  3  0  0  0  0  0  0
   11.2760   -2.0810    6.7900 C   0  0  0  0  0  3  0  0  0  0  0  0
    9.8900   -2.0010    6.6060 C   0  0  0  0  0  0  0  0  0  0  0  0
    9.0460   -1.9910    7.7490 C   0  0  0  0  0  0  0  0  0  0  0  0
    9.6220   -1.9970    9.0280 C   0  0  0  0  0  3  0  0  0  0  0  0
    7.5700   -1.9080    7.6620 C   0  0  0  0  0  3  0  0  0  0  0  0
    6.8830   -2.5540    6.7010 C   0  0  0  0  0  0  0  0  0  0  0  0
    7.5220   -3.5590    5.7820 C   0  0  0  0  0  2  0  0  0  0  0  0
    8.3410   -2.8190    4.8280 N   0  0  0  0  0  0  0  0  0  0  0  0
    9.3520   -1.9640    5.2230 C   0  0  0  0  0  0  0  0  0  0  0  0
    9.5470   -1.0520    4.1770 C   0  0  0  0  0  0  0  0  0  0  0  0
    8.6490   -1.4440    3.1090 C   0  0  0  0  0  0  0  0  0  0  0  0
    8.2970   -0.9330    1.8400 C   0  0  0  0  0  3  0  0  0  0  0  0
    7.3040   -1.5650    1.0680 C   0  0  0  0  0  3  0  0  0  0  0  0
    6.6670   -2.7290    1.5090 C   0  0  0  0  0  0  0  0  0  0  0  0
    7.0640   -3.2910    2.7170 C   0  0  0  0  0  3  0  0  0  0  0  0
    7.9890   -2.6010    3.5190 C   0  0  0  0  0  0  0  0  0  0  0  0
    5.6010   -3.3090    0.6490 C   0  0  0  0  0  0  0  0  0  0  0  0
    5.6330   -3.1010   -0.5590 O   0  0  0  0  0  0  0  0  0  0  0  0
    4.5560   -4.0970    1.1450 N   0  0  0  0  0  0  0  0  0  0  0  0
    3.8840   -4.3620    2.6150 S   0  0  0  0  0  0  0  0  0  0  0  0
    2.4740   -4.5660    2.3870 O   0  0  0  0  0  0  0  0  0  0  0  0
    4.6730   -5.3450    3.3140 O   0  0  0  0  0  0  0  0  0  0  0  0
    4.0640   -2.9040    3.4000 N   0  0  0  0  0  0  0  0  0  0  0  0
    3.1890   -1.8010    2.9690 C   0  0  0  0  0  2  0  0  0  0  0  0
    3.7960   -0.4590    3.3740 C   0  0  0  0  0  2  0  0  0  0  0  0
    3.2730    0.1090    4.6980 C   0  0  0  0  0  2  0  0  0  0  0  0
    3.6470   -0.6630    5.9680 C   0  0  0  0  0  2  0  0  0  0  0  0
    5.0750   -0.9440    6.1390 N   0  0  0  0  0  0  0  0  0  0  0  0
    5.9840    0.2020    6.1210 C   0  0  0  0  0  1  0  0  0  0  0  0
    5.4550   -2.2580    6.4010 C   0  0  0  0  0  0  0  0  0  0  0  0
    4.6700   -3.2010    6.2910 O   0  0  0  0  0  0  0  0  0  0  0  0
    3.9480   -4.4510    0.4120 H   0  0  0  0  0  0  0  0  0  0  0  0
    4.0370   -3.0750    4.4170 H   0  0  0  0  0  0  0  0  0  0  0  0
   10.4570    0.1630    4.2710 C   0  0  0  0  0  3  0  0  0  0  0  0
   11.0520    0.6640    2.9490 C   0  0  0  0  0  2  0  0  0  0  0  0
   12.0390    1.8080    3.1860 C   0  0  0  0  0  2  0  0  0  0  0  0
   11.3790    2.9600    3.9420 C   0  0  0  0  0  2  0  0  0  0  0  0
   10.7310    2.4890    5.2400 C   0  0  0  0  0  2  0  0  0  0  0  0
    9.7670    1.3260    5.0090 C   0  0  0  0  0  2  0  0  0  0  0  0
   10.4630   -1.7010   11.4840 C   0  0  0  0  0  1  0  0  0  0  0  0
   11.4240   -2.0650   10.4990 O   0  0  0  0  0  0  0  0  0  0  0  0
  1 43  1  0  0  0  0
  2  1  2  0  0  0  0
  3  2  1  0  0  0  0
  4  3  2  0  0  0  0
  4  5  1  0  0  0  0
  5  6  2  0  0  0  0
  6  1  1  0  0  0  0
  7  5  1  0  0  0  0
  8  7  2  0  0  0  0
  9  8  1  0  0  0  0
 10 11  1  0  0  0  0
 10  9  1  0  0  0  0
 11  4  1  0  0  0  0
 12 36  1  0  0  0  0
 12 11  2  0  0  0  0
 13 18  1  0  0  0  0
 13 12  1  0  0  0  0
 14 13  2  0  0  0  0
 15 16  2  0  0  0  0
 15 14  1  0  0  0  0
 16 17  1  0  0  0  0
 17 18  2  0  0  0  0
 18 10  1  0  0  0  0
 19 21  1  0  0  0  0
 19 16  1  0  0  0  0
 20 19  2  0  0  0  0
 21 22  1  0  0  0  0
 22 24  2  0  0  0  0
 22 25  1  0  0  0  0
 23 22  2  0  0  0  0
 25 35  1  0  0  0  0
 26 27  1  0  0  0  0
 26 25  1  0  0  0  0
 27 28  1  0  0  0  0
 28 29  1  0  0  0  0
 29 30  1  0  0  0  0
 30 32  1  0  0  0  0
 31 30  1  0  0  0  0
 32  8  1  0  0  0  0
 33 32  2  0  0  0  0
 34 21  1  0  0  0  0
 36 41  1  0  0  0  0
 37 38  1  0  0  0  0
 37 36  1  0  0  0  0
 38 39  1  0  0  0  0
 39 40  1  0  0  0  0
 41 40  1  0  0  0  0
 43 42  1  0  0  0  0
M  END
>  <minimizedAffinity>
-4.35589123

$$$$
