
 OpenBabel09092210413D

 43 48  0  0  0  0  0  0  0  0999 V2000
    2.1970   -1.1890    5.9380 C   0  0  0  0  0  0  0  0  0  0  0  0
    2.3610   -0.9440    4.5760 C   0  0  0  0  0  3  0  0  0  0  0  0
    3.6300   -0.6660    4.0590 C   0  0  0  0  0  3  0  0  0  0  0  0
    4.7570   -0.6320    4.8910 C   0  0  0  0  0  0  0  0  0  0  0  0
    4.5860   -0.8410    6.2860 C   0  0  0  0  0  0  0  0  0  0  0  0
    3.3080   -1.1380    6.7840 C   0  0  0  0  0  3  0  0  0  0  0  0
    5.7110   -0.8270    7.2480 C   0  0  0  0  0  3  0  0  0  0  0  0
    6.7300    0.0440    7.1270 C   0  0  0  0  0  0  0  0  0  0  0  0
    6.7110    1.1870    6.1490 C   0  0  0  0  0  2  0  0  0  0  0  0
    6.9110    0.6260    4.8180 N   0  0  0  0  0  0  0  0  0  0  0  0
    6.0830   -0.3450    4.2890 C   0  0  0  0  0  0  0  0  0  0  0  0
    6.8220   -1.0220    3.3090 C   0  0  0  0  0  0  0  0  0  0  0  0
    8.1110   -0.3650    3.2310 C   0  0  0  0  0  0  0  0  0  0  0  0
    9.3170   -0.5740    2.5240 C   0  0  0  0  0  3  0  0  0  0  0  0
   10.4280    0.2590    2.7500 C   0  0  0  0  0  3  0  0  0  0  0  0
   10.3660    1.3340    3.6420 C   0  0  0  0  0  0  0  0  0  0  0  0
    9.1620    1.6040    4.2800 C   0  0  0  0  0  3  0  0  0  0  0  0
    8.0880    0.7110    4.1170 C   0  0  0  0  0  0  0  0  0  0  0  0
   11.6010    2.1390    3.8500 C   0  0  0  0  0  0  0  0  0  0  0  0
   12.4330    2.1920    2.9520 O   0  0  0  0  0  0  0  0  0  0  0  0
   11.8620    2.8560    5.0230 N   0  0  0  0  0  0  0  0  0  0  0  0
   11.2950    2.8360    6.5600 S   0  0  0  0  0  0  0  0  0  0  0  0
   12.4160    3.1580    7.4100 O   0  0  0  0  0  0  0  0  0  0  0  0
   10.0780    3.6060    6.6140 O   0  0  0  0  0  0  0  0  0  0  0  0
   10.9070    1.2370    6.8160 N   0  0  0  0  0  0  0  0  0  0  0  0
   12.0280    0.2990    6.9970 C   0  0  0  0  0  2  0  0  0  0  0  0
   11.5720   -1.1280    6.7010 C   0  0  0  0  0  2  0  0  0  0  0  0
   11.1530   -1.9380    7.9340 C   0  0  0  0  0  2  0  0  0  0  0  0
    9.8830   -1.4740    8.6560 C   0  0  0  0  0  2  0  0  0  0  0  0
    8.6980   -1.3120    7.8100 N   0  0  0  0  0  0  0  0  0  0  0  0
    8.2770   -2.4740    7.0270 C   0  0  0  0  0  1  0  0  0  0  0  0
    8.0060   -0.1060    7.8810 C   0  0  0  0  0  0  0  0  0  0  0  0
    8.4630    0.8780    8.4630 O   0  0  0  0  0  0  0  0  0  0  0  0
   12.7250    3.3900    4.9730 H   0  0  0  0  0  0  0  0  0  0  0  0
   10.2070    1.1890    7.5720 H   0  0  0  0  0  0  0  0  0  0  0  0
    6.3370   -2.2750    2.5970 C   0  0  0  0  0  3  0  0  0  0  0  0
    6.3860   -2.2410    1.0640 C   0  0  0  0  0  2  0  0  0  0  0  0
    5.7640   -3.5030    0.4640 C   0  0  0  0  0  2  0  0  0  0  0  0
    6.4500   -4.7620    0.9900 C   0  0  0  0  0  2  0  0  0  0  0  0
    6.4640   -4.8050    2.5140 C   0  0  0  0  0  2  0  0  0  0  0  0
    7.0580   -3.5320    3.1170 C   0  0  0  0  0  2  0  0  0  0  0  0
   -0.1390   -0.7790    6.1240 C   0  0  0  0  0  1  0  0  0  0  0  0
    1.0170   -1.4810    6.5670 O   0  0  0  0  0  0  0  0  0  0  0  0
  1 43  1  0  0  0  0
  1  6  1  0  0  0  0
  2  1  2  0  0  0  0
  3  2  1  0  0  0  0
  3  4  2  0  0  0  0
  4  5  1  0  0  0  0
  5  6  2  0  0  0  0
  5  7  1  0  0  0  0
  8  7  2  0  0  0  0
  8 32  1  0  0  0  0
  9  8  1  0  0  0  0
 10  9  1  0  0  0  0
 11 10  1  0  0  0  0
 11  4  1  0  0  0  0
 12 11  2  0  0  0  0
 13 12  1  0  0  0  0
 13 18  1  0  0  0  0
 14 15  1  0  0  0  0
 14 13  2  0  0  0  0
 15 16  2  0  0  0  0
 16 19  1  0  0  0  0
 16 17  1  0  0  0  0
 18 17  2  0  0  0  0
 18 10  1  0  0  0  0
 19 21  1  0  0  0  0
 20 19  2  0  0  0  0
 21 22  1  0  0  0  0
 22 24  2  0  0  0  0
 22 25  1  0  0  0  0
 22 23  2  0  0  0  0
 25 26  1  0  0  0  0
 25 35  1  0  0  0  0
 27 26  1  0  0  0  0
 27 28  1  0  0  0  0
 28 29  1  0  0  0  0
 30 32  1  0  0  0  0
 30 29  1  0  0  0  0
 31 30  1  0  0  0  0
 32 33  2  0  0  0  0
 34 21  1  0  0  0  0
 36 41  1  0  0  0  0
 36 12  1  0  0  0  0
 37 36  1  0  0  0  0
 38 39  1  0  0  0  0
 38 37  1  0  0  0  0
 39 40  1  0  0  0  0
 40 41  1  0  0  0  0
 42 43  1  0  0  0  0
M  END
>  <minimizedAffinity>
-4.56865168

$$$$
