
 OpenBabel09092210413D

 43 48  0  0  0  0  0  0  0  0999 V2000
    8.4240   -6.6470    5.1990 C   0  0  0  0  0  0  0  0  0  0  0  0
    7.1070   -6.2160    5.3520 C   0  0  0  0  0  3  0  0  0  0  0  0
    6.8140   -4.8490    5.3860 C   0  0  0  0  0  3  0  0  0  0  0  0
    7.8280   -3.8900    5.2650 C   0  0  0  0  0  0  0  0  0  0  0  0
    9.1750   -4.3270    5.1490 C   0  0  0  0  0  0  0  0  0  0  0  0
    9.4480   -5.7020    5.0960 C   0  0  0  0  0  3  0  0  0  0  0  0
   10.3170   -3.3940    5.0140 C   0  0  0  0  0  3  0  0  0  0  0  0
   10.3620   -2.2320    5.6920 C   0  0  0  0  0  0  0  0  0  0  0  0
    9.3790   -1.8860    6.7770 C   0  0  0  0  0  2  0  0  0  0  0  0
    8.1110   -1.5670    6.1320 N   0  0  0  0  0  0  0  0  0  0  0  0
    7.4600   -2.4520    5.2940 C   0  0  0  0  0  0  0  0  0  0  0  0
    6.6330   -1.6890    4.4580 C   0  0  0  0  0  0  0  0  0  0  0  0
    6.7700   -0.3100    4.8820 C   0  0  0  0  0  0  0  0  0  0  0  0
    6.2860    0.9410    4.4390 C   0  0  0  0  0  3  0  0  0  0  0  0
    6.6890    2.1280    5.0790 C   0  0  0  0  0  3  0  0  0  0  0  0
    7.5410    2.1070    6.1880 C   0  0  0  0  0  0  0  0  0  0  0  0
    7.9570    0.8790    6.6870 C   0  0  0  0  0  3  0  0  0  0  0  0
    7.6230   -0.2920    5.9840 C   0  0  0  0  0  0  0  0  0  0  0  0
    7.9480    3.4100    6.7790 C   0  0  0  0  0  0  0  0  0  0  0  0
    7.2080    4.3780    6.6490 O   0  0  0  0  0  0  0  0  0  0  0  0
    9.1390    3.5920    7.4920 N   0  0  0  0  0  0  0  0  0  0  0  0
   10.5540    2.7810    7.6370 S   0  0  0  0  0  0  0  0  0  0  0  0
   11.5810    3.7820    7.8010 O   0  0  0  0  0  0  0  0  0  0  0  0
   10.3860    1.7260    8.6040 O   0  0  0  0  0  0  0  0  0  0  0  0
   10.7630    2.0810    6.1400 N   0  0  0  0  0  0  0  0  0  0  0  0
   11.1470    2.9730    5.0340 C   0  0  0  0  0  2  0  0  0  0  0  0
   10.7970    2.3300    3.6940 C   0  0  0  0  0  2  0  0  0  0  0  0
   11.9500    1.5740    3.0230 C   0  0  0  0  0  2  0  0  0  0  0  0
   12.4350    0.3030    3.7270 C   0  0  0  0  0  2  0  0  0  0  0  0
   11.3940   -0.6760    4.0510 N   0  0  0  0  0  0  0  0  0  0  0  0
   10.5670   -1.1580    2.9450 C   0  0  0  0  0  1  0  0  0  0  0  0
   11.3270   -1.1480    5.3600 C   0  0  0  0  0  0  0  0  0  0  0  0
   11.9660   -0.6290    6.2770 O   0  0  0  0  0  0  0  0  0  0  0  0
    9.2310    4.5320    7.8690 H   0  0  0  0  0  0  0  0  0  0  0  0
   11.3860    1.2660    6.2460 H   0  0  0  0  0  0  0  0  0  0  0  0
    5.8650   -2.2600    3.2760 C   0  0  0  0  0  3  0  0  0  0  0  0
    4.3790   -1.8890    3.1950 C   0  0  0  0  0  2  0  0  0  0  0  0
    3.6910   -2.6170    2.0390 C   0  0  0  0  0  2  0  0  0  0  0  0
    4.3850   -2.3230    0.7100 C   0  0  0  0  0  2  0  0  0  0  0  0
    5.8770   -2.6320    0.7690 C   0  0  0  0  0  2  0  0  0  0  0  0
    6.5610   -1.9310    1.9420 C   0  0  0  0  0  2  0  0  0  0  0  0
   10.1350   -8.2330    5.6620 C   0  0  0  0  0  1  0  0  0  0  0  0
    8.8420   -7.9480    5.1400 O   0  0  0  0  0  0  0  0  0  0  0  0
  1  2  1  0  0  0  0
  2  3  2  0  0  0  0
  4 11  1  0  0  0  0
  4  3  1  0  0  0  0
  5  4  2  0  0  0  0
  6  5  1  0  0  0  0
  6  1  2  0  0  0  0
  7  5  1  0  0  0  0
  7  8  2  0  0  0  0
  8  9  1  0  0  0  0
 10  9  1  0  0  0  0
 11 10  1  0  0  0  0
 12 13  1  0  0  0  0
 12 11  2  0  0  0  0
 13 18  1  0  0  0  0
 14 13  2  0  0  0  0
 14 15  1  0  0  0  0
 15 16  2  0  0  0  0
 16 17  1  0  0  0  0
 16 19  1  0  0  0  0
 18 10  1  0  0  0  0
 18 17  2  0  0  0  0
 19 21  1  0  0  0  0
 20 19  2  0  0  0  0
 21 22  1  0  0  0  0
 21 34  1  0  0  0  0
 22 23  2  0  0  0  0
 22 24  2  0  0  0  0
 25 35  1  0  0  0  0
 25 22  1  0  0  0  0
 26 25  1  0  0  0  0
 27 26  1  0  0  0  0
 28 27  1  0  0  0  0
 28 29  1  0  0  0  0
 29 30  1  0  0  0  0
 30 32  1  0  0  0  0
 31 30  1  0  0  0  0
 32  8  1  0  0  0  0
 32 33  2  0  0  0  0
 36 12  1  0  0  0  0
 37 36  1  0  0  0  0
 38 37  1  0  0  0  0
 39 40  1  0  0  0  0
 39 38  1  0  0  0  0
 40 41  1  0  0  0  0
 41 36  1  0  0  0  0
 43  1  1  0  0  0  0
 43 42  1  0  0  0  0
M  END
>  <minimizedAffinity>
-3.73107553

$$$$
