REMARK  Name = 
REMARK  9 active torsions:
REMARK  status: ('A' for Active; 'I' for Inactive)
REMARK    1  A    between atoms: C_1  and  C_2
REMARK    2  A    between atoms: C_2  and  C_4
REMARK    3  A    between atoms: C_7  and  C_8
REMARK    4  A    between atoms: C_15  and  C_16
REMARK    5  A    between atoms: C_16  and  O_17
REMARK    6  A    between atoms: O_17  and  C_18
REMARK    7  A    between atoms: C_21  and  C_22
REMARK    8  A    between atoms: C_26  and  C_27
REMARK    9  A    between atoms: N_33  and  C_34
REMARK                            x       y       z     vdW  Elec       q    Type
REMARK                         _______ _______ _______ _____ _____    ______ ____
ROOT
ATOM      1  C   UNL     1       4.253  -1.257   5.120  0.00  0.00    +0.121 A 
ATOM      2  C   UNL     1       5.246  -0.462   4.549  0.00  0.00    +0.046 A 
ATOM      3  C   UNL     1       5.257   0.912   4.800  0.00  0.00    +0.015 A 
ATOM      4  C   UNL     1       4.293   1.483   5.641  0.00  0.00    +0.018 A 
ATOM      5  C   UNL     1       3.303   0.672   6.208  0.00  0.00    +0.015 A 
ATOM      6  C   UNL     1       3.292  -0.700   5.961  0.00  0.00    +0.046 A 
ENDROOT
BRANCH   4   7
ATOM      7  C   UNL     1       4.313   2.909   5.948  0.00  0.00    +0.142 A 
ATOM      8  N   UNL     1       3.447   3.778   5.471  0.00  0.00    -0.228 NA
ATOM      9  C   UNL     1       3.768   4.986   6.038  0.00  0.00    +0.090 A 
ATOM     10  C   UNL     1       3.155   6.239   5.872  0.00  0.00    +0.039 A 
ATOM     11  C   UNL     1       3.645   7.358   6.573  0.00  0.00    -0.001 A 
ATOM     12  C   UNL     1       4.748   7.192   7.426  0.00  0.00    +0.012 A 
ATOM     13  C   UNL     1       5.375   5.952   7.603  0.00  0.00    +0.028 A 
ATOM     14  C   UNL     1       4.861   4.860   6.893  0.00  0.00    +0.069 A 
ATOM     15  N   UNL     1       5.197   3.523   6.822  0.00  0.00    -0.320 N 
BRANCH  15  16
ATOM     16  C   UNL     1       6.258   2.849   7.565  0.00  0.00    +0.089 C 
ATOM     17  C   UNL     1       7.662   3.350   7.188  0.00  0.00    +0.025 C 
ATOM     18  C   UNL     1       8.746   2.581   7.940  0.00  0.00    +0.002 C 
ATOM     19  C   UNL     1       8.515   2.607   9.448  0.00  0.00    +0.000 C 
ATOM     20  C   UNL     1       7.126   2.093   9.817  0.00  0.00    +0.002 C 
ATOM     21  C   UNL     1       6.027   2.861   9.085  0.00  0.00    +0.025 C 
ENDBRANCH  15  16
BRANCH  11  22
ATOM     22  C   UNL     1       2.993   8.718   6.413  0.00  0.00    +0.072 C 
ATOM     23  O   UNL     1       2.004   8.800   5.620  0.00  0.00    -0.545 OA
ATOM     24  O   UNL     1       3.487   9.677   7.087  0.00  0.00    -0.545 OA
ENDBRANCH  11  22
ENDBRANCH   4   7
BRANCH   1  25
ATOM     25  O   UNL     1       4.230  -2.613   4.942  0.00  0.00    -0.487 OA
BRANCH  25  26
ATOM     26  C   UNL     1       3.899  -2.993   3.601  0.00  0.00    +0.265 C 
BRANCH  26  31
ATOM     27  C   UNL     1       0.504  -1.765   2.368  0.00  0.00    +0.018 A 
ATOM     28  C   UNL     1      -0.350  -2.770   2.824  0.00  0.00    +0.012 A 
ATOM     29  C   UNL     1       0.157  -3.846   3.556  0.00  0.00    +0.009 A 
ATOM     30  C   UNL     1       1.531  -3.953   3.839  0.00  0.00    -0.011 A 
ATOM     31  C   UNL     1       2.402  -2.951   3.353  0.00  0.00    -0.002 A 
ATOM     32  C   UNL     1       1.874  -1.858   2.631  0.00  0.00    +0.019 A 
BRANCH  30  33
ATOM     33  C   UNL     1       2.000  -5.099   4.630  0.00  0.00    -0.017 A 
ATOM     34  C   UNL     1       2.140  -6.367   4.042  0.00  0.00    +0.010 A 
ATOM     35  C   UNL     1       2.576  -7.460   4.797  0.00  0.00    +0.020 A 
ATOM     36  C   UNL     1       2.872  -7.294   6.148  0.00  0.00    +0.041 A 
ATOM     37 CL   UNL     1       3.409  -8.639   7.078  0.00  0.00    -0.084 Cl
ATOM     38  C   UNL     1       2.735  -6.046   6.751  0.00  0.00    +0.020 A 
ATOM     39  C   UNL     1       2.297  -4.956   5.994  0.00  0.00    +0.010 A 
ENDBRANCH  30  33
BRANCH  27  41
ATOM     40  C   UNL     1       0.730   0.625   1.415  0.00  0.00    +0.091 C 
ATOM     41  C   UNL     1      -0.081  -0.632   1.594  0.00  0.00    +0.160 C 
ATOM     42  O   UNL     1      -1.201  -0.751   1.099  0.00  0.00    -0.292 OA
ENDBRANCH  27  41
ENDBRANCH  26  31
ENDBRANCH  25  26
ENDBRANCH   1  25
TORSDOF 8
