
 OpenBabel09122222393D

 42 47  0  0  0  0  0  0  0  0999 V2000
    3.2870   -1.2570    7.4610 C   0  0  0  0  0  0  0  0  0  0  0  0
    4.5000   -1.9420    7.4010 C   0  0  0  0  0  3  0  0  0  0  0  0
    4.6970   -2.9080    6.4110 C   0  0  0  0  0  3  0  0  0  0  0  0
    3.6930   -3.1670    5.4690 C   0  0  0  0  0  0  0  0  0  0  0  0
    2.4810   -2.4710    5.5420 C   0  0  0  0  0  3  0  0  0  0  0  0
    2.2830   -1.5040    6.5270 C   0  0  0  0  0  3  0  0  0  0  0  0
    3.8960   -4.1420    4.4040 C   0  0  0  0  0  0  0  0  0  0  0  0
    4.5170   -3.8800    3.2730 N   0  0  0  0  0  0  0  0  0  0  0  0
    4.5500   -5.0610    2.5740 C   0  0  0  0  0  0  0  0  0  0  0  0
    5.1030   -5.3340    1.3120 C   0  0  0  0  0  3  0  0  0  0  0  0
    5.0380   -6.6390    0.7850 C   0  0  0  0  0  0  0  0  0  0  0  0
    4.4120   -7.6430    1.5410 C   0  0  0  0  0  3  0  0  0  0  0  0
    3.8510   -7.3900    2.7990 C   0  0  0  0  0  3  0  0  0  0  0  0
    3.9360   -6.0830    3.2950 C   0  0  0  0  0  0  0  0  0  0  0  0
    3.5220   -5.4760    4.4630 N   0  0  0  0  0  0  0  0  0  0  0  0
    2.8540   -6.1180    5.5920 C   0  0  0  0  0  3  0  0  0  0  0  0
    1.3640   -6.3890    5.3280 C   0  0  0  0  0  2  0  0  0  0  0  0
    0.6870   -7.0050    6.5510 C   0  0  0  0  0  2  0  0  0  0  0  0
    1.4190   -8.2540    7.0330 C   0  0  0  0  0  2  0  0  0  0  0  0
    2.8940   -7.9750    7.3090 C   0  0  0  0  0  2  0  0  0  0  0  0
    3.5910   -7.3720    6.0910 C   0  0  0  0  0  2  0  0  0  0  0  0
    5.6360   -6.9560   -0.5720 C   0  0  0  0  0  0  0  0  0  0  0  0
    6.3510   -6.0580   -1.1180 O   0  0  0  0  0  0  0  0  0  0  0  0
    5.3750   -8.0990   -1.0640 O   0  0  0  0  0  1  0  0  0  0  0  0
    3.0670   -0.2690    8.3820 O   0  0  0  0  0  0  0  0  0  0  0  0
    2.3230   -0.7240    9.5190 C   0  0  0  0  0  2  0  0  0  0  0  0
    4.8720    0.0660   12.2450 C   0  0  0  0  0  0  0  0  0  0  0  0
    4.8780   -1.1170   12.9860 C   0  0  0  0  0  3  0  0  0  0  0  0
    4.0750   -2.1930   12.6010 C   0  0  0  0  0  3  0  0  0  0  0  0
    3.2360   -2.1110   11.4750 C   0  0  0  0  0  0  0  0  0  0  0  0
    3.2070   -0.9040   10.7390 C   0  0  0  0  0  0  0  0  0  0  0  0
    4.0380    0.1700   11.1280 C   0  0  0  0  0  3  0  0  0  0  0  0
    2.4300   -3.2840   11.1100 C   0  0  0  0  0  0  0  0  0  0  0  0
    1.3140   -3.6550   11.8790 C   0  0  0  0  0  3  0  0  0  0  0  0
    0.5540   -4.7770   11.5380 C   0  0  0  0  0  3  0  0  0  0  0  0
    0.9060   -5.5410   10.4280 C   0  0  0  0  0  0  0  0  0  0  0  0
   -0.0310   -6.9230   10.0080 Cl  0  0  0  0  0  0  0  0  0  0  0  0
    2.0110   -5.1930    9.6560 C   0  0  0  0  0  3  0  0  0  0  0  0
    2.7710   -4.0720   10.0000 C   0  0  0  0  0  3  0  0  0  0  0  0
    5.6860    2.4990   11.9500 C   0  0  0  0  0  1  0  0  0  0  0  0
    5.7480    1.1880   12.6900 C   0  0  0  0  0  0  0  0  0  0  0  0
    6.4860    1.0320   13.6610 O   0  0  0  0  0  0  0  0  0  0  0  0
  1 25  1  0  0  0  0
  2  1  1  0  0  0  0
  3  2  2  0  0  0  0
  4  5  2  0  0  0  0
  4  3  1  0  0  0  0
  5  6  1  0  0  0  0
  6  1  2  0  0  0  0
  7 15  1  0  0  0  0
  7  4  1  0  0  0  0
  8  7  2  0  0  0  0
  9  8  1  0  0  0  0
  9 14  1  0  0  0  0
 10  9  2  0  0  0  0
 11 10  1  0  0  0  0
 11 12  2  0  0  0  0
 12 13  1  0  0  0  0
 13 14  2  0  0  0  0
 14 15  1  0  0  0  0
 15 16  1  0  0  0  0
 16 21  1  0  0  0  0
 17 16  1  0  0  0  0
 17 18  1  0  0  0  0
 18 19  1  0  0  0  0
 19 20  1  0  0  0  0
 21 20  1  0  0  0  0
 22 11  1  0  0  0  0
 23 22  2  0  0  0  0
 24 22  1  0  0  0  0
 25 26  1  0  0  0  0
 26 31  1  0  0  0  0
 27 41  1  0  0  0  0
 27 28  1  0  0  0  0
 29 28  2  0  0  0  0
 30 29  1  0  0  0  0
 31 32  1  0  0  0  0
 31 30  2  0  0  0  0
 32 27  2  0  0  0  0
 33 30  1  0  0  0  0
 33 34  1  0  0  0  0
 35 34  2  0  0  0  0
 36 35  1  0  0  0  0
 37 36  1  0  0  0  0
 38 39  1  0  0  0  0
 38 36  2  0  0  0  0
 39 33  2  0  0  0  0
 40 41  1  0  0  0  0
 41 42  2  0  0  0  0
M  END
>  <minimizedAffinity>
-8.45601654

$$$$
