
 OpenBabel09122222393D

 42 47  0  0  0  0  0  0  0  0999 V2000
    5.4990    1.3830   11.9970 C   0  0  0  0  0  0  0  0  0  0  0  0
    6.2320    0.1980   11.9590 C   0  0  0  0  0  3  0  0  0  0  0  0
    5.9320   -0.7660   10.9940 C   0  0  0  0  0  3  0  0  0  0  0  0
    4.9200   -0.5320   10.0530 C   0  0  0  0  0  0  0  0  0  0  0  0
    4.1940    0.6640   10.1030 C   0  0  0  0  0  3  0  0  0  0  0  0
    4.4940    1.6280   11.0640 C   0  0  0  0  0  3  0  0  0  0  0  0
    4.6210   -1.5090    9.0120 C   0  0  0  0  0  0  0  0  0  0  0  0
    5.2000   -1.5280    7.8300 N   0  0  0  0  0  0  0  0  0  0  0  0
    4.6920   -2.6220    7.1750 C   0  0  0  0  0  0  0  0  0  0  0  0
    4.9810   -3.1020    5.8870 C   0  0  0  0  0  3  0  0  0  0  0  0
    4.3480   -4.2670    5.4140 C   0  0  0  0  0  0  0  0  0  0  0  0
    3.4310   -4.9250    6.2500 C   0  0  0  0  0  3  0  0  0  0  0  0
    3.1270   -4.4610    7.5360 C   0  0  0  0  0  3  0  0  0  0  0  0
    3.7760   -3.3010    7.9750 C   0  0  0  0  0  0  0  0  0  0  0  0
    3.7430   -2.5730    9.1480 N   0  0  0  0  0  0  0  0  0  0  0  0
    2.9660   -2.8830   10.3450 C   0  0  0  0  0  3  0  0  0  0  0  0
    1.5110   -3.2680   10.0300 C   0  0  0  0  0  2  0  0  0  0  0  0
    0.7160   -3.5250   11.3080 C   0  0  0  0  0  2  0  0  0  0  0  0
    1.4000   -4.5550   12.2030 C   0  0  0  0  0  2  0  0  0  0  0  0
    2.8380   -4.1580   12.5260 C   0  0  0  0  0  2  0  0  0  0  0  0
    3.6540   -3.9110   11.2580 C   0  0  0  0  0  2  0  0  0  0  0  0
    4.6510   -4.8060    4.0290 C   0  0  0  0  0  0  0  0  0  0  0  0
    4.4210   -4.0390    3.0430 O   0  0  0  0  0  0  0  0  0  0  0  0
    5.1150   -5.9880    3.9590 O   0  0  0  0  0  1  0  0  0  0  0  0
    5.7880    2.3760   12.8930 O   0  0  0  0  0  0  0  0  0  0  0  0
    7.1950    2.6120   13.0270 C   0  0  0  0  0  2  0  0  0  0  0  0
    7.8450    6.3150   12.3790 C   0  0  0  0  0  0  0  0  0  0  0  0
    8.4000    6.2910   11.0980 C   0  0  0  0  0  3  0  0  0  0  0  0
    8.5490    5.0810   10.4180 C   0  0  0  0  0  3  0  0  0  0  0  0
    8.1620    3.8620   11.0050 C   0  0  0  0  0  0  0  0  0  0  0  0
    7.6270    3.8810   12.3130 C   0  0  0  0  0  0  0  0  0  0  0  0
    7.4630    5.1140   12.9820 C   0  0  0  0  0  3  0  0  0  0  0  0
    8.3270    2.6240   10.2310 C   0  0  0  0  0  0  0  0  0  0  0  0
    9.2860    1.6670   10.6040 C   0  0  0  0  0  3  0  0  0  0  0  0
    9.4500    0.4940    9.8620 C   0  0  0  0  0  3  0  0  0  0  0  0
    8.6590    0.2700    8.7370 C   0  0  0  0  0  0  0  0  0  0  0  0
    8.8610   -1.1740    7.8230 Cl  0  0  0  0  0  0  0  0  0  0  0  0
    7.7070    1.2080    8.3480 C   0  0  0  0  0  3  0  0  0  0  0  0
    7.5460    2.3810    9.0910 C   0  0  0  0  0  3  0  0  0  0  0  0
    8.8040    8.6480   12.9360 C   0  0  0  0  0  1  0  0  0  0  0  0
    7.7000    7.6310   13.0660 C   0  0  0  0  0  0  0  0  0  0  0  0
    6.6770    7.8700   13.7060 O   0  0  0  0  0  0  0  0  0  0  0  0
  1 25  1  0  0  0  0
  2  1  1  0  0  0  0
  3  2  2  0  0  0  0
  4  5  2  0  0  0  0
  4  3  1  0  0  0  0
  5  6  1  0  0  0  0
  6  1  2  0  0  0  0
  7 15  1  0  0  0  0
  7  4  1  0  0  0  0
  8  7  2  0  0  0  0
  9  8  1  0  0  0  0
  9 14  1  0  0  0  0
 10  9  2  0  0  0  0
 11 10  1  0  0  0  0
 11 12  2  0  0  0  0
 12 13  1  0  0  0  0
 13 14  2  0  0  0  0
 14 15  1  0  0  0  0
 15 16  1  0  0  0  0
 16 21  1  0  0  0  0
 17 16  1  0  0  0  0
 17 18  1  0  0  0  0
 18 19  1  0  0  0  0
 19 20  1  0  0  0  0
 21 20  1  0  0  0  0
 22 11  1  0  0  0  0
 23 22  2  0  0  0  0
 24 22  1  0  0  0  0
 25 26  1  0  0  0  0
 27 32  1  0  0  0  0
 27 41  1  0  0  0  0
 28 27  2  0  0  0  0
 29 30  2  0  0  0  0
 29 28  1  0  0  0  0
 30 31  1  0  0  0  0
 31 32  2  0  0  0  0
 31 26  1  0  0  0  0
 33 34  1  0  0  0  0
 33 30  1  0  0  0  0
 35 34  2  0  0  0  0
 36 35  1  0  0  0  0
 37 36  1  0  0  0  0
 38 36  2  0  0  0  0
 38 39  1  0  0  0  0
 39 33  2  0  0  0  0
 40 41  1  0  0  0  0
 41 42  2  0  0  0  0
M  END
>  <minimizedAffinity>
-8.10542965

$$$$
