
 OpenBabel09122219433D

 42 47  0  0  0  0  0  0  0  0999 V2000
    3.2870   -1.2570    7.4610 C   0  0  0  0  0  0  0  0  0  0  0  0
    4.5000   -1.9420    7.4010 C   0  0  0  0  0  3  0  0  0  0  0  0
    4.6970   -2.9080    6.4110 C   0  0  0  0  0  3  0  0  0  0  0  0
    3.6930   -3.1670    5.4690 C   0  0  0  0  0  0  0  0  0  0  0  0
    2.4810   -2.4710    5.5420 C   0  0  0  0  0  3  0  0  0  0  0  0
    2.2830   -1.5040    6.5270 C   0  0  0  0  0  3  0  0  0  0  0  0
    3.8960   -4.1420    4.4040 C   0  0  0  0  0  0  0  0  0  0  0  0
    4.5170   -3.8800    3.2730 N   0  0  0  0  0  0  0  0  0  0  0  0
    4.5500   -5.0610    2.5740 C   0  0  0  0  0  0  0  0  0  0  0  0
    5.1030   -5.3340    1.3120 C   0  0  0  0  0  3  0  0  0  0  0  0
    5.0380   -6.6390    0.7850 C   0  0  0  0  0  0  0  0  0  0  0  0
    4.4120   -7.6430    1.5410 C   0  0  0  0  0  3  0  0  0  0  0  0
    3.8510   -7.3900    2.7990 C   0  0  0  0  0  3  0  0  0  0  0  0
    3.9360   -6.0830    3.2950 C   0  0  0  0  0  0  0  0  0  0  0  0
    3.5220   -5.4760    4.4630 N   0  0  0  0  0  0  0  0  0  0  0  0
    2.8540   -6.1180    5.5920 C   0  0  0  0  0  3  0  0  0  0  0  0
    1.3640   -6.3890    5.3280 C   0  0  0  0  0  2  0  0  0  0  0  0
    0.6870   -7.0050    6.5510 C   0  0  0  0  0  2  0  0  0  0  0  0
    1.4190   -8.2540    7.0330 C   0  0  0  0  0  2  0  0  0  0  0  0
    2.8940   -7.9750    7.3090 C   0  0  0  0  0  2  0  0  0  0  0  0
    3.5910   -7.3720    6.0910 C   0  0  0  0  0  2  0  0  0  0  0  0
    5.6360   -6.9560   -0.5720 C   0  0  0  0  0  0  0  0  0  0  0  0
    6.3510   -6.0580   -1.1180 O   0  0  0  0  0  0  0  0  0  0  0  0
    5.3750   -8.0990   -1.0640 O   0  0  0  0  0  1  0  0  0  0  0  0
    3.0670   -0.2690    8.3820 O   0  0  0  0  0  0  0  0  0  0  0  0
    2.3230   -0.7240    9.5190 C   0  0  0  0  0  2  0  0  0  0  0  0
    4.8720    0.0660   12.2450 C   0  0  0  0  0  0  0  0  0  0  0  0
    4.8780   -1.1170   12.9860 C   0  0  0  0  0  3  0  0  0  0  0  0
    4.0750   -2.1930   12.6010 C   0  0  0  0  0  3  0  0  0  0  0  0
    3.2360   -2.1110   11.4750 C   0  0  0  0  0  0  0  0  0  0  0  0
    3.2070   -0.9040   10.7390 C   0  0  0  0  0  0  0  0  0  0  0  0
    4.0380    0.1700   11.1280 C   0  0  0  0  0  3  0  0  0  0  0  0
    2.4300   -3.2840   11.1100 C   0  0  0  0  0  0  0  0  0  0  0  0
    1.3140   -3.6550   11.8790 C   0  0  0  0  0  3  0  0  0  0  0  0
    0.5540   -4.7770   11.5380 C   0  0  0  0  0  3  0  0  0  0  0  0
    0.9060   -5.5410   10.4280 C   0  0  0  0  0  0  0  0  0  0  0  0
   -0.0310   -6.9230   10.0080 Cl  0  0  0  0  0  0  0  0  0  0  0  0
    2.0110   -5.1930    9.6560 C   0  0  0  0  0  3  0  0  0  0  0  0
    2.7710   -4.0720   10.0000 C   0  0  0  0  0  3  0  0  0  0  0  0
    5.6860    2.4990   11.9500 C   0  0  0  0  0  1  0  0  0  0  0  0
    5.7480    1.1880   12.6900 C   0  0  0  0  0  0  0  0  0  0  0  0
    6.4860    1.0320   13.6610 O   0  0  0  0  0  0  0  0  0  0  0  0
  1 25  1  0  0  0  0
  2  1  1  0  0  0  0
  3  2  2  0  0  0  0
  4  5  2  0  0  0  0
  4  3  1  0  0  0  0
  5  6  1  0  0  0  0
  6  1  2  0  0  0  0
  7 15  1  0  0  0  0
  7  4  1  0  0  0  0
  8  7  2  0  0  0  0
  9  8  1  0  0  0  0
  9 14  1  0  0  0  0
 10  9  2  0  0  0  0
 11 10  1  0  0  0  0
 11 12  2  0  0  0  0
 12 13  1  0  0  0  0
 13 14  2  0  0  0  0
 14 15  1  0  0  0  0
 15 16  1  0  0  0  0
 16 21  1  0  0  0  0
 17 16  1  0  0  0  0
 17 18  1  0  0  0  0
 18 19  1  0  0  0  0
 19 20  1  0  0  0  0
 21 20  1  0  0  0  0
 22 11  1  0  0  0  0
 23 22  2  0  0  0  0
 24 22  1  0  0  0  0
 25 26  1  0  0  0  0
 26 31  1  0  0  0  0
 27 41  1  0  0  0  0
 27 28  1  0  0  0  0
 29 28  2  0  0  0  0
 30 29  1  0  0  0  0
 31 32  1  0  0  0  0
 31 30  2  0  0  0  0
 32 27  2  0  0  0  0
 33 30  1  0  0  0  0
 33 34  1  0  0  0  0
 35 34  2  0  0  0  0
 36 35  1  0  0  0  0
 37 36  1  0  0  0  0
 38 39  1  0  0  0  0
 38 36  2  0  0  0  0
 39 33  2  0  0  0  0
 40 41  1  0  0  0  0
 41 42  2  0  0  0  0
M  END
>  <minimizedAffinity>
-8.45601654

$$$$

 OpenBabel09122219433D

 42 47  0  0  0  0  0  0  0  0999 V2000
    2.7770   -9.2490    2.5760 C   0  0  0  0  0  0  0  0  0  0  0  0
    3.5600   -8.8140    3.6440 C   0  0  0  0  0  3  0  0  0  0  0  0
    4.5990   -7.9090    3.4110 C   0  0  0  0  0  3  0  0  0  0  0  0
    4.8350   -7.4230    2.1190 C   0  0  0  0  0  0  0  0  0  0  0  0
    4.0390   -7.8680    1.0570 C   0  0  0  0  0  3  0  0  0  0  0  0
    3.0000   -8.7690    1.2870 C   0  0  0  0  0  3  0  0  0  0  0  0
    5.8880   -6.4460    1.8640 C   0  0  0  0  0  0  0  0  0  0  0  0
    6.8150   -6.5860    0.9390 N   0  0  0  0  0  0  0  0  0  0  0  0
    7.5680   -5.4390    0.9790 C   0  0  0  0  0  0  0  0  0  0  0  0
    8.6770   -5.0740    0.1970 C   0  0  0  0  0  3  0  0  0  0  0  0
    9.2960   -3.8260    0.3980 C   0  0  0  0  0  0  0  0  0  0  0  0
    8.7880   -2.9700    1.3890 C   0  0  0  0  0  3  0  0  0  0  0  0
    7.6860   -3.3170    2.1810 C   0  0  0  0  0  3  0  0  0  0  0  0
    7.0920   -4.5640    1.9530 C   0  0  0  0  0  0  0  0  0  0  0  0
    6.0160   -5.2260    2.5100 N   0  0  0  0  0  0  0  0  0  0  0  0
    5.1300   -4.7260    3.5570 C   0  0  0  0  0  3  0  0  0  0  0  0
    5.8850   -3.9910    4.6770 C   0  0  0  0  0  2  0  0  0  0  0  0
    4.9340   -3.5360    5.7820 C   0  0  0  0  0  2  0  0  0  0  0  0
    3.7810   -2.7040    5.2280 C   0  0  0  0  0  2  0  0  0  0  0  0
    3.0250   -3.4450    4.1280 C   0  0  0  0  0  2  0  0  0  0  0  0
    3.9590   -3.8960    3.0060 C   0  0  0  0  0  2  0  0  0  0  0  0
   10.4900   -3.4100   -0.4400 C   0  0  0  0  0  0  0  0  0  0  0  0
   11.5210   -4.1510   -0.3940 O   0  0  0  0  0  1  0  0  0  0  0  0
   10.3680   -2.3480   -1.1290 O   0  0  0  0  0  0  0  0  0  0  0  0
    1.7190  -10.0960    2.7620 O   0  0  0  0  0  0  0  0  0  0  0  0
    1.4520  -10.3580    4.1450 C   0  0  0  0  0  2  0  0  0  0  0  0
   -2.3590  -10.1900    4.2410 C   0  0  0  0  0  0  0  0  0  0  0  0
   -2.5800   -9.2080    5.2070 C   0  0  0  0  0  3  0  0  0  0  0  0
   -1.5010   -8.5710    5.8240 C   0  0  0  0  0  3  0  0  0  0  0  0
   -0.1740   -8.9070    5.5010 C   0  0  0  0  0  0  0  0  0  0  0  0
    0.0530   -9.9230    4.5440 C   0  0  0  0  0  0  0  0  0  0  0  0
   -1.0470  -10.5460    3.9140 C   0  0  0  0  0  3  0  0  0  0  0  0
    0.9180   -8.1870    6.1710 C   0  0  0  0  0  0  0  0  0  0  0  0
    1.5530   -8.7340    7.2980 C   0  0  0  0  0  3  0  0  0  0  0  0
    2.5850   -8.0440    7.9410 C   0  0  0  0  0  3  0  0  0  0  0  0
    2.9870   -6.7990    7.4650 C   0  0  0  0  0  0  0  0  0  0  0  0
    4.2570   -5.9490    8.2560 Cl  0  0  0  0  0  0  0  0  0  0  0  0
    2.3670   -6.2370    6.3510 C   0  0  0  0  0  3  0  0  0  0  0  0
    1.3340   -6.9280    5.7120 C   0  0  0  0  0  3  0  0  0  0  0  0
   -4.4520  -11.6870    4.4560 C   0  0  0  0  0  1  0  0  0  0  0  0
   -3.5400  -10.8420    3.6060 C   0  0  0  0  0  0  0  0  0  0  0  0
   -3.7610  -10.6610    2.4090 O   0  0  0  0  0  0  0  0  0  0  0  0
  1 25  1  0  0  0  0
  1  2  1  0  0  0  0
  3  2  2  0  0  0  0
  4  3  1  0  0  0  0
  5  6  1  0  0  0  0
  5  4  2  0  0  0  0
  6  1  2  0  0  0  0
  7  4  1  0  0  0  0
  7 15  1  0  0  0  0
  8  9  1  0  0  0  0
  8  7  2  0  0  0  0
  9 14  1  0  0  0  0
 10 11  1  0  0  0  0
 10  9  2  0  0  0  0
 11 12  2  0  0  0  0
 12 13  1  0  0  0  0
 14 13  2  0  0  0  0
 14 15  1  0  0  0  0
 15 16  1  0  0  0  0
 16 17  1  0  0  0  0
 17 18  1  0  0  0  0
 19 18  1  0  0  0  0
 20 19  1  0  0  0  0
 21 16  1  0  0  0  0
 21 20  1  0  0  0  0
 22 23  1  0  0  0  0
 22 11  1  0  0  0  0
 24 22  2  0  0  0  0
 25 26  1  0  0  0  0
 26 31  1  0  0  0  0
 27 28  1  0  0  0  0
 28 29  2  0  0  0  0
 30 29  1  0  0  0  0
 30 33  1  0  0  0  0
 31 30  2  0  0  0  0
 32 27  2  0  0  0  0
 32 31  1  0  0  0  0
 33 34  1  0  0  0  0
 34 35  2  0  0  0  0
 36 35  1  0  0  0  0
 36 37  1  0  0  0  0
 38 36  2  0  0  0  0
 39 33  2  0  0  0  0
 39 38  1  0  0  0  0
 41 27  1  0  0  0  0
 41 40  1  0  0  0  0
 42 41  2  0  0  0  0
M  END
>  <minimizedAffinity>
-8.35810566

$$$$

 OpenBabel09122219433D

 42 47  0  0  0  0  0  0  0  0999 V2000
    3.4260   -1.2090    7.3770 C   0  0  0  0  0  0  0  0  0  0  0  0
    2.3390   -1.5990    6.5960 C   0  0  0  0  0  3  0  0  0  0  0  0
    2.5250   -2.5330    5.5740 C   0  0  0  0  0  3  0  0  0  0  0  0
    3.7890   -3.0940    5.3530 C   0  0  0  0  0  0  0  0  0  0  0  0
    4.8710   -2.6940    6.1460 C   0  0  0  0  0  3  0  0  0  0  0  0
    4.6870   -1.7640    7.1680 C   0  0  0  0  0  3  0  0  0  0  0  0
    3.9940   -4.1010    4.3170 C   0  0  0  0  0  0  0  0  0  0  0  0
    4.5160   -3.8480    3.1360 N   0  0  0  0  0  0  0  0  0  0  0  0
    4.5930   -5.0550    2.4870 C   0  0  0  0  0  0  0  0  0  0  0  0
    5.0800   -5.3460    1.2020 C   0  0  0  0  0  3  0  0  0  0  0  0
    5.0790   -6.6750    0.7360 C   0  0  0  0  0  0  0  0  0  0  0  0
    4.5830   -7.6860    1.5750 C   0  0  0  0  0  3  0  0  0  0  0  0
    4.0900   -7.4160    2.8590 C   0  0  0  0  0  3  0  0  0  0  0  0
    4.1080   -6.0840    3.2910 C   0  0  0  0  0  0  0  0  0  0  0  0
    3.7280   -5.4540    4.4590 N   0  0  0  0  0  0  0  0  0  0  0  0
    3.1880   -6.0890    5.6580 C   0  0  0  0  0  3  0  0  0  0  0  0
    3.8450   -5.5790    6.9510 C   0  0  0  0  0  2  0  0  0  0  0  0
    3.2980   -6.3090    8.1760 C   0  0  0  0  0  2  0  0  0  0  0  0
    1.7750   -6.2410    8.2420 C   0  0  0  0  0  2  0  0  0  0  0  0
    1.1290   -6.7640    6.9620 C   0  0  0  0  0  2  0  0  0  0  0  0
    1.6530   -6.0350    5.7260 C   0  0  0  0  0  2  0  0  0  0  0  0
    5.6070   -7.0120   -0.6450 C   0  0  0  0  0  0  0  0  0  0  0  0
    6.2870   -6.1200   -1.2420 O   0  0  0  0  0  0  0  0  0  0  0  0
    5.3280   -8.1650   -1.1040 O   0  0  0  0  0  1  0  0  0  0  0  0
    3.2830   -0.3350    8.4190 O   0  0  0  0  0  0  0  0  0  0  0  0
    2.2920   -0.7540    9.3650 C   0  0  0  0  0  2  0  0  0  0  0  0
    2.6080   -3.9380   11.4420 C   0  0  0  0  0  0  0  0  0  0  0  0
    3.7780   -3.6980   12.1630 C   0  0  0  0  0  3  0  0  0  0  0  0
    4.4680   -2.4940   12.0040 C   0  0  0  0  0  3  0  0  0  0  0  0
    4.0150   -1.5060   11.1120 C   0  0  0  0  0  0  0  0  0  0  0  0
    2.8460   -1.7590   10.3590 C   0  0  0  0  0  0  0  0  0  0  0  0
    2.1460   -2.9720   10.5430 C   0  0  0  0  0  3  0  0  0  0  0  0
    4.7750   -0.2520   11.0040 C   0  0  0  0  0  0  0  0  0  0  0  0
    4.2860    0.9340   11.5760 C   0  0  0  0  0  3  0  0  0  0  0  0
    5.0030    2.1290   11.4640 C   0  0  0  0  0  3  0  0  0  0  0  0
    6.2140    2.1470   10.7760 C   0  0  0  0  0  0  0  0  0  0  0  0
    7.0980    3.6180   10.6380 Cl  0  0  0  0  0  0  0  0  0  0  0  0
    6.7140    0.9830   10.1980 C   0  0  0  0  0  3  0  0  0  0  0  0
    5.9930   -0.2090   10.3100 C   0  0  0  0  0  3  0  0  0  0  0  0
    0.3980   -5.2700   11.5520 C   0  0  0  0  0  1  0  0  0  0  0  0
    1.9010   -5.2360   11.6460 C   0  0  0  0  0  0  0  0  0  0  0  0
    2.5550   -6.2540   11.8640 O   0  0  0  0  0  0  0  0  0  0  0  0
  1 25  1  0  0  0  0
  2  1  2  0  0  0  0
  3  2  1  0  0  0  0
  4  3  2  0  0  0  0
  4  5  1  0  0  0  0
  5  6  2  0  0  0  0
  6  1  1  0  0  0  0
  7 15  1  0  0  0  0
  7  4  1  0  0  0  0
  8  7  2  0  0  0  0
  9  8  1  0  0  0  0
  9 14  1  0  0  0  0
 10  9  2  0  0  0  0
 11 10  1  0  0  0  0
 11 12  2  0  0  0  0
 12 13  1  0  0  0  0
 13 14  2  0  0  0  0
 14 15  1  0  0  0  0
 15 16  1  0  0  0  0
 16 21  1  0  0  0  0
 16 17  1  0  0  0  0
 17 18  1  0  0  0  0
 18 19  1  0  0  0  0
 20 19  1  0  0  0  0
 21 20  1  0  0  0  0
 22 11  1  0  0  0  0
 23 22  2  0  0  0  0
 24 22  1  0  0  0  0
 25 26  1  0  0  0  0
 26 31  1  0  0  0  0
 27 41  1  0  0  0  0
 27 28  1  0  0  0  0
 29 28  2  0  0  0  0
 30 29  1  0  0  0  0
 31 32  1  0  0  0  0
 31 30  2  0  0  0  0
 32 27  2  0  0  0  0
 33 30  1  0  0  0  0
 33 34  1  0  0  0  0
 35 34  2  0  0  0  0
 36 35  1  0  0  0  0
 37 36  1  0  0  0  0
 38 39  1  0  0  0  0
 38 36  2  0  0  0  0
 39 33  2  0  0  0  0
 40 41  1  0  0  0  0
 41 42  2  0  0  0  0
M  END
>  <minimizedAffinity>
-8.15840626

$$$$

 OpenBabel09122219433D

 42 47  0  0  0  0  0  0  0  0999 V2000
    5.4990    1.3830   11.9970 C   0  0  0  0  0  0  0  0  0  0  0  0
    6.2320    0.1980   11.9590 C   0  0  0  0  0  3  0  0  0  0  0  0
    5.9320   -0.7660   10.9940 C   0  0  0  0  0  3  0  0  0  0  0  0
    4.9200   -0.5320   10.0530 C   0  0  0  0  0  0  0  0  0  0  0  0
    4.1940    0.6640   10.1030 C   0  0  0  0  0  3  0  0  0  0  0  0
    4.4940    1.6280   11.0640 C   0  0  0  0  0  3  0  0  0  0  0  0
    4.6210   -1.5090    9.0120 C   0  0  0  0  0  0  0  0  0  0  0  0
    5.2000   -1.5280    7.8300 N   0  0  0  0  0  0  0  0  0  0  0  0
    4.6920   -2.6220    7.1750 C   0  0  0  0  0  0  0  0  0  0  0  0
    4.9810   -3.1020    5.8870 C   0  0  0  0  0  3  0  0  0  0  0  0
    4.3480   -4.2670    5.4140 C   0  0  0  0  0  0  0  0  0  0  0  0
    3.4310   -4.9250    6.2500 C   0  0  0  0  0  3  0  0  0  0  0  0
    3.1270   -4.4610    7.5360 C   0  0  0  0  0  3  0  0  0  0  0  0
    3.7760   -3.3010    7.9750 C   0  0  0  0  0  0  0  0  0  0  0  0
    3.7430   -2.5730    9.1480 N   0  0  0  0  0  0  0  0  0  0  0  0
    2.9660   -2.8830   10.3450 C   0  0  0  0  0  3  0  0  0  0  0  0
    1.5110   -3.2680   10.0300 C   0  0  0  0  0  2  0  0  0  0  0  0
    0.7160   -3.5250   11.3080 C   0  0  0  0  0  2  0  0  0  0  0  0
    1.4000   -4.5550   12.2030 C   0  0  0  0  0  2  0  0  0  0  0  0
    2.8380   -4.1580   12.5260 C   0  0  0  0  0  2  0  0  0  0  0  0
    3.6540   -3.9110   11.2580 C   0  0  0  0  0  2  0  0  0  0  0  0
    4.6510   -4.8060    4.0290 C   0  0  0  0  0  0  0  0  0  0  0  0
    4.4210   -4.0390    3.0430 O   0  0  0  0  0  0  0  0  0  0  0  0
    5.1150   -5.9880    3.9590 O   0  0  0  0  0  1  0  0  0  0  0  0
    5.7880    2.3760   12.8930 O   0  0  0  0  0  0  0  0  0  0  0  0
    7.1950    2.6120   13.0270 C   0  0  0  0  0  2  0  0  0  0  0  0
    7.8450    6.3150   12.3790 C   0  0  0  0  0  0  0  0  0  0  0  0
    8.4000    6.2910   11.0980 C   0  0  0  0  0  3  0  0  0  0  0  0
    8.5490    5.0810   10.4180 C   0  0  0  0  0  3  0  0  0  0  0  0
    8.1620    3.8620   11.0050 C   0  0  0  0  0  0  0  0  0  0  0  0
    7.6270    3.8810   12.3130 C   0  0  0  0  0  0  0  0  0  0  0  0
    7.4630    5.1140   12.9820 C   0  0  0  0  0  3  0  0  0  0  0  0
    8.3270    2.6240   10.2310 C   0  0  0  0  0  0  0  0  0  0  0  0
    9.2860    1.6670   10.6040 C   0  0  0  0  0  3  0  0  0  0  0  0
    9.4500    0.4940    9.8620 C   0  0  0  0  0  3  0  0  0  0  0  0
    8.6590    0.2700    8.7370 C   0  0  0  0  0  0  0  0  0  0  0  0
    8.8610   -1.1740    7.8230 Cl  0  0  0  0  0  0  0  0  0  0  0  0
    7.7070    1.2080    8.3480 C   0  0  0  0  0  3  0  0  0  0  0  0
    7.5460    2.3810    9.0910 C   0  0  0  0  0  3  0  0  0  0  0  0
    8.8040    8.6480   12.9360 C   0  0  0  0  0  1  0  0  0  0  0  0
    7.7000    7.6310   13.0660 C   0  0  0  0  0  0  0  0  0  0  0  0
    6.6770    7.8700   13.7060 O   0  0  0  0  0  0  0  0  0  0  0  0
  1 25  1  0  0  0  0
  2  1  1  0  0  0  0
  3  2  2  0  0  0  0
  4  5  2  0  0  0  0
  4  3  1  0  0  0  0
  5  6  1  0  0  0  0
  6  1  2  0  0  0  0
  7 15  1  0  0  0  0
  7  4  1  0  0  0  0
  8  7  2  0  0  0  0
  9  8  1  0  0  0  0
  9 14  1  0  0  0  0
 10  9  2  0  0  0  0
 11 10  1  0  0  0  0
 11 12  2  0  0  0  0
 12 13  1  0  0  0  0
 13 14  2  0  0  0  0
 14 15  1  0  0  0  0
 15 16  1  0  0  0  0
 16 21  1  0  0  0  0
 17 16  1  0  0  0  0
 17 18  1  0  0  0  0
 18 19  1  0  0  0  0
 19 20  1  0  0  0  0
 21 20  1  0  0  0  0
 22 11  1  0  0  0  0
 23 22  2  0  0  0  0
 24 22  1  0  0  0  0
 25 26  1  0  0  0  0
 27 32  1  0  0  0  0
 27 41  1  0  0  0  0
 28 27  2  0  0  0  0
 29 30  2  0  0  0  0
 29 28  1  0  0  0  0
 30 31  1  0  0  0  0
 31 32  2  0  0  0  0
 31 26  1  0  0  0  0
 33 34  1  0  0  0  0
 33 30  1  0  0  0  0
 35 34  2  0  0  0  0
 36 35  1  0  0  0  0
 37 36  1  0  0  0  0
 38 36  2  0  0  0  0
 38 39  1  0  0  0  0
 39 33  2  0  0  0  0
 40 41  1  0  0  0  0
 41 42  2  0  0  0  0
M  END
>  <minimizedAffinity>
-8.10542965

$$$$

 OpenBabel09122219433D

 42 47  0  0  0  0  0  0  0  0999 V2000
    5.4720   -2.4520    9.2640 C   0  0  0  0  0  0  0  0  0  0  0  0
    5.3820   -1.4120    8.3390 C   0  0  0  0  0  3  0  0  0  0  0  0
    6.0990   -1.4910    7.1430 C   0  0  0  0  0  3  0  0  0  0  0  0
    6.8810   -2.6190    6.8620 C   0  0  0  0  0  0  0  0  0  0  0  0
    6.9610   -3.6550    7.8000 C   0  0  0  0  0  3  0  0  0  0  0  0
    6.2440   -3.5800    8.9930 C   0  0  0  0  0  3  0  0  0  0  0  0
    7.6030   -2.7370    5.6000 C   0  0  0  0  0  0  0  0  0  0  0  0
    7.1820   -3.4440    4.5730 N   0  0  0  0  0  0  0  0  0  0  0  0
    8.1030   -3.2510    3.5740 C   0  0  0  0  0  0  0  0  0  0  0  0
    8.1250   -3.7720    2.2700 C   0  0  0  0  0  3  0  0  0  0  0  0
    9.1720   -3.4250    1.3940 C   0  0  0  0  0  0  0  0  0  0  0  0
   10.1800   -2.5620    1.8520 C   0  0  0  0  0  3  0  0  0  0  0  0
   10.1780   -2.0350    3.1500 C   0  0  0  0  0  3  0  0  0  0  0  0
    9.1210   -2.3980    3.9940 C   0  0  0  0  0  0  0  0  0  0  0  0
    8.7850   -2.0790    5.2940 N   0  0  0  0  0  0  0  0  0  0  0  0
    9.5050   -1.1750    6.1860 C   0  0  0  0  0  3  0  0  0  0  0  0
   10.5160   -1.9030    7.0860 C   0  0  0  0  0  2  0  0  0  0  0  0
   11.2050   -0.9340    8.0450 C   0  0  0  0  0  2  0  0  0  0  0  0
   11.8400    0.2390    7.3040 C   0  0  0  0  0  2  0  0  0  0  0  0
   10.8280    0.9680    6.4240 C   0  0  0  0  0  2  0  0  0  0  0  0
   10.1390    0.0160    5.4480 C   0  0  0  0  0  2  0  0  0  0  0  0
    9.2100   -3.9710   -0.0210 C   0  0  0  0  0  0  0  0  0  0  0  0
    8.6680   -5.1020   -0.2240 O   0  0  0  0  0  1  0  0  0  0  0  0
    9.7830   -3.2530   -0.9010 O   0  0  0  0  0  0  0  0  0  0  0  0
    4.7510   -2.4410   10.4260 O   0  0  0  0  0  0  0  0  0  0  0  0
    3.3550   -2.2020   10.2140 C   0  0  0  0  0  2  0  0  0  0  0  0
    1.3600   -5.0290   11.8210 C   0  0  0  0  0  0  0  0  0  0  0  0
    1.0070   -5.8000   10.7130 C   0  0  0  0  0  3  0  0  0  0  0  0
    1.4280   -5.4290    9.4340 C   0  0  0  0  0  3  0  0  0  0  0  0
    2.2010   -4.2710    9.2280 C   0  0  0  0  0  0  0  0  0  0  0  0
    2.5360   -3.4730   10.3460 C   0  0  0  0  0  0  0  0  0  0  0  0
    2.1200   -3.8700   11.6360 C   0  0  0  0  0  3  0  0  0  0  0  0
    2.6290   -3.9450    7.8610 C   0  0  0  0  0  0  0  0  0  0  0  0
    3.4320   -4.8350    7.1290 C   0  0  0  0  0  3  0  0  0  0  0  0
    3.8480   -4.5200    5.8320 C   0  0  0  0  0  3  0  0  0  0  0  0
    3.4680   -3.3090    5.2580 C   0  0  0  0  0  0  0  0  0  0  0  0
    3.9810   -2.9200    3.6620 Cl  0  0  0  0  0  0  0  0  0  0  0  0
    2.6770   -2.4100    5.9690 C   0  0  0  0  0  3  0  0  0  0  0  0
    2.2640   -2.7270    7.2660 C   0  0  0  0  0  3  0  0  0  0  0  0
    1.1740   -6.8750   13.6180 C   0  0  0  0  0  1  0  0  0  0  0  0
    0.8930   -5.4650   13.1690 C   0  0  0  0  0  0  0  0  0  0  0  0
    0.3070   -4.6630   13.8950 O   0  0  0  0  0  0  0  0  0  0  0  0
  1 25  1  0  0  0  0
  2  1  2  0  0  0  0
  3  2  1  0  0  0  0
  4  3  2  0  0  0  0
  4  5  1  0  0  0  0
  5  6  2  0  0  0  0
  6  1  1  0  0  0  0
  7  4  1  0  0  0  0
  8  7  2  0  0  0  0
  9 14  1  0  0  0  0
  9  8  1  0  0  0  0
 10  9  2  0  0  0  0
 11 12  2  0  0  0  0
 11 10  1  0  0  0  0
 12 13  1  0  0  0  0
 13 14  2  0  0  0  0
 14 15  1  0  0  0  0
 15  7  1  0  0  0  0
 15 16  1  0  0  0  0
 16 17  1  0  0  0  0
 17 18  1  0  0  0  0
 19 18  1  0  0  0  0
 20 19  1  0  0  0  0
 21 16  1  0  0  0  0
 21 20  1  0  0  0  0
 22 11  1  0  0  0  0
 23 22  1  0  0  0  0
 24 22  2  0  0  0  0
 26 31  1  0  0  0  0
 26 25  1  0  0  0  0
 27 41  1  0  0  0  0
 28 27  2  0  0  0  0
 29 28  1  0  0  0  0
 30 29  2  0  0  0  0
 30 31  1  0  0  0  0
 31 32  2  0  0  0  0
 32 27  1  0  0  0  0
 33 30  1  0  0  0  0
 34 33  2  0  0  0  0
 35 34  1  0  0  0  0
 36 35  2  0  0  0  0
 36 38  1  0  0  0  0
 37 36  1  0  0  0  0
 38 39  2  0  0  0  0
 39 33  1  0  0  0  0
 41 40  1  0  0  0  0
 41 42  2  0  0  0  0
M  END
>  <minimizedAffinity>
-8.1021204

$$$$

 OpenBabel09122219433D

 42 47  0  0  0  0  0  0  0  0999 V2000
    1.8110   -7.4800    9.1070 C   0  0  0  0  0  0  0  0  0  0  0  0
    1.6510   -6.0970    9.1840 C   0  0  0  0  0  3  0  0  0  0  0  0
    2.7550   -5.2640    8.9840 C   0  0  0  0  0  3  0  0  0  0  0  0
    4.0070   -5.8130    8.6810 C   0  0  0  0  0  0  0  0  0  0  0  0
    4.1520   -7.2040    8.6050 C   0  0  0  0  0  3  0  0  0  0  0  0
    3.0510   -8.0360    8.8020 C   0  0  0  0  0  3  0  0  0  0  0  0
    5.1620   -4.9590    8.4280 C   0  0  0  0  0  0  0  0  0  0  0  0
    6.2220   -4.9020    9.2070 N   0  0  0  0  0  0  0  0  0  0  0  0
    7.0960   -4.0370    8.5970 C   0  0  0  0  0  0  0  0  0  0  0  0
    8.3770   -3.6300    9.0060 C   0  0  0  0  0  3  0  0  0  0  0  0
    9.1160   -2.7340    8.2090 C   0  0  0  0  0  0  0  0  0  0  0  0
    8.5460   -2.2620    7.0160 C   0  0  0  0  0  3  0  0  0  0  0  0
    7.2690   -2.6530    6.5920 C   0  0  0  0  0  3  0  0  0  0  0  0
    6.5630   -3.5470    7.4070 C   0  0  0  0  0  0  0  0  0  0  0  0
    5.3240   -4.1480    7.3150 N   0  0  0  0  0  0  0  0  0  0  0  0
    4.3630   -4.0050    6.2250 C   0  0  0  0  0  3  0  0  0  0  0  0
    3.4770   -2.7570    6.3690 C   0  0  0  0  0  2  0  0  0  0  0  0
    2.4460   -2.6750    5.2450 C   0  0  0  0  0  2  0  0  0  0  0  0
    3.1030   -2.7550    3.8700 C   0  0  0  0  0  2  0  0  0  0  0  0
    3.9680   -4.0050    3.7270 C   0  0  0  0  0  2  0  0  0  0  0  0
    5.0150   -4.0960    4.8350 C   0  0  0  0  0  2  0  0  0  0  0  0
   10.5030   -2.2880    8.6290 C   0  0  0  0  0  0  0  0  0  0  0  0
   10.9730   -1.2470    8.0730 O   0  0  0  0  0  0  0  0  0  0  0  0
   11.0930   -2.9910    9.5100 O   0  0  0  0  0  1  0  0  0  0  0  0
    0.7510   -8.3320    9.2470 O   0  0  0  0  0  0  0  0  0  0  0  0
    0.4140   -9.0080    8.0300 C   0  0  0  0  0  2  0  0  0  0  0  0
   -2.7900   -7.2230    6.9810 C   0  0  0  0  0  0  0  0  0  0  0  0
   -2.4460   -6.7240    5.7240 C   0  0  0  0  0  3  0  0  0  0  0  0
   -1.1810   -6.9780    5.1890 C   0  0  0  0  0  3  0  0  0  0  0  0
   -0.2240   -7.7240    5.9010 C   0  0  0  0  0  0  0  0  0  0  0  0
   -0.5610   -8.2050    7.1870 C   0  0  0  0  0  0  0  0  0  0  0  0
   -1.8500   -7.9580    7.7090 C   0  0  0  0  0  3  0  0  0  0  0  0
    1.0820   -7.9730    5.2760 C   0  0  0  0  0  0  0  0  0  0  0  0
    2.1320   -7.0500    5.4150 C   0  0  0  0  0  3  0  0  0  0  0  0
    3.3710   -7.2820    4.8110 C   0  0  0  0  0  3  0  0  0  0  0  0
    3.5700   -8.4380    4.0600 C   0  0  0  0  0  0  0  0  0  0  0  0
    5.0960   -8.7240    3.3170 Cl  0  0  0  0  0  0  0  0  0  0  0  0
    2.5410   -9.3640    3.9060 C   0  0  0  0  0  3  0  0  0  0  0  0
    1.3020   -9.1280    4.5090 C   0  0  0  0  0  3  0  0  0  0  0  0
   -4.8030   -7.9250    8.4400 C   0  0  0  0  0  1  0  0  0  0  0  0
   -4.1530   -6.9310    7.5120 C   0  0  0  0  0  0  0  0  0  0  0  0
   -4.7120   -5.8790    7.2030 O   0  0  0  0  0  0  0  0  0  0  0  0
  1  2  1  0  0  0  0
  1 25  1  0  0  0  0
  3  2  2  0  0  0  0
  4  3  1  0  0  0  0
  5  4  2  0  0  0  0
  5  6  1  0  0  0  0
  6  1  2  0  0  0  0
  7  4  1  0  0  0  0
  7  8  2  0  0  0  0
  9 10  1  0  0  0  0
  9  8  1  0  0  0  0
 11 22  1  0  0  0  0
 11 10  2  0  0  0  0
 12 11  1  0  0  0  0
 13 12  2  0  0  0  0
 13 14  1  0  0  0  0
 14  9  2  0  0  0  0
 15 14  1  0  0  0  0
 15  7  1  0  0  0  0
 16 17  1  0  0  0  0
 16 15  1  0  0  0  0
 18 17  1  0  0  0  0
 19 18  1  0  0  0  0
 20 19  1  0  0  0  0
 20 21  1  0  0  0  0
 21 16  1  0  0  0  0
 22 24  1  0  0  0  0
 23 22  2  0  0  0  0
 26 25  1  0  0  0  0
 27 41  1  0  0  0  0
 27 32  1  0  0  0  0
 28 27  2  0  0  0  0
 29 28  1  0  0  0  0
 29 30  2  0  0  0  0
 30 31  1  0  0  0  0
 31 32  2  0  0  0  0
 31 26  1  0  0  0  0
 33 34  1  0  0  0  0
 33 30  1  0  0  0  0
 35 34  2  0  0  0  0
 36 35  1  0  0  0  0
 37 36  1  0  0  0  0
 38 36  2  0  0  0  0
 38 39  1  0  0  0  0
 39 33  2  0  0  0  0
 41 40  1  0  0  0  0
 42 41  2  0  0  0  0
M  END
>  <minimizedAffinity>
-8.00930691

$$$$

 OpenBabel09122219433D

 42 47  0  0  0  0  0  0  0  0999 V2000
    1.3880   -7.4540    6.8590 C   0  0  0  0  0  0  0  0  0  0  0  0
    1.0960   -6.4730    5.9130 C   0  0  0  0  0  3  0  0  0  0  0  0
    2.0020   -6.2200    4.8800 C   0  0  0  0  0  3  0  0  0  0  0  0
    3.1830   -6.9660    4.7800 C   0  0  0  0  0  0  0  0  0  0  0  0
    3.4630   -7.9490    5.7370 C   0  0  0  0  0  3  0  0  0  0  0  0
    2.5590   -8.2040    6.7670 C   0  0  0  0  0  3  0  0  0  0  0  0
    4.1210   -6.7460    3.6850 C   0  0  0  0  0  0  0  0  0  0  0  0
    4.8830   -5.6790    3.5710 N   0  0  0  0  0  0  0  0  0  0  0  0
    5.6540   -5.8790    2.4530 C   0  0  0  0  0  0  0  0  0  0  0  0
    6.6380   -5.0500    1.8890 C   0  0  0  0  0  3  0  0  0  0  0  0
    7.3270   -5.4650    0.7330 C   0  0  0  0  0  0  0  0  0  0  0  0
    7.0070   -6.7100    0.1660 C   0  0  0  0  0  3  0  0  0  0  0  0
    6.0280   -7.5500    0.7110 C   0  0  0  0  0  3  0  0  0  0  0  0
    5.3640   -7.1070    1.8620 C   0  0  0  0  0  0  0  0  0  0  0  0
    4.3790   -7.6480    2.6640 N   0  0  0  0  0  0  0  0  0  0  0  0
    3.7470   -8.9550    2.5090 C   0  0  0  0  0  3  0  0  0  0  0  0
    3.0030   -9.1030    1.1720 C   0  0  0  0  0  2  0  0  0  0  0  0
    2.3050  -10.4580    1.0730 C   0  0  0  0  0  2  0  0  0  0  0  0
    3.2730  -11.6120    1.3200 C   0  0  0  0  0  2  0  0  0  0  0  0
    3.9970  -11.4670    2.6570 C   0  0  0  0  0  2  0  0  0  0  0  0
    4.7130  -10.1230    2.7680 C   0  0  0  0  0  2  0  0  0  0  0  0
    8.3970   -4.5880    0.1120 C   0  0  0  0  0  0  0  0  0  0  0  0
    8.9930   -3.7670    0.8770 O   0  0  0  0  0  1  0  0  0  0  0  0
    8.6180   -4.7410   -1.1310 O   0  0  0  0  0  0  0  0  0  0  0  0
    0.5110   -7.7690    7.8600 O   0  0  0  0  0  0  0  0  0  0  0  0
    0.4640   -6.7770    8.8930 C   0  0  0  0  0  2  0  0  0  0  0  0
    2.7440   -8.2590   11.5690 C   0  0  0  0  0  0  0  0  0  0  0  0
    3.7310   -7.2790   11.6820 C   0  0  0  0  0  3  0  0  0  0  0  0
    3.6610   -6.1160   10.9120 C   0  0  0  0  0  3  0  0  0  0  0  0
    2.6100   -5.9080    9.9990 C   0  0  0  0  0  0  0  0  0  0  0  0
    1.6250   -6.9130    9.8610 C   0  0  0  0  0  0  0  0  0  0  0  0
    1.6970   -8.0750   10.6600 C   0  0  0  0  0  3  0  0  0  0  0  0
    2.5820   -4.6560    9.2320 C   0  0  0  0  0  0  0  0  0  0  0  0
    3.2490   -4.5540    8.0000 C   0  0  0  0  0  3  0  0  0  0  0  0
    3.2300   -3.3590    7.2740 C   0  0  0  0  0  3  0  0  0  0  0  0
    2.5480   -2.2540    7.7780 C   0  0  0  0  0  0  0  0  0  0  0  0
    2.5250   -0.7820    6.8860 Cl  0  0  0  0  0  0  0  0  0  0  0  0
    1.8840   -2.3330    9.0000 C   0  0  0  0  0  3  0  0  0  0  0  0
    1.9060   -3.5280    9.7240 C   0  0  0  0  0  3  0  0  0  0  0  0
    4.1780   -9.8010   13.0650 C   0  0  0  0  0  1  0  0  0  0  0  0
    2.8570   -9.4830   12.4140 C   0  0  0  0  0  0  0  0  0  0  0  0
    1.8690  -10.1960   12.5820 O   0  0  0  0  0  0  0  0  0  0  0  0
  1 25  1  0  0  0  0
  2  1  2  0  0  0  0
  3  2  1  0  0  0  0
  4  3  2  0  0  0  0
  4  5  1  0  0  0  0
  5  6  2  0  0  0  0
  6  1  1  0  0  0  0
  7  4  1  0  0  0  0
  8  7  2  0  0  0  0
  9  8  1  0  0  0  0
 10  9  1  0  0  0  0
 11 10  2  0  0  0  0
 12 13  2  0  0  0  0
 12 11  1  0  0  0  0
 13 14  1  0  0  0  0
 14  9  2  0  0  0  0
 14 15  1  0  0  0  0
 15  7  1  0  0  0  0
 16 15  1  0  0  0  0
 16 21  1  0  0  0  0
 17 16  1  0  0  0  0
 18 17  1  0  0  0  0
 18 19  1  0  0  0  0
 19 20  1  0  0  0  0
 20 21  1  0  0  0  0
 22 11  1  0  0  0  0
 22 23  1  0  0  0  0
 24 22  2  0  0  0  0
 25 26  1  0  0  0  0
 26 31  1  0  0  0  0
 27 28  1  0  0  0  0
 27 41  1  0  0  0  0
 29 28  2  0  0  0  0
 30 29  1  0  0  0  0
 31 30  2  0  0  0  0
 31 32  1  0  0  0  0
 32 27  2  0  0  0  0
 33 39  1  0  0  0  0
 33 30  1  0  0  0  0
 34 33  2  0  0  0  0
 35 36  2  0  0  0  0
 35 34  1  0  0  0  0
 36 38  1  0  0  0  0
 37 36  1  0  0  0  0
 38 39  2  0  0  0  0
 41 42  2  0  0  0  0
 41 40  1  0  0  0  0
M  END
>  <minimizedAffinity>
-7.94083261

$$$$

 OpenBabel09122219433D

 42 47  0  0  0  0  0  0  0  0999 V2000
    3.5100   -1.0070    7.8570 C   0  0  0  0  0  0  0  0  0  0  0  0
    2.3820   -1.5870    7.2780 C   0  0  0  0  0  3  0  0  0  0  0  0
    2.5390   -2.5200    6.2500 C   0  0  0  0  0  3  0  0  0  0  0  0
    3.8210   -2.8900    5.8230 C   0  0  0  0  0  0  0  0  0  0  0  0
    4.9430   -2.2990    6.4150 C   0  0  0  0  0  3  0  0  0  0  0  0
    4.7890   -1.3700    7.4430 C   0  0  0  0  0  3  0  0  0  0  0  0
    4.0050   -3.8930    4.7800 C   0  0  0  0  0  0  0  0  0  0  0  0
    4.3840   -3.6160    3.5500 N   0  0  0  0  0  0  0  0  0  0  0  0
    4.4960   -4.8230    2.9060 C   0  0  0  0  0  0  0  0  0  0  0  0
    4.8750   -5.0930    1.5810 C   0  0  0  0  0  3  0  0  0  0  0  0
    4.9400   -6.4250    1.1270 C   0  0  0  0  0  0  0  0  0  0  0  0
    4.6170   -7.4600    2.0200 C   0  0  0  0  0  3  0  0  0  0  0  0
    4.2340   -7.2110    3.3440 C   0  0  0  0  0  3  0  0  0  0  0  0
    4.1820   -5.8760    3.7630 C   0  0  0  0  0  0  0  0  0  0  0  0
    3.8690   -5.2610    4.9580 N   0  0  0  0  0  0  0  0  0  0  0  0
    3.5070   -5.9200    6.2100 C   0  0  0  0  0  3  0  0  0  0  0  0
    4.3190   -5.4070    7.4110 C   0  0  0  0  0  2  0  0  0  0  0  0
    3.9550   -6.1610    8.6890 C   0  0  0  0  0  2  0  0  0  0  0  0
    2.4540   -6.1270    8.9570 C   0  0  0  0  0  2  0  0  0  0  0  0
    1.6540   -6.6530    7.7680 C   0  0  0  0  0  2  0  0  0  0  0  0
    1.9940   -5.9000    6.4820 C   0  0  0  0  0  2  0  0  0  0  0  0
    5.3540   -6.7390   -0.2980 C   0  0  0  0  0  0  0  0  0  0  0  0
    5.0470   -7.8840   -0.7550 O   0  0  0  0  0  1  0  0  0  0  0  0
    5.9780   -5.8290   -0.9300 O   0  0  0  0  0  0  0  0  0  0  0  0
    3.4070   -0.1250    8.8980 O   0  0  0  0  0  0  0  0  0  0  0  0
    4.3900   -0.3490    9.9160 C   0  0  0  0  0  2  0  0  0  0  0  0
    2.4610   -2.7190   12.1990 C   0  0  0  0  0  0  0  0  0  0  0  0
    3.3540   -3.7820   12.3340 C   0  0  0  0  0  3  0  0  0  0  0  0
    4.6020   -3.7370   11.7070 C   0  0  0  0  0  3  0  0  0  0  0  0
    4.9830   -2.6350   10.9190 C   0  0  0  0  0  0  0  0  0  0  0  0
    4.0670   -1.5700   10.7580 C   0  0  0  0  0  0  0  0  0  0  0  0
    2.8170   -1.6190   11.4120 C   0  0  0  0  0  3  0  0  0  0  0  0
    6.3160   -2.6380   10.3020 C   0  0  0  0  0  0  0  0  0  0  0  0
    7.2180   -1.5880   10.5380 C   0  0  0  0  0  3  0  0  0  0  0  0
    8.4830   -1.5850    9.9430 C   0  0  0  0  0  3  0  0  0  0  0  0
    8.8550   -2.6320    9.1030 C   0  0  0  0  0  0  0  0  0  0  0  0
   10.4120   -2.6300    8.3690 Cl  0  0  0  0  0  0  0  0  0  0  0  0
    7.9730   -3.6810    8.8520 C   0  0  0  0  0  3  0  0  0  0  0  0
    6.7090   -3.6790    9.4470 C   0  0  0  0  0  3  0  0  0  0  0  0
    0.6780   -1.6460   13.7290 C   0  0  0  0  0  1  0  0  0  0  0  0
    1.1410   -2.8080   12.8890 C   0  0  0  0  0  0  0  0  0  0  0  0
    0.4480   -3.8130   12.7430 O   0  0  0  0  0  0  0  0  0  0  0  0
  1 25  1  0  0  0  0
  2  1  2  0  0  0  0
  3  2  1  0  0  0  0
  4  3  2  0  0  0  0
  4  5  1  0  0  0  0
  5  6  2  0  0  0  0
  6  1  1  0  0  0  0
  7 15  1  0  0  0  0
  7  4  1  0  0  0  0
  8  7  2  0  0  0  0
  9  8  1  0  0  0  0
  9 14  1  0  0  0  0
 10  9  2  0  0  0  0
 11 10  1  0  0  0  0
 11 12  2  0  0  0  0
 12 13  1  0  0  0  0
 13 14  2  0  0  0  0
 14 15  1  0  0  0  0
 15 16  1  0  0  0  0
 16 21  1  0  0  0  0
 16 17  1  0  0  0  0
 17 18  1  0  0  0  0
 18 19  1  0  0  0  0
 20 19  1  0  0  0  0
 21 20  1  0  0  0  0
 22 11  1  0  0  0  0
 23 22  1  0  0  0  0
 24 22  2  0  0  0  0
 25 26  1  0  0  0  0
 26 31  1  0  0  0  0
 27 28  1  0  0  0  0
 27 41  1  0  0  0  0
 29 28  2  0  0  0  0
 30 29  1  0  0  0  0
 31 30  2  0  0  0  0
 31 32  1  0  0  0  0
 32 27  2  0  0  0  0
 33 34  1  0  0  0  0
 33 30  1  0  0  0  0
 35 34  2  0  0  0  0
 36 35  1  0  0  0  0
 37 36  1  0  0  0  0
 38 36  2  0  0  0  0
 38 39  1  0  0  0  0
 39 33  2  0  0  0  0
 41 40  1  0  0  0  0
 42 41  2  0  0  0  0
M  END
>  <minimizedAffinity>
-7.93801498

$$$$

 OpenBabel09122219433D

 42 47  0  0  0  0  0  0  0  0999 V2000
    3.9310   -3.4340    4.5520 C   0  0  0  0  0  0  0  0  0  0  0  0
    5.1360   -3.6710    5.2130 C   0  0  0  0  0  3  0  0  0  0  0  0
    5.3770   -3.0590    6.4450 C   0  0  0  0  0  3  0  0  0  0  0  0
    4.4040   -2.2340    7.0250 C   0  0  0  0  0  0  0  0  0  0  0  0
    3.1990   -2.0070    6.3500 C   0  0  0  0  0  3  0  0  0  0  0  0
    2.9550   -2.6190    5.1210 C   0  0  0  0  0  3  0  0  0  0  0  0
    4.6210   -1.6200    8.3300 C   0  0  0  0  0  0  0  0  0  0  0  0
    5.2380   -0.4710    8.5110 N   0  0  0  0  0  0  0  0  0  0  0  0
    5.1820   -0.2170    9.8580 C   0  0  0  0  0  0  0  0  0  0  0  0
    5.6820    0.8800   10.5790 C   0  0  0  0  0  3  0  0  0  0  0  0
    5.4970    0.9460   11.9740 C   0  0  0  0  0  0  0  0  0  0  0  0
    4.8130   -0.0990   12.6160 C   0  0  0  0  0  3  0  0  0  0  0  0
    4.3090   -1.2020   11.9150 C   0  0  0  0  0  3  0  0  0  0  0  0
    4.5080   -1.2350   10.5300 C   0  0  0  0  0  0  0  0  0  0  0  0
    4.1570   -2.1250    9.5350 N   0  0  0  0  0  0  0  0  0  0  0  0
    3.3910   -3.3580    9.6970 C   0  0  0  0  0  3  0  0  0  0  0  0
    4.0800   -4.3710   10.6260 C   0  0  0  0  0  2  0  0  0  0  0  0
    3.2800   -5.6680   10.7230 C   0  0  0  0  0  2  0  0  0  0  0  0
    1.8320   -5.4110   11.1300 C   0  0  0  0  0  2  0  0  0  0  0  0
    1.1490   -4.4170   10.1940 C   0  0  0  0  0  2  0  0  0  0  0  0
    1.9280   -3.1070   10.0960 C   0  0  0  0  0  2  0  0  0  0  0  0
    6.0230    2.1250   12.7700 C   0  0  0  0  0  0  0  0  0  0  0  0
    6.7690    1.8690   13.7660 O   0  0  0  0  0  1  0  0  0  0  0  0
    5.6770    3.2850   12.3790 O   0  0  0  0  0  0  0  0  0  0  0  0
    3.6310   -4.0480    3.3670 O   0  0  0  0  0  0  0  0  0  0  0  0
    4.7860   -4.2820    2.5520 C   0  0  0  0  0  2  0  0  0  0  0  0
    4.3950   -8.0650    2.8570 C   0  0  0  0  0  0  0  0  0  0  0  0
    5.5200   -8.5270    2.1740 C   0  0  0  0  0  3  0  0  0  0  0  0
    6.4320   -7.6230    1.6250 C   0  0  0  0  0  3  0  0  0  0  0  0
    6.2370   -6.2340    1.7330 C   0  0  0  0  0  0  0  0  0  0  0  0
    5.0820   -5.7630    2.4000 C   0  0  0  0  0  0  0  0  0  0  0  0
    4.1780   -6.6880    2.9670 C   0  0  0  0  0  3  0  0  0  0  0  0
    7.2420   -5.3340    1.1520 C   0  0  0  0  0  0  0  0  0  0  0  0
    7.8840   -4.3680    1.9440 C   0  0  0  0  0  3  0  0  0  0  0  0
    8.8330   -3.5050    1.3890 C   0  0  0  0  0  3  0  0  0  0  0  0
    9.1440   -3.5970    0.0340 C   0  0  0  0  0  0  0  0  0  0  0  0
   10.3120   -2.5340   -0.6500 Cl  0  0  0  0  0  0  0  0  0  0  0  0
    8.5140   -4.5440   -0.7700 C   0  0  0  0  0  3  0  0  0  0  0  0
    7.5650   -5.4040   -0.2120 C   0  0  0  0  0  3  0  0  0  0  0  0
    3.8020   -9.7400    4.7320 C   0  0  0  0  0  1  0  0  0  0  0  0
    3.4500   -9.0660    3.4310 C   0  0  0  0  0  0  0  0  0  0  0  0
    2.3950   -9.3070    2.8470 O   0  0  0  0  0  0  0  0  0  0  0  0
  1  6  2  0  0  0  0
  1  2  1  0  0  0  0
  2  3  2  0  0  0  0
  3  4  1  0  0  0  0
  4  7  1  0  0  0  0
  5  4  2  0  0  0  0
  6  5  1  0  0  0  0
  7  8  2  0  0  0  0
  7 15  1  0  0  0  0
  8  9  1  0  0  0  0
  9 14  2  0  0  0  0
  9 10  1  0  0  0  0
 10 11  2  0  0  0  0
 11 12  1  0  0  0  0
 11 22  1  0  0  0  0
 13 12  2  0  0  0  0
 14 13  1  0  0  0  0
 15 16  1  0  0  0  0
 15 14  1  0  0  0  0
 16 21  1  0  0  0  0
 16 17  1  0  0  0  0
 17 18  1  0  0  0  0
 18 19  1  0  0  0  0
 20 19  1  0  0  0  0
 21 20  1  0  0  0  0
 22 23  1  0  0  0  0
 24 22  2  0  0  0  0
 25  1  1  0  0  0  0
 26 25  1  0  0  0  0
 27 32  1  0  0  0  0
 27 41  1  0  0  0  0
 28 27  2  0  0  0  0
 29 30  2  0  0  0  0
 29 28  1  0  0  0  0
 30 31  1  0  0  0  0
 31 26  1  0  0  0  0
 31 32  2  0  0  0  0
 33 30  1  0  0  0  0
 33 34  1  0  0  0  0
 35 34  2  0  0  0  0
 36 35  1  0  0  0  0
 37 36  1  0  0  0  0
 38 39  1  0  0  0  0
 38 36  2  0  0  0  0
 39 33  2  0  0  0  0
 41 40  1  0  0  0  0
 42 41  2  0  0  0  0
M  END
>  <minimizedAffinity>
-7.8586545

$$$$

 OpenBabel09122219433D

 42 47  0  0  0  0  0  0  0  0999 V2000
    1.4830   -7.2760    9.2180 C   0  0  0  0  0  0  0  0  0  0  0  0
    2.8440   -7.3940    8.9400 C   0  0  0  0  0  3  0  0  0  0  0  0
    3.6320   -6.2430    8.8550 C   0  0  0  0  0  3  0  0  0  0  0  0
    3.0630   -4.9820    9.0740 C   0  0  0  0  0  0  0  0  0  0  0  0
    1.6950   -4.8800    9.3540 C   0  0  0  0  0  3  0  0  0  0  0  0
    0.9080   -6.0270    9.4420 C   0  0  0  0  0  3  0  0  0  0  0  0
    3.8770   -3.7720    9.0310 C   0  0  0  0  0  0  0  0  0  0  0  0
    4.3300   -3.1490   10.0990 N   0  0  0  0  0  0  0  0  0  0  0  0
    5.0920   -2.1060    9.6370 C   0  0  0  0  0  0  0  0  0  0  0  0
    5.8070   -1.1360   10.3590 C   0  0  0  0  0  3  0  0  0  0  0  0
    6.5450   -0.1530    9.6730 C   0  0  0  0  0  0  0  0  0  0  0  0
    6.5450   -0.1640    8.2690 C   0  0  0  0  0  3  0  0  0  0  0  0
    5.8360   -1.1200    7.5300 C   0  0  0  0  0  3  0  0  0  0  0  0
    5.1150   -2.0850    8.2440 C   0  0  0  0  0  0  0  0  0  0  0  0
    4.3310   -3.1590    7.8730 N   0  0  0  0  0  0  0  0  0  0  0  0
    4.0580   -3.6120    6.5130 C   0  0  0  0  0  3  0  0  0  0  0  0
    3.0300   -2.7300    5.7840 C   0  0  0  0  0  2  0  0  0  0  0  0
    2.7260   -3.2700    4.3880 C   0  0  0  0  0  2  0  0  0  0  0  0
    3.9970   -3.4640    3.5680 C   0  0  0  0  0  2  0  0  0  0  0  0
    5.0060   -4.3530    4.2880 C   0  0  0  0  0  2  0  0  0  0  0  0
    5.3350   -3.8210    5.6820 C   0  0  0  0  0  2  0  0  0  0  0  0
    7.3290    0.8990   10.4350 C   0  0  0  0  0  0  0  0  0  0  0  0
    7.7390    1.9070    9.7800 O   0  0  0  0  0  0  0  0  0  0  0  0
    7.5180    0.6900   11.6750 O   0  0  0  0  0  1  0  0  0  0  0  0
    0.6830   -8.3760    9.3580 O   0  0  0  0  0  0  0  0  0  0  0  0
    0.3610   -8.9940    8.1060 C   0  0  0  0  0  2  0  0  0  0  0  0
   -2.9890   -7.3730    7.2690 C   0  0  0  0  0  0  0  0  0  0  0  0
   -2.7240   -6.7850    6.0310 C   0  0  0  0  0  3  0  0  0  0  0  0
   -1.4660   -6.9240    5.4410 C   0  0  0  0  0  3  0  0  0  0  0  0
   -0.4370   -7.6420    6.0770 C   0  0  0  0  0  0  0  0  0  0  0  0
   -0.6940   -8.2140    7.3440 C   0  0  0  0  0  0  0  0  0  0  0  0
   -1.9770   -8.0830    7.9210 C   0  0  0  0  0  3  0  0  0  0  0  0
    0.8590   -7.7680    5.3950 C   0  0  0  0  0  0  0  0  0  0  0  0
    1.8450   -6.7780    5.5400 C   0  0  0  0  0  3  0  0  0  0  0  0
    3.0740   -6.8930    4.8830 C   0  0  0  0  0  3  0  0  0  0  0  0
    3.3240   -7.9980    4.0730 C   0  0  0  0  0  0  0  0  0  0  0  0
    4.8370   -8.1400    3.2640 Cl  0  0  0  0  0  0  0  0  0  0  0  0
    2.3580   -8.9880    3.9120 C   0  0  0  0  0  3  0  0  0  0  0  0
    1.1300   -8.8690    4.5690 C   0  0  0  0  0  3  0  0  0  0  0  0
   -4.9510   -8.3410    8.6420 C   0  0  0  0  0  1  0  0  0  0  0  0
   -4.3480   -7.2030    7.8600 C   0  0  0  0  0  0  0  0  0  0  0  0
   -4.9400   -6.1340    7.7200 O   0  0  0  0  0  0  0  0  0  0  0  0
  1 25  1  0  0  0  0
  1  6  1  0  0  0  0
  2  1  2  0  0  0  0
  3  2  1  0  0  0  0
  3  4  2  0  0  0  0
  4  5  1  0  0  0  0
  5  6  2  0  0  0  0
  7  4  1  0  0  0  0
  7  8  2  0  0  0  0
  9  8  1  0  0  0  0
  9 10  1  0  0  0  0
 11 10  2  0  0  0  0
 11 22  1  0  0  0  0
 12 11  1  0  0  0  0
 13 14  1  0  0  0  0
 13 12  2  0  0  0  0
 14  9  2  0  0  0  0
 15 14  1  0  0  0  0
 15  7  1  0  0  0  0
 16 15  1  0  0  0  0
 17 16  1  0  0  0  0
 18 17  1  0  0  0  0
 19 20  1  0  0  0  0
 19 18  1  0  0  0  0
 20 21  1  0  0  0  0
 21 16  1  0  0  0  0
 22 24  1  0  0  0  0
 23 22  2  0  0  0  0
 26 25  1  0  0  0  0
 27 41  1  0  0  0  0
 27 32  1  0  0  0  0
 28 27  2  0  0  0  0
 29 28  1  0  0  0  0
 29 30  2  0  0  0  0
 30 31  1  0  0  0  0
 31 32  2  0  0  0  0
 31 26  1  0  0  0  0
 33 34  1  0  0  0  0
 33 30  1  0  0  0  0
 35 34  2  0  0  0  0
 36 35  1  0  0  0  0
 37 36  1  0  0  0  0
 38 36  2  0  0  0  0
 38 39  1  0  0  0  0
 39 33  2  0  0  0  0
 41 40  1  0  0  0  0
 42 41  2  0  0  0  0
M  END
>  <minimizedAffinity>
-7.84993362

$$$$
