REMARK  Name = 
REMARK  9 active torsions:
REMARK  status: ('A' for Active; 'I' for Inactive)
REMARK    1  A    between atoms: C_1  and  C_2
REMARK    2  A    between atoms: C_2  and  C_3
REMARK    3  A    between atoms: C_2  and  C_4
REMARK    4  A    between atoms: C_2  and  C_5
REMARK    5  A    between atoms: C_8  and  N_9
REMARK    6  A    between atoms: C_10  and  C_12
REMARK    7  A    between atoms: C_15  and  O_16
REMARK    8  A    between atoms: O_16  and  C_17
REMARK    9  A    between atoms: C_27  and  C_28
REMARK                            x       y       z     vdW  Elec       q    Type
REMARK                         _______ _______ _______ _____ _____    ______ ____
ROOT
ATOM      1  N   UNK     1       3.453  -3.190  -5.208  0.00  0.00    -0.243 N 
ATOM      2  C   UNK     1       2.681  -4.063  -5.975  0.00  0.00    +0.253 C 
ATOM      3  O   UNK     1       3.099  -5.069  -6.549  0.00  0.00    -0.270 OA
ATOM      4  C   UNK     1       4.744  -2.858  -5.659  0.00  0.00    +0.168 A 
ATOM      5  N   UNK     1       5.608  -2.200  -4.920  0.00  0.00    -0.223 NA
ATOM      6  C   UNK     1       6.774  -1.924  -5.644  0.00  0.00    +0.095 A 
ATOM      7  C   UNK     1       6.743  -2.384  -6.948  0.00  0.00    +0.078 A 
ATOM      8  S   UNK     1       5.244  -3.138  -7.275  0.00  0.00    -0.060 S 
ENDROOT
BRANCH   1  12
ATOM      9  C   UNK     1       1.639  -1.638  -1.420  0.00  0.00    -0.005 C 
ATOM     10  C   UNK     1       1.903  -3.146  -1.641  0.00  0.00    +0.006 C 
ATOM     11  C   UNK     1       2.018  -3.574  -3.103  0.00  0.00    +0.023 C 
ATOM     12  C   UNK     1       3.094  -2.750  -3.827  0.00  0.00    +0.084 C 
ATOM     13  C   UNK     1       2.769  -1.253  -3.732  0.00  0.00    +0.023 C 
ATOM     14  C   UNK     1       2.614  -0.797  -2.278  0.00  0.00    +0.006 C 
BRANCH   9  16
ATOM     15  C   UNK     1       0.018   0.190  -0.694  0.00  0.00    +0.011 C 
ATOM     16  C   UNK     1       0.134  -1.156  -1.455  0.00  0.00    -0.035 C 
ATOM     17  C   UNK     1      -0.793  -2.157  -0.732  0.00  0.00    +0.011 C 
ATOM     18  C   UNK     1      -0.428  -0.928  -2.865  0.00  0.00    +0.011 C 
ENDBRANCH   9  16
ENDBRANCH   1  12
BRANCH   2  19
ATOM     19  C   UNK     1       1.232  -3.782  -6.135  0.00  0.00    +0.038 A 
ATOM     20  C   UNK     1       0.335  -4.861  -6.129  0.00  0.00    +0.016 A 
ATOM     21  C   UNK     1      -1.030  -4.637  -6.307  0.00  0.00    +0.047 A 
ATOM     22  C   UNK     1      -1.495  -3.334  -6.481  0.00  0.00    +0.128 A 
ATOM     23  C   UNK     1      -0.605  -2.260  -6.542  0.00  0.00    +0.047 A 
ATOM     24  C   UNK     1       0.765  -2.486  -6.379  0.00  0.00    +0.016 A 
BRANCH  22  25
ATOM     25  O   UNK     1      -2.843  -3.145  -6.679  0.00  0.00    -0.456 OA
BRANCH  25  26
ATOM     26  C   UNK     1      -3.513  -2.476  -5.679  0.00  0.00    +0.128 A 
ATOM     27  C   UNK     1      -3.369  -2.790  -4.325  0.00  0.00    +0.046 A 
ATOM     28  C   UNK     1      -4.118  -2.101  -3.369  0.00  0.00    +0.004 A 
ATOM     29  C   UNK     1      -5.014  -1.108  -3.766  0.00  0.00    +0.000 A 
ATOM     30  C   UNK     1      -5.171  -0.810  -5.120  0.00  0.00    +0.004 A 
ATOM     31  C   UNK     1      -4.427  -1.500  -6.077  0.00  0.00    +0.046 A 
ENDBRANCH  25  26
ENDBRANCH  22  25
ENDBRANCH   2  19
BRANCH   6  32
ATOM     32  C   UNK     1       7.963  -1.186  -5.094  0.00  0.00    +0.090 C 
ATOM     33  O   UNK     1       8.942  -1.013  -5.890  0.00  0.00    -0.543 OA
ATOM     34  O   UNK     1       7.901  -0.785  -3.889  0.00  0.00    -0.543 OA
ENDBRANCH   6  32
TORSDOF 6
