
 OpenBabel09132204463D

 34 37  0  0  1  0  0  0  0  0999 V2000
    8.4040   -3.9630    1.0480 N   0  0  0  0  0  0  0  0  0  0  0  0
    8.3630   -3.2090    2.2210 C   0  0  0  0  0  0  0  0  0  0  0  0
    8.0170   -3.6260    3.3270 O   0  0  0  0  0  0  0  0  0  0  0  0
    7.3640   -4.8770    0.7980 C   0  0  0  0  0  0  0  0  0  0  0  0
    7.4110   -5.7580   -0.1760 N   0  0  0  0  0  0  0  0  0  0  0  0
    6.2110   -6.4740   -0.2570 C   0  0  0  0  0  0  0  0  0  0  0  0
    5.2670   -6.0880    0.6770 C   0  0  0  0  0  3  0  0  0  0  0  0
    5.8710   -4.8110    1.6380 S   0  0  0  0  0  0  0  0  0  0  0  0
   11.8140   -3.3360   -1.7850 C   0  0  1  0  0  3  0  0  0  0  0  0
   12.0440   -3.6630   -0.2910 C   0  0  0  0  0  2  0  0  0  0  0  0
   10.8680   -3.3380    0.6290 C   0  0  0  0  0  2  0  0  0  0  0  0
    9.5870   -4.0310    0.1400 C   0  0  2  0  0  3  0  0  0  0  0  0
    9.2720   -3.6070   -1.3010 C   0  0  0  0  0  2  0  0  0  0  0  0
   10.4440   -3.8890   -2.2460 C   0  0  0  0  0  2  0  0  0  0  0  0
   12.9480   -1.1430   -1.1540 C   0  0  0  0  0  1  0  0  0  0  0  0
   12.1310   -1.8620   -2.2590 C   0  0  0  0  0  0  0  0  0  0  0  0
   10.8350   -1.0450   -2.4560 C   0  0  0  0  0  1  0  0  0  0  0  0
   12.9470   -1.7720   -3.5550 C   0  0  0  0  0  1  0  0  0  0  0  0
    8.7590   -1.7790    2.1650 C   0  0  0  0  0  0  0  0  0  0  0  0
    8.5010   -1.0570    0.9900 C   0  0  0  0  0  3  0  0  0  0  0  0
    8.8880    0.2790    0.8900 C   0  0  0  0  0  3  0  0  0  0  0  0
    9.5220    0.8930    1.9700 C   0  0  0  0  0  0  0  0  0  0  0  0
    9.8310    0.1680    3.1220 C   0  0  0  0  0  3  0  0  0  0  0  0
    9.4580   -1.1760    3.2160 C   0  0  0  0  0  3  0  0  0  0  0  0
    9.9140    2.2040    1.8350 O   0  0  0  0  0  0  0  0  0  0  0  0
   10.8250    2.4630    0.8350 C   0  0  0  0  0  0  0  0  0  0  0  0
   10.7720    1.8510   -0.4200 C   0  0  0  0  0  3  0  0  0  0  0  0
   11.7590    2.1260   -1.3690 C   0  0  0  0  0  3  0  0  0  0  0  0
   12.8010    3.0010   -1.0600 C   0  0  0  0  0  3  0  0  0  0  0  0
   12.8630    3.5950    0.2010 C   0  0  0  0  0  3  0  0  0  0  0  0
   11.8800    3.3200    1.1510 C   0  0  0  0  0  3  0  0  0  0  0  0
    5.9330   -7.5580   -1.2610 C   0  0  0  0  0  0  0  0  0  0  0  0
    6.7200   -7.6220   -2.2610 O   0  0  0  0  0  0  0  0  0  0  0  0
    4.9480   -8.3300   -1.0370 O   0  0  0  0  0  1  0  0  0  0  0  0
  1  2  1  0  0  0  0
  2  3  2  0  0  0  0
  4  1  1  0  0  0  0
  4  8  1  0  0  0  0
  5  4  2  0  0  0  0
  6  5  1  0  0  0  0
  6  7  2  0  0  0  0
  7  8  1  0  0  0  0
  9 16  1  1  0  0  0
  9 10  1  0  0  0  0
 10 11  1  0  0  0  0
 12 11  1  0  0  0  0
 12  1  1  1  0  0  0
 13 12  1  0  0  0  0
 14  9  1  0  0  0  0
 14 13  1  0  0  0  0
 16 15  1  0  0  0  0
 17 16  1  0  0  0  0
 18 16  1  0  0  0  0
 19  2  1  0  0  0  0
 19 24  1  0  0  0  0
 20 19  2  0  0  0  0
 21 20  1  0  0  0  0
 21 22  2  0  0  0  0
 22 23  1  0  0  0  0
 23 24  2  0  0  0  0
 25 22  1  0  0  0  0
 26 31  1  0  0  0  0
 26 25  1  0  0  0  0
 27 26  2  0  0  0  0
 28 29  2  0  0  0  0
 28 27  1  0  0  0  0
 29 30  1  0  0  0  0
 30 31  2  0  0  0  0
 32 34  1  0  0  0  0
 32  6  1  0  0  0  0
 33 32  2  0  0  0  0
M  END
>  <minimizedAffinity>
1.06598639

$$$$
