
 OpenBabel09132204463D

 34 37  0  0  1  0  0  0  0  0999 V2000
    8.3350   -3.7990    1.0520 N   0  0  0  0  0  0  0  0  0  0  0  0
    8.3480   -3.0010    2.1960 C   0  0  0  0  0  0  0  0  0  0  0  0
    8.0130   -3.3640    3.3240 O   0  0  0  0  0  0  0  0  0  0  0  0
    7.2570   -4.6830    0.8590 C   0  0  0  0  0  0  0  0  0  0  0  0
    7.2490   -5.6000   -0.0810 N   0  0  0  0  0  0  0  0  0  0  0  0
    6.0220   -6.2740   -0.1080 C   0  0  0  0  0  0  0  0  0  0  0  0
    5.1140   -5.8190    0.8310 C   0  0  0  0  0  3  0  0  0  0  0  0
    5.7870   -4.5300    1.7290 S   0  0  0  0  0  0  0  0  0  0  0  0
   11.7240   -3.3970   -1.8470 C   0  0  1  0  0  3  0  0  0  0  0  0
   11.9600   -3.7410   -0.3570 C   0  0  0  0  0  2  0  0  0  0  0  0
   10.8270   -3.3390    0.5860 C   0  0  0  0  0  2  0  0  0  0  0  0
    9.4930   -3.9450    0.1210 C   0  0  2  0  0  3  0  0  0  0  0  0
    9.1790   -3.4980   -1.3130 C   0  0  0  0  0  2  0  0  0  0  0  0
   10.3110   -3.8560   -2.2800 C   0  0  0  0  0  2  0  0  0  0  0  0
   10.8420   -1.1330   -2.6170 C   0  0  0  0  0  1  0  0  0  0  0  0
   12.1290   -1.9460   -2.3250 C   0  0  0  0  0  0  0  0  0  0  0  0
   12.9330   -1.9940   -3.6430 C   0  0  0  0  0  1  0  0  0  0  0  0
   12.9480   -1.1450   -1.3030 C   0  0  0  0  0  1  0  0  0  0  0  0
    8.7950   -1.5900    2.0770 C   0  0  0  0  0  0  0  0  0  0  0  0
    9.1010   -0.8820    3.2490 C   0  0  0  0  0  3  0  0  0  0  0  0
    9.4950    0.4540    3.1770 C   0  0  0  0  0  3  0  0  0  0  0  0
    9.5900    1.0750    1.9320 C   0  0  0  0  0  0  0  0  0  0  0  0
    9.2360    0.3960    0.7650 C   0  0  0  0  0  3  0  0  0  0  0  0
    8.8270   -0.9390    0.8390 C   0  0  0  0  0  3  0  0  0  0  0  0
    9.9570    2.4010    1.8930 O   0  0  0  0  0  0  0  0  0  0  0  0
   10.8860    2.7430    0.9350 C   0  0  0  0  0  0  0  0  0  0  0  0
   10.8660    2.2250   -0.3620 C   0  0  0  0  0  3  0  0  0  0  0  0
   11.8700    2.5790   -1.2660 C   0  0  0  0  0  3  0  0  0  0  0  0
   12.8940    3.4410   -0.8720 C   0  0  0  0  0  3  0  0  0  0  0  0
   12.9220    3.9400    0.4310 C   0  0  0  0  0  3  0  0  0  0  0  0
   11.9230    3.5840    1.3370 C   0  0  0  0  0  3  0  0  0  0  0  0
    5.6820   -7.3840   -1.0640 C   0  0  0  0  0  0  0  0  0  0  0  0
    6.3460   -7.4220   -2.1500 O   0  0  0  0  0  0  0  0  0  0  0  0
    4.7700   -8.2000   -0.7180 O   0  0  0  0  0  1  0  0  0  0  0  0
  1  2  1  0  0  0  0
  2  3  2  0  0  0  0
  4  1  1  0  0  0  0
  4  8  1  0  0  0  0
  5  4  2  0  0  0  0
  6  5  1  0  0  0  0
  6  7  2  0  0  0  0
  7  8  1  0  0  0  0
  9 16  1  1  0  0  0
  9 10  1  0  0  0  0
 10 11  1  0  0  0  0
 12 11  1  0  0  0  0
 12  1  1  1  0  0  0
 13 12  1  0  0  0  0
 14  9  1  0  0  0  0
 14 13  1  0  0  0  0
 15 16  1  0  0  0  0
 16 18  1  0  0  0  0
 17 16  1  0  0  0  0
 19  2  1  0  0  0  0
 19 20  1  0  0  0  0
 21 20  2  0  0  0  0
 22 21  1  0  0  0  0
 23 24  1  0  0  0  0
 23 22  2  0  0  0  0
 24 19  2  0  0  0  0
 25 22  1  0  0  0  0
 26 31  1  0  0  0  0
 26 25  1  0  0  0  0
 27 26  2  0  0  0  0
 28 29  2  0  0  0  0
 28 27  1  0  0  0  0
 29 30  1  0  0  0  0
 30 31  2  0  0  0  0
 32 34  1  0  0  0  0
 32  6  1  0  0  0  0
 33 32  2  0  0  0  0
M  END
>  <minimizedAffinity>
0.761389911

$$$$
