REMARK  Name = 
REMARK  9 active torsions:
REMARK  status: ('A' for Active; 'I' for Inactive)
REMARK    1  A    between atoms: C_1  and  C_2
REMARK    2  A    between atoms: C_5  and  C_6
REMARK    3  A    between atoms: C_6  and  C_7
REMARK    4  A    between atoms: C_7  and  C_8
REMARK    5  A    between atoms: N_10  and  CA_11
REMARK    6  A    between atoms: CA_11  and  C_27
REMARK    7  A    between atoms: C_12  and  C_13
REMARK    8  A    between atoms: C_16  and  O_17
REMARK    9  A    between atoms: O_17  and  C_18
REMARK                            x       y       z     vdW  Elec       q    Type
REMARK                         _______ _______ _______ _____ _____    ______ ____
ROOT
ATOM      1  CA  UNL     1      -0.853  -0.877  -3.038  0.00  0.00    +0.057 C 
ATOM      2  C   UNL     1       0.366  -1.382  -3.321  0.00  0.00    +0.033 C 
ENDROOT
BRANCH   2   3
ATOM      3  C   UNL     1       0.825  -2.757  -3.083  0.00  0.00    -0.023 A 
ATOM      4  C   UNL     1       1.446  -3.465  -4.115  0.00  0.00    +0.011 A 
ATOM      5  C   UNL     1       1.907  -4.767  -3.900  0.00  0.00    +0.047 A 
ATOM      6  C   UNL     1       1.745  -5.374  -2.652  0.00  0.00    +0.129 A 
ATOM      7  C   UNL     1       1.155  -4.661  -1.606  0.00  0.00    +0.047 A 
ATOM      8  C   UNL     1       0.704  -3.355  -1.822  0.00  0.00    +0.011 A 
BRANCH   6   9
ATOM      9  O   UNL     1       2.238  -6.658  -2.542  0.00  0.00    -0.455 OA
BRANCH   9  10
ATOM     10  C   UNL     1       1.603  -7.497  -1.656  0.00  0.00    +0.142 A 
ATOM     11  C   UNL     1       2.234  -7.737  -0.431  0.00  0.00    +0.047 A 
ATOM     12  C   UNL     1       1.650  -8.600   0.496  0.00  0.00    +0.004 A 
ATOM     13  C   UNL     1       0.448  -9.240   0.192  0.00  0.00    +0.001 A 
ATOM     14  C   UNL     1      -0.165  -9.027  -1.045  0.00  0.00    +0.019 A 
ATOM     15  C   UNL     1       0.416  -8.163  -1.977  0.00  0.00    +0.060 A 
ATOM     16 BR   UNL     1      -0.428  -7.970  -3.664  0.00  0.00    -0.046 Br
ENDBRANCH   9  10
ENDBRANCH   6   9
ENDBRANCH   2   3
BRANCH   1  19
ATOM     17  C   UNL     1      -3.073  -1.398  -1.984  0.00  0.00    +0.218 C 
ATOM     18  O   UNL     1      -3.890  -2.317  -1.823  0.00  0.00    -0.275 OA
ATOM     19  N   UNL     1      -1.879  -1.690  -2.577  0.00  0.00    -0.284 N 
ATOM     20  H   UNL     1      -1.758  -2.683  -2.721  0.00  0.00    +0.155 HD
BRANCH  17  21
ATOM     21  C   UNL     1      -3.352  -0.035  -1.388  0.00  0.00    +0.101 C 
BRANCH  21  22
ATOM     22  C   UNL     1      -3.387  -0.124   0.141  0.00  0.00    +0.044 C 
BRANCH  22  27
ATOM     23  C   UNL     1       1.688  -1.769   2.500  0.00  0.00    +0.044 C 
ATOM     24  C   UNL     1       0.374  -1.317   1.940  0.00  0.00    -0.050 A 
ATOM     25  C   UNL     1      -0.795  -2.046   2.183  0.00  0.00    +0.003 A 
ATOM     26  C   UNL     1      -2.008  -1.653   1.610  0.00  0.00    +0.004 A 
ATOM     27  C   UNL     1      -2.074  -0.530   0.775  0.00  0.00    -0.047 A 
ATOM     28  C   UNL     1      -0.902   0.197   0.535  0.00  0.00    +0.004 A 
ATOM     29  C   UNL     1       0.312  -0.200   1.101  0.00  0.00    +0.003 A 
ENDBRANCH  22  27
ENDBRANCH  21  22
ENDBRANCH  17  21
ENDBRANCH   1  19
BRANCH   1  30
ATOM     30  C   UNL     1      -1.001   0.642  -3.383  0.00  0.00    +0.086 C 
ATOM     31  O   UNL     1      -1.994   0.924  -4.115  0.00  0.00    -0.543 OA
ATOM     32  OXT UNL     1      -0.128   1.405  -2.877  0.00  0.00    -0.543 OA
ENDBRANCH   1  30
TORSDOF 8
