
 OpenBabel09122222393D

 32 34  0  0  0  0  0  0  0  0999 V2000
    4.7690   -5.7580    3.6580 C   0  0  0  0  0  0  0  0  0  0  0  0
    4.8340   -6.5360    2.5570 C   0  0  0  0  0  2  0  0  0  0  0  0
    4.6860   -7.9960    2.5030 C   0  0  0  0  0  0  0  0  0  0  0  0
    3.6570   -8.5580    1.7430 C   0  0  0  0  0  3  0  0  0  0  0  0
    3.5140   -9.9460    1.6640 C   0  0  0  0  0  3  0  0  0  0  0  0
    4.3960  -10.7840    2.3500 C   0  0  0  0  0  0  0  0  0  0  0  0
    5.4480  -10.2320    3.0850 C   0  0  0  0  0  3  0  0  0  0  0  0
    5.5930   -8.8430    3.1530 C   0  0  0  0  0  3  0  0  0  0  0  0
    4.1720  -12.1380    2.2030 O   0  0  0  0  0  0  0  0  0  0  0  0
    3.5400  -12.5450    1.0510 C   0  0  0  0  0  0  0  0  0  0  0  0
    4.3230  -12.6830   -0.0990 C   0  0  0  0  0  3  0  0  0  0  0  0
    3.7310  -13.0670   -1.3020 C   0  0  0  0  0  3  0  0  0  0  0  0
    2.3560  -13.2920   -1.3620 C   0  0  0  0  0  3  0  0  0  0  0  0
    1.5680  -13.1210   -0.2220 C   0  0  0  0  0  3  0  0  0  0  0  0
    2.1560  -12.7370    0.9860 C   0  0  0  0  0  0  0  0  0  0  0  0
    1.0240  -12.4540    2.4810 Br  0  0  0  0  0  0  0  0  0  0  0  0
    3.2130   -6.6240    5.4300 C   0  0  0  0  0  0  0  0  0  0  0  0
    3.1980   -7.2430    6.5040 O   0  0  0  0  0  0  0  0  0  0  0  0
    4.4220   -6.2870    4.8930 N   0  0  0  0  0  4  0  0  0  0  0  0
    5.1880   -6.4970    5.5180 H   0  0  0  0  0  0  0  0  0  0  0  0
    1.9130   -6.1320    4.8320 C   0  0  0  0  0  2  0  0  0  0  0  0
    0.7480   -6.4290    5.7820 C   0  0  0  0  0  2  0  0  0  0  0  0
   -3.0640  -10.4050    3.8630 C   0  0  0  0  0  1  0  0  0  0  0  0
   -2.0830   -9.3620    4.3040 C   0  0  0  0  0  0  0  0  0  0  0  0
   -0.7060   -9.5980    4.2250 C   0  0  0  0  0  3  0  0  0  0  0  0
    0.2040   -8.6460    4.6920 C   0  0  0  0  0  3  0  0  0  0  0  0
   -0.2440   -7.4450    5.2580 C   0  0  0  0  0  0  0  0  0  0  0  0
   -1.6220   -7.2130    5.3350 C   0  0  0  0  0  3  0  0  0  0  0  0
   -2.5330   -8.1680    4.8750 C   0  0  0  0  0  3  0  0  0  0  0  0
    5.0100   -4.2390    3.3710 C   0  0  0  0  0  0  0  0  0  0  0  0
    3.9580   -3.5670    3.1600 O   0  0  0  0  0  0  0  0  0  0  0  0
    6.2170   -3.8610    3.4020 O   0  0  0  0  0  1  0  0  0  0  0  0
  1 19  2  0  0  0  0
  2  1  1  0  0  0  0
  3  2  1  0  0  0  0
  3  8  1  0  0  0  0
  4  3  2  0  0  0  0
  5  4  1  0  0  0  0
  5  6  2  0  0  0  0
  6  7  1  0  0  0  0
  7  8  2  0  0  0  0
  9  6  1  0  0  0  0
 10  9  1  0  0  0  0
 11 10  2  0  0  0  0
 12 11  1  0  0  0  0
 13 12  2  0  0  0  0
 13 14  1  0  0  0  0
 14 15  2  0  0  0  0
 15 10  1  0  0  0  0
 15 16  1  0  0  0  0
 17 18  2  0  0  0  0
 19 17  1  0  0  0  0
 19 20  1  0  0  0  0
 21 17  1  0  0  0  0
 21 22  1  0  0  0  0
 23 24  1  0  0  0  0
 24 29  1  0  0  0  0
 25 24  2  0  0  0  0
 25 26  1  0  0  0  0
 26 27  2  0  0  0  0
 27 28  1  0  0  0  0
 27 22  1  0  0  0  0
 29 28  2  0  0  0  0
 30 32  1  0  0  0  0
 30  1  1  0  0  0  0
 31 30  2  0  0  0  0
M  END
>  <minimizedAffinity>
-5.3412075

$$$$
