
 OpenBabel09122222393D

 32 34  0  0  0  0  0  0  0  0999 V2000
    4.7450   -7.9790    0.6290 C   0  0  0  0  0  0  0  0  0  0  0  0
    3.4680   -8.3690    0.4360 C   0  0  0  0  0  2  0  0  0  0  0  0
    2.7340   -9.3880    1.1980 C   0  0  0  0  0  0  0  0  0  0  0  0
    2.1700   -9.0540    2.4320 C   0  0  0  0  0  3  0  0  0  0  0  0
    1.4520  -10.0060    3.1610 C   0  0  0  0  0  3  0  0  0  0  0  0
    1.2970  -11.3030    2.6640 C   0  0  0  0  0  0  0  0  0  0  0  0
    1.8290  -11.6350    1.4170 C   0  0  0  0  0  3  0  0  0  0  0  0
    2.5390  -10.6770    0.6860 C   0  0  0  0  0  3  0  0  0  0  0  0
    0.5680  -12.1640    3.4580 O   0  0  0  0  0  0  0  0  0  0  0  0
   -0.3500  -11.6000    4.3130 C   0  0  0  0  0  0  0  0  0  0  0  0
   -1.5020  -11.0440    3.7460 C   0  0  0  0  0  3  0  0  0  0  0  0
   -2.4550  -10.4350    4.5620 C   0  0  0  0  0  3  0  0  0  0  0  0
   -2.2490  -10.3610    5.9400 C   0  0  0  0  0  3  0  0  0  0  0  0
   -1.0830  -10.8860    6.5020 C   0  0  0  0  0  3  0  0  0  0  0  0
   -0.1250  -11.4980    5.6890 C   0  0  0  0  0  0  0  0  0  0  0  0
    1.4670  -12.1280    6.5030 Br  0  0  0  0  0  0  0  0  0  0  0  0
    5.3290   -8.3050    3.0510 C   0  0  0  0  0  0  0  0  0  0  0  0
    6.0450   -8.9810    3.8040 O   0  0  0  0  0  0  0  0  0  0  0  0
    5.4860   -8.4520    1.7030 N   0  0  0  0  0  4  0  0  0  0  0  0
    6.2760   -9.0400    1.4740 H   0  0  0  0  0  0  0  0  0  0  0  0
    4.4260   -7.2390    3.6340 C   0  0  0  0  0  2  0  0  0  0  0  0
    5.0560   -5.8550    3.4520 C   0  0  0  0  0  2  0  0  0  0  0  0
    2.4340   -1.5040    6.3200 C   0  0  0  0  0  1  0  0  0  0  0  0
    3.0950   -2.6560    5.6260 C   0  0  0  0  0  0  0  0  0  0  0  0
    4.4420   -2.9520    5.8560 C   0  0  0  0  0  3  0  0  0  0  0  0
    5.0690   -3.9910    5.1620 C   0  0  0  0  0  3  0  0  0  0  0  0
    4.3640   -4.7460    4.2160 C   0  0  0  0  0  0  0  0  0  0  0  0
    3.0160   -4.4470    3.9880 C   0  0  0  0  0  3  0  0  0  0  0  0
    2.3910   -3.4040    4.6770 C   0  0  0  0  0  3  0  0  0  0  0  0
    5.2340   -6.8950   -0.3870 C   0  0  0  0  0  0  0  0  0  0  0  0
    4.9210   -5.7070   -0.0840 O   0  0  0  0  0  1  0  0  0  0  0  0
    5.8950   -7.3290   -1.3740 O   0  0  0  0  0  0  0  0  0  0  0  0
  1 19  2  0  0  0  0
  2  1  1  0  0  0  0
  2  3  1  0  0  0  0
  3  4  1  0  0  0  0
  4  5  2  0  0  0  0
  6  5  1  0  0  0  0
  6  9  1  0  0  0  0
  7  6  2  0  0  0  0
  8  3  2  0  0  0  0
  8  7  1  0  0  0  0
  9 10  1  0  0  0  0
 10 15  1  0  0  0  0
 11 10  2  0  0  0  0
 11 12  1  0  0  0  0
 12 13  2  0  0  0  0
 13 14  1  0  0  0  0
 15 14  2  0  0  0  0
 15 16  1  0  0  0  0
 17 21  1  0  0  0  0
 17 18  2  0  0  0  0
 19 17  1  0  0  0  0
 20 19  1  0  0  0  0
 22 21  1  0  0  0  0
 22 27  1  0  0  0  0
 24 25  1  0  0  0  0
 24 23  1  0  0  0  0
 26 25  2  0  0  0  0
 27 26  1  0  0  0  0
 28 27  2  0  0  0  0
 28 29  1  0  0  0  0
 29 24  2  0  0  0  0
 30 31  1  0  0  0  0
 30  1  1  0  0  0  0
 32 30  2  0  0  0  0
M  END
>  <minimizedAffinity>
-5.07254744

$$$$
