
 OpenBabel09122222393D

 32 34  0  0  0  0  0  0  0  0999 V2000
    2.5730  -11.6380    0.2830 C   0  0  0  0  0  0  0  0  0  0  0  0
    2.2230  -12.3220    1.3920 C   0  0  0  0  0  2  0  0  0  0  0  0
    1.6770  -11.7620    2.6360 C   0  0  0  0  0  0  0  0  0  0  0  0
    0.3000  -11.5580    2.7550 C   0  0  0  0  0  3  0  0  0  0  0  0
   -0.2380  -11.0450    3.9380 C   0  0  0  0  0  3  0  0  0  0  0  0
    0.5990  -10.7250    5.0110 C   0  0  0  0  0  0  0  0  0  0  0  0
    1.9720  -10.9560    4.9110 C   0  0  0  0  0  3  0  0  0  0  0  0
    2.5060  -11.4790    3.7290 C   0  0  0  0  0  3  0  0  0  0  0  0
   -0.0310  -10.2290    6.1340 O   0  0  0  0  0  0  0  0  0  0  0  0
   -0.8810   -9.1630    5.9540 C   0  0  0  0  0  0  0  0  0  0  0  0
   -0.3040   -7.9100    5.7220 C   0  0  0  0  0  3  0  0  0  0  0  0
   -1.1160   -6.7880    5.5590 C   0  0  0  0  0  3  0  0  0  0  0  0
   -2.5030   -6.9120    5.6480 C   0  0  0  0  0  3  0  0  0  0  0  0
   -3.0780   -8.1570    5.9140 C   0  0  0  0  0  3  0  0  0  0  0  0
   -2.2690   -9.2840    6.0780 C   0  0  0  0  0  0  0  0  0  0  0  0
   -3.1060  -10.9310    6.5050 Br  0  0  0  0  0  0  0  0  0  0  0  0
    3.0700   -9.1860    0.5140 C   0  0  0  0  0  0  0  0  0  0  0  0
    2.6820   -8.0680    0.1440 O   0  0  0  0  0  0  0  0  0  0  0  0
    2.3250  -10.2770    0.1700 N   0  0  0  0  0  4  0  0  0  0  0  0
    1.4540  -10.0190   -0.2720 H   0  0  0  0  0  0  0  0  0  0  0  0
    4.2520   -9.2950    1.4540 C   0  0  0  0  0  2  0  0  0  0  0  0
    4.9290   -7.9300    1.6110 C   0  0  0  0  0  2  0  0  0  0  0  0
    2.5510   -4.5520    5.7290 C   0  0  0  0  0  1  0  0  0  0  0  0
    3.2100   -5.4180    4.6990 C   0  0  0  0  0  0  0  0  0  0  0  0
    3.8660   -4.8500    3.6020 C   0  0  0  0  0  3  0  0  0  0  0  0
    4.4280   -5.6630    2.6130 C   0  0  0  0  0  3  0  0  0  0  0  0
    4.3370   -7.0580    2.6970 C   0  0  0  0  0  0  0  0  0  0  0  0
    3.6800   -7.6230    3.7970 C   0  0  0  0  0  3  0  0  0  0  0  0
    3.1110   -6.8110    4.7810 C   0  0  0  0  0  3  0  0  0  0  0  0
    3.1590  -12.5380   -0.8540 C   0  0  0  0  0  0  0  0  0  0  0  0
    2.3280  -12.8690   -1.7490 O   0  0  0  0  0  0  0  0  0  0  0  0
    4.3910  -12.8110   -0.7550 O   0  0  0  0  0  1  0  0  0  0  0  0
  1  2  1  0  0  0  0
  2  3  1  0  0  0  0
  3  4  2  0  0  0  0
  3  8  1  0  0  0  0
  4  5  1  0  0  0  0
  5  6  2  0  0  0  0
  6  9  1  0  0  0  0
  7  6  1  0  0  0  0
  8  7  2  0  0  0  0
 10 15  1  0  0  0  0
 10  9  1  0  0  0  0
 11 10  2  0  0  0  0
 12 13  2  0  0  0  0
 12 11  1  0  0  0  0
 13 14  1  0  0  0  0
 14 15  2  0  0  0  0
 15 16  1  0  0  0  0
 17 21  1  0  0  0  0
 18 17  2  0  0  0  0
 19  1  2  0  0  0  0
 19 17  1  0  0  0  0
 20 19  1  0  0  0  0
 21 22  1  0  0  0  0
 22 27  1  0  0  0  0
 24 29  1  0  0  0  0
 24 23  1  0  0  0  0
 25 24  2  0  0  0  0
 26 27  2  0  0  0  0
 26 25  1  0  0  0  0
 27 28  1  0  0  0  0
 28 29  2  0  0  0  0
 30 32  1  0  0  0  0
 30  1  1  0  0  0  0
 31 30  2  0  0  0  0
M  END
>  <minimizedAffinity>
-5.80676556

$$$$
