
 OpenBabel09122222393D

 32 34  0  0  0  0  0  0  0  0999 V2000
   -2.3100   -7.9010    5.5600 C   0  0  0  0  0  0  0  0  0  0  0  0
   -1.3610   -7.0700    6.0380 C   0  0  0  0  0  2  0  0  0  0  0  0
    0.0620   -7.0580    5.6730 C   0  0  0  0  0  0  0  0  0  0  0  0
    0.6110   -5.9230    5.0720 C   0  0  0  0  0  3  0  0  0  0  0  0
    1.9670   -5.8870    4.7370 C   0  0  0  0  0  3  0  0  0  0  0  0
    2.7860   -6.9890    4.9950 C   0  0  0  0  0  0  0  0  0  0  0  0
    2.2520   -8.1160    5.6250 C   0  0  0  0  0  3  0  0  0  0  0  0
    0.8970   -8.1440    5.9680 C   0  0  0  0  0  3  0  0  0  0  0  0
    4.1090   -6.8510    4.6300 O   0  0  0  0  0  0  0  0  0  0  0  0
    4.3940   -6.8980    3.2850 C   0  0  0  0  0  0  0  0  0  0  0  0
    4.2200   -8.1220    2.6310 C   0  0  0  0  0  3  0  0  0  0  0  0
    4.5190   -8.2350    1.2740 C   0  0  0  0  0  3  0  0  0  0  0  0
    5.0120   -7.1330    0.5740 C   0  0  0  0  0  3  0  0  0  0  0  0
    5.2190   -5.9200    1.2350 C   0  0  0  0  0  3  0  0  0  0  0  0
    4.9210   -5.8010    2.5950 C   0  0  0  0  0  0  0  0  0  0  0  0
    5.2890   -4.1490    3.4500 Br  0  0  0  0  0  0  0  0  0  0  0  0
   -1.7710  -10.1340    4.5440 C   0  0  0  0  0  0  0  0  0  0  0  0
   -1.7260  -10.7320    3.4580 O   0  0  0  0  0  0  0  0  0  0  0  0
   -2.0340   -8.7950    4.5350 N   0  0  0  0  0  4  0  0  0  0  0  0
   -2.0530   -8.4170    3.5980 H   0  0  0  0  0  0  0  0  0  0  0  0
   -1.3870  -10.8610    5.8150 C   0  0  0  0  0  2  0  0  0  0  0  0
   -0.5620  -12.1080    5.4810 C   0  0  0  0  0  2  0  0  0  0  0  0
    5.1560  -11.0430    5.0280 C   0  0  0  0  0  1  0  0  0  0  0  0
    3.6980  -11.3710    5.1380 C   0  0  0  0  0  0  0  0  0  0  0  0
    2.8900  -11.4260    3.9970 C   0  0  0  0  0  3  0  0  0  0  0  0
    1.5190  -11.6750    4.1100 C   0  0  0  0  0  3  0  0  0  0  0  0
    0.9270  -11.8610    5.3660 C   0  0  0  0  0  0  0  0  0  0  0  0
    1.7390  -11.8050    6.5050 C   0  0  0  0  0  3  0  0  0  0  0  0
    3.1080  -11.5490    6.3930 C   0  0  0  0  0  3  0  0  0  0  0  0
   -3.7240   -7.6710    6.1900 C   0  0  0  0  0  0  0  0  0  0  0  0
   -4.3420   -8.7290    6.5050 O   0  0  0  0  0  1  0  0  0  0  0  0
   -4.0710   -6.4620    6.3270 O   0  0  0  0  0  0  0  0  0  0  0  0
  1  2  1  0  0  0  0
  1 30  1  0  0  0  0
  3  8  1  0  0  0  0
  3  2  1  0  0  0  0
  4  3  2  0  0  0  0
  5  6  2  0  0  0  0
  5  4  1  0  0  0  0
  6  7  1  0  0  0  0
  7  8  2  0  0  0  0
  9  6  1  0  0  0  0
 10  9  1  0  0  0  0
 11 10  1  0  0  0  0
 12 11  2  0  0  0  0
 13 14  2  0  0  0  0
 13 12  1  0  0  0  0
 14 15  1  0  0  0  0
 15 10  2  0  0  0  0
 15 16  1  0  0  0  0
 17 21  1  0  0  0  0
 18 17  2  0  0  0  0
 19 17  1  0  0  0  0
 19  1  2  0  0  0  0
 20 19  1  0  0  0  0
 22 21  1  0  0  0  0
 23 24  1  0  0  0  0
 24 29  1  0  0  0  0
 25 26  1  0  0  0  0
 25 24  2  0  0  0  0
 26 27  2  0  0  0  0
 27 22  1  0  0  0  0
 27 28  1  0  0  0  0
 29 28  2  0  0  0  0
 30 32  2  0  0  0  0
 30 31  1  0  0  0  0
M  END
>  <minimizedAffinity>
-5.68624353

$$$$
