
 OpenBabel09122222393D

 32 34  0  0  0  0  0  0  0  0999 V2000
    3.7280  -11.5850    0.7060 C   0  0  0  0  0  0  0  0  0  0  0  0
    3.2600  -10.3200    0.7400 C   0  0  0  0  0  2  0  0  0  0  0  0
    3.6040   -9.2810    1.7210 C   0  0  0  0  0  0  0  0  0  0  0  0
    4.6250   -8.3720    1.4330 C   0  0  0  0  0  3  0  0  0  0  0  0
    4.9520   -7.3650    2.3460 C   0  0  0  0  0  3  0  0  0  0  0  0
    4.2630   -7.2630    3.5580 C   0  0  0  0  0  0  0  0  0  0  0  0
    3.2180   -8.1470    3.8380 C   0  0  0  0  0  3  0  0  0  0  0  0
    2.8880   -9.1470    2.9170 C   0  0  0  0  0  3  0  0  0  0  0  0
    4.6580   -6.2330    4.3860 O   0  0  0  0  0  0  0  0  0  0  0  0
    3.8940   -5.0900    4.3700 C   0  0  0  0  0  0  0  0  0  0  0  0
    4.2950   -4.0590    3.5150 C   0  0  0  0  0  3  0  0  0  0  0  0
    3.5740   -2.8660    3.4760 C   0  0  0  0  0  3  0  0  0  0  0  0
    2.4650   -2.6940    4.3050 C   0  0  0  0  0  3  0  0  0  0  0  0
    2.0840   -3.7100    5.1840 C   0  0  0  0  0  3  0  0  0  0  0  0
    2.8030   -4.9080    5.2260 C   0  0  0  0  0  0  0  0  0  0  0  0
    2.2780   -6.2210    6.4890 Br  0  0  0  0  0  0  0  0  0  0  0  0
    4.6940  -12.8600    2.6430 C   0  0  0  0  0  0  0  0  0  0  0  0
    5.7730  -13.2000    3.1510 O   0  0  0  0  0  0  0  0  0  0  0  0
    4.7220  -12.0080    1.5770 N   0  0  0  0  0  4  0  0  0  0  0  0
    5.6520  -11.6590    1.3930 H   0  0  0  0  0  0  0  0  0  0  0  0
    3.3940  -13.2660    3.3020 C   0  0  0  0  0  2  0  0  0  0  0  0
    3.3690  -12.7900    4.7580 C   0  0  0  0  0  2  0  0  0  0  0  0
   -0.9370   -9.0480    5.9730 C   0  0  0  0  0  1  0  0  0  0  0  0
    0.1470  -10.0450    5.6980 C   0  0  0  0  0  0  0  0  0  0  0  0
    1.3210  -10.0520    6.4580 C   0  0  0  0  0  3  0  0  0  0  0  0
    2.3540  -10.9450    6.1590 C   0  0  0  0  0  3  0  0  0  0  0  0
    2.2370  -11.8410    5.0890 C   0  0  0  0  0  0  0  0  0  0  0  0
    1.0600  -11.8310    4.3310 C   0  0  0  0  0  3  0  0  0  0  0  0
    0.0310  -10.9330    4.6240 C   0  0  0  0  0  3  0  0  0  0  0  0
    3.1260  -12.4480   -0.4530 C   0  0  0  0  0  0  0  0  0  0  0  0
    3.9380  -13.2610   -0.9830 O   0  0  0  0  0  0  0  0  0  0  0  0
    1.9040  -12.2450   -0.7070 O   0  0  0  0  0  1  0  0  0  0  0  0
  1  2  1  0  0  0  0
  1 19  2  0  0  0  0
  2  3  1  0  0  0  0
  3  8  1  0  0  0  0
  4  3  2  0  0  0  0
  4  5  1  0  0  0  0
  5  6  2  0  0  0  0
  6  7  1  0  0  0  0
  6  9  1  0  0  0  0
  8  7  2  0  0  0  0
 10  9  1  0  0  0  0
 10 15  1  0  0  0  0
 11 10  2  0  0  0  0
 12 11  1  0  0  0  0
 12 13  2  0  0  0  0
 13 14  1  0  0  0  0
 14 15  2  0  0  0  0
 15 16  1  0  0  0  0
 17 18  2  0  0  0  0
 17 21  1  0  0  0  0
 19 17  1  0  0  0  0
 20 19  1  0  0  0  0
 21 22  1  0  0  0  0
 22 27  1  0  0  0  0
 24 23  1  0  0  0  0
 24 25  1  0  0  0  0
 26 25  2  0  0  0  0
 27 26  1  0  0  0  0
 28 29  1  0  0  0  0
 28 27  2  0  0  0  0
 29 24  2  0  0  0  0
 30  1  1  0  0  0  0
 31 30  2  0  0  0  0
 32 30  1  0  0  0  0
M  END
>  <minimizedAffinity>
-6.07575464

$$$$
