
 OpenBabel09122222393D

 32 34  0  0  0  0  0  0  0  0999 V2000
    2.7520   -3.7760    5.3300 C   0  0  0  0  0  0  0  0  0  0  0  0
    1.8160   -4.7390    5.4590 C   0  0  0  0  0  2  0  0  0  0  0  0
    2.0520   -6.1750    5.6530 C   0  0  0  0  0  0  0  0  0  0  0  0
    1.1640   -7.1010    5.1000 C   0  0  0  0  0  3  0  0  0  0  0  0
    1.3850   -8.4730    5.2570 C   0  0  0  0  0  3  0  0  0  0  0  0
    2.4930   -8.9290    5.9760 C   0  0  0  0  0  0  0  0  0  0  0  0
    3.4030   -8.0100    6.5040 C   0  0  0  0  0  3  0  0  0  0  0  0
    3.1840   -6.6390    6.3360 C   0  0  0  0  0  3  0  0  0  0  0  0
    2.6230  -10.2990    6.0700 O   0  0  0  0  0  0  0  0  0  0  0  0
    3.3180  -10.9310    5.0650 C   0  0  0  0  0  0  0  0  0  0  0  0
    4.7010  -10.7290    5.0130 C   0  0  0  0  0  3  0  0  0  0  0  0
    5.4540  -11.3230    4.0000 C   0  0  0  0  0  3  0  0  0  0  0  0
    4.8240  -12.1000    3.0270 C   0  0  0  0  0  3  0  0  0  0  0  0
    3.4390  -12.2750    3.0600 C   0  0  0  0  0  3  0  0  0  0  0  0
    2.6800  -11.6820    4.0730 C   0  0  0  0  0  0  0  0  0  0  0  0
    0.7970  -11.8980    4.0210 Br  0  0  0  0  0  0  0  0  0  0  0  0
    5.1550   -3.9980    4.6290 C   0  0  0  0  0  0  0  0  0  0  0  0
    6.2990   -4.1430    5.0840 O   0  0  0  0  0  0  0  0  0  0  0  0
    4.1010   -4.0580    5.4950 N   0  0  0  0  0  4  0  0  0  0  0  0
    4.3870   -4.3330    6.4240 H   0  0  0  0  0  0  0  0  0  0  0  0
    4.9490   -3.9170    3.1320 C   0  0  0  0  0  2  0  0  0  0  0  0
    5.7960   -4.9790    2.4230 C   0  0  0  0  0  2  0  0  0  0  0  0
    2.7340   -9.6750    0.8110 C   0  0  0  0  0  1  0  0  0  0  0  0
    3.5670   -8.5000    1.2240 C   0  0  0  0  0  0  0  0  0  0  0  0
    3.8090   -8.2360    2.5770 C   0  0  0  0  0  3  0  0  0  0  0  0
    4.5370   -7.1060    2.9600 C   0  0  0  0  0  3  0  0  0  0  0  0
    5.0280   -6.2120    1.9990 C   0  0  0  0  0  0  0  0  0  0  0  0
    4.7830   -6.4800    0.6470 C   0  0  0  0  0  3  0  0  0  0  0  0
    4.0490   -7.6050    0.2640 C   0  0  0  0  0  3  0  0  0  0  0  0
    2.1590   -2.3470    5.0960 C   0  0  0  0  0  0  0  0  0  0  0  0
    1.8960   -2.0750    3.8880 O   0  0  0  0  0  0  0  0  0  0  0  0
    1.9960   -1.6460    6.1360 O   0  0  0  0  0  1  0  0  0  0  0  0
  1  2  1  0  0  0  0
  1 19  2  0  0  0  0
  2  3  1  0  0  0  0
  3  8  1  0  0  0  0
  4  5  1  0  0  0  0
  4  3  2  0  0  0  0
  5  6  2  0  0  0  0
  6  9  1  0  0  0  0
  6  7  1  0  0  0  0
  8  7  2  0  0  0  0
 10  9  1  0  0  0  0
 11 10  1  0  0  0  0
 12 11  2  0  0  0  0
 13 14  2  0  0  0  0
 13 12  1  0  0  0  0
 14 15  1  0  0  0  0
 15 10  2  0  0  0  0
 16 15  1  0  0  0  0
 17 18  2  0  0  0  0
 17 19  1  0  0  0  0
 19 20  1  0  0  0  0
 21 17  1  0  0  0  0
 22 21  1  0  0  0  0
 23 24  1  0  0  0  0
 24 25  1  0  0  0  0
 25 26  2  0  0  0  0
 27 22  1  0  0  0  0
 27 26  1  0  0  0  0
 28 27  2  0  0  0  0
 29 28  1  0  0  0  0
 29 24  2  0  0  0  0
 30  1  1  0  0  0  0
 30 32  1  0  0  0  0
 31 30  2  0  0  0  0
M  END
>  <minimizedAffinity>
-6.00427914

$$$$
