
 OpenBabel08272217153D

 17 18  0  0  1  0  0  0  0  0999 V2000
   34.4380   -8.8800   10.1530 C   0  0  0  0  0  0  0  0  0  0  0  0
   33.4140   -8.3290    9.3740 C   0  0  0  0  0  3  0  0  0  0  0  0
   33.5600   -8.2280    7.9940 C   0  0  0  0  0  3  0  0  0  0  0  0
   34.7280   -8.6790    7.3770 C   0  0  0  0  0  3  0  0  0  0  0  0
   35.7820   -9.2430    8.1200 C   0  0  0  0  0  0  0  0  0  0  0  0
   35.6090   -9.3370    9.5130 C   0  0  0  0  0  3  0  0  0  0  0  0
   32.8600  -10.9680   11.8490 O   0  0  0  0  0  0  0  0  0  0  0  0
   32.9520   -9.7550   12.0360 C   0  0  0  0  0  0  0  0  0  0  0  0
   31.8890   -9.0320   12.5470 N   0  0  0  0  0  0  0  0  0  0  0  0
   32.0950   -7.8380   12.9860 C   0  0  0  0  0  3  0  0  0  0  0  0
   33.3710   -7.1050   12.9960 C   0  0  0  0  0  3  0  0  0  0  0  0
   34.3870   -7.6750   12.3430 C   0  0  0  0  0  3  0  0  0  0  0  0
   34.2560   -9.0110   11.6580 C   0  0  2  0  0  3  0  0  0  0  0  0
   37.0570   -9.7250    7.4070 C   0  0  0  0  0  0  0  0  0  0  0  0
   37.6430  -10.9390    8.1610 C   0  0  0  0  0  1  0  0  0  0  0  0
   36.7190  -10.1430    5.9590 C   0  0  0  0  0  1  0  0  0  0  0  0
   38.1710   -8.6580    7.3240 C   0  0  0  0  0  1  0  0  0  0  0  0
  2  1  2  0  0  0  0
  3  2  1  0  0  0  0
  4  3  2  0  0  0  0
  4  5  1  0  0  0  0
  5  6  2  0  0  0  0
  6  1  1  0  0  0  0
  7  8  2  0  0  0  0
  8  9  1  0  0  0  0
  9 10  2  0  0  0  0
 10 11  1  0  0  0  0
 12 11  2  0  0  0  0
 13  1  1  6  0  0  0
 13  8  1  0  0  0  0
 13 12  1  0  0  0  0
 14  5  1  0  0  0  0
 14 15  1  0  0  0  0
 16 14  1  0  0  0  0
 17 14  1  0  0  0  0
M  END
>  <minimizedAffinity>
-7.1110158

$$$$
