REMARK  Name = 
REMARK  5 active torsions:
REMARK  status: ('A' for Active; 'I' for Inactive)
REMARK    1  A    between atoms: C_7  and  C_8
REMARK    2  A    between atoms: C_12  and  C_14
REMARK    3  A    between atoms: C_14  and  C_15
REMARK    4  A    between atoms: C_14  and  C_16
REMARK    5  A    between atoms: C_14  and  C_17
REMARK                            x       y       z     vdW  Elec       q    Type
REMARK                         _______ _______ _______ _____ _____    ______ ____
ROOT
ATOM      1  C   UNL     1       2.665   2.063   1.293  0.00  0.00    -0.031 A 
ATOM      2  C   UNL     1       2.737   3.455   1.423  0.00  0.00    +0.005 A 
ATOM      3  C   UNL     1       2.233   4.080   2.559  0.00  0.00    +0.001 A 
ATOM      4  C   UNL     1       1.654   3.322   3.578  0.00  0.00    +0.004 A 
ATOM      5  C   UNL     1       1.563   1.920   3.491  0.00  0.00    -0.042 A 
ATOM      6  C   UNL     1       2.083   1.312   2.334  0.00  0.00    +0.008 A 
ENDROOT
BRANCH   1  13
ATOM      7  O   UNL     1       1.278   0.882  -1.239  0.00  0.00    -0.273 OA
ATOM      8  C   UNL     1       2.241   0.427  -0.622  0.00  0.00    +0.247 C 
ATOM      9  N   UNL     1       2.422  -0.938  -0.493  0.00  0.00    -0.188 NA
ATOM     10  C   UNL     1       3.561  -1.385  -0.090  0.00  0.00    +0.100 C 
ATOM     11  C   UNL     1       4.742  -0.591   0.286  0.00  0.00    +0.014 C 
ATOM     12  C   UNL     1       4.567   0.730   0.367  0.00  0.00    -0.008 C 
ATOM     13  C   UNL     1       3.246   1.388   0.059  0.00  0.00    +0.130 C 
ENDBRANCH   1  13
BRANCH   5  14
ATOM     14  C   UNL     1       0.913   1.117   4.632  0.00  0.00    -0.013 C 
ATOM     15  C   UNL     1       1.706   1.342   5.938  0.00  0.00    +0.015 C 
ATOM     16  C   UNL     1      -0.544   1.587   4.836  0.00  0.00    +0.015 C 
ATOM     17  C   UNL     1       0.869  -0.407   4.381  0.00  0.00    +0.015 C 
ENDBRANCH   5  14
TORSDOF 2
