
 OpenBabel08272217153D

 17 18  0  0  1  0  0  0  0  0999 V2000
   35.2310   -8.8770    9.7390 C   0  0  0  0  0  0  0  0  0  0  0  0
   34.5200   -8.0730    8.8400 C   0  0  0  0  0  3  0  0  0  0  0  0
   33.4520   -7.3010    9.2850 C   0  0  0  0  0  3  0  0  0  0  0  0
   33.0840   -7.3200   10.6310 C   0  0  0  0  0  3  0  0  0  0  0  0
   33.7730   -8.1100   11.5700 C   0  0  0  0  0  0  0  0  0  0  0  0
   34.8510   -8.8800   11.0960 C   0  0  0  0  0  3  0  0  0  0  0  0
   38.2090   -8.9300   10.6660 O   0  0  0  0  0  0  0  0  0  0  0  0
   37.7730   -9.0000    9.5180 C   0  0  0  0  0  0  0  0  0  0  0  0
   38.4590   -8.4310    8.4610 N   0  0  0  0  0  0  0  0  0  0  0  0
   38.1330   -8.7480    7.2560 C   0  0  0  0  0  3  0  0  0  0  0  0
   37.0610   -9.6680    6.8410 C   0  0  0  0  0  3  0  0  0  0  0  0
   36.2420  -10.0960    7.8040 C   0  0  0  0  0  3  0  0  0  0  0  0
   36.4160   -9.6960    9.2470 C   0  0  2  0  0  3  0  0  0  0  0  0
   33.3360   -8.1110   13.0460 C   0  0  0  0  0  0  0  0  0  0  0  0
   33.1140   -6.6570   13.5190 C   0  0  0  0  0  1  0  0  0  0  0  0
   32.0180   -8.9010   13.1990 C   0  0  0  0  0  1  0  0  0  0  0  0
   34.3650   -8.7510   14.0050 C   0  0  0  0  0  1  0  0  0  0  0  0
  1  6  1  0  0  0  0
  2  3  1  0  0  0  0
  2  1  2  0  0  0  0
  3  4  2  0  0  0  0
  4  5  1  0  0  0  0
  5 14  1  0  0  0  0
  6  5  2  0  0  0  0
  8  7  2  0  0  0  0
  9  8  1  0  0  0  0
 10  9  2  0  0  0  0
 11 10  1  0  0  0  0
 11 12  2  0  0  0  0
 12 13  1  0  0  0  0
 13  8  1  0  0  0  0
 13  1  1  6  0  0  0
 14 16  1  0  0  0  0
 14 15  1  0  0  0  0
 14 17  1  0  0  0  0
M  END
>  <minimizedAffinity>
-7.45044661

$$$$

 OpenBabel08272217153D

 17 18  0  0  1  0  0  0  0  0999 V2000
   35.4100   -8.9250    9.9940 C   0  0  0  0  0  0  0  0  0  0  0  0
   35.3380   -8.7150   11.3760 C   0  0  0  0  0  3  0  0  0  0  0  0
   34.2620   -8.0250   11.9250 C   0  0  0  0  0  3  0  0  0  0  0  0
   33.2460   -7.5380   11.1000 C   0  0  0  0  0  3  0  0  0  0  0  0
   33.2770   -7.7290    9.7050 C   0  0  0  0  0  0  0  0  0  0  0  0
   34.3730   -8.4330    9.1760 C   0  0  0  0  0  3  0  0  0  0  0  0
   38.4630   -8.8280   10.6250 O   0  0  0  0  0  0  0  0  0  0  0  0
   37.9210   -8.9480    9.5270 C   0  0  0  0  0  0  0  0  0  0  0  0
   38.4760   -8.3810    8.3940 N   0  0  0  0  0  0  0  0  0  0  0  0
   38.0490   -8.7470    7.2350 C   0  0  0  0  0  3  0  0  0  0  0  0
   36.9830   -9.7210    6.9500 C   0  0  0  0  0  3  0  0  0  0  0  0
   36.2810  -10.1560    7.9990 C   0  0  0  0  0  3  0  0  0  0  0  0
   36.5770   -9.7070    9.4080 C   0  0  2  0  0  3  0  0  0  0  0  0
   32.1410   -7.1740    8.8260 C   0  0  0  0  0  0  0  0  0  0  0  0
   32.1560   -7.8840    7.4550 C   0  0  0  0  0  1  0  0  0  0  0  0
   30.7810   -7.4240    9.5130 C   0  0  0  0  0  1  0  0  0  0  0  0
   32.2420   -5.6560    8.5560 C   0  0  0  0  0  1  0  0  0  0  0  0
  1  2  1  0  0  0  0
  2  3  2  0  0  0  0
  4  3  1  0  0  0  0
  5  4  2  0  0  0  0
  6  5  1  0  0  0  0
  6  1  2  0  0  0  0
  8  7  2  0  0  0  0
  9  8  1  0  0  0  0
 10  9  2  0  0  0  0
 11 10  1  0  0  0  0
 11 12  2  0  0  0  0
 12 13  1  0  0  0  0
 13  8  1  0  0  0  0
 13  1  1  6  0  0  0
 14 16  1  0  0  0  0
 14  5  1  0  0  0  0
 15 14  1  0  0  0  0
 17 14  1  0  0  0  0
M  END
>  <minimizedAffinity>
-7.3381505

$$$$

 OpenBabel08272217153D

 17 18  0  0  1  0  0  0  0  0999 V2000
   -8.1450    9.6940    9.1360 C   0  0  0  0  0  0  0  0  0  0  0  0
   -8.8430    8.9010   10.0550 C   0  0  0  0  0  3  0  0  0  0  0  0
   -9.8910    8.0930    9.6300 C   0  0  0  0  0  3  0  0  0  0  0  0
  -10.2530    8.0640    8.2820 C   0  0  0  0  0  3  0  0  0  0  0  0
   -9.5770    8.8420    7.3230 C   0  0  0  0  0  0  0  0  0  0  0  0
   -8.5180    9.6490    7.7780 C   0  0  0  0  0  3  0  0  0  0  0  0
   -5.1870    9.8510    8.1590 O   0  0  0  0  0  0  0  0  0  0  0  0
   -5.6060    9.9040    9.3150 C   0  0  0  0  0  0  0  0  0  0  0  0
   -4.8820    9.3580   10.3590 N   0  0  0  0  0  0  0  0  0  0  0  0
   -5.1980    9.6630   11.5700 C   0  0  0  0  0  3  0  0  0  0  0  0
   -6.2940   10.5450   12.0040 C   0  0  0  0  0  3  0  0  0  0  0  0
   -7.1440   10.9460   11.0550 C   0  0  0  0  0  3  0  0  0  0  0  0
   -6.9810   10.5520    9.6090 C   0  0  2  0  0  3  0  0  0  0  0  0
  -10.0060    8.7890    5.8450 C   0  0  0  0  0  0  0  0  0  0  0  0
  -10.2070    7.3190    5.4190 C   0  0  0  0  0  1  0  0  0  0  0  0
  -11.3340    9.5570    5.6610 C   0  0  0  0  0  1  0  0  0  0  0  0
   -8.9810    9.4120    4.8710 C   0  0  0  0  0  1  0  0  0  0  0  0
  1  2  1  0  0  0  0
  3  2  2  0  0  0  0
  4  3  1  0  0  0  0
  5  6  1  0  0  0  0
  5  4  2  0  0  0  0
  6  1  2  0  0  0  0
  7  8  2  0  0  0  0
  8 13  1  0  0  0  0
  8  9  1  0  0  0  0
  9 10  2  0  0  0  0
 10 11  1  0  0  0  0
 12 11  2  0  0  0  0
 13  1  1  1  0  0  0
 13 12  1  0  0  0  0
 14  5  1  0  0  0  0
 15 14  1  0  0  0  0
 16 14  1  0  0  0  0
 17 14  1  0  0  0  0
M  END
>  <minimizedAffinity>
-7.29299212

$$$$

 OpenBabel08272217153D

 17 18  0  0  1  0  0  0  0  0999 V2000
  -10.1520    9.1540   10.9650 C   0  0  0  0  0  0  0  0  0  0  0  0
  -10.4290    9.8830    9.8030 C   0  0  0  0  0  3  0  0  0  0  0  0
   -9.4970   10.7860    9.3030 C   0  0  0  0  0  3  0  0  0  0  0  0
   -8.2760   10.9680    9.9550 C   0  0  0  0  0  3  0  0  0  0  0  0
   -7.9540   10.2540   11.1250 C   0  0  0  0  0  0  0  0  0  0  0  0
   -8.9120    9.3450   11.6080 C   0  0  0  0  0  3  0  0  0  0  0  0
  -10.6960    6.1890   10.1620 O   0  0  0  0  0  0  0  0  0  0  0  0
  -11.5190    7.0610   10.4420 C   0  0  0  0  0  0  0  0  0  0  0  0
  -12.7470    7.1090    9.8070 N   0  0  0  0  0  0  0  0  0  0  0  0
  -13.6810    7.8460   10.3020 C   0  0  0  0  0  3  0  0  0  0  0  0
  -13.5980    8.6960   11.5010 C   0  0  0  0  0  3  0  0  0  0  0  0
  -12.3860    8.8400   12.0420 C   0  0  0  0  0  3  0  0  0  0  0  0
  -11.1680    8.1480   11.4870 C   0  0  2  0  0  3  0  0  0  0  0  0
   -6.6010   10.4840   11.8210 C   0  0  0  0  0  0  0  0  0  0  0  0
   -5.7440    9.2030   11.7220 C   0  0  0  0  0  1  0  0  0  0  0  0
   -5.8530   11.6480   11.1340 C   0  0  0  0  0  1  0  0  0  0  0  0
   -6.7190   10.8400   13.3200 C   0  0  0  0  0  1  0  0  0  0  0  0
  1  6  1  0  0  0  0
  2  1  2  0  0  0  0
  3  2  1  0  0  0  0
  3  4  2  0  0  0  0
  4  5  1  0  0  0  0
  5  6  2  0  0  0  0
  5 14  1  0  0  0  0
  7  8  2  0  0  0  0
  8 13  1  0  0  0  0
  9 10  2  0  0  0  0
  9  8  1  0  0  0  0
 10 11  1  0  0  0  0
 11 12  2  0  0  0  0
 13  1  1  6  0  0  0
 13 12  1  0  0  0  0
 14 17  1  0  0  0  0
 15 14  1  0  0  0  0
 16 14  1  0  0  0  0
M  END
>  <minimizedAffinity>
-7.19037533

$$$$

 OpenBabel08272217153D

 17 18  0  0  1  0  0  0  0  0999 V2000
   33.6610   -8.0920    8.4230 C   0  0  0  0  0  0  0  0  0  0  0  0
   33.7000   -8.2400    9.8140 C   0  0  0  0  0  3  0  0  0  0  0  0
   34.8040   -8.8250   10.4270 C   0  0  0  0  0  3  0  0  0  0  0  0
   35.8810   -9.2650    9.6570 C   0  0  0  0  0  3  0  0  0  0  0  0
   35.8860   -9.1340    8.2550 C   0  0  0  0  0  0  0  0  0  0  0  0
   34.7600   -8.5370    7.6610 C   0  0  0  0  0  3  0  0  0  0  0  0
   32.4550   -5.2380    8.7820 O   0  0  0  0  0  0  0  0  0  0  0  0
   31.8520   -6.3020    8.6420 C   0  0  0  0  0  0  0  0  0  0  0  0
   30.6500   -6.5290    9.2880 N   0  0  0  0  0  0  0  0  0  0  0  0
   29.9150   -7.5190    8.9170 C   0  0  0  0  0  3  0  0  0  0  0  0
   30.2130   -8.4960    7.8570 C   0  0  0  0  0  3  0  0  0  0  0  0
   31.4390   -8.4450    7.3310 C   0  0  0  0  0  3  0  0  0  0  0  0
   32.4600   -7.4250    7.7670 C   0  0  2  0  0  3  0  0  0  0  0  0
   37.0900   -9.6360    7.4380 C   0  0  0  0  0  0  0  0  0  0  0  0
   37.6890  -10.8870    8.1170 C   0  0  0  0  0  1  0  0  0  0  0  0
   36.6330  -10.0040    6.0090 C   0  0  0  0  0  1  0  0  0  0  0  0
   38.2300   -8.6020    7.2990 C   0  0  0  0  0  1  0  0  0  0  0  0
  1  2  1  0  0  0  0
  2  3  2  0  0  0  0
  4  3  1  0  0  0  0
  5  4  2  0  0  0  0
  6  5  1  0  0  0  0
  6  1  2  0  0  0  0
  8  7  2  0  0  0  0
  8  9  1  0  0  0  0
 10  9  2  0  0  0  0
 11 10  1  0  0  0  0
 12 13  1  0  0  0  0
 12 11  2  0  0  0  0
 13  1  1  1  0  0  0
 13  8  1  0  0  0  0
 14 15  1  0  0  0  0
 14  5  1  0  0  0  0
 16 14  1  0  0  0  0
 17 14  1  0  0  0  0
M  END
>  <minimizedAffinity>
-7.18456078

$$$$

 OpenBabel08272217153D

 17 18  0  0  1  0  0  0  0  0999 V2000
   -8.0570    9.7500    9.3080 C   0  0  0  0  0  0  0  0  0  0  0  0
   -8.1070    9.5760    7.9200 C   0  0  0  0  0  3  0  0  0  0  0  0
   -9.1680    8.8910    7.3370 C   0  0  0  0  0  3  0  0  0  0  0  0
  -10.1910    8.3730    8.1330 C   0  0  0  0  0  3  0  0  0  0  0  0
  -10.1830    8.5270    9.5330 C   0  0  0  0  0  0  0  0  0  0  0  0
   -9.1020    9.2270   10.0970 C   0  0  0  0  0  3  0  0  0  0  0  0
   -4.9720    9.5070    8.9170 O   0  0  0  0  0  0  0  0  0  0  0  0
   -5.5880    9.7160    9.9620 C   0  0  0  0  0  0  0  0  0  0  0  0
   -5.1410    9.2030   11.1650 N   0  0  0  0  0  0  0  0  0  0  0  0
   -5.6370    9.6560   12.2640 C   0  0  0  0  0  3  0  0  0  0  0  0
   -6.6820   10.6830   12.4080 C   0  0  0  0  0  3  0  0  0  0  0  0
   -7.2870   11.0740   11.2840 C   0  0  0  0  0  3  0  0  0  0  0  0
   -6.9070   10.5270    9.9320 C   0  0  2  0  0  3  0  0  0  0  0  0
  -11.3260    7.9380   10.3790 C   0  0  0  0  0  0  0  0  0  0  0  0
  -11.0660    6.4350   10.6230 C   0  0  0  0  0  1  0  0  0  0  0  0
  -11.3960    8.6670   11.7390 C   0  0  0  0  0  1  0  0  0  0  0  0
  -12.7200    8.0600    9.7240 C   0  0  0  0  0  1  0  0  0  0  0  0
  1  6  1  0  0  0  0
  2  1  2  0  0  0  0
  3  2  1  0  0  0  0
  3  4  2  0  0  0  0
  4  5  1  0  0  0  0
  5  6  2  0  0  0  0
  5 14  1  0  0  0  0
  7  8  2  0  0  0  0
  8  9  1  0  0  0  0
  9 10  2  0  0  0  0
 10 11  1  0  0  0  0
 12 11  2  0  0  0  0
 13  1  1  1  0  0  0
 13  8  1  0  0  0  0
 13 12  1  0  0  0  0
 14 15  1  0  0  0  0
 14 16  1  0  0  0  0
 17 14  1  0  0  0  0
M  END
>  <minimizedAffinity>
-7.1179595

$$$$

 OpenBabel08272217153D

 17 18  0  0  1  0  0  0  0  0999 V2000
   34.4380   -8.8800   10.1530 C   0  0  0  0  0  0  0  0  0  0  0  0
   33.4140   -8.3290    9.3740 C   0  0  0  0  0  3  0  0  0  0  0  0
   33.5600   -8.2280    7.9940 C   0  0  0  0  0  3  0  0  0  0  0  0
   34.7280   -8.6790    7.3770 C   0  0  0  0  0  3  0  0  0  0  0  0
   35.7820   -9.2430    8.1200 C   0  0  0  0  0  0  0  0  0  0  0  0
   35.6090   -9.3370    9.5130 C   0  0  0  0  0  3  0  0  0  0  0  0
   32.8600  -10.9680   11.8490 O   0  0  0  0  0  0  0  0  0  0  0  0
   32.9520   -9.7550   12.0360 C   0  0  0  0  0  0  0  0  0  0  0  0
   31.8890   -9.0320   12.5470 N   0  0  0  0  0  0  0  0  0  0  0  0
   32.0950   -7.8380   12.9860 C   0  0  0  0  0  3  0  0  0  0  0  0
   33.3710   -7.1050   12.9960 C   0  0  0  0  0  3  0  0  0  0  0  0
   34.3870   -7.6750   12.3430 C   0  0  0  0  0  3  0  0  0  0  0  0
   34.2560   -9.0110   11.6580 C   0  0  2  0  0  3  0  0  0  0  0  0
   37.0570   -9.7250    7.4070 C   0  0  0  0  0  0  0  0  0  0  0  0
   37.6430  -10.9390    8.1610 C   0  0  0  0  0  1  0  0  0  0  0  0
   36.7190  -10.1430    5.9590 C   0  0  0  0  0  1  0  0  0  0  0  0
   38.1710   -8.6580    7.3240 C   0  0  0  0  0  1  0  0  0  0  0  0
  2  1  2  0  0  0  0
  3  2  1  0  0  0  0
  4  3  2  0  0  0  0
  4  5  1  0  0  0  0
  5  6  2  0  0  0  0
  6  1  1  0  0  0  0
  7  8  2  0  0  0  0
  8  9  1  0  0  0  0
  9 10  2  0  0  0  0
 10 11  1  0  0  0  0
 12 11  2  0  0  0  0
 13  1  1  6  0  0  0
 13  8  1  0  0  0  0
 13 12  1  0  0  0  0
 14  5  1  0  0  0  0
 14 15  1  0  0  0  0
 16 14  1  0  0  0  0
 17 14  1  0  0  0  0
M  END
>  <minimizedAffinity>
-7.1110158

$$$$

 OpenBabel08272217153D

 17 18  0  0  1  0  0  0  0  0999 V2000
   33.7020   -8.6700    9.6200 C   0  0  0  0  0  0  0  0  0  0  0  0
   33.1620   -8.5270    8.3360 C   0  0  0  0  0  3  0  0  0  0  0  0
   33.9730   -8.6720    7.2150 C   0  0  0  0  0  3  0  0  0  0  0  0
   35.3300   -8.9640    7.3630 C   0  0  0  0  0  3  0  0  0  0  0  0
   35.9140   -9.1180    8.6340 C   0  0  0  0  0  0  0  0  0  0  0  0
   35.0730   -8.9700    9.7520 C   0  0  0  0  0  3  0  0  0  0  0  0
   32.3940   -6.1620   10.9360 O   0  0  0  0  0  0  0  0  0  0  0  0
   32.8910   -7.1390   11.4970 C   0  0  0  0  0  0  0  0  0  0  0  0
   33.5680   -7.0020   12.6950 N   0  0  0  0  0  0  0  0  0  0  0  0
   33.8340   -8.0550   13.3890 C   0  0  0  0  0  3  0  0  0  0  0  0
   33.5120   -9.4490   13.0450 C   0  0  0  0  0  3  0  0  0  0  0  0
   33.0340   -9.6600   11.8160 C   0  0  0  0  0  3  0  0  0  0  0  0
   32.8000   -8.5370   10.8380 C   0  0  2  0  0  3  0  0  0  0  0  0
   37.4160   -9.4340    8.7600 C   0  0  0  0  0  0  0  0  0  0  0  0
   37.6400  -10.9520    8.5840 C   0  0  0  0  0  1  0  0  0  0  0  0
   38.2010   -8.6750    7.6680 C   0  0  0  0  0  1  0  0  0  0  0  0
   38.0290   -9.0370   10.1210 C   0  0  0  0  0  1  0  0  0  0  0  0
  1  6  1  0  0  0  0
  2  1  2  0  0  0  0
  3  4  2  0  0  0  0
  3  2  1  0  0  0  0
  4  5  1  0  0  0  0
  5 14  1  0  0  0  0
  5  6  2  0  0  0  0
  7  8  2  0  0  0  0
  8  9  1  0  0  0  0
  9 10  2  0  0  0  0
 11 10  1  0  0  0  0
 12 11  2  0  0  0  0
 13  1  1  6  0  0  0
 13  8  1  0  0  0  0
 13 12  1  0  0  0  0
 14 17  1  0  0  0  0
 15 14  1  0  0  0  0
 16 14  1  0  0  0  0
M  END
>  <minimizedAffinity>
-6.81984472

$$$$

 OpenBabel08272217153D

 17 18  0  0  1  0  0  0  0  0999 V2000
   33.5710   -8.6990    9.3460 C   0  0  0  0  0  0  0  0  0  0  0  0
   34.1460   -8.6800   10.6210 C   0  0  0  0  0  3  0  0  0  0  0  0
   35.5150   -8.8780   10.7760 C   0  0  0  0  0  3  0  0  0  0  0  0
   36.3230   -9.0950    9.6590 C   0  0  0  0  0  3  0  0  0  0  0  0
   35.7870   -9.1190    8.3570 C   0  0  0  0  0  0  0  0  0  0  0  0
   34.4020   -8.9130    8.2280 C   0  0  0  0  0  3  0  0  0  0  0  0
   31.3310  -10.4510    8.0640 O   0  0  0  0  0  0  0  0  0  0  0  0
   31.4700   -9.2300    7.9940 C   0  0  0  0  0  0  0  0  0  0  0  0
   31.1250   -8.5400    6.8460 N   0  0  0  0  0  0  0  0  0  0  0  0
   31.0200   -7.2570    6.8920 C   0  0  0  0  0  3  0  0  0  0  0  0
   31.2490   -6.3910    8.0600 C   0  0  0  0  0  3  0  0  0  0  0  0
   31.7690   -6.9770    9.1400 C   0  0  0  0  0  3  0  0  0  0  0  0
   32.0770   -8.4520    9.1870 C   0  0  2  0  0  3  0  0  0  0  0  0
   36.7080   -9.3660    7.1490 C   0  0  0  0  0  0  0  0  0  0  0  0
   37.2870  -10.7960    7.2250 C   0  0  0  0  0  1  0  0  0  0  0  0
   35.9020   -9.2140    5.8400 C   0  0  0  0  0  1  0  0  0  0  0  0
   37.9050   -8.3920    7.0620 C   0  0  0  0  0  1  0  0  0  0  0  0
  1  2  1  0  0  0  0
  2  3  2  0  0  0  0
  4  3  1  0  0  0  0
  5  4  2  0  0  0  0
  6  5  1  0  0  0  0
  6  1  2  0  0  0  0
  8  7  2  0  0  0  0
  8 13  1  0  0  0  0
  9 10  2  0  0  0  0
  9  8  1  0  0  0  0
 10 11  1  0  0  0  0
 11 12  2  0  0  0  0
 12 13  1  0  0  0  0
 13  1  1  6  0  0  0
 14 15  1  0  0  0  0
 14  5  1  0  0  0  0
 16 14  1  0  0  0  0
 17 14  1  0  0  0  0
M  END
>  <minimizedAffinity>
-6.76866913

$$$$

 OpenBabel08272217153D

 17 18  0  0  1  0  0  0  0  0999 V2000
   34.2490   -8.6770   11.7500 C   0  0  0  0  0  0  0  0  0  0  0  0
   33.1670   -9.3500   11.1700 C   0  0  0  0  0  3  0  0  0  0  0  0
   33.3280  -10.0310    9.9680 C   0  0  0  0  0  3  0  0  0  0  0  0
   34.5700  -10.0490    9.3330 C   0  0  0  0  0  3  0  0  0  0  0  0
   35.6860   -9.3890    9.8800 C   0  0  0  0  0  0  0  0  0  0  0  0
   35.4980   -8.7110   11.0980 C   0  0  0  0  0  3  0  0  0  0  0  0
   34.2570   -9.7580   14.6760 O   0  0  0  0  0  0  0  0  0  0  0  0
   33.5270   -8.8940   14.1900 C   0  0  0  0  0  0  0  0  0  0  0  0
   32.2110   -8.7660   14.5940 N   0  0  0  0  0  0  0  0  0  0  0  0
   31.5590   -7.7000   14.2820 C   0  0  0  0  0  3  0  0  0  0  0  0
   32.0530   -6.5570   13.4970 C   0  0  0  0  0  3  0  0  0  0  0  0
   33.2460   -6.7070   12.9180 C   0  0  0  0  0  3  0  0  0  0  0  0
   34.0680   -7.9600   13.0800 C   0  0  2  0  0  3  0  0  0  0  0  0
   37.0400   -9.4260    9.1490 C   0  0  0  0  0  0  0  0  0  0  0  0
   36.9890   -8.4890    7.9220 C   0  0  0  0  0  1  0  0  0  0  0  0
   38.1600   -8.9530   10.1020 C   0  0  0  0  0  1  0  0  0  0  0  0
   37.4390  -10.8280    8.6370 C   0  0  0  0  0  1  0  0  0  0  0  0
  2  1  1  0  0  0  0
  3  2  2  0  0  0  0
  4  5  2  0  0  0  0
  4  3  1  0  0  0  0
  5  6  1  0  0  0  0
  6  1  2  0  0  0  0
  8  9  1  0  0  0  0
  8  7  2  0  0  0  0
 10  9  2  0  0  0  0
 11 10  1  0  0  0  0
 12 13  1  0  0  0  0
 12 11  2  0  0  0  0
 13  1  1  6  0  0  0
 13  8  1  0  0  0  0
 14  5  1  0  0  0  0
 14 16  1  0  0  0  0
 15 14  1  0  0  0  0
 17 14  1  0  0  0  0
M  END
>  <minimizedAffinity>
-6.72517014

$$$$
