
 OpenBabel08272217153D

 17 18  0  0  1  0  0  0  0  0999 V2000
   33.6610   -8.0920    8.4230 C   0  0  0  0  0  0  0  0  0  0  0  0
   33.7000   -8.2400    9.8140 C   0  0  0  0  0  3  0  0  0  0  0  0
   34.8040   -8.8250   10.4270 C   0  0  0  0  0  3  0  0  0  0  0  0
   35.8810   -9.2650    9.6570 C   0  0  0  0  0  3  0  0  0  0  0  0
   35.8860   -9.1340    8.2550 C   0  0  0  0  0  0  0  0  0  0  0  0
   34.7600   -8.5370    7.6610 C   0  0  0  0  0  3  0  0  0  0  0  0
   32.4550   -5.2380    8.7820 O   0  0  0  0  0  0  0  0  0  0  0  0
   31.8520   -6.3020    8.6420 C   0  0  0  0  0  0  0  0  0  0  0  0
   30.6500   -6.5290    9.2880 N   0  0  0  0  0  0  0  0  0  0  0  0
   29.9150   -7.5190    8.9170 C   0  0  0  0  0  3  0  0  0  0  0  0
   30.2130   -8.4960    7.8570 C   0  0  0  0  0  3  0  0  0  0  0  0
   31.4390   -8.4450    7.3310 C   0  0  0  0  0  3  0  0  0  0  0  0
   32.4600   -7.4250    7.7670 C   0  0  2  0  0  3  0  0  0  0  0  0
   37.0900   -9.6360    7.4380 C   0  0  0  0  0  0  0  0  0  0  0  0
   37.6890  -10.8870    8.1170 C   0  0  0  0  0  1  0  0  0  0  0  0
   36.6330  -10.0040    6.0090 C   0  0  0  0  0  1  0  0  0  0  0  0
   38.2300   -8.6020    7.2990 C   0  0  0  0  0  1  0  0  0  0  0  0
  1  2  1  0  0  0  0
  2  3  2  0  0  0  0
  4  3  1  0  0  0  0
  5  4  2  0  0  0  0
  6  5  1  0  0  0  0
  6  1  2  0  0  0  0
  8  7  2  0  0  0  0
  8  9  1  0  0  0  0
 10  9  2  0  0  0  0
 11 10  1  0  0  0  0
 12 13  1  0  0  0  0
 12 11  2  0  0  0  0
 13  1  1  1  0  0  0
 13  8  1  0  0  0  0
 14 15  1  0  0  0  0
 14  5  1  0  0  0  0
 16 14  1  0  0  0  0
 17 14  1  0  0  0  0
M  END
>  <minimizedAffinity>
-7.18456078

$$$$
