
 OpenBabel08272217153D

 17 18  0  0  1  0  0  0  0  0999 V2000
   34.2490   -8.6770   11.7500 C   0  0  0  0  0  0  0  0  0  0  0  0
   33.1670   -9.3500   11.1700 C   0  0  0  0  0  3  0  0  0  0  0  0
   33.3280  -10.0310    9.9680 C   0  0  0  0  0  3  0  0  0  0  0  0
   34.5700  -10.0490    9.3330 C   0  0  0  0  0  3  0  0  0  0  0  0
   35.6860   -9.3890    9.8800 C   0  0  0  0  0  0  0  0  0  0  0  0
   35.4980   -8.7110   11.0980 C   0  0  0  0  0  3  0  0  0  0  0  0
   34.2570   -9.7580   14.6760 O   0  0  0  0  0  0  0  0  0  0  0  0
   33.5270   -8.8940   14.1900 C   0  0  0  0  0  0  0  0  0  0  0  0
   32.2110   -8.7660   14.5940 N   0  0  0  0  0  0  0  0  0  0  0  0
   31.5590   -7.7000   14.2820 C   0  0  0  0  0  3  0  0  0  0  0  0
   32.0530   -6.5570   13.4970 C   0  0  0  0  0  3  0  0  0  0  0  0
   33.2460   -6.7070   12.9180 C   0  0  0  0  0  3  0  0  0  0  0  0
   34.0680   -7.9600   13.0800 C   0  0  2  0  0  3  0  0  0  0  0  0
   37.0400   -9.4260    9.1490 C   0  0  0  0  0  0  0  0  0  0  0  0
   36.9890   -8.4890    7.9220 C   0  0  0  0  0  1  0  0  0  0  0  0
   38.1600   -8.9530   10.1020 C   0  0  0  0  0  1  0  0  0  0  0  0
   37.4390  -10.8280    8.6370 C   0  0  0  0  0  1  0  0  0  0  0  0
  2  1  1  0  0  0  0
  3  2  2  0  0  0  0
  4  5  2  0  0  0  0
  4  3  1  0  0  0  0
  5  6  1  0  0  0  0
  6  1  2  0  0  0  0
  8  9  1  0  0  0  0
  8  7  2  0  0  0  0
 10  9  2  0  0  0  0
 11 10  1  0  0  0  0
 12 13  1  0  0  0  0
 12 11  2  0  0  0  0
 13  1  1  6  0  0  0
 13  8  1  0  0  0  0
 14  5  1  0  0  0  0
 14 16  1  0  0  0  0
 15 14  1  0  0  0  0
 17 14  1  0  0  0  0
M  END
>  <minimizedAffinity>
-6.72517014

$$$$
