
 OpenBabel08272217153D

 17 18  0  0  1  0  0  0  0  0999 V2000
   -8.0570    9.7500    9.3080 C   0  0  0  0  0  0  0  0  0  0  0  0
   -8.1070    9.5760    7.9200 C   0  0  0  0  0  3  0  0  0  0  0  0
   -9.1680    8.8910    7.3370 C   0  0  0  0  0  3  0  0  0  0  0  0
  -10.1910    8.3730    8.1330 C   0  0  0  0  0  3  0  0  0  0  0  0
  -10.1830    8.5270    9.5330 C   0  0  0  0  0  0  0  0  0  0  0  0
   -9.1020    9.2270   10.0970 C   0  0  0  0  0  3  0  0  0  0  0  0
   -4.9720    9.5070    8.9170 O   0  0  0  0  0  0  0  0  0  0  0  0
   -5.5880    9.7160    9.9620 C   0  0  0  0  0  0  0  0  0  0  0  0
   -5.1410    9.2030   11.1650 N   0  0  0  0  0  0  0  0  0  0  0  0
   -5.6370    9.6560   12.2640 C   0  0  0  0  0  3  0  0  0  0  0  0
   -6.6820   10.6830   12.4080 C   0  0  0  0  0  3  0  0  0  0  0  0
   -7.2870   11.0740   11.2840 C   0  0  0  0  0  3  0  0  0  0  0  0
   -6.9070   10.5270    9.9320 C   0  0  2  0  0  3  0  0  0  0  0  0
  -11.3260    7.9380   10.3790 C   0  0  0  0  0  0  0  0  0  0  0  0
  -11.0660    6.4350   10.6230 C   0  0  0  0  0  1  0  0  0  0  0  0
  -11.3960    8.6670   11.7390 C   0  0  0  0  0  1  0  0  0  0  0  0
  -12.7200    8.0600    9.7240 C   0  0  0  0  0  1  0  0  0  0  0  0
  1  6  1  0  0  0  0
  2  1  2  0  0  0  0
  3  2  1  0  0  0  0
  3  4  2  0  0  0  0
  4  5  1  0  0  0  0
  5  6  2  0  0  0  0
  5 14  1  0  0  0  0
  7  8  2  0  0  0  0
  8  9  1  0  0  0  0
  9 10  2  0  0  0  0
 10 11  1  0  0  0  0
 12 11  2  0  0  0  0
 13  1  1  1  0  0  0
 13  8  1  0  0  0  0
 13 12  1  0  0  0  0
 14 15  1  0  0  0  0
 14 16  1  0  0  0  0
 17 14  1  0  0  0  0
M  END
>  <minimizedAffinity>
-7.1179595

$$$$
