REMARK  Name = 
REMARK  14 active torsions:
REMARK  status: ('A' for Active; 'I' for Inactive)
REMARK    1  A    between atoms: C_1  and  O_2
REMARK    2  A    between atoms: O_2  and  C_3
REMARK    3  A    between atoms: C_3  and  C_5
REMARK    4  A    between atoms: C_8  and  N_9
REMARK    5  A    between atoms: N_9  and  S_10
REMARK    6  A    between atoms: S_10  and  N_13
REMARK    7  A    between atoms: N_13  and  C_14
REMARK    8  A    between atoms: C_24  and  C_25
REMARK    9  A    between atoms: C_26  and  O_27
REMARK   10  A    between atoms: N_34  and  C_35
REMARK   11  A    between atoms: C_35  and  C_36
REMARK   12  A    between atoms: C_36  and  C_37
REMARK   13  A    between atoms: C_37  and  C_38
REMARK   14  A    between atoms: C_37  and  C_39
REMARK                            x       y       z     vdW  Elec       q    Type
REMARK                         _______ _______ _______ _____ _____    ______ ____
ROOT
ATOM      1  C   UNL     1       3.874  -0.850   3.925  0.00  0.00    +0.051 A 
ATOM      2  C   UNL     1       2.797  -0.322   3.215  0.00  0.00    +0.028 A 
ATOM      3  C   UNL     1       2.063   0.756   3.735  0.00  0.00    +0.053 A 
ATOM      4  C   UNL     1       2.430   1.368   4.938  0.00  0.00    +0.148 A 
ATOM      5  C   UNL     1       3.551   0.877   5.580  0.00  0.00    +0.176 A 
ATOM      6  C   UNL     1       4.283  -0.212   5.093  0.00  0.00    +0.059 A 
ATOM      7  S   UNL     1       4.061   1.663   7.048  0.00  0.00    +0.141 S 
ATOM      8  O   UNL     1       3.894   0.683   8.097  0.00  0.00    -0.129 OA
ATOM      9  O   UNL     1       5.359   2.231   6.763  0.00  0.00    -0.129 OA
ATOM     10  N   UNL     1       3.016   2.842   7.272  0.00  0.00    -0.131 N 
ATOM     11  C   UNL     1       1.990   3.076   6.500  0.00  0.00    +0.308 C 
ATOM     12  N   UNL     1       1.681   2.401   5.403  0.00  0.00    -0.200 N 
ATOM     13  H   UNL     1       3.154   3.429   8.086  0.00  0.00    +0.339 HD
ATOM     14  H   UNL     1       0.834   2.664   4.878  0.00  0.00    +0.298 HD
ENDROOT
BRANCH  11  15
ATOM     15  C   UNL     1       1.090   4.216   6.918  0.00  0.00    +0.170 A 
ATOM     16  C   UNL     1       1.287   5.042   8.142  0.00  0.00    +0.148 A 
ATOM     17  C   UNL     1       0.163   6.376   8.725  0.00  0.00    +0.060 A 
ATOM     18  C   UNL     1       0.318   7.042   9.920  0.00  0.00    +0.016 A 
ATOM     19  C   UNL     1      -0.688   7.984  10.216  0.00  0.00    +0.021 A 
ATOM     20  C   UNL     1      -1.818   8.244   9.371  0.00  0.00    +0.113 A 
ATOM     21  N   UNL     1      -2.140   7.660   8.181  0.00  0.00    -0.237 NA
ATOM     22  C   UNL     1      -1.225   6.781   7.797  0.00  0.00    +0.147 A 
ATOM     23  N   UNL     1      -1.626   5.629   6.413  0.00  0.00    -0.292 N 
ATOM     24  C   UNL     1      -0.432   4.432   5.739  0.00  0.00    +0.271 A 
ATOM     25  O   UNL     1      -0.639   3.605   4.853  0.00  0.00    -0.267 OA
BRANCH  16  26
ATOM     26  O   UNL     1       2.387   4.826   8.958  0.00  0.00    -0.505 OA
ATOM     27  H   UNL     1       2.411   5.531   9.635  0.00  0.00    +0.292 HD
ENDBRANCH  16  26
BRANCH  23  28
ATOM     28  C   UNL     1      -2.282   4.710   7.153  0.00  0.00    +0.127 C 
BRANCH  28  29
ATOM     29  C   UNL     1      -0.844   4.803   7.601  0.00  0.00    +0.025 C 
BRANCH  29  30
ATOM     30  C   UNL     1       0.336   6.222   6.440  0.00  0.00    -0.016 C 
ATOM     31  C   UNL     1       1.222   7.595   6.919  0.00  0.00    +0.007 C 
ATOM     32  C   UNL     1       1.406   5.919   5.117  0.00  0.00    +0.007 C 
ENDBRANCH  29  30
ENDBRANCH  28  29
ENDBRANCH  23  28
ENDBRANCH  11  15
BRANCH   1  33
ATOM     33  N   UNL     1       4.724  -1.887   3.455  0.00  0.00    -0.204 N 
ATOM     34  H   UNL     1       5.547  -1.550   2.950  0.00  0.00    +0.175 HD
BRANCH  33  35
ATOM     35  S   UNL     1       4.155  -3.241   2.643  0.00  0.00    +0.124 S 
ATOM     36  O   UNL     1       5.298  -4.107   2.482  0.00  0.00    -0.135 OA
ATOM     37  O   UNL     1       3.392  -2.811   1.497  0.00  0.00    -0.135 OA
BRANCH  35  38
ATOM     38  N   UNL     1       3.160  -3.977   3.787  0.00  0.00    -0.204 N 
ATOM     39  H   UNL     1       3.237  -4.987   3.642  0.00  0.00    +0.175 HD
BRANCH  38  43
ATOM     40  C   UNL     1      -0.874  -2.759   4.157  0.00  0.00    +0.059 A 
ATOM     41  C   UNL     1      -0.431  -3.359   2.970  0.00  0.00    +0.017 A 
ATOM     42  C   UNL     1       0.898  -3.767   2.838  0.00  0.00    +0.025 A 
ATOM     43  C   UNL     1       1.799  -3.556   3.881  0.00  0.00    +0.049 A 
ATOM     44  C   UNL     1       1.357  -3.002   5.083  0.00  0.00    +0.025 A 
ATOM     45  C   UNL     1       0.025  -2.595   5.220  0.00  0.00    +0.017 A 
BRANCH  40  46
ATOM     46  C   UNL     1      -2.295  -2.326   4.231  0.00  0.00    +0.339 C 
ATOM     47  O   UNL     1      -3.113  -2.555   3.355  0.00  0.00    -0.245 OA
BRANCH  46  49
ATOM     48  C   UNL     1      -3.876  -1.174   5.496  0.00  0.00    +0.280 C 
ATOM     49  O   UNL     1      -2.523  -1.620   5.368  0.00  0.00    -0.464 OA
ENDBRANCH  46  49
ENDBRANCH  40  46
ENDBRANCH  38  43
ENDBRANCH  35  38
ENDBRANCH  33  35
ENDBRANCH   1  33
TORSDOF 11
