
 OpenBabel09132204463D

 49 53  0  0  1  0  0  0  0  0999 V2000
    7.4100    0.5130    8.7450 C   0  0  0  0  0  0  0  0  0  0  0  0
    8.2960   -0.0720    7.8420 C   0  0  0  0  0  3  0  0  0  0  0  0
    7.8970   -1.1720    7.0670 C   0  0  0  0  0  3  0  0  0  0  0  0
    6.5890   -1.6650    7.1290 C   0  0  0  0  0  0  0  0  0  0  0  0
    5.7080   -1.0140    7.9720 C   0  0  0  0  0  0  0  0  0  0  0  0
    6.0910    0.0680    8.7720 C   0  0  0  0  0  3  0  0  0  0  0  0
    4.0600   -1.5730    8.0200 S   0  0  0  0  0  0  0  0  0  0  0  0
    3.8580   -2.0880    9.3550 O   0  0  0  0  0  0  0  0  0  0  0  0
    3.2570   -0.4820    7.5160 O   0  0  0  0  0  0  0  0  0  0  0  0
    4.0010   -2.7820    6.9860 N   0  0  0  0  0  0  0  0  0  0  0  0
    5.0280   -3.2320    6.3170 C   0  0  1  0  0  3  0  0  0  0  0  0
    6.2560   -2.7380    6.3660 N   0  0  0  0  0  0  0  0  0  0  0  0
    3.1060   -3.2390    6.8660 H   0  0  0  0  0  0  0  0  0  0  0  0
    6.9960   -3.1860    5.8050 H   0  0  0  0  0  0  0  0  0  0  0  0
    4.7680   -4.4220    5.4230 C   0  0  0  0  0  0  0  0  0  0  0  0
    5.0960   -4.4750    3.9710 C   0  0  0  0  0  0  0  0  0  0  0  0
    4.7140   -5.8710    2.8370 C   0  0  0  0  0  0  0  0  0  0  0  0
    4.9310   -5.8380    1.4780 C   0  0  0  0  0  3  0  0  0  0  0  0
    4.5080   -6.9840    0.7750 C   0  0  0  0  0  3  0  0  0  0  0  0
    3.8740   -8.1150    1.3900 C   0  0  0  0  0  3  0  0  0  0  0  0
    3.5570   -8.2990    2.7040 N   0  0  0  0  0  0  0  0  0  0  0  0
    3.9550   -7.2830    3.4570 C   0  0  0  0  0  0  0  0  0  0  0  0
    3.3250   -7.1580    5.1860 N   0  0  0  0  0  4  0  0  0  0  0  0
    3.8540   -5.8600    6.3460 C   0  0  0  0  0  0  0  0  0  0  0  0
    3.4470   -5.6860    7.4930 O   0  0  0  0  0  0  0  0  0  0  0  0
    5.7340   -3.4040    3.3620 O   0  0  0  0  0  0  0  0  0  0  0  0
    5.9710   -3.6650    2.4500 H   0  0  0  0  0  0  0  0  0  0  0  0
    2.1540   -6.5550    4.8880 C   0  0  0  0  0  2  0  0  0  0  0  0
    1.8960   -7.8520    5.6150 C   0  0  0  0  0  2  0  0  0  0  0  0
    0.2290   -7.7440    7.0150 C   0  0  0  0  0  2  0  0  0  0  0  0
    0.1400   -7.1370    8.6040 C   0  0  0  0  0  1  0  0  0  0  0  0
   -1.4250   -7.3470    6.7070 C   0  0  0  0  0  1  0  0  0  0  0  0
    7.6900    1.6710    9.5200 N   0  0  0  0  0  0  0  0  0  0  0  0
    8.0310    2.4640    8.9700 H   0  0  0  0  0  0  0  0  0  0  0  0
    8.5750    1.6280   10.9450 S   0  0  0  0  0  0  0  0  0  0  0  0
    9.5460    2.6900   10.8310 O   0  0  0  0  0  0  0  0  0  0  0  0
    8.9970    0.2710   11.1910 O   0  0  0  0  0  0  0  0  0  0  0  0
    7.4560    2.1310   12.1000 N   0  0  0  0  0  0  0  0  0  0  0  0
    7.9680    2.2490   12.9780 H   0  0  0  0  0  0  0  0  0  0  0  0
    3.9820   -0.2270   12.6160 C   0  0  0  0  0  0  0  0  0  0  0  0
    3.9100    0.9760   11.9000 C   0  0  0  0  0  3  0  0  0  0  0  0
    5.0510    1.7610   11.7220 C   0  0  0  0  0  3  0  0  0  0  0  0
    6.2660    1.3620   12.2780 C   0  0  0  0  0  0  0  0  0  0  0  0
    6.3570    0.1440   12.9530 C   0  0  0  0  0  3  0  0  0  0  0  0
    5.2160   -0.6470   13.1310 C   0  0  0  0  0  3  0  0  0  0  0  0
    2.7290   -1.0100   12.7910 C   0  0  0  0  0  0  0  0  0  0  0  0
    2.5690   -2.1310   12.3370 O   0  0  0  0  0  0  0  0  0  0  0  0
    0.7040   -1.0750   13.9410 C   0  0  0  0  0  1  0  0  0  0  0  0
    1.8050   -0.2880   13.4760 O   0  0  0  0  0  0  0  0  0  0  0  0
  1  6  1  0  0  0  0
  1 33  1  0  0  0  0
  2  1  2  0  0  0  0
  3  4  2  0  0  0  0
  3  2  1  0  0  0  0
  4  5  1  0  0  0  0
  5  7  1  0  0  0  0
  5  6  2  0  0  0  0
  7  8  2  0  0  0  0
  9  7  2  0  0  0  0
 10  7  1  0  0  0  0
 11 15  1  1  0  0  0
 11 12  1  0  0  0  0
 11 10  1  0  0  0  0
 12  4  1  0  0  0  0
 13 10  1  0  0  0  0
 14 12  1  0  0  0  0
 15 24  1  0  0  0  0
 16 15  2  0  0  0  0
 17 22  1  0  0  0  0
 17 16  1  0  0  0  0
 18 17  2  0  0  0  0
 19 20  2  0  0  0  0
 19 18  1  0  0  0  0
 20 21  1  0  0  0  0
 21 22  2  0  0  0  0
 22 23  1  0  0  0  0
 23 29  1  0  0  0  0
 23 24  1  0  0  0  0
 24 25  2  0  0  0  0
 26 16  1  0  0  0  0
 27 26  1  0  0  0  0
 28 23  1  0  0  0  0
 28 29  1  0  0  0  0
 30 31  1  0  0  0  0
 32 30  1  0  0  0  0
 33 35  1  0  0  0  0
 34 33  1  0  0  0  0
 35 37  2  0  0  0  0
 35 38  1  0  0  0  0
 36 35  2  0  0  0  0
 38 43  1  0  0  0  0
 38 39  1  0  0  0  0
 40 46  1  0  0  0  0
 40 45  1  0  0  0  0
 41 40  2  0  0  0  0
 42 41  1  0  0  0  0
 42 43  2  0  0  0  0
 43 44  1  0  0  0  0
 44 45  2  0  0  0  0
 46 49  1  0  0  0  0
 47 46  2  0  0  0  0
 49 48  1  0  0  0  0
M  END
>  <minimizedAffinity>
-8.55539322

$$$$
