
 OpenBabel09122222463D

 49 53  0  0  1  0  0  0  0  0999 V2000
    3.5100   -4.8780    4.4540 C   0  0  0  0  0  0  0  0  0  0  0  0
    2.5690   -3.8690    4.6520 C   0  0  0  0  0  3  0  0  0  0  0  0
    2.7820   -2.8810    5.6270 C   0  0  0  0  0  3  0  0  0  0  0  0
    3.9650   -2.8430    6.3730 C   0  0  0  0  0  0  0  0  0  0  0  0
    4.9160   -3.8080    6.0980 C   0  0  0  0  0  0  0  0  0  0  0  0
    4.7140   -4.8170    5.1490 C   0  0  0  0  0  3  0  0  0  0  0  0
    6.4200   -3.7430    6.9730 S   0  0  0  0  0  0  0  0  0  0  0  0
    6.4560   -4.9410    7.7810 O   0  0  0  0  0  0  0  0  0  0  0  0
    7.4420   -3.4840    5.9850 O   0  0  0  0  0  0  0  0  0  0  0  0
    6.2900   -2.4780    7.9300 N   0  0  0  0  0  0  0  0  0  0  0  0
    5.2270   -1.7260    8.0190 C   0  0  1  0  0  3  0  0  0  0  0  0
    4.1180   -1.8720    7.3100 N   0  0  0  0  0  0  0  0  0  0  0  0
    7.0840   -2.2680    8.5230 H   0  0  0  0  0  0  0  0  0  0  0  0
    3.3310   -1.2270    7.4760 H   0  0  0  0  0  0  0  0  0  0  0  0
    5.2910   -0.6020    9.0270 C   0  0  0  0  0  0  0  0  0  0  0  0
    6.4450    0.3260    9.1850 C   0  0  0  0  0  0  0  0  0  0  0  0
    6.5920    1.6450   10.4580 C   0  0  0  0  0  0  0  0  0  0  0  0
    7.7220    2.4100   10.6440 C   0  0  0  0  0  3  0  0  0  0  0  0
    7.6580    3.3220   11.7170 C   0  0  0  0  0  3  0  0  0  0  0  0
    6.5260    3.4590   12.5880 C   0  0  0  0  0  3  0  0  0  0  0  0
    5.3500    2.7680   12.5660 N   0  0  0  0  0  0  0  0  0  0  0  0
    5.2990    1.9080   11.5590 C   0  0  0  0  0  0  0  0  0  0  0  0
    3.9670    0.6320   11.5470 N   0  0  0  0  0  4  0  0  0  0  0  0
    3.7390   -0.5540   10.1860 C   0  0  0  0  0  0  0  0  0  0  0  0
    2.9070   -1.4570   10.1280 O   0  0  0  0  0  0  0  0  0  0  0  0
    7.5380    0.2290    8.3360 O   0  0  0  0  0  0  0  0  0  0  0  0
    8.1320    0.9850    8.5120 H   0  0  0  0  0  0  0  0  0  0  0  0
    4.5870   -0.2570   12.3520 C   0  0  0  0  0  2  0  0  0  0  0  0
    3.1980    0.0270   12.8690 C   0  0  0  0  0  2  0  0  0  0  0  0
    2.1950   -1.7340   13.6730 C   0  0  0  0  0  2  0  0  0  0  0  0
    0.5880   -1.9700   14.1850 C   0  0  0  0  0  1  0  0  0  0  0  0
    2.3460   -3.3860   13.1890 C   0  0  0  0  0  1  0  0  0  0  0  0
    3.4250   -5.8780    3.4480 N   0  0  0  0  0  0  0  0  0  0  0  0
    2.6810   -5.7160    2.7650 H   0  0  0  0  0  0  0  0  0  0  0  0
    3.4480   -7.5220    3.7860 S   0  0  0  0  0  0  0  0  0  0  0  0
    2.0640   -7.9170    3.8900 O   0  0  0  0  0  0  0  0  0  0  0  0
    4.3640   -7.7620    4.8740 O   0  0  0  0  0  0  0  0  0  0  0  0
    4.0270   -8.1940    2.3520 N   0  0  0  0  0  0  0  0  0  0  0  0
    4.3820   -9.1260    2.5830 H   0  0  0  0  0  0  0  0  0  0  0  0
    6.8460   -5.9530    0.1330 C   0  0  0  0  0  0  0  0  0  0  0  0
    5.4950   -5.9440   -0.2410 C   0  0  0  0  0  3  0  0  0  0  0  0
    4.5560   -6.6790    0.4850 C   0  0  0  0  0  3  0  0  0  0  0  0
    4.9630   -7.4460    1.5760 C   0  0  0  0  0  0  0  0  0  0  0  0
    6.2970   -7.4240    1.9850 C   0  0  0  0  0  3  0  0  0  0  0  0
    7.2410   -6.6870    1.2610 C   0  0  0  0  0  3  0  0  0  0  0  0
    7.8040   -5.1690   -0.6920 C   0  0  0  0  0  0  0  0  0  0  0  0
    7.5250   -4.7070   -1.7860 O   0  0  0  0  0  0  0  0  0  0  0  0
    9.6470   -3.8170   -0.2440 C   0  0  0  0  0  1  0  0  0  0  0  0
    9.0120   -5.0880   -0.0780 O   0  0  0  0  0  0  0  0  0  0  0  0
  1  2  2  0  0  0  0
  1  6  1  0  0  0  0
  2  3  1  0  0  0  0
  3  4  2  0  0  0  0
  4 12  1  0  0  0  0
  5  4  1  0  0  0  0
  5  7  1  0  0  0  0
  6  5  2  0  0  0  0
  7  8  2  0  0  0  0
  7 10  1  0  0  0  0
  9  7  2  0  0  0  0
 10 11  1  0  0  0  0
 10 13  1  0  0  0  0
 11 15  1  1  0  0  0
 12 14  1  0  0  0  0
 12 11  1  0  0  0  0
 15 16  2  0  0  0  0
 15 24  1  0  0  0  0
 16 17  1  0  0  0  0
 17 18  2  0  0  0  0
 17 22  1  0  0  0  0
 18 19  1  0  0  0  0
 19 20  2  0  0  0  0
 21 20  1  0  0  0  0
 22 21  2  0  0  0  0
 23 22  1  0  0  0  0
 23 28  1  0  0  0  0
 23 29  1  0  0  0  0
 24 23  1  0  0  0  0
 25 24  2  0  0  0  0
 26 27  1  0  0  0  0
 26 16  1  0  0  0  0
 28 29  1  0  0  0  0
 30 31  1  0  0  0  0
 32 30  1  0  0  0  0
 33 35  1  0  0  0  0
 33  1  1  0  0  0  0
 34 33  1  0  0  0  0
 35 36  2  0  0  0  0
 35 37  2  0  0  0  0
 38 39  1  0  0  0  0
 38 35  1  0  0  0  0
 40 45  1  0  0  0  0
 41 40  2  0  0  0  0
 41 42  1  0  0  0  0
 42 43  2  0  0  0  0
 43 44  1  0  0  0  0
 43 38  1  0  0  0  0
 45 44  2  0  0  0  0
 46 49  1  0  0  0  0
 46 40  1  0  0  0  0
 47 46  2  0  0  0  0
 48 49  1  0  0  0  0
M  END
>  <minimizedAffinity>
-9.63742733

$$$$

 OpenBabel09122222463D

 49 53  0  0  1  0  0  0  0  0999 V2000
    4.0090   -6.8140    3.3020 C   0  0  0  0  0  0  0  0  0  0  0  0
    4.6000   -5.6270    2.8700 C   0  0  0  0  0  3  0  0  0  0  0  0
    4.7450   -4.5440    3.7510 C   0  0  0  0  0  3  0  0  0  0  0  0
    4.3640   -4.6470    5.0930 C   0  0  0  0  0  0  0  0  0  0  0  0
    3.8570   -5.8610    5.5140 C   0  0  0  0  0  0  0  0  0  0  0  0
    3.6810   -6.9470    4.6480 C   0  0  0  0  0  3  0  0  0  0  0  0
    3.4340   -6.0310    7.1950 S   0  0  0  0  0  0  0  0  0  0  0  0
    2.0010   -6.2200    7.2220 O   0  0  0  0  0  0  0  0  0  0  0  0
    4.3250   -7.0350    7.7290 O   0  0  0  0  0  0  0  0  0  0  0  0
    3.7810   -4.6250    7.8540 N   0  0  0  0  0  0  0  0  0  0  0  0
    4.2380   -3.5940    7.1970 C   0  0  1  0  0  3  0  0  0  0  0  0
    4.5160   -3.5670    5.9020 N   0  0  0  0  0  0  0  0  0  0  0  0
    3.6090   -4.5280    8.8480 H   0  0  0  0  0  0  0  0  0  0  0  0
    4.8580   -2.6890    5.4840 H   0  0  0  0  0  0  0  0  0  0  0  0
    4.4560   -2.3350    8.0040 C   0  0  0  0  0  0  0  0  0  0  0  0
    5.7120   -1.5330    7.9950 C   0  0  0  0  0  0  0  0  0  0  0  0
    6.0410   -0.0480    9.0300 C   0  0  0  0  0  0  0  0  0  0  0  0
    7.2540    0.6010    9.0760 C   0  0  0  0  0  3  0  0  0  0  0  0
    7.3230    1.6780    9.9830 C   0  0  0  0  0  3  0  0  0  0  0  0
    6.2380    2.0860   10.8290 C   0  0  0  0  0  3  0  0  0  0  0  0
    4.9920    1.5420   10.9320 N   0  0  0  0  0  0  0  0  0  0  0  0
    4.8170    0.5390   10.0830 C   0  0  0  0  0  0  0  0  0  0  0  0
    3.3490   -0.5580   10.2950 N   0  0  0  0  0  4  0  0  0  0  0  0
    2.9520   -1.9180    9.1520 C   0  0  0  0  0  0  0  0  0  0  0  0
    2.0220   -2.7160    9.2520 O   0  0  0  0  0  0  0  0  0  0  0  0
    6.7620   -1.8930    7.1650 O   0  0  0  0  0  0  0  0  0  0  0  0
    7.4420   -1.1920    7.2070 H   0  0  0  0  0  0  0  0  0  0  0  0
    3.8880   -1.3690   11.2310 C   0  0  0  0  0  2  0  0  0  0  0  0
    2.5760   -0.8100   11.7240 C   0  0  0  0  0  2  0  0  0  0  0  0
    1.4220   -2.2260   12.9140 C   0  0  0  0  0  2  0  0  0  0  0  0
    1.7920   -3.8000   13.4480 C   0  0  0  0  0  1  0  0  0  0  0  0
    0.4250   -1.9280   14.2940 C   0  0  0  0  0  1  0  0  0  0  0  0
    3.8840   -7.9890    2.5140 N   0  0  0  0  0  0  0  0  0  0  0  0
    4.5630   -8.7180    2.7470 H   0  0  0  0  0  0  0  0  0  0  0  0
    3.7300   -7.9610    0.8430 S   0  0  0  0  0  0  0  0  0  0  0  0
    3.5080   -6.5780    0.4960 O   0  0  0  0  0  0  0  0  0  0  0  0
    2.7890   -8.9780    0.4440 O   0  0  0  0  0  0  0  0  0  0  0  0
    5.2850   -8.3390    0.3140 N   0  0  0  0  0  0  0  0  0  0  0  0
    5.6280   -9.0920    0.9160 H   0  0  0  0  0  0  0  0  0  0  0  0
    8.1050   -5.1990    0.0300 C   0  0  0  0  0  0  0  0  0  0  0  0
    7.1310   -5.3560   -0.9660 C   0  0  0  0  0  3  0  0  0  0  0  0
    6.1930   -6.3880   -0.8810 C   0  0  0  0  0  3  0  0  0  0  0  0
    6.2380   -7.2840    0.1860 C   0  0  0  0  0  0  0  0  0  0  0  0
    7.1750   -7.1090    1.2060 C   0  0  0  0  0  3  0  0  0  0  0  0
    8.1140   -6.0740    1.1250 C   0  0  0  0  0  3  0  0  0  0  0  0
    9.0900   -4.0950   -0.1260 C   0  0  0  0  0  0  0  0  0  0  0  0
    9.6210   -3.8140   -1.1880 O   0  0  0  0  0  0  0  0  0  0  0  0
    9.3620   -2.0680    0.9890 C   0  0  0  0  0  1  0  0  0  0  0  0
    9.3320   -3.4960    1.0680 O   0  0  0  0  0  0  0  0  0  0  0  0
  1  6  1  0  0  0  0
  2  1  2  0  0  0  0
  2  3  1  0  0  0  0
  3  4  2  0  0  0  0
  4  5  1  0  0  0  0
  4 12  1  0  0  0  0
  5  7  1  0  0  0  0
  6  5  2  0  0  0  0
  7  8  2  0  0  0  0
  7  9  2  0  0  0  0
  7 10  1  0  0  0  0
 10 13  1  0  0  0  0
 11 10  1  0  0  0  0
 11 15  1  6  0  0  0
 12 11  1  0  0  0  0
 14 12  1  0  0  0  0
 15 24  1  0  0  0  0
 16 15  2  0  0  0  0
 16 17  1  0  0  0  0
 17 18  2  0  0  0  0
 17 22  1  0  0  0  0
 18 19  1  0  0  0  0
 19 20  2  0  0  0  0
 20 21  1  0  0  0  0
 22 23  1  0  0  0  0
 22 21  2  0  0  0  0
 23 28  1  0  0  0  0
 23 29  1  0  0  0  0
 24 25  2  0  0  0  0
 24 23  1  0  0  0  0
 26 27  1  0  0  0  0
 26 16  1  0  0  0  0
 28 29  1  0  0  0  0
 30 31  1  0  0  0  0
 30 32  1  0  0  0  0
 33 34  1  0  0  0  0
 33  1  1  0  0  0  0
 35 33  1  0  0  0  0
 36 35  2  0  0  0  0
 37 35  2  0  0  0  0
 38 35  1  0  0  0  0
 38 39  1  0  0  0  0
 40 45  1  0  0  0  0
 41 42  1  0  0  0  0
 41 40  2  0  0  0  0
 42 43  2  0  0  0  0
 43 38  1  0  0  0  0
 43 44  1  0  0  0  0
 45 44  2  0  0  0  0
 46 40  1  0  0  0  0
 46 49  1  0  0  0  0
 47 46  2  0  0  0  0
 48 49  1  0  0  0  0
M  END
>  <minimizedAffinity>
-9.04850578

$$$$

 OpenBabel09122222463D

 49 53  0  0  1  0  0  0  0  0999 V2000
    4.3420    0.0660    9.3420 C   0  0  0  0  0  0  0  0  0  0  0  0
    3.1020   -0.4350    8.9500 C   0  0  0  0  0  3  0  0  0  0  0  0
    3.0210   -1.4690    8.0020 C   0  0  0  0  0  3  0  0  0  0  0  0
    4.1740   -2.0640    7.4810 C   0  0  0  0  0  0  0  0  0  0  0  0
    5.3900   -1.6030    7.9490 C   0  0  0  0  0  0  0  0  0  0  0  0
    5.4950   -0.5580    8.8740 C   0  0  0  0  0  3  0  0  0  0  0  0
    6.8370   -2.3710    7.3580 S   0  0  0  0  0  0  0  0  0  0  0  0
    7.5390   -1.3580    6.6030 O   0  0  0  0  0  0  0  0  0  0  0  0
    7.4500   -2.9990    8.5060 O   0  0  0  0  0  0  0  0  0  0  0  0
    6.3280   -3.5000    6.3580 N   0  0  0  0  0  0  0  0  0  0  0  0
    5.0760   -3.7120    6.0590 C   0  0  1  0  0  3  0  0  0  0  0  0
    4.0420   -3.0530    6.5600 N   0  0  0  0  0  0  0  0  0  0  0  0
    7.0370   -4.0710    5.9120 H   0  0  0  0  0  0  0  0  0  0  0  0
    3.0930   -3.2950    6.2370 H   0  0  0  0  0  0  0  0  0  0  0  0
    4.8100   -4.8030    5.0470 C   0  0  0  0  0  0  0  0  0  0  0  0
    5.1380   -4.7080    3.5970 C   0  0  0  0  0  0  0  0  0  0  0  0
    4.7470   -5.9790    2.3260 C   0  0  0  0  0  0  0  0  0  0  0  0
    4.9650   -5.8080    0.9780 C   0  0  0  0  0  3  0  0  0  0  0  0
    4.5360   -6.8740    0.1610 C   0  0  0  0  0  3  0  0  0  0  0  0
    3.8940   -8.0570    0.6580 C   0  0  0  0  0  3  0  0  0  0  0  0
    3.5770   -8.3740    1.9460 N   0  0  0  0  0  0  0  0  0  0  0  0
    3.9800   -7.4420    2.7990 C   0  0  0  0  0  0  0  0  0  0  0  0
    3.3500   -7.4920    4.5320 N   0  0  0  0  0  4  0  0  0  0  0  0
    3.8870   -6.3220    5.8180 C   0  0  0  0  0  0  0  0  0  0  0  0
    3.4800   -6.2640    6.9770 O   0  0  0  0  0  0  0  0  0  0  0  0
    5.7820   -3.5850    3.1010 O   0  0  0  0  0  0  0  0  0  0  0  0
    6.0170   -3.7530    2.1670 H   0  0  0  0  0  0  0  0  0  0  0  0
    2.1830   -6.8540    4.2970 C   0  0  0  0  0  2  0  0  0  0  0  0
    1.9230   -8.1700    4.9890 C   0  0  0  0  0  2  0  0  0  0  0  0
    0.3490   -8.0620    6.4940 C   0  0  0  0  0  2  0  0  0  0  0  0
    0.2950   -7.2720    8.0010 C   0  0  0  0  0  1  0  0  0  0  0  0
   -1.3560   -7.8830    6.2720 C   0  0  0  0  0  1  0  0  0  0  0  0
    4.5350    1.0550   10.3440 N   0  0  0  0  0  0  0  0  0  0  0  0
    5.2440    1.7530   10.1050 H   0  0  0  0  0  0  0  0  0  0  0  0
    4.7200    0.6880   11.9710 S   0  0  0  0  0  0  0  0  0  0  0  0
    5.1760    1.9060   12.5960 O   0  0  0  0  0  0  0  0  0  0  0  0
    5.4850   -0.5290   12.0900 O   0  0  0  0  0  0  0  0  0  0  0  0
    3.1330    0.4540   12.4880 N   0  0  0  0  0  0  0  0  0  0  0  0
    2.9980    1.0490   13.3100 H   0  0  0  0  0  0  0  0  0  0  0  0
    1.8470   -3.5050   13.2370 C   0  0  0  0  0  0  0  0  0  0  0  0
    1.9620   -3.0460   11.9180 C   0  0  0  0  0  3  0  0  0  0  0  0
    2.3880   -1.7410   11.6590 C   0  0  0  0  0  3  0  0  0  0  0  0
    2.6780   -0.8800   12.7160 C   0  0  0  0  0  0  0  0  0  0  0  0
    2.6110   -1.3420   14.0310 C   0  0  0  0  0  3  0  0  0  0  0  0
    2.1870   -2.6500   14.2940 C   0  0  0  0  0  3  0  0  0  0  0  0
    1.3680   -4.8970   13.4510 C   0  0  0  0  0  0  0  0  0  0  0  0
    0.5400   -5.2000   14.2940 O   0  0  0  0  0  0  0  0  0  0  0  0
    1.4190   -7.0610   12.5890 C   0  0  0  0  0  1  0  0  0  0  0  0
    2.0080   -5.7580   12.6190 O   0  0  0  0  0  0  0  0  0  0  0  0
  1 33  1  0  0  0  0
  2  1  1  0  0  0  0
  3  2  2  0  0  0  0
  4  5  2  0  0  0  0
  4  3  1  0  0  0  0
  5  6  1  0  0  0  0
  6  1  2  0  0  0  0
  7  5  1  0  0  0  0
  7  9  2  0  0  0  0
  8  7  2  0  0  0  0
 10  7  1  0  0  0  0
 11 15  1  6  0  0  0
 11 10  1  0  0  0  0
 11 12  1  0  0  0  0
 12  4  1  0  0  0  0
 13 10  1  0  0  0  0
 14 12  1  0  0  0  0
 15 24  1  0  0  0  0
 16 15  2  0  0  0  0
 17 22  1  0  0  0  0
 17 16  1  0  0  0  0
 18 17  2  0  0  0  0
 19 20  2  0  0  0  0
 19 18  1  0  0  0  0
 20 21  1  0  0  0  0
 21 22  2  0  0  0  0
 22 23  1  0  0  0  0
 23 29  1  0  0  0  0
 23 24  1  0  0  0  0
 24 25  2  0  0  0  0
 26 16  1  0  0  0  0
 27 26  1  0  0  0  0
 28 23  1  0  0  0  0
 28 29  1  0  0  0  0
 30 31  1  0  0  0  0
 32 30  1  0  0  0  0
 33 35  1  0  0  0  0
 34 33  1  0  0  0  0
 35 37  2  0  0  0  0
 35 38  1  0  0  0  0
 35 36  2  0  0  0  0
 38 43  1  0  0  0  0
 38 39  1  0  0  0  0
 40 46  1  0  0  0  0
 40 45  1  0  0  0  0
 41 40  2  0  0  0  0
 42 41  1  0  0  0  0
 42 43  2  0  0  0  0
 43 44  1  0  0  0  0
 44 45  2  0  0  0  0
 46 47  2  0  0  0  0
 48 49  1  0  0  0  0
 49 46  1  0  0  0  0
M  END
>  <minimizedAffinity>
-8.94899845

$$$$

 OpenBabel09122222463D

 49 53  0  0  1  0  0  0  0  0999 V2000
    4.0250   -4.5810    4.0540 C   0  0  0  0  0  0  0  0  0  0  0  0
    3.1020   -3.5440    4.1820 C   0  0  0  0  0  3  0  0  0  0  0  0
    3.2440   -2.5890    5.2010 C   0  0  0  0  0  3  0  0  0  0  0  0
    4.3420   -2.6120    6.0670 C   0  0  0  0  0  0  0  0  0  0  0  0
    5.2840   -3.6020    5.8650 C   0  0  0  0  0  0  0  0  0  0  0  0
    5.1510   -4.5800    4.8720 C   0  0  0  0  0  3  0  0  0  0  0  0
    6.6900   -3.6130    6.8940 S   0  0  0  0  0  0  0  0  0  0  0  0
    6.6010   -4.8310    7.6670 O   0  0  0  0  0  0  0  0  0  0  0  0
    7.8180   -3.3660    6.0250 O   0  0  0  0  0  0  0  0  0  0  0  0
    6.5010   -2.3690    7.8680 N   0  0  0  0  0  0  0  0  0  0  0  0
    5.4600   -1.5820    7.8660 C   0  0  1  0  0  3  0  0  0  0  0  0
    4.4270   -1.6710    7.0420 N   0  0  0  0  0  0  0  0  0  0  0  0
    7.2350   -2.2020    8.5460 H   0  0  0  0  0  0  0  0  0  0  0  0
    3.6490   -1.0020    7.1440 H   0  0  0  0  0  0  0  0  0  0  0  0
    5.4540   -0.4860    8.9080 C   0  0  0  0  0  0  0  0  0  0  0  0
    6.5670    0.4810    9.1220 C   0  0  0  0  0  0  0  0  0  0  0  0
    6.6290    1.7670   10.4350 C   0  0  0  0  0  0  0  0  0  0  0  0
    7.7220    2.5690   10.6720 C   0  0  0  0  0  3  0  0  0  0  0  0
    7.5960    3.4460   11.7690 C   0  0  0  0  0  3  0  0  0  0  0  0
    6.4380    3.5140   12.6130 C   0  0  0  0  0  3  0  0  0  0  0  0
    5.2910    2.7780   12.5420 N   0  0  0  0  0  0  0  0  0  0  0  0
    5.3000    1.9460   11.5100 C   0  0  0  0  0  0  0  0  0  0  0  0
    4.0200    0.6210   11.4270 N   0  0  0  0  0  4  0  0  0  0  0  0
    3.8730   -0.5330   10.0270 C   0  0  0  0  0  0  0  0  0  0  0  0
    3.0790   -1.4660    9.9210 O   0  0  0  0  0  0  0  0  0  0  0  0
    7.6830    0.4520    8.2990 O   0  0  0  0  0  0  0  0  0  0  0  0
    8.2420    1.2250    8.5110 H   0  0  0  0  0  0  0  0  0  0  0  0
    4.6550   -0.2660   12.2220 C   0  0  0  0  0  2  0  0  0  0  0  0
    3.2840    0.0350   12.7760 C   0  0  0  0  0  2  0  0  0  0  0  0
    2.2320   -1.7330   13.4970 C   0  0  0  0  0  2  0  0  0  0  0  0
    0.6410   -1.9300   14.0730 C   0  0  0  0  0  1  0  0  0  0  0  0
    2.2740   -3.3480   12.8840 C   0  0  0  0  0  1  0  0  0  0  0  0
    4.0140   -5.5520    3.0160 N   0  0  0  0  0  0  0  0  0  0  0  0
    3.2600   -5.4230    2.3370 H   0  0  0  0  0  0  0  0  0  0  0  0
    4.1570   -7.2000    3.3020 S   0  0  0  0  0  0  0  0  0  0  0  0
    5.5690   -7.4440    3.4710 O   0  0  0  0  0  0  0  0  0  0  0  0
    3.4030   -7.9130    2.3010 O   0  0  0  0  0  0  0  0  0  0  0  0
    3.4590   -7.3810    4.8250 N   0  0  0  0  0  0  0  0  0  0  0  0
    3.9800   -8.1200    5.3040 H   0  0  0  0  0  0  0  0  0  0  0  0
   -0.7220   -7.9330    5.1580 C   0  0  0  0  0  0  0  0  0  0  0  0
    0.0910   -8.9910    4.7280 C   0  0  0  0  0  3  0  0  0  0  0  0
    1.4730   -8.8210    4.6160 C   0  0  0  0  0  3  0  0  0  0  0  0
    2.0490   -7.5850    4.9100 C   0  0  0  0  0  0  0  0  0  0  0  0
    1.2540   -6.5400    5.3830 C   0  0  0  0  0  3  0  0  0  0  0  0
   -0.1300   -6.7090    5.4990 C   0  0  0  0  0  3  0  0  0  0  0  0
   -2.1880   -8.1680    5.2360 C   0  0  0  0  0  0  0  0  0  0  0  0
   -2.8460   -8.6190    4.3130 O   0  0  0  0  0  0  0  0  0  0  0  0
   -3.5840   -6.6740    6.3530 C   0  0  0  0  0  1  0  0  0  0  0  0
   -2.6740   -7.7740    6.4410 O   0  0  0  0  0  0  0  0  0  0  0  0
  1  2  2  0  0  0  0
  1  6  1  0  0  0  0
  2  3  1  0  0  0  0
  3  4  2  0  0  0  0
  4 12  1  0  0  0  0
  5  4  1  0  0  0  0
  5  7  1  0  0  0  0
  6  5  2  0  0  0  0
  7  8  2  0  0  0  0
  7 10  1  0  0  0  0
  9  7  2  0  0  0  0
 10 13  1  0  0  0  0
 11 10  1  0  0  0  0
 11 15  1  1  0  0  0
 12 14  1  0  0  0  0
 12 11  1  0  0  0  0
 15 16  2  0  0  0  0
 15 24  1  0  0  0  0
 16 17  1  0  0  0  0
 17 18  2  0  0  0  0
 17 22  1  0  0  0  0
 18 19  1  0  0  0  0
 19 20  2  0  0  0  0
 21 20  1  0  0  0  0
 22 21  2  0  0  0  0
 23 22  1  0  0  0  0
 23 28  1  0  0  0  0
 23 29  1  0  0  0  0
 24 23  1  0  0  0  0
 25 24  2  0  0  0  0
 26 27  1  0  0  0  0
 26 16  1  0  0  0  0
 28 29  1  0  0  0  0
 30 31  1  0  0  0  0
 32 30  1  0  0  0  0
 33 35  1  0  0  0  0
 33  1  1  0  0  0  0
 34 33  1  0  0  0  0
 35 36  2  0  0  0  0
 35 38  1  0  0  0  0
 37 35  2  0  0  0  0
 38 43  1  0  0  0  0
 38 39  1  0  0  0  0
 40 46  1  0  0  0  0
 40 45  1  0  0  0  0
 41 40  2  0  0  0  0
 42 41  1  0  0  0  0
 42 43  2  0  0  0  0
 43 44  1  0  0  0  0
 44 45  2  0  0  0  0
 46 49  1  0  0  0  0
 47 46  2  0  0  0  0
 48 49  1  0  0  0  0
M  END
>  <minimizedAffinity>
-8.8593874

$$$$

 OpenBabel09122222463D

 49 53  0  0  1  0  0  0  0  0999 V2000
    5.3540   -0.0740    9.5290 C   0  0  0  0  0  0  0  0  0  0  0  0
    6.5130   -0.6730    9.0390 C   0  0  0  0  0  3  0  0  0  0  0  0
    6.4330   -1.7100    8.0970 C   0  0  0  0  0  3  0  0  0  0  0  0
    5.2020   -2.1230    7.5780 C   0  0  0  0  0  0  0  0  0  0  0  0
    4.0750   -1.4570    8.0200 C   0  0  0  0  0  0  0  0  0  0  0  0
    4.1280   -0.4370    8.9770 C   0  0  0  0  0  3  0  0  0  0  0  0
    2.5370   -1.9140    7.3410 S   0  0  0  0  0  0  0  0  0  0  0  0
    1.7770   -2.4740    8.4350 O   0  0  0  0  0  0  0  0  0  0  0  0
    2.0610   -0.7540    6.6230 O   0  0  0  0  0  0  0  0  0  0  0  0
    2.8710   -3.0690    6.2990 N   0  0  0  0  0  0  0  0  0  0  0  0
    4.0650   -3.5520    6.0890 C   0  0  1  0  0  3  0  0  0  0  0  0
    5.1780   -3.1380    6.6750 N   0  0  0  0  0  0  0  0  0  0  0  0
    2.0910   -3.4640    5.7870 H   0  0  0  0  0  0  0  0  0  0  0  0
    6.0670   -3.6060    6.4440 H   0  0  0  0  0  0  0  0  0  0  0  0
    4.1580   -4.6830    5.0900 C   0  0  0  0  0  0  0  0  0  0  0  0
    4.5180   -4.5140    3.6550 C   0  0  0  0  0  0  0  0  0  0  0  0
    4.5540   -5.8550    2.3960 C   0  0  0  0  0  0  0  0  0  0  0  0
    4.7820   -5.6420    1.0550 C   0  0  0  0  0  3  0  0  0  0  0  0
    4.7020   -6.7920    0.2440 C   0  0  0  0  0  3  0  0  0  0  0  0
    4.3870   -8.1020    0.7370 C   0  0  0  0  0  3  0  0  0  0  0  0
    4.1060   -8.4820    2.0160 N   0  0  0  0  0  0  0  0  0  0  0  0
    4.1960   -7.4680    2.8650 C   0  0  0  0  0  0  0  0  0  0  0  0
    3.5200   -7.6740    4.5690 N   0  0  0  0  0  4  0  0  0  0  0  0
    3.6520   -6.3900    5.8530 C   0  0  0  0  0  0  0  0  0  0  0  0
    3.1880   -6.4370    6.9910 O   0  0  0  0  0  0  0  0  0  0  0  0
    4.8520   -3.2610    3.1630 O   0  0  0  0  0  0  0  0  0  0  0  0
    5.1700   -3.3660    2.2450 H   0  0  0  0  0  0  0  0  0  0  0  0
    2.2360   -7.3850    4.2700 C   0  0  0  0  0  2  0  0  0  0  0  0
    2.3180   -8.7320    4.9440 C   0  0  0  0  0  2  0  0  0  0  0  0
    0.7520   -9.0570    6.4260 C   0  0  0  0  0  2  0  0  0  0  0  0
    0.7540   -8.8520    8.1170 C   0  0  0  0  0  1  0  0  0  0  0  0
   -0.9340   -8.6920    6.3230 C   0  0  0  0  0  1  0  0  0  0  0  0
    5.3280    1.0280   10.4250 N   0  0  0  0  0  0  0  0  0  0  0  0
    6.0330    1.7420   10.2240 H   0  0  0  0  0  0  0  0  0  0  0  0
    5.2520    0.8530   12.0920 S   0  0  0  0  0  0  0  0  0  0  0  0
    5.6720    2.1220   12.6370 O   0  0  0  0  0  0  0  0  0  0  0  0
    5.9280   -0.3660   12.4640 O   0  0  0  0  0  0  0  0  0  0  0  0
    3.5960    0.7360   12.3850 N   0  0  0  0  0  0  0  0  0  0  0  0
    3.3710    1.4350   13.0980 H   0  0  0  0  0  0  0  0  0  0  0  0
    1.8990   -3.0390   13.2570 C   0  0  0  0  0  0  0  0  0  0  0  0
    2.4130   -2.2470   14.2940 C   0  0  0  0  0  3  0  0  0  0  0  0
    2.9740   -0.9980   14.0170 C   0  0  0  0  0  3  0  0  0  0  0  0
    3.0470   -0.5430   12.7010 C   0  0  0  0  0  0  0  0  0  0  0  0
    2.4960   -1.3030   11.6690 C   0  0  0  0  0  3  0  0  0  0  0  0
    1.9310   -2.5530   11.9430 C   0  0  0  0  0  3  0  0  0  0  0  0
    1.3340   -4.3690   13.6110 C   0  0  0  0  0  0  0  0  0  0  0  0
    0.3330   -4.5130   14.2930 O   0  0  0  0  0  0  0  0  0  0  0  0
    1.4570   -6.6420   13.1150 C   0  0  0  0  0  1  0  0  0  0  0  0
    2.1060   -5.3670   13.1090 O   0  0  0  0  0  0  0  0  0  0  0  0
  1 33  1  0  0  0  0
  2  1  1  0  0  0  0
  3  2  2  0  0  0  0
  4  5  2  0  0  0  0
  4  3  1  0  0  0  0
  5  6  1  0  0  0  0
  6  1  2  0  0  0  0
  7  5  1  0  0  0  0
  7  8  2  0  0  0  0
  9  7  2  0  0  0  0
 10  7  1  0  0  0  0
 11 15  1  1  0  0  0
 11 10  1  0  0  0  0
 11 12  1  0  0  0  0
 12  4  1  0  0  0  0
 13 10  1  0  0  0  0
 14 12  1  0  0  0  0
 15 24  1  0  0  0  0
 16 15  2  0  0  0  0
 17 22  1  0  0  0  0
 17 16  1  0  0  0  0
 18 17  2  0  0  0  0
 19 20  2  0  0  0  0
 19 18  1  0  0  0  0
 20 21  1  0  0  0  0
 21 22  2  0  0  0  0
 22 23  1  0  0  0  0
 23 29  1  0  0  0  0
 23 24  1  0  0  0  0
 24 25  2  0  0  0  0
 26 16  1  0  0  0  0
 27 26  1  0  0  0  0
 28 23  1  0  0  0  0
 28 29  1  0  0  0  0
 30 31  1  0  0  0  0
 32 30  1  0  0  0  0
 33 35  1  0  0  0  0
 34 33  1  0  0  0  0
 35 38  1  0  0  0  0
 35 37  2  0  0  0  0
 35 36  2  0  0  0  0
 38 43  1  0  0  0  0
 38 39  1  0  0  0  0
 40 46  1  0  0  0  0
 40 41  1  0  0  0  0
 42 41  2  0  0  0  0
 43 42  1  0  0  0  0
 44 45  1  0  0  0  0
 44 43  2  0  0  0  0
 45 40  2  0  0  0  0
 46 47  2  0  0  0  0
 49 48  1  0  0  0  0
 49 46  1  0  0  0  0
M  END
>  <minimizedAffinity>
-8.71208477

$$$$

 OpenBabel09122222463D

 49 53  0  0  1  0  0  0  0  0999 V2000
    7.4100    0.5130    8.7450 C   0  0  0  0  0  0  0  0  0  0  0  0
    8.2960   -0.0720    7.8420 C   0  0  0  0  0  3  0  0  0  0  0  0
    7.8970   -1.1720    7.0670 C   0  0  0  0  0  3  0  0  0  0  0  0
    6.5890   -1.6650    7.1290 C   0  0  0  0  0  0  0  0  0  0  0  0
    5.7080   -1.0140    7.9720 C   0  0  0  0  0  0  0  0  0  0  0  0
    6.0910    0.0680    8.7720 C   0  0  0  0  0  3  0  0  0  0  0  0
    4.0600   -1.5730    8.0200 S   0  0  0  0  0  0  0  0  0  0  0  0
    3.8580   -2.0880    9.3550 O   0  0  0  0  0  0  0  0  0  0  0  0
    3.2570   -0.4820    7.5160 O   0  0  0  0  0  0  0  0  0  0  0  0
    4.0010   -2.7820    6.9860 N   0  0  0  0  0  0  0  0  0  0  0  0
    5.0280   -3.2320    6.3170 C   0  0  1  0  0  3  0  0  0  0  0  0
    6.2560   -2.7380    6.3660 N   0  0  0  0  0  0  0  0  0  0  0  0
    3.1060   -3.2390    6.8660 H   0  0  0  0  0  0  0  0  0  0  0  0
    6.9960   -3.1860    5.8050 H   0  0  0  0  0  0  0  0  0  0  0  0
    4.7680   -4.4220    5.4230 C   0  0  0  0  0  0  0  0  0  0  0  0
    5.0960   -4.4750    3.9710 C   0  0  0  0  0  0  0  0  0  0  0  0
    4.7140   -5.8710    2.8370 C   0  0  0  0  0  0  0  0  0  0  0  0
    4.9310   -5.8380    1.4780 C   0  0  0  0  0  3  0  0  0  0  0  0
    4.5080   -6.9840    0.7750 C   0  0  0  0  0  3  0  0  0  0  0  0
    3.8740   -8.1150    1.3900 C   0  0  0  0  0  3  0  0  0  0  0  0
    3.5570   -8.2990    2.7040 N   0  0  0  0  0  0  0  0  0  0  0  0
    3.9550   -7.2830    3.4570 C   0  0  0  0  0  0  0  0  0  0  0  0
    3.3250   -7.1580    5.1860 N   0  0  0  0  0  4  0  0  0  0  0  0
    3.8540   -5.8600    6.3460 C   0  0  0  0  0  0  0  0  0  0  0  0
    3.4470   -5.6860    7.4930 O   0  0  0  0  0  0  0  0  0  0  0  0
    5.7340   -3.4040    3.3620 O   0  0  0  0  0  0  0  0  0  0  0  0
    5.9710   -3.6650    2.4500 H   0  0  0  0  0  0  0  0  0  0  0  0
    2.1540   -6.5550    4.8880 C   0  0  0  0  0  2  0  0  0  0  0  0
    1.8960   -7.8520    5.6150 C   0  0  0  0  0  2  0  0  0  0  0  0
    0.2290   -7.7440    7.0150 C   0  0  0  0  0  2  0  0  0  0  0  0
    0.1400   -7.1370    8.6040 C   0  0  0  0  0  1  0  0  0  0  0  0
   -1.4250   -7.3470    6.7070 C   0  0  0  0  0  1  0  0  0  0  0  0
    7.6900    1.6710    9.5200 N   0  0  0  0  0  0  0  0  0  0  0  0
    8.0310    2.4640    8.9700 H   0  0  0  0  0  0  0  0  0  0  0  0
    8.5750    1.6280   10.9450 S   0  0  0  0  0  0  0  0  0  0  0  0
    9.5460    2.6900   10.8310 O   0  0  0  0  0  0  0  0  0  0  0  0
    8.9970    0.2710   11.1910 O   0  0  0  0  0  0  0  0  0  0  0  0
    7.4560    2.1310   12.1000 N   0  0  0  0  0  0  0  0  0  0  0  0
    7.9680    2.2490   12.9780 H   0  0  0  0  0  0  0  0  0  0  0  0
    3.9820   -0.2270   12.6160 C   0  0  0  0  0  0  0  0  0  0  0  0
    3.9100    0.9760   11.9000 C   0  0  0  0  0  3  0  0  0  0  0  0
    5.0510    1.7610   11.7220 C   0  0  0  0  0  3  0  0  0  0  0  0
    6.2660    1.3620   12.2780 C   0  0  0  0  0  0  0  0  0  0  0  0
    6.3570    0.1440   12.9530 C   0  0  0  0  0  3  0  0  0  0  0  0
    5.2160   -0.6470   13.1310 C   0  0  0  0  0  3  0  0  0  0  0  0
    2.7290   -1.0100   12.7910 C   0  0  0  0  0  0  0  0  0  0  0  0
    2.5690   -2.1310   12.3370 O   0  0  0  0  0  0  0  0  0  0  0  0
    0.7040   -1.0750   13.9410 C   0  0  0  0  0  1  0  0  0  0  0  0
    1.8050   -0.2880   13.4760 O   0  0  0  0  0  0  0  0  0  0  0  0
  1  6  1  0  0  0  0
  1 33  1  0  0  0  0
  2  1  2  0  0  0  0
  3  4  2  0  0  0  0
  3  2  1  0  0  0  0
  4  5  1  0  0  0  0
  5  7  1  0  0  0  0
  5  6  2  0  0  0  0
  7  8  2  0  0  0  0
  9  7  2  0  0  0  0
 10  7  1  0  0  0  0
 11 15  1  1  0  0  0
 11 12  1  0  0  0  0
 11 10  1  0  0  0  0
 12  4  1  0  0  0  0
 13 10  1  0  0  0  0
 14 12  1  0  0  0  0
 15 24  1  0  0  0  0
 16 15  2  0  0  0  0
 17 22  1  0  0  0  0
 17 16  1  0  0  0  0
 18 17  2  0  0  0  0
 19 20  2  0  0  0  0
 19 18  1  0  0  0  0
 20 21  1  0  0  0  0
 21 22  2  0  0  0  0
 22 23  1  0  0  0  0
 23 29  1  0  0  0  0
 23 24  1  0  0  0  0
 24 25  2  0  0  0  0
 26 16  1  0  0  0  0
 27 26  1  0  0  0  0
 28 23  1  0  0  0  0
 28 29  1  0  0  0  0
 30 31  1  0  0  0  0
 32 30  1  0  0  0  0
 33 35  1  0  0  0  0
 34 33  1  0  0  0  0
 35 37  2  0  0  0  0
 35 38  1  0  0  0  0
 36 35  2  0  0  0  0
 38 43  1  0  0  0  0
 38 39  1  0  0  0  0
 40 46  1  0  0  0  0
 40 45  1  0  0  0  0
 41 40  2  0  0  0  0
 42 41  1  0  0  0  0
 42 43  2  0  0  0  0
 43 44  1  0  0  0  0
 44 45  2  0  0  0  0
 46 49  1  0  0  0  0
 47 46  2  0  0  0  0
 49 48  1  0  0  0  0
M  END
>  <minimizedAffinity>
-8.55539322

$$$$

 OpenBabel09122222463D

 49 53  0  0  1  0  0  0  0  0999 V2000
    5.7420    0.0250    9.2180 C   0  0  0  0  0  0  0  0  0  0  0  0
    6.8450   -0.4890    8.5400 C   0  0  0  0  0  3  0  0  0  0  0  0
    6.6930   -1.5610    7.6450 C   0  0  0  0  0  3  0  0  0  0  0  0
    5.4310   -2.0940    7.3630 C   0  0  0  0  0  0  0  0  0  0  0  0
    4.3450   -1.5120    7.9870 C   0  0  0  0  0  0  0  0  0  0  0  0
    4.4750   -0.4590    8.9010 C   0  0  0  0  0  3  0  0  0  0  0  0
    2.7590   -2.1200    7.6040 S   0  0  0  0  0  0  0  0  0  0  0  0
    2.2570   -2.7060    8.8260 O   0  0  0  0  0  0  0  0  0  0  0  0
    2.0610   -1.0300    6.9620 O   0  0  0  0  0  0  0  0  0  0  0  0
    3.0050   -3.2770    6.5390 N   0  0  0  0  0  0  0  0  0  0  0  0
    4.1820   -3.6640    6.1280 C   0  0  1  0  0  3  0  0  0  0  0  0
    5.3390   -3.1370    6.4980 N   0  0  0  0  0  0  0  0  0  0  0  0
    2.1860   -3.7550    6.1830 H   0  0  0  0  0  0  0  0  0  0  0  0
    6.2120   -3.5350    6.1200 H   0  0  0  0  0  0  0  0  0  0  0  0
    4.1980   -4.8160    5.1490 C   0  0  0  0  0  0  0  0  0  0  0  0
    4.5370   -4.6920    3.7040 C   0  0  0  0  0  0  0  0  0  0  0  0
    4.4810   -6.0550    2.4710 C   0  0  0  0  0  0  0  0  0  0  0  0
    4.6930   -5.8780    1.1220 C   0  0  0  0  0  3  0  0  0  0  0  0
    4.5390   -7.0370    0.3340 C   0  0  0  0  0  3  0  0  0  0  0  0
    4.1680   -8.3200    0.8570 C   0  0  0  0  0  3  0  0  0  0  0  0
    3.8940   -8.6620    2.1490 N   0  0  0  0  0  0  0  0  0  0  0  0
    4.0520   -7.6390    2.9770 C   0  0  0  0  0  0  0  0  0  0  0  0
    3.4000   -7.7800    4.6970 N   0  0  0  0  0  4  0  0  0  0  0  0
    3.6220   -6.4820    5.9530 C   0  0  0  0  0  0  0  0  0  0  0  0
    3.1790   -6.4840    7.1000 O   0  0  0  0  0  0  0  0  0  0  0  0
    4.9240   -3.4660    3.1830 O   0  0  0  0  0  0  0  0  0  0  0  0
    5.2180   -3.6030    2.2600 H   0  0  0  0  0  0  0  0  0  0  0  0
    2.1260   -7.4310    4.4160 C   0  0  0  0  0  2  0  0  0  0  0  0
    2.1550   -8.7800    5.0920 C   0  0  0  0  0  2  0  0  0  0  0  0
    0.5510   -9.0590    6.5420 C   0  0  0  0  0  2  0  0  0  0  0  0
    0.5040   -8.7880    8.2230 C   0  0  0  0  0  1  0  0  0  0  0  0
   -1.1340   -8.7110    6.3780 C   0  0  0  0  0  1  0  0  0  0  0  0
    5.7750    1.1510   10.0840 N   0  0  0  0  0  0  0  0  0  0  0  0
    6.5130    1.8230    9.8600 H   0  0  0  0  0  0  0  0  0  0  0  0
    5.7030    1.0240   11.7560 S   0  0  0  0  0  0  0  0  0  0  0  0
    5.7640   -0.3900   12.0420 O   0  0  0  0  0  0  0  0  0  0  0  0
    4.6030    1.8230   12.2370 O   0  0  0  0  0  0  0  0  0  0  0  0
    7.1790    1.6710   12.2490 N   0  0  0  0  0  0  0  0  0  0  0  0
    7.4620    1.1600   13.0890 H   0  0  0  0  0  0  0  0  0  0  0  0
    7.5560    5.8580   12.7210 C   0  0  0  0  0  0  0  0  0  0  0  0
    7.1700    5.0640   13.8100 C   0  0  0  0  0  3  0  0  0  0  0  0
    7.0450    3.6800   13.6660 C   0  0  0  0  0  3  0  0  0  0  0  0
    7.2800    3.0840   12.4270 C   0  0  0  0  0  0  0  0  0  0  0  0
    7.7080    3.8600   11.3500 C   0  0  0  0  0  3  0  0  0  0  0  0
    7.8380    5.2460   11.4910 C   0  0  0  0  0  3  0  0  0  0  0  0
    7.6510    7.3270   12.9290 C   0  0  0  0  0  0  0  0  0  0  0  0
    6.8980    7.9520   13.6580 O   0  0  0  0  0  0  0  0  0  0  0  0
    9.1770    9.0740   12.7030 C   0  0  0  0  0  1  0  0  0  0  0  0
    8.6470    7.8560   12.1720 O   0  0  0  0  0  0  0  0  0  0  0  0
  1 33  1  0  0  0  0
  2  1  2  0  0  0  0
  3  2  1  0  0  0  0
  4  3  2  0  0  0  0
  4  5  1  0  0  0  0
  5  6  2  0  0  0  0
  6  1  1  0  0  0  0
  7  5  1  0  0  0  0
  7  8  2  0  0  0  0
  9  7  2  0  0  0  0
 10  7  1  0  0  0  0
 11 15  1  1  0  0  0
 11 12  1  0  0  0  0
 11 10  1  0  0  0  0
 12  4  1  0  0  0  0
 13 10  1  0  0  0  0
 14 12  1  0  0  0  0
 15 24  1  0  0  0  0
 16 15  2  0  0  0  0
 17 22  1  0  0  0  0
 17 16  1  0  0  0  0
 18 17  2  0  0  0  0
 19 20  2  0  0  0  0
 19 18  1  0  0  0  0
 20 21  1  0  0  0  0
 21 22  2  0  0  0  0
 22 23  1  0  0  0  0
 23 29  1  0  0  0  0
 23 24  1  0  0  0  0
 24 25  2  0  0  0  0
 26 16  1  0  0  0  0
 27 26  1  0  0  0  0
 28 23  1  0  0  0  0
 28 29  1  0  0  0  0
 30 31  1  0  0  0  0
 32 30  1  0  0  0  0
 33 35  1  0  0  0  0
 34 33  1  0  0  0  0
 35 36  2  0  0  0  0
 35 37  2  0  0  0  0
 35 38  1  0  0  0  0
 38 43  1  0  0  0  0
 38 39  1  0  0  0  0
 40 46  1  0  0  0  0
 40 41  1  0  0  0  0
 42 41  2  0  0  0  0
 43 42  1  0  0  0  0
 44 45  1  0  0  0  0
 44 43  2  0  0  0  0
 45 40  2  0  0  0  0
 46 47  2  0  0  0  0
 49 48  1  0  0  0  0
 49 46  1  0  0  0  0
M  END
>  <minimizedAffinity>
-8.5529604

$$$$

 OpenBabel09122222463D

 49 53  0  0  1  0  0  0  0  0999 V2000
    3.9550   -4.4210    3.9220 C   0  0  0  0  0  0  0  0  0  0  0  0
    3.0290   -3.3930    4.0940 C   0  0  0  0  0  3  0  0  0  0  0  0
    3.1810   -2.4660    5.1380 C   0  0  0  0  0  3  0  0  0  0  0  0
    4.2920   -2.5090    5.9860 C   0  0  0  0  0  0  0  0  0  0  0  0
    5.2360   -3.4880    5.7420 C   0  0  0  0  0  0  0  0  0  0  0  0
    5.0930   -4.4370    4.7230 C   0  0  0  0  0  3  0  0  0  0  0  0
    6.6570   -3.5220    6.7490 S   0  0  0  0  0  0  0  0  0  0  0  0
    6.5870   -4.7620    7.4870 O   0  0  0  0  0  0  0  0  0  0  0  0
    7.7710   -3.2440    5.8710 O   0  0  0  0  0  0  0  0  0  0  0  0
    6.4770   -2.3080    7.7610 N   0  0  0  0  0  0  0  0  0  0  0  0
    5.4330   -1.5260    7.7980 C   0  0  1  0  0  3  0  0  0  0  0  0
    4.3880   -1.5960    6.9870 N   0  0  0  0  0  0  0  0  0  0  0  0
    7.2200   -2.1560    8.4330 H   0  0  0  0  0  0  0  0  0  0  0  0
    3.6090   -0.9350    7.1200 H   0  0  0  0  0  0  0  0  0  0  0  0
    5.4380   -0.4610    8.8710 C   0  0  0  0  0  0  0  0  0  0  0  0
    6.5600    0.4870    9.1140 C   0  0  0  0  0  0  0  0  0  0  0  0
    6.6340    1.7340   10.4650 C   0  0  0  0  0  0  0  0  0  0  0  0
    7.7360    2.5170   10.7260 C   0  0  0  0  0  3  0  0  0  0  0  0
    7.6180    3.3620   11.8480 C   0  0  0  0  0  3  0  0  0  0  0  0
    6.4600    3.4180   12.6930 C   0  0  0  0  0  3  0  0  0  0  0  0
    5.3050    2.6970   12.5990 N   0  0  0  0  0  0  0  0  0  0  0  0
    5.3060    1.8960   11.5430 C   0  0  0  0  0  0  0  0  0  0  0  0
    4.0120    0.5870   11.4200 N   0  0  0  0  0  4  0  0  0  0  0  0
    3.8550   -0.5240    9.9870 C   0  0  0  0  0  0  0  0  0  0  0  0
    3.0510   -1.4440    9.8540 O   0  0  0  0  0  0  0  0  0  0  0  0
    7.6770    0.4700    8.2930 O   0  0  0  0  0  0  0  0  0  0  0  0
    8.2440    1.2310    8.5280 H   0  0  0  0  0  0  0  0  0  0  0  0
    4.6360   -0.3300   12.1890 C   0  0  0  0  0  2  0  0  0  0  0  0
    3.2560   -0.0510   12.7340 C   0  0  0  0  0  2  0  0  0  0  0  0
    2.2240   -1.8390   13.4370 C   0  0  0  0  0  2  0  0  0  0  0  0
    0.6790   -2.0400   14.1230 C   0  0  0  0  0  1  0  0  0  0  0  0
    2.1840   -3.4170   12.7330 C   0  0  0  0  0  1  0  0  0  0  0  0
    3.9330   -5.3610    2.8570 N   0  0  0  0  0  0  0  0  0  0  0  0
    3.1890   -5.1950    2.1740 H   0  0  0  0  0  0  0  0  0  0  0  0
    4.0360   -7.0190    3.0960 S   0  0  0  0  0  0  0  0  0  0  0  0
    5.2210   -7.2240    3.8930 O   0  0  0  0  0  0  0  0  0  0  0  0
    3.8810   -7.6830    1.8250 O   0  0  0  0  0  0  0  0  0  0  0  0
    2.7240   -7.3370    4.1050 N   0  0  0  0  0  0  0  0  0  0  0  0
    2.0280   -6.6090    3.9260 H   0  0  0  0  0  0  0  0  0  0  0  0
    3.3900   -7.9440    8.2380 C   0  0  0  0  0  0  0  0  0  0  0  0
    3.0170   -6.6770    7.7680 C   0  0  0  0  0  3  0  0  0  0  0  0
    2.7920   -6.4660    6.4060 C   0  0  0  0  0  3  0  0  0  0  0  0
    2.9630   -7.5130    5.5010 C   0  0  0  0  0  0  0  0  0  0  0  0
    3.2880   -8.7880    5.9640 C   0  0  0  0  0  3  0  0  0  0  0  0
    3.5110   -9.0040    7.3290 C   0  0  0  0  0  3  0  0  0  0  0  0
    3.6360   -8.1030    9.6960 C   0  0  0  0  0  0  0  0  0  0  0  0
    4.2240   -9.0570   10.1780 O   0  0  0  0  0  0  0  0  0  0  0  0
    3.5250   -7.0080   11.7490 C   0  0  0  0  0  1  0  0  0  0  0  0
    3.0830   -7.0750   10.3910 O   0  0  0  0  0  0  0  0  0  0  0  0
  1  2  2  0  0  0  0
  1  6  1  0  0  0  0
  2  3  1  0  0  0  0
  3  4  2  0  0  0  0
  4 12  1  0  0  0  0
  5  4  1  0  0  0  0
  5  7  1  0  0  0  0
  6  5  2  0  0  0  0
  7  8  2  0  0  0  0
  7 10  1  0  0  0  0
  9  7  2  0  0  0  0
 10 11  1  0  0  0  0
 10 13  1  0  0  0  0
 11 15  1  1  0  0  0
 12 14  1  0  0  0  0
 12 11  1  0  0  0  0
 15 16  2  0  0  0  0
 15 24  1  0  0  0  0
 16 17  1  0  0  0  0
 17 18  2  0  0  0  0
 17 22  1  0  0  0  0
 18 19  1  0  0  0  0
 19 20  2  0  0  0  0
 21 20  1  0  0  0  0
 22 21  2  0  0  0  0
 23 22  1  0  0  0  0
 23 28  1  0  0  0  0
 23 29  1  0  0  0  0
 24 23  1  0  0  0  0
 25 24  2  0  0  0  0
 26 27  1  0  0  0  0
 26 16  1  0  0  0  0
 28 29  1  0  0  0  0
 30 31  1  0  0  0  0
 32 30  1  0  0  0  0
 33 35  1  0  0  0  0
 33  1  1  0  0  0  0
 34 33  1  0  0  0  0
 35 36  2  0  0  0  0
 35 38  1  0  0  0  0
 37 35  2  0  0  0  0
 38 43  1  0  0  0  0
 39 38  1  0  0  0  0
 40 46  1  0  0  0  0
 41 40  1  0  0  0  0
 42 41  2  0  0  0  0
 43 44  2  0  0  0  0
 43 42  1  0  0  0  0
 44 45  1  0  0  0  0
 45 40  2  0  0  0  0
 46 47  2  0  0  0  0
 46 49  1  0  0  0  0
 49 48  1  0  0  0  0
M  END
>  <minimizedAffinity>
-8.25285053

$$$$

 OpenBabel09122222463D

 49 53  0  0  1  0  0  0  0  0999 V2000
    3.3160   -0.5420   10.5970 C   0  0  0  0  0  0  0  0  0  0  0  0
    2.5420   -0.7670    9.4600 C   0  0  0  0  0  3  0  0  0  0  0  0
    3.1300   -1.2670    8.2880 C   0  0  0  0  0  3  0  0  0  0  0  0
    4.4840   -1.6130    8.2480 C   0  0  0  0  0  0  0  0  0  0  0  0
    5.2100   -1.4570    9.4140 C   0  0  0  0  0  0  0  0  0  0  0  0
    4.6510   -0.9380   10.5870 C   0  0  0  0  0  3  0  0  0  0  0  0
    6.8840   -1.9390    9.4040 S   0  0  0  0  0  0  0  0  0  0  0  0
    7.6430   -0.7250    9.5990 O   0  0  0  0  0  0  0  0  0  0  0  0
    6.9850   -3.0360   10.3400 O   0  0  0  0  0  0  0  0  0  0  0  0
    7.1500   -2.4850    7.9330 N   0  0  0  0  0  0  0  0  0  0  0  0
    6.2620   -2.4910    6.9760 C   0  0  1  0  0  3  0  0  0  0  0  0
    5.0070   -2.0840    7.0860 N   0  0  0  0  0  0  0  0  0  0  0  0
    8.0820   -2.8260    7.7320 H   0  0  0  0  0  0  0  0  0  0  0  0
    4.3970   -2.1180    6.2560 H   0  0  0  0  0  0  0  0  0  0  0  0
    6.7340   -3.0070    5.6360 C   0  0  0  0  0  0  0  0  0  0  0  0
    7.8850   -2.4470    4.8730 C   0  0  0  0  0  0  0  0  0  0  0  0
    8.4280   -2.9930    3.2030 C   0  0  0  0  0  0  0  0  0  0  0  0
    9.4260   -2.3770    2.4820 C   0  0  0  0  0  3  0  0  0  0  0  0
    9.6480   -2.9040    1.1940 C   0  0  0  0  0  3  0  0  0  0  0  0
    8.8960   -3.9880    0.6300 C   0  0  0  0  0  3  0  0  0  0  0  0
    7.8650   -4.6860    1.1870 N   0  0  0  0  0  0  0  0  0  0  0  0
    7.6070   -4.2850    2.4240 C   0  0  0  0  0  0  0  0  0  0  0  0
    6.0420   -4.8380    3.2290 N   0  0  0  0  0  4  0  0  0  0  0  0
    5.6080   -4.4250    4.9470 C   0  0  0  0  0  0  0  0  0  0  0  0
    4.5680   -4.7180    5.5350 O   0  0  0  0  0  0  0  0  0  0  0  0
    8.6420   -1.4170    5.4110 O   0  0  0  0  0  0  0  0  0  0  0  0
    9.4130   -1.2660    4.8300 H   0  0  0  0  0  0  0  0  0  0  0  0
    5.2410   -3.8920    2.6930 C   0  0  0  0  0  2  0  0  0  0  0  0
    4.6150   -5.2540    2.5240 C   0  0  0  0  0  2  0  0  0  0  0  0
    4.6340   -5.9670    0.4630 C   0  0  0  0  0  2  0  0  0  0  0  0
    5.8350   -5.8740   -0.7410 C   0  0  0  0  0  1  0  0  0  0  0  0
    4.0200   -7.4490   -0.1800 C   0  0  0  0  0  1  0  0  0  0  0  0
    2.8070   -0.1110   11.8520 N   0  0  0  0  0  0  0  0  0  0  0  0
    3.3150    0.6810   12.2530 H   0  0  0  0  0  0  0  0  0  0  0  0
    2.4470   -1.1650   13.1060 S   0  0  0  0  0  0  0  0  0  0  0  0
    2.1630   -0.3290   14.2480 O   0  0  0  0  0  0  0  0  0  0  0  0
    3.4720   -2.1780   13.1740 O   0  0  0  0  0  0  0  0  0  0  0  0
    0.9740   -1.8310   12.6290 N   0  0  0  0  0  0  0  0  0  0  0  0
    0.2810   -1.5540   13.3290 H   0  0  0  0  0  0  0  0  0  0  0  0
    0.7540   -5.9550   11.7140 C   0  0  0  0  0  0  0  0  0  0  0  0
    0.5660   -5.5210   13.0330 C   0  0  0  0  0  3  0  0  0  0  0  0
    0.6340   -4.1610   13.3460 C   0  0  0  0  0  3  0  0  0  0  0  0
    0.9150   -3.2290   12.3480 C   0  0  0  0  0  0  0  0  0  0  0  0
    1.0580   -3.6470   11.0240 C   0  0  0  0  0  3  0  0  0  0  0  0
    0.9870   -5.0080   10.7060 C   0  0  0  0  0  3  0  0  0  0  0  0
    0.6910   -7.4170   11.4450 C   0  0  0  0  0  0  0  0  0  0  0  0
    0.1990   -7.8930   10.4350 O   0  0  0  0  0  0  0  0  0  0  0  0
    2.3100   -8.9530   12.1120 C   0  0  0  0  0  1  0  0  0  0  0  0
    1.2100   -8.1180   12.4850 O   0  0  0  0  0  0  0  0  0  0  0  0
  1 33  1  0  0  0  0
  2  1  2  0  0  0  0
  3  2  1  0  0  0  0
  4  3  2  0  0  0  0
  4  5  1  0  0  0  0
  5  6  2  0  0  0  0
  6  1  1  0  0  0  0
  7  5  1  0  0  0  0
  7  8  2  0  0  0  0
  7  9  2  0  0  0  0
 10  7  1  0  0  0  0
 11 15  1  6  0  0  0
 11 12  1  0  0  0  0
 11 10  1  0  0  0  0
 12  4  1  0  0  0  0
 13 10  1  0  0  0  0
 14 12  1  0  0  0  0
 16 26  1  0  0  0  0
 16 15  2  0  0  0  0
 17 16  1  0  0  0  0
 18 17  1  0  0  0  0
 19 18  2  0  0  0  0
 20 21  2  0  0  0  0
 20 19  1  0  0  0  0
 21 22  1  0  0  0  0
 22 17  2  0  0  0  0
 22 23  1  0  0  0  0
 23 24  1  0  0  0  0
 24 25  2  0  0  0  0
 24 15  1  0  0  0  0
 27 26  1  0  0  0  0
 28 23  1  0  0  0  0
 29 28  1  0  0  0  0
 29 23  1  0  0  0  0
 31 30  1  0  0  0  0
 32 30  1  0  0  0  0
 33 34  1  0  0  0  0
 33 35  1  0  0  0  0
 35 37  2  0  0  0  0
 35 36  2  0  0  0  0
 38 35  1  0  0  0  0
 38 39  1  0  0  0  0
 40 41  1  0  0  0  0
 41 42  2  0  0  0  0
 43 38  1  0  0  0  0
 43 42  1  0  0  0  0
 44 43  2  0  0  0  0
 45 44  1  0  0  0  0
 45 40  2  0  0  0  0
 46 40  1  0  0  0  0
 46 49  1  0  0  0  0
 47 46  2  0  0  0  0
 48 49  1  0  0  0  0
M  END
>  <minimizedAffinity>
-8.22674847

$$$$

 OpenBabel09122222463D

 49 53  0  0  1  0  0  0  0  0999 V2000
    3.9420   -7.4290    3.6820 C   0  0  0  0  0  0  0  0  0  0  0  0
    4.4550   -6.1330    3.6960 C   0  0  0  0  0  3  0  0  0  0  0  0
    4.3730   -5.3480    4.8570 C   0  0  0  0  0  3  0  0  0  0  0  0
    3.8400   -5.8650    6.0430 C   0  0  0  0  0  0  0  0  0  0  0  0
    3.4140   -7.1790    6.0240 C   0  0  0  0  0  0  0  0  0  0  0  0
    3.4630   -7.9720    4.8710 C   0  0  0  0  0  3  0  0  0  0  0  0
    2.8020   -7.8610    7.5050 S   0  0  0  0  0  0  0  0  0  0  0  0
    1.4060   -8.1410    7.2610 O   0  0  0  0  0  0  0  0  0  0  0  0
    3.7200   -8.9190    7.8630 O   0  0  0  0  0  0  0  0  0  0  0  0
    2.9150   -6.6910    8.5780 N   0  0  0  0  0  0  0  0  0  0  0  0
    3.3400   -5.4860    8.3140 C   0  0  1  0  0  3  0  0  0  0  0  0
    3.7740   -5.0620    7.1360 N   0  0  0  0  0  0  0  0  0  0  0  0
    2.6100   -6.9020    9.5200 H   0  0  0  0  0  0  0  0  0  0  0  0
    4.0720   -4.0800    7.0390 H   0  0  0  0  0  0  0  0  0  0  0  0
    3.3220   -4.5070    9.4660 C   0  0  0  0  0  0  0  0  0  0  0  0
    2.1520   -4.2770   10.3590 C   0  0  0  0  0  0  0  0  0  0  0  0
    2.0670   -3.0330   11.7110 C   0  0  0  0  0  0  0  0  0  0  0  0
    0.9300   -2.7720   12.4430 C   0  0  0  0  0  3  0  0  0  0  0  0
    1.0510   -1.7350   13.3890 C   0  0  0  0  0  3  0  0  0  0  0  0
    2.2470   -0.9690   13.5910 C   0  0  0  0  0  3  0  0  0  0  0  0
    3.4420   -1.0720   12.9400 N   0  0  0  0  0  0  0  0  0  0  0  0
    3.4370   -2.0550   12.0510 C   0  0  0  0  0  0  0  0  0  0  0  0
    4.8100   -2.1460   10.8220 N   0  0  0  0  0  4  0  0  0  0  0  0
    4.9640   -3.4880    9.6020 C   0  0  0  0  0  0  0  0  0  0  0  0
    5.8200   -3.5930    8.7260 O   0  0  0  0  0  0  0  0  0  0  0  0
    0.9960   -5.0260   10.1990 O   0  0  0  0  0  0  0  0  0  0  0  0
    0.3920   -4.8210   10.9390 H   0  0  0  0  0  0  0  0  0  0  0  0
    4.2930   -1.2670    9.9380 C   0  0  0  0  0  2  0  0  0  0  0  0
    5.5430   -0.6970   10.5630 C   0  0  0  0  0  2  0  0  0  0  0  0
    7.0920   -0.2030    9.1100 C   0  0  0  0  0  2  0  0  0  0  0  0
    7.3810   -0.7930    7.5400 C   0  0  0  0  0  1  0  0  0  0  0  0
    7.7590    1.3420    8.7170 C   0  0  0  0  0  1  0  0  0  0  0  0
    4.0410   -8.3270    2.5850 N   0  0  0  0  0  0  0  0  0  0  0  0
    4.8880   -8.9000    2.5950 H   0  0  0  0  0  0  0  0  0  0  0  0
    3.7640   -7.8670    0.9960 S   0  0  0  0  0  0  0  0  0  0  0  0
    3.6530   -6.4280    1.0210 O   0  0  0  0  0  0  0  0  0  0  0  0
    2.7000   -8.6760    0.4540 O   0  0  0  0  0  0  0  0  0  0  0  0
    5.2300   -8.2160    0.2400 N   0  0  0  0  0  0  0  0  0  0  0  0
    5.6090   -9.0480    0.6990 H   0  0  0  0  0  0  0  0  0  0  0  0
    8.1120   -5.1290    0.0050 C   0  0  0  0  0  0  0  0  0  0  0  0
    7.1650   -5.2800   -1.0170 C   0  0  0  0  0  3  0  0  0  0  0  0
    6.2070   -6.2940   -0.9480 C   0  0  0  0  0  3  0  0  0  0  0  0
    6.2050   -7.1790    0.1290 C   0  0  0  0  0  0  0  0  0  0  0  0
    7.1140   -7.0080    1.1740 C   0  0  0  0  0  3  0  0  0  0  0  0
    8.0730   -5.9910    1.1100 C   0  0  0  0  0  3  0  0  0  0  0  0
    9.1200   -4.0440   -0.1330 C   0  0  0  0  0  0  0  0  0  0  0  0
    9.6440   -3.7460   -1.1950 O   0  0  0  0  0  0  0  0  0  0  0  0
    9.1590   -2.0730    1.1080 C   0  0  0  0  0  1  0  0  0  0  0  0
    9.3920   -3.4840    1.0730 O   0  0  0  0  0  0  0  0  0  0  0  0
  1  2  2  0  0  0  0
  1  6  1  0  0  0  0
  2  3  1  0  0  0  0
  3  4  2  0  0  0  0
  4 12  1  0  0  0  0
  5  4  1  0  0  0  0
  5  7  1  0  0  0  0
  6  5  2  0  0  0  0
  7  9  2  0  0  0  0
  7 10  1  0  0  0  0
  8  7  2  0  0  0  0
 10 13  1  0  0  0  0
 11 10  1  0  0  0  0
 11 15  1  6  0  0  0
 12 11  1  0  0  0  0
 14 12  1  0  0  0  0
 15 24  1  0  0  0  0
 15 16  2  0  0  0  0
 16 17  1  0  0  0  0
 17 22  2  0  0  0  0
 17 18  1  0  0  0  0
 18 19  2  0  0  0  0
 19 20  1  0  0  0  0
 21 20  2  0  0  0  0
 22 21  1  0  0  0  0
 23 22  1  0  0  0  0
 24 23  1  0  0  0  0
 25 24  2  0  0  0  0
 26 16  1  0  0  0  0
 26 27  1  0  0  0  0
 28 29  1  0  0  0  0
 28 23  1  0  0  0  0
 29 23  1  0  0  0  0
 31 30  1  0  0  0  0
 32 30  1  0  0  0  0
 33 34  1  0  0  0  0
 33  1  1  0  0  0  0
 35 36  2  0  0  0  0
 35 33  1  0  0  0  0
 37 35  2  0  0  0  0
 38 39  1  0  0  0  0
 38 35  1  0  0  0  0
 40 45  1  0  0  0  0
 41 42  1  0  0  0  0
 41 40  2  0  0  0  0
 42 43  2  0  0  0  0
 43 38  1  0  0  0  0
 43 44  1  0  0  0  0
 45 44  2  0  0  0  0
 46 40  1  0  0  0  0
 46 49  1  0  0  0  0
 47 46  2  0  0  0  0
 49 48  1  0  0  0  0
M  END
>  <minimizedAffinity>
-8.20631695

$$$$
