
 OpenBabel09132204463D

 49 53  0  0  1  0  0  0  0  0999 V2000
    3.9420   -7.4290    3.6820 C   0  0  0  0  0  0  0  0  0  0  0  0
    4.4550   -6.1330    3.6960 C   0  0  0  0  0  3  0  0  0  0  0  0
    4.3730   -5.3480    4.8570 C   0  0  0  0  0  3  0  0  0  0  0  0
    3.8400   -5.8650    6.0430 C   0  0  0  0  0  0  0  0  0  0  0  0
    3.4140   -7.1790    6.0240 C   0  0  0  0  0  0  0  0  0  0  0  0
    3.4630   -7.9720    4.8710 C   0  0  0  0  0  3  0  0  0  0  0  0
    2.8020   -7.8610    7.5050 S   0  0  0  0  0  0  0  0  0  0  0  0
    1.4060   -8.1410    7.2610 O   0  0  0  0  0  0  0  0  0  0  0  0
    3.7200   -8.9190    7.8630 O   0  0  0  0  0  0  0  0  0  0  0  0
    2.9150   -6.6910    8.5780 N   0  0  0  0  0  0  0  0  0  0  0  0
    3.3400   -5.4860    8.3140 C   0  0  1  0  0  3  0  0  0  0  0  0
    3.7740   -5.0620    7.1360 N   0  0  0  0  0  0  0  0  0  0  0  0
    2.6100   -6.9020    9.5200 H   0  0  0  0  0  0  0  0  0  0  0  0
    4.0720   -4.0800    7.0390 H   0  0  0  0  0  0  0  0  0  0  0  0
    3.3220   -4.5070    9.4660 C   0  0  0  0  0  0  0  0  0  0  0  0
    2.1520   -4.2770   10.3590 C   0  0  0  0  0  0  0  0  0  0  0  0
    2.0670   -3.0330   11.7110 C   0  0  0  0  0  0  0  0  0  0  0  0
    0.9300   -2.7720   12.4430 C   0  0  0  0  0  3  0  0  0  0  0  0
    1.0510   -1.7350   13.3890 C   0  0  0  0  0  3  0  0  0  0  0  0
    2.2470   -0.9690   13.5910 C   0  0  0  0  0  3  0  0  0  0  0  0
    3.4420   -1.0720   12.9400 N   0  0  0  0  0  0  0  0  0  0  0  0
    3.4370   -2.0550   12.0510 C   0  0  0  0  0  0  0  0  0  0  0  0
    4.8100   -2.1460   10.8220 N   0  0  0  0  0  4  0  0  0  0  0  0
    4.9640   -3.4880    9.6020 C   0  0  0  0  0  0  0  0  0  0  0  0
    5.8200   -3.5930    8.7260 O   0  0  0  0  0  0  0  0  0  0  0  0
    0.9960   -5.0260   10.1990 O   0  0  0  0  0  0  0  0  0  0  0  0
    0.3920   -4.8210   10.9390 H   0  0  0  0  0  0  0  0  0  0  0  0
    4.2930   -1.2670    9.9380 C   0  0  0  0  0  2  0  0  0  0  0  0
    5.5430   -0.6970   10.5630 C   0  0  0  0  0  2  0  0  0  0  0  0
    7.0920   -0.2030    9.1100 C   0  0  0  0  0  2  0  0  0  0  0  0
    7.3810   -0.7930    7.5400 C   0  0  0  0  0  1  0  0  0  0  0  0
    7.7590    1.3420    8.7170 C   0  0  0  0  0  1  0  0  0  0  0  0
    4.0410   -8.3270    2.5850 N   0  0  0  0  0  0  0  0  0  0  0  0
    4.8880   -8.9000    2.5950 H   0  0  0  0  0  0  0  0  0  0  0  0
    3.7640   -7.8670    0.9960 S   0  0  0  0  0  0  0  0  0  0  0  0
    3.6530   -6.4280    1.0210 O   0  0  0  0  0  0  0  0  0  0  0  0
    2.7000   -8.6760    0.4540 O   0  0  0  0  0  0  0  0  0  0  0  0
    5.2300   -8.2160    0.2400 N   0  0  0  0  0  0  0  0  0  0  0  0
    5.6090   -9.0480    0.6990 H   0  0  0  0  0  0  0  0  0  0  0  0
    8.1120   -5.1290    0.0050 C   0  0  0  0  0  0  0  0  0  0  0  0
    7.1650   -5.2800   -1.0170 C   0  0  0  0  0  3  0  0  0  0  0  0
    6.2070   -6.2940   -0.9480 C   0  0  0  0  0  3  0  0  0  0  0  0
    6.2050   -7.1790    0.1290 C   0  0  0  0  0  0  0  0  0  0  0  0
    7.1140   -7.0080    1.1740 C   0  0  0  0  0  3  0  0  0  0  0  0
    8.0730   -5.9910    1.1100 C   0  0  0  0  0  3  0  0  0  0  0  0
    9.1200   -4.0440   -0.1330 C   0  0  0  0  0  0  0  0  0  0  0  0
    9.6440   -3.7460   -1.1950 O   0  0  0  0  0  0  0  0  0  0  0  0
    9.1590   -2.0730    1.1080 C   0  0  0  0  0  1  0  0  0  0  0  0
    9.3920   -3.4840    1.0730 O   0  0  0  0  0  0  0  0  0  0  0  0
  1  2  2  0  0  0  0
  1  6  1  0  0  0  0
  2  3  1  0  0  0  0
  3  4  2  0  0  0  0
  4 12  1  0  0  0  0
  5  4  1  0  0  0  0
  5  7  1  0  0  0  0
  6  5  2  0  0  0  0
  7  9  2  0  0  0  0
  7 10  1  0  0  0  0
  8  7  2  0  0  0  0
 10 13  1  0  0  0  0
 11 10  1  0  0  0  0
 11 15  1  6  0  0  0
 12 11  1  0  0  0  0
 14 12  1  0  0  0  0
 15 24  1  0  0  0  0
 15 16  2  0  0  0  0
 16 17  1  0  0  0  0
 17 22  2  0  0  0  0
 17 18  1  0  0  0  0
 18 19  2  0  0  0  0
 19 20  1  0  0  0  0
 21 20  2  0  0  0  0
 22 21  1  0  0  0  0
 23 22  1  0  0  0  0
 24 23  1  0  0  0  0
 25 24  2  0  0  0  0
 26 16  1  0  0  0  0
 26 27  1  0  0  0  0
 28 29  1  0  0  0  0
 28 23  1  0  0  0  0
 29 23  1  0  0  0  0
 31 30  1  0  0  0  0
 32 30  1  0  0  0  0
 33 34  1  0  0  0  0
 33  1  1  0  0  0  0
 35 36  2  0  0  0  0
 35 33  1  0  0  0  0
 37 35  2  0  0  0  0
 38 39  1  0  0  0  0
 38 35  1  0  0  0  0
 40 45  1  0  0  0  0
 41 42  1  0  0  0  0
 41 40  2  0  0  0  0
 42 43  2  0  0  0  0
 43 38  1  0  0  0  0
 43 44  1  0  0  0  0
 45 44  2  0  0  0  0
 46 40  1  0  0  0  0
 46 49  1  0  0  0  0
 47 46  2  0  0  0  0
 49 48  1  0  0  0  0
M  END
>  <minimizedAffinity>
-8.20631695

$$$$
