REMARK  Name = 
REMARK  7 active torsions:
REMARK  status: ('A' for Active; 'I' for Inactive)
REMARK    1  A    between atoms: C_2  and  C_4
REMARK    2  A    between atoms: C_4  and  C_5
REMARK    3  A    between atoms: C_4  and  N_12
REMARK    4  A    between atoms: C_5  and  C_6
REMARK    5  A    between atoms: N_12  and  C_13
REMARK    6  A    between atoms: C_13  and  C_14
REMARK    7  A    between atoms: C_21  and  C_23
REMARK                            x       y       z     vdW  Elec       q    Type
REMARK                         _______ _______ _______ _____ _____    ______ ____
ROOT
ATOM      1  N   UNL     1       2.334   2.671  -0.910  0.00  0.00    -0.285 N 
ATOM      2  C   UNL     1       0.986   3.051  -0.856  0.00  0.00    +0.249 C 
ATOM      3  O   UNL     1       0.015   2.321  -1.026  0.00  0.00    -0.270 OA
ENDROOT
BRANCH   2   4
ATOM      4  C   UNL     1       0.656   4.438  -0.499  0.00  0.00    +0.055 A 
ATOM      5  C   UNL     1       0.615   4.761   0.866  0.00  0.00    +0.016 A 
ATOM      6  C   UNL     1       0.290   6.058   1.262  0.00  0.00    +0.021 A 
ATOM      7  C   UNL     1      -0.011   7.016   0.295  0.00  0.00    +0.042 A 
ATOM      8 CL   UNL     1      -0.400   8.622   0.780  0.00  0.00    -0.083 Cl
ATOM      9  C   UNL     1      -0.007   6.689  -1.062  0.00  0.00    +0.040 A 
ATOM     10  C   UNL     1       0.316   5.390  -1.464  0.00  0.00    +0.054 A 
ATOM     11 CL   UNL     1       0.290   5.038  -3.154  0.00  0.00    -0.083 Cl
ENDBRANCH   2   4
BRANCH   1  12
ATOM     12  C   UNL     1       2.629   1.201  -0.870  0.00  0.00    +0.127 C 
BRANCH  12  14
ATOM     13  O   UNL     1       2.067  -0.777   0.382  0.00  0.00    -0.548 OA
ATOM     14  C   UNL     1       2.182   0.481   0.446  0.00  0.00    +0.062 C 
ATOM     15  O   UNL     1       2.133   1.232   1.473  0.00  0.00    -0.548 OA
ENDBRANCH  12  14
BRANCH  12  16
ATOM     16  C   UNL     1       2.487   0.468  -2.219  0.00  0.00    +0.063 C 
BRANCH  16  17
ATOM     17  C   UNL     1       1.138   0.335  -2.879  0.00  0.00    -0.045 A 
ATOM     18  C   UNL     1       0.785   1.154  -3.962  0.00  0.00    +0.004 A 
ATOM     19  C   UNL     1      -0.455   1.010  -4.587  0.00  0.00    +0.000 A 
ATOM     20  C   UNL     1      -1.355   0.045  -4.139  0.00  0.00    +0.000 A 
ATOM     21  C   UNL     1      -1.016  -0.773  -3.063  0.00  0.00    +0.000 A 
ATOM     22  C   UNL     1       0.223  -0.629  -2.437  0.00  0.00    +0.004 A 
ENDBRANCH  16  17
ENDBRANCH  12  16
ENDBRANCH   1  12
BRANCH   1  23
ATOM     23  C   UNL     1       3.425   3.558  -0.490  0.00  0.00    +0.144 C 
BRANCH  23  24
ATOM     24  C   UNL     1       3.710   4.678  -1.466  0.00  0.00    -0.029 A 
ATOM     25  C   UNL     1       3.917   4.409  -2.827  0.00  0.00    +0.005 A 
ATOM     26  C   UNL     1       4.184   5.445  -3.724  0.00  0.00    +0.001 A 
ATOM     27  C   UNL     1       4.252   6.761  -3.270  0.00  0.00    +0.015 A 
ATOM     28  C   UNL     1       4.061   7.034  -1.918  0.00  0.00    +0.018 A 
ATOM     29 BR   UNL     1       4.137   8.820  -1.301  0.00  0.00    -0.050 Br
ATOM     30  C   UNL     1       3.804   6.004  -1.015  0.00  0.00    +0.020 A 
ENDBRANCH  23  24
ENDBRANCH   1  23
TORSDOF 7
