
 OpenBabel09122222393D

 30 32  0  0  1  0  0  0  0  0999 V2000
    2.4900    4.9160   -5.3550 N   0  0  0  0  0  0  0  0  0  0  0  0
    1.8330    4.1290   -4.3980 C   0  0  0  0  0  0  0  0  0  0  0  0
    1.7900    4.3340   -3.1900 O   0  0  0  0  0  0  0  0  0  0  0  0
    1.0500    2.9710   -4.8520 C   0  0  0  0  0  0  0  0  0  0  0  0
    1.2470    2.5360   -6.1720 C   0  0  0  0  0  3  0  0  0  0  0  0
    0.5170    1.4520   -6.6600 C   0  0  0  0  0  3  0  0  0  0  0  0
   -0.4170    0.8260   -5.8370 C   0  0  0  0  0  0  0  0  0  0  0  0
   -1.3100   -0.5200   -6.4330 Cl  0  0  0  0  0  0  0  0  0  0  0  0
   -0.6420    1.2800   -4.5360 C   0  0  0  0  0  3  0  0  0  0  0  0
    0.0850    2.3660   -4.0420 C   0  0  0  0  0  0  0  0  0  0  0  0
   -0.2460    2.8940   -2.4320 Cl  0  0  0  0  0  0  0  0  0  0  0  0
    2.9260    6.2850   -4.9260 C   0  0  1  0  0  3  0  0  0  0  0  0
    1.5880    8.2440   -5.3340 O   0  0  0  0  0  0  0  0  0  0  0  0
    1.7570    7.2580   -4.5600 C   0  0  0  0  0  0  0  0  0  0  0  0
    1.0110    6.8600   -3.6080 O   0  0  0  0  0  1  0  0  0  0  0  0
    4.2320    6.3300   -4.1070 C   0  0  0  0  0  2  0  0  0  0  0  0
    5.4790    6.9460   -4.6890 C   0  0  0  0  0  0  0  0  0  0  0  0
    5.4460    8.2250   -5.2650 C   0  0  0  0  0  3  0  0  0  0  0  0
    6.6090    8.8020   -5.7790 C   0  0  0  0  0  3  0  0  0  0  0  0
    7.8170    8.1100   -5.7210 C   0  0  0  0  0  3  0  0  0  0  0  0
    7.8610    6.8380   -5.1530 C   0  0  0  0  0  3  0  0  0  0  0  0
    6.6990    6.2600   -4.6400 C   0  0  0  0  0  3  0  0  0  0  0  0
    2.3170    4.7170   -6.7980 C   0  0  0  0  0  2  0  0  0  0  0  0
    1.2080    5.5520   -7.4000 C   0  0  0  0  0  0  0  0  0  0  0  0
    1.4990    6.7130   -8.1320 C   0  0  0  0  0  3  0  0  0  0  0  0
    0.4730    7.4830   -8.6810 C   0  0  0  0  0  3  0  0  0  0  0  0
   -0.8570    7.1040   -8.5020 C   0  0  0  0  0  3  0  0  0  0  0  0
   -1.1540    5.9600   -7.7650 C   0  0  0  0  0  0  0  0  0  0  0  0
   -2.9550    5.4350   -7.5320 Br  0  0  0  0  0  0  0  0  0  0  0  0
   -0.1350    5.1920   -7.2040 C   0  0  0  0  0  3  0  0  0  0  0  0
  1 12  1  0  0  0  0
  1  2  1  0  0  0  0
  2  3  2  0  0  0  0
  4  2  1  0  0  0  0
  4 10  1  0  0  0  0
  5  4  2  0  0  0  0
  6  5  1  0  0  0  0
  6  7  2  0  0  0  0
  7  9  1  0  0  0  0
  8  7  1  0  0  0  0
  9 10  2  0  0  0  0
 10 11  1  0  0  0  0
 12 14  1  0  0  0  0
 12 16  1  1  0  0  0
 13 14  2  0  0  0  0
 14 15  1  0  0  0  0
 17 22  1  0  0  0  0
 17 16  1  0  0  0  0
 18 17  2  0  0  0  0
 19 20  2  0  0  0  0
 19 18  1  0  0  0  0
 20 21  1  0  0  0  0
 21 22  2  0  0  0  0
 23  1  1  0  0  0  0
 24 30  1  0  0  0  0
 24 23  1  0  0  0  0
 25 24  2  0  0  0  0
 26 27  2  0  0  0  0
 26 25  1  0  0  0  0
 27 28  1  0  0  0  0
 28 29  1  0  0  0  0
 28 30  2  0  0  0  0
M  END
>  <minimizedAffinity>
77.0837021

$$$$
