
 OpenBabel09122222393D

 30 32  0  0  1  0  0  0  0  0999 V2000
   -0.8450    1.9440   -3.7460 N   0  0  0  0  0  0  0  0  0  0  0  0
   -1.4240    1.4020   -4.9020 C   0  0  0  0  0  0  0  0  0  0  0  0
   -1.1200    1.6620   -6.0610 O   0  0  0  0  0  0  0  0  0  0  0  0
   -2.4580    0.3680   -4.7560 C   0  0  0  0  0  0  0  0  0  0  0  0
   -2.0260   -0.9530   -4.5550 C   0  0  0  0  0  3  0  0  0  0  0  0
   -2.9640   -1.9770   -4.4280 C   0  0  0  0  0  3  0  0  0  0  0  0
   -4.3230   -1.6790   -4.5230 C   0  0  0  0  0  0  0  0  0  0  0  0
   -5.4840   -2.9390   -4.3530 Cl  0  0  0  0  0  0  0  0  0  0  0  0
   -4.7550   -0.3730   -4.7590 C   0  0  0  0  0  3  0  0  0  0  0  0
   -3.8190    0.6570   -4.8890 C   0  0  0  0  0  0  0  0  0  0  0  0
   -4.4080    2.2500   -5.1960 Cl  0  0  0  0  0  0  0  0  0  0  0  0
    0.4560    2.6710   -3.9140 C   0  0  1  0  0  3  0  0  0  0  0  0
    2.0120    3.1210   -2.1330 O   0  0  0  0  0  1  0  0  0  0  0  0
    0.9180    3.4800   -2.6560 C   0  0  0  0  0  0  0  0  0  0  0  0
    0.2130    4.5080   -2.3960 O   0  0  0  0  0  0  0  0  0  0  0  0
    1.5080    1.9420   -4.7720 C   0  0  0  0  0  2  0  0  0  0  0  0
    2.0280    2.5680   -6.0420 C   0  0  0  0  0  0  0  0  0  0  0  0
    2.7700    1.8140   -6.9630 C   0  0  0  0  0  3  0  0  0  0  0  0
    3.2270    2.3910   -8.1490 C   0  0  0  0  0  3  0  0  0  0  0  0
    2.9450    3.7260   -8.4300 C   0  0  0  0  0  3  0  0  0  0  0  0
    2.2100    4.4860   -7.5220 C   0  0  0  0  0  3  0  0  0  0  0  0
    1.7540    3.9100   -6.3350 C   0  0  0  0  0  3  0  0  0  0  0  0
   -1.1230    1.4250   -2.4020 C   0  0  0  0  0  2  0  0  0  0  0  0
   -2.0200    2.3210   -1.5760 C   0  0  0  0  0  0  0  0  0  0  0  0
   -2.0060    3.7120   -1.7560 C   0  0  0  0  0  3  0  0  0  0  0  0
   -2.8320    4.5370   -0.9900 C   0  0  0  0  0  3  0  0  0  0  0  0
   -3.6770    3.9800   -0.0310 C   0  0  0  0  0  3  0  0  0  0  0  0
   -3.6860    2.6010    0.1630 C   0  0  0  0  0  0  0  0  0  0  0  0
   -4.8420    1.8420    1.4520 Br  0  0  0  0  0  0  0  0  0  0  0  0
   -2.8570    1.7730   -0.5920 C   0  0  0  0  0  3  0  0  0  0  0  0
  1 23  1  0  0  0  0
  2  4  1  0  0  0  0
  2  1  1  0  0  0  0
  3  2  2  0  0  0  0
  4  5  1  0  0  0  0
  5  6  2  0  0  0  0
  7  6  1  0  0  0  0
  7  8  1  0  0  0  0
  9  7  2  0  0  0  0
 10  9  1  0  0  0  0
 10  4  2  0  0  0  0
 11 10  1  0  0  0  0
 12 16  1  1  0  0  0
 12  1  1  0  0  0  0
 12 14  1  0  0  0  0
 14 15  2  0  0  0  0
 14 13  1  0  0  0  0
 17 16  1  0  0  0  0
 18 17  2  0  0  0  0
 19 18  1  0  0  0  0
 20 19  2  0  0  0  0
 20 21  1  0  0  0  0
 21 22  2  0  0  0  0
 22 17  1  0  0  0  0
 23 24  1  0  0  0  0
 24 30  1  0  0  0  0
 25 24  2  0  0  0  0
 25 26  1  0  0  0  0
 26 27  2  0  0  0  0
 27 28  1  0  0  0  0
 28 29  1  0  0  0  0
 30 28  2  0  0  0  0
M  END
>  <minimizedAffinity>
76.9781265

$$$$
