
 OpenBabel09122222143D

 30 32  0  0  1  0  0  0  0  0999 V2000
   -1.3340    1.5130   -4.8530 N   0  0  0  0  0  0  0  0  0  0  0  0
   -0.0070    1.7550   -4.4710 C   0  0  0  0  0  0  0  0  0  0  0  0
    0.4680    1.6070   -3.3500 O   0  0  0  0  0  0  0  0  0  0  0  0
    0.9600    2.1670   -5.4980 C   0  0  0  0  0  0  0  0  0  0  0  0
    1.3210    1.2150   -6.4640 C   0  0  0  0  0  3  0  0  0  0  0  0
    2.2480    1.5470   -7.4510 C   0  0  0  0  0  3  0  0  0  0  0  0
    2.8220    2.8170   -7.4560 C   0  0  0  0  0  0  0  0  0  0  0  0
    3.9580    3.2340   -8.6820 Cl  0  0  0  0  0  0  0  0  0  0  0  0
    2.4930    3.7540   -6.4750 C   0  0  0  0  0  3  0  0  0  0  0  0
    1.5660    3.4260   -5.4820 C   0  0  0  0  0  0  0  0  0  0  0  0
    1.2090    4.6190   -4.2860 Cl  0  0  0  0  0  0  0  0  0  0  0  0
   -2.1810    0.7200   -3.9030 C   0  0  1  0  0  3  0  0  0  0  0  0
   -3.8580   -0.9100   -4.4740 O   0  0  0  0  0  1  0  0  0  0  0  0
   -2.6130   -0.6880   -4.4330 C   0  0  0  0  0  0  0  0  0  0  0  0
   -1.6640   -1.3930   -4.9060 O   0  0  0  0  0  0  0  0  0  0  0  0
   -1.8280    0.8910   -2.4120 C   0  0  0  0  0  2  0  0  0  0  0  0
   -2.2700    2.1190   -1.6570 C   0  0  0  0  0  0  0  0  0  0  0  0
   -3.1040    2.0110   -0.5340 C   0  0  0  0  0  3  0  0  0  0  0  0
   -3.4890    3.1490    0.1770 C   0  0  0  0  0  3  0  0  0  0  0  0
   -3.0440    4.4070   -0.2240 C   0  0  0  0  0  3  0  0  0  0  0  0
   -2.2160    4.5270   -1.3380 C   0  0  0  0  0  3  0  0  0  0  0  0
   -1.8310    3.3900   -2.0510 C   0  0  0  0  0  3  0  0  0  0  0  0
   -1.7690    1.5160   -6.2540 C   0  0  0  0  0  2  0  0  0  0  0  0
   -2.4430    2.8010   -6.6800 C   0  0  0  0  0  0  0  0  0  0  0  0
   -3.8010    3.0240   -6.4070 C   0  0  0  0  0  3  0  0  0  0  0  0
   -4.4210    4.2100   -6.8060 C   0  0  0  0  0  3  0  0  0  0  0  0
   -3.6930    5.1840   -7.4860 C   0  0  0  0  0  3  0  0  0  0  0  0
   -2.3480    4.9640   -7.7720 C   0  0  0  0  0  0  0  0  0  0  0  0
   -1.3520    6.2900   -8.6810 Br  0  0  0  0  0  0  0  0  0  0  0  0
   -1.7240    3.7790   -7.3860 C   0  0  0  0  0  3  0  0  0  0  0  0
  1  2  1  0  0  0  0
  1 12  1  0  0  0  0
  2  3  2  0  0  0  0
  4 10  1  0  0  0  0
  4  2  1  0  0  0  0
  5  4  2  0  0  0  0
  6  5  1  0  0  0  0
  7  6  2  0  0  0  0
  7  9  1  0  0  0  0
  8  7  1  0  0  0  0
  9 10  2  0  0  0  0
 10 11  1  0  0  0  0
 12 16  1  1  0  0  0
 13 14  1  0  0  0  0
 14 12  1  0  0  0  0
 15 14  2  0  0  0  0
 16 17  1  0  0  0  0
 17 18  1  0  0  0  0
 18 19  2  0  0  0  0
 20 19  1  0  0  0  0
 21 20  2  0  0  0  0
 22 17  2  0  0  0  0
 22 21  1  0  0  0  0
 23  1  1  0  0  0  0
 24 25  1  0  0  0  0
 24 23  1  0  0  0  0
 26 25  2  0  0  0  0
 27 26  1  0  0  0  0
 28 27  2  0  0  0  0
 28 30  1  0  0  0  0
 29 28  1  0  0  0  0
 30 24  2  0  0  0  0
M  END
>  <minimizedAffinity>
75.6751022

$$$$

 OpenBabel09122222143D

 30 32  0  0  1  0  0  0  0  0999 V2000
   -1.6530    1.3030   -3.7570 N   0  0  0  0  0  0  0  0  0  0  0  0
   -1.1360    2.0850   -2.7150 C   0  0  0  0  0  0  0  0  0  0  0  0
    0.0060    2.5240   -2.6300 O   0  0  0  0  0  0  0  0  0  0  0  0
   -2.0340    2.4980   -1.6280 C   0  0  0  0  0  0  0  0  0  0  0  0
   -2.8170    1.5020   -1.0230 C   0  0  0  0  0  3  0  0  0  0  0  0
   -3.7000    1.8410    0.0020 C   0  0  0  0  0  3  0  0  0  0  0  0
   -3.8090    3.1720    0.4010 C   0  0  0  0  0  0  0  0  0  0  0  0
   -4.8890    3.5920    1.6760 Cl  0  0  0  0  0  0  0  0  0  0  0  0
   -3.0600    4.1710   -0.2220 C   0  0  0  0  0  3  0  0  0  0  0  0
   -2.1750    3.8370   -1.2520 C   0  0  0  0  0  0  0  0  0  0  0  0
   -1.2850    5.1140   -1.9970 Cl  0  0  0  0  0  0  0  0  0  0  0  0
   -0.8530    1.2420   -5.0240 C   0  0  1  0  0  3  0  0  0  0  0  0
   -1.0890    1.4780   -7.4080 O   0  0  0  0  0  0  0  0  0  0  0  0
   -1.5930    1.7890   -6.2900 C   0  0  0  0  0  0  0  0  0  0  0  0
   -2.7060    2.3590   -6.0510 O   0  0  0  0  0  1  0  0  0  0  0  0
    0.6570    1.5040   -4.8570 C   0  0  0  0  0  2  0  0  0  0  0  0
    1.3970    2.3700   -5.8460 C   0  0  0  0  0  0  0  0  0  0  0  0
    1.0530    3.7190   -6.0150 C   0  0  0  0  0  3  0  0  0  0  0  0
    1.7570    4.5240   -6.9130 C   0  0  0  0  0  3  0  0  0  0  0  0
    2.8140    3.9910   -7.6480 C   0  0  0  0  0  3  0  0  0  0  0  0
    3.1630    2.6520   -7.4890 C   0  0  0  0  0  3  0  0  0  0  0  0
    2.4590    1.8460   -6.5930 C   0  0  0  0  0  3  0  0  0  0  0  0
   -3.0830    0.9960   -3.8830 C   0  0  0  0  0  2  0  0  0  0  0  0
   -3.3640   -0.3900   -4.4210 C   0  0  0  0  0  0  0  0  0  0  0  0
   -4.6600   -0.9240   -4.3870 C   0  0  0  0  0  3  0  0  0  0  0  0
   -4.9140   -2.2050   -4.8810 C   0  0  0  0  0  3  0  0  0  0  0  0
   -3.8750   -2.9680   -5.4090 C   0  0  0  0  0  3  0  0  0  0  0  0
   -2.5830   -2.4490   -5.4340 C   0  0  0  0  0  0  0  0  0  0  0  0
   -1.1730   -3.4760   -6.1640 Br  0  0  0  0  0  0  0  0  0  0  0  0
   -2.3190   -1.1750   -4.9340 C   0  0  0  0  0  3  0  0  0  0  0  0
  1  2  1  0  0  0  0
  2  3  2  0  0  0  0
  2  4  1  0  0  0  0
  4 10  2  0  0  0  0
  4  5  1  0  0  0  0
  5  6  2  0  0  0  0
  6  7  1  0  0  0  0
  7  8  1  0  0  0  0
  9  7  2  0  0  0  0
 10  9  1  0  0  0  0
 11 10  1  0  0  0  0
 12 16  1  1  0  0  0
 12  1  1  0  0  0  0
 13 14  2  0  0  0  0
 14 15  1  0  0  0  0
 14 12  1  0  0  0  0
 17 16  1  0  0  0  0
 18 17  1  0  0  0  0
 19 18  2  0  0  0  0
 20 21  2  0  0  0  0
 20 19  1  0  0  0  0
 21 22  1  0  0  0  0
 22 17  2  0  0  0  0
 23  1  1  0  0  0  0
 24 25  1  0  0  0  0
 24 23  1  0  0  0  0
 26 25  2  0  0  0  0
 27 26  1  0  0  0  0
 28 27  2  0  0  0  0
 28 30  1  0  0  0  0
 29 28  1  0  0  0  0
 30 24  2  0  0  0  0
M  END
>  <minimizedAffinity>
76.2094269

$$$$

 OpenBabel09122222143D

 30 32  0  0  1  0  0  0  0  0999 V2000
    2.3530    4.8050   -5.0070 N   0  0  0  0  0  0  0  0  0  0  0  0
    1.7120    4.2590   -3.8870 C   0  0  0  0  0  0  0  0  0  0  0  0
    1.7710    4.6790   -2.7360 O   0  0  0  0  0  0  0  0  0  0  0  0
    0.8170    3.1090   -4.0740 C   0  0  0  0  0  0  0  0  0  0  0  0
   -0.1350    2.8610   -3.0740 C   0  0  0  0  0  3  0  0  0  0  0  0
   -0.9980    1.7720   -3.1920 C   0  0  0  0  0  3  0  0  0  0  0  0
   -0.8910    0.9280   -4.2970 C   0  0  0  0  0  0  0  0  0  0  0  0
   -1.9640   -0.4100   -4.4520 Cl  0  0  0  0  0  0  0  0  0  0  0  0
    0.0790    1.1500   -5.2750 C   0  0  0  0  0  3  0  0  0  0  0  0
    0.9480    2.2380   -5.1600 C   0  0  0  0  0  0  0  0  0  0  0  0
    2.1380    2.4550   -6.3920 Cl  0  0  0  0  0  0  0  0  0  0  0  0
    2.9160    6.1870   -4.8630 C   0  0  1  0  0  3  0  0  0  0  0  0
    0.9990    7.1600   -3.7800 O   0  0  0  0  0  1  0  0  0  0  0  0
    1.8430    7.3160   -4.7090 C   0  0  0  0  0  0  0  0  0  0  0  0
    2.0380    8.3390   -5.4410 O   0  0  0  0  0  0  0  0  0  0  0  0
    4.2310    6.2790   -4.0630 C   0  0  0  0  0  2  0  0  0  0  0  0
    5.4610    6.8940   -4.6810 C   0  0  0  0  0  0  0  0  0  0  0  0
    5.4170    8.1810   -5.2370 C   0  0  0  0  0  3  0  0  0  0  0  0
    6.5650    8.7580   -5.7850 C   0  0  0  0  0  3  0  0  0  0  0  0
    7.7690    8.0560   -5.7800 C   0  0  0  0  0  3  0  0  0  0  0  0
    7.8240    6.7760   -5.2310 C   0  0  0  0  0  3  0  0  0  0  0  0
    6.6770    6.1990   -4.6850 C   0  0  0  0  0  3  0  0  0  0  0  0
    2.0630    4.3670   -6.3780 C   0  0  0  0  0  2  0  0  0  0  0  0
    1.1500    5.3050   -7.1360 C   0  0  0  0  0  0  0  0  0  0  0  0
    1.6750    6.3690   -7.8840 C   0  0  0  0  0  3  0  0  0  0  0  0
    0.8290    7.2350   -8.5800 C   0  0  0  0  0  3  0  0  0  0  0  0
   -0.5520    7.0490   -8.5320 C   0  0  0  0  0  3  0  0  0  0  0  0
   -1.0810    6.0030   -7.7800 C   0  0  0  0  0  0  0  0  0  0  0  0
   -2.9520    5.7390   -7.7250 Br  0  0  0  0  0  0  0  0  0  0  0  0
   -0.2430    5.1410   -7.0750 C   0  0  0  0  0  3  0  0  0  0  0  0
  1 12  1  0  0  0  0
  1  2  1  0  0  0  0
  2  3  2  0  0  0  0
  4  2  1  0  0  0  0
  4  5  1  0  0  0  0
  6  5  2  0  0  0  0
  7  6  1  0  0  0  0
  8  7  1  0  0  0  0
  9 10  1  0  0  0  0
  9  7  2  0  0  0  0
 10  4  2  0  0  0  0
 11 10  1  0  0  0  0
 12 14  1  0  0  0  0
 12 16  1  1  0  0  0
 14 13  1  0  0  0  0
 15 14  2  0  0  0  0
 17 16  1  0  0  0  0
 18 17  2  0  0  0  0
 19 20  2  0  0  0  0
 19 18  1  0  0  0  0
 20 21  1  0  0  0  0
 21 22  2  0  0  0  0
 22 17  1  0  0  0  0
 23  1  1  0  0  0  0
 24 30  1  0  0  0  0
 24 23  1  0  0  0  0
 25 24  2  0  0  0  0
 26 27  2  0  0  0  0
 26 25  1  0  0  0  0
 27 28  1  0  0  0  0
 28 29  1  0  0  0  0
 28 30  2  0  0  0  0
M  END
>  <minimizedAffinity>
76.4449768

$$$$

 OpenBabel09122222143D

 30 32  0  0  1  0  0  0  0  0999 V2000
   -0.8450    1.9440   -3.7460 N   0  0  0  0  0  0  0  0  0  0  0  0
   -1.4240    1.4020   -4.9020 C   0  0  0  0  0  0  0  0  0  0  0  0
   -1.1200    1.6620   -6.0610 O   0  0  0  0  0  0  0  0  0  0  0  0
   -2.4580    0.3680   -4.7560 C   0  0  0  0  0  0  0  0  0  0  0  0
   -2.0260   -0.9530   -4.5550 C   0  0  0  0  0  3  0  0  0  0  0  0
   -2.9640   -1.9770   -4.4280 C   0  0  0  0  0  3  0  0  0  0  0  0
   -4.3230   -1.6790   -4.5230 C   0  0  0  0  0  0  0  0  0  0  0  0
   -5.4840   -2.9390   -4.3530 Cl  0  0  0  0  0  0  0  0  0  0  0  0
   -4.7550   -0.3730   -4.7590 C   0  0  0  0  0  3  0  0  0  0  0  0
   -3.8190    0.6570   -4.8890 C   0  0  0  0  0  0  0  0  0  0  0  0
   -4.4080    2.2500   -5.1960 Cl  0  0  0  0  0  0  0  0  0  0  0  0
    0.4560    2.6710   -3.9140 C   0  0  1  0  0  3  0  0  0  0  0  0
    2.0120    3.1210   -2.1330 O   0  0  0  0  0  1  0  0  0  0  0  0
    0.9180    3.4800   -2.6560 C   0  0  0  0  0  0  0  0  0  0  0  0
    0.2130    4.5080   -2.3960 O   0  0  0  0  0  0  0  0  0  0  0  0
    1.5080    1.9420   -4.7720 C   0  0  0  0  0  2  0  0  0  0  0  0
    2.0280    2.5680   -6.0420 C   0  0  0  0  0  0  0  0  0  0  0  0
    2.7700    1.8140   -6.9630 C   0  0  0  0  0  3  0  0  0  0  0  0
    3.2270    2.3910   -8.1490 C   0  0  0  0  0  3  0  0  0  0  0  0
    2.9450    3.7260   -8.4300 C   0  0  0  0  0  3  0  0  0  0  0  0
    2.2100    4.4860   -7.5220 C   0  0  0  0  0  3  0  0  0  0  0  0
    1.7540    3.9100   -6.3350 C   0  0  0  0  0  3  0  0  0  0  0  0
   -1.1230    1.4250   -2.4020 C   0  0  0  0  0  2  0  0  0  0  0  0
   -2.0200    2.3210   -1.5760 C   0  0  0  0  0  0  0  0  0  0  0  0
   -2.0060    3.7120   -1.7560 C   0  0  0  0  0  3  0  0  0  0  0  0
   -2.8320    4.5370   -0.9900 C   0  0  0  0  0  3  0  0  0  0  0  0
   -3.6770    3.9800   -0.0310 C   0  0  0  0  0  3  0  0  0  0  0  0
   -3.6860    2.6010    0.1630 C   0  0  0  0  0  0  0  0  0  0  0  0
   -4.8420    1.8420    1.4520 Br  0  0  0  0  0  0  0  0  0  0  0  0
   -2.8570    1.7730   -0.5920 C   0  0  0  0  0  3  0  0  0  0  0  0
  1 23  1  0  0  0  0
  2  4  1  0  0  0  0
  2  1  1  0  0  0  0
  3  2  2  0  0  0  0
  4  5  1  0  0  0  0
  5  6  2  0  0  0  0
  7  6  1  0  0  0  0
  7  8  1  0  0  0  0
  9  7  2  0  0  0  0
 10  9  1  0  0  0  0
 10  4  2  0  0  0  0
 11 10  1  0  0  0  0
 12 16  1  1  0  0  0
 12  1  1  0  0  0  0
 12 14  1  0  0  0  0
 14 15  2  0  0  0  0
 14 13  1  0  0  0  0
 17 16  1  0  0  0  0
 18 17  2  0  0  0  0
 19 18  1  0  0  0  0
 20 19  2  0  0  0  0
 20 21  1  0  0  0  0
 21 22  2  0  0  0  0
 22 17  1  0  0  0  0
 23 24  1  0  0  0  0
 24 30  1  0  0  0  0
 25 24  2  0  0  0  0
 25 26  1  0  0  0  0
 26 27  2  0  0  0  0
 27 28  1  0  0  0  0
 28 29  1  0  0  0  0
 30 28  2  0  0  0  0
M  END
>  <minimizedAffinity>
76.9781265

$$$$

 OpenBabel09122222143D

 30 32  0  0  1  0  0  0  0  0999 V2000
    2.4900    4.9160   -5.3550 N   0  0  0  0  0  0  0  0  0  0  0  0
    1.8330    4.1290   -4.3980 C   0  0  0  0  0  0  0  0  0  0  0  0
    1.7900    4.3340   -3.1900 O   0  0  0  0  0  0  0  0  0  0  0  0
    1.0500    2.9710   -4.8520 C   0  0  0  0  0  0  0  0  0  0  0  0
    1.2470    2.5360   -6.1720 C   0  0  0  0  0  3  0  0  0  0  0  0
    0.5170    1.4520   -6.6600 C   0  0  0  0  0  3  0  0  0  0  0  0
   -0.4170    0.8260   -5.8370 C   0  0  0  0  0  0  0  0  0  0  0  0
   -1.3100   -0.5200   -6.4330 Cl  0  0  0  0  0  0  0  0  0  0  0  0
   -0.6420    1.2800   -4.5360 C   0  0  0  0  0  3  0  0  0  0  0  0
    0.0850    2.3660   -4.0420 C   0  0  0  0  0  0  0  0  0  0  0  0
   -0.2460    2.8940   -2.4320 Cl  0  0  0  0  0  0  0  0  0  0  0  0
    2.9260    6.2850   -4.9260 C   0  0  1  0  0  3  0  0  0  0  0  0
    1.5880    8.2440   -5.3340 O   0  0  0  0  0  0  0  0  0  0  0  0
    1.7570    7.2580   -4.5600 C   0  0  0  0  0  0  0  0  0  0  0  0
    1.0110    6.8600   -3.6080 O   0  0  0  0  0  1  0  0  0  0  0  0
    4.2320    6.3300   -4.1070 C   0  0  0  0  0  2  0  0  0  0  0  0
    5.4790    6.9460   -4.6890 C   0  0  0  0  0  0  0  0  0  0  0  0
    5.4460    8.2250   -5.2650 C   0  0  0  0  0  3  0  0  0  0  0  0
    6.6090    8.8020   -5.7790 C   0  0  0  0  0  3  0  0  0  0  0  0
    7.8170    8.1100   -5.7210 C   0  0  0  0  0  3  0  0  0  0  0  0
    7.8610    6.8380   -5.1530 C   0  0  0  0  0  3  0  0  0  0  0  0
    6.6990    6.2600   -4.6400 C   0  0  0  0  0  3  0  0  0  0  0  0
    2.3170    4.7170   -6.7980 C   0  0  0  0  0  2  0  0  0  0  0  0
    1.2080    5.5520   -7.4000 C   0  0  0  0  0  0  0  0  0  0  0  0
    1.4990    6.7130   -8.1320 C   0  0  0  0  0  3  0  0  0  0  0  0
    0.4730    7.4830   -8.6810 C   0  0  0  0  0  3  0  0  0  0  0  0
   -0.8570    7.1040   -8.5020 C   0  0  0  0  0  3  0  0  0  0  0  0
   -1.1540    5.9600   -7.7650 C   0  0  0  0  0  0  0  0  0  0  0  0
   -2.9550    5.4350   -7.5320 Br  0  0  0  0  0  0  0  0  0  0  0  0
   -0.1350    5.1920   -7.2040 C   0  0  0  0  0  3  0  0  0  0  0  0
  1 12  1  0  0  0  0
  1  2  1  0  0  0  0
  2  3  2  0  0  0  0
  4  2  1  0  0  0  0
  4 10  1  0  0  0  0
  5  4  2  0  0  0  0
  6  5  1  0  0  0  0
  6  7  2  0  0  0  0
  7  9  1  0  0  0  0
  8  7  1  0  0  0  0
  9 10  2  0  0  0  0
 10 11  1  0  0  0  0
 12 14  1  0  0  0  0
 12 16  1  1  0  0  0
 13 14  2  0  0  0  0
 14 15  1  0  0  0  0
 17 22  1  0  0  0  0
 17 16  1  0  0  0  0
 18 17  2  0  0  0  0
 19 20  2  0  0  0  0
 19 18  1  0  0  0  0
 20 21  1  0  0  0  0
 21 22  2  0  0  0  0
 23  1  1  0  0  0  0
 24 30  1  0  0  0  0
 24 23  1  0  0  0  0
 25 24  2  0  0  0  0
 26 27  2  0  0  0  0
 26 25  1  0  0  0  0
 27 28  1  0  0  0  0
 28 29  1  0  0  0  0
 28 30  2  0  0  0  0
M  END
>  <minimizedAffinity>
77.0837021

$$$$

 OpenBabel09122222143D

 30 32  0  0  1  0  0  0  0  0999 V2000
   -1.4320    0.6250   -4.0170 N   0  0  0  0  0  0  0  0  0  0  0  0
   -2.2890   -0.3350   -3.4630 C   0  0  0  0  0  0  0  0  0  0  0  0
   -2.5750   -0.4600   -2.2770 O   0  0  0  0  0  0  0  0  0  0  0  0
   -2.9870   -1.2640   -4.3630 C   0  0  0  0  0  0  0  0  0  0  0  0
   -2.1990   -2.1320   -5.1330 C   0  0  0  0  0  3  0  0  0  0  0  0
   -2.8080   -3.0220   -6.0170 C   0  0  0  0  0  3  0  0  0  0  0  0
   -4.1960   -3.0250   -6.1400 C   0  0  0  0  0  0  0  0  0  0  0  0
   -4.9530   -4.1320   -7.2210 Cl  0  0  0  0  0  0  0  0  0  0  0  0
   -4.9820   -2.1380   -5.4030 C   0  0  0  0  0  3  0  0  0  0  0  0
   -4.3760   -1.2420   -4.5180 C   0  0  0  0  0  0  0  0  0  0  0  0
   -5.3960   -0.1570   -3.6430 Cl  0  0  0  0  0  0  0  0  0  0  0  0
   -1.0640    1.7910   -3.1490 C   0  0  1  0  0  3  0  0  0  0  0  0
    0.8230    3.1290   -2.4830 O   0  0  0  0  0  1  0  0  0  0  0  0
    0.3910    2.3300   -3.3620 C   0  0  0  0  0  0  0  0  0  0  0  0
    1.0270    1.7800   -4.3180 O   0  0  0  0  0  0  0  0  0  0  0  0
   -2.2070    2.7880   -2.8720 C   0  0  0  0  0  2  0  0  0  0  0  0
   -2.7590    2.9510   -1.4780 C   0  0  0  0  0  0  0  0  0  0  0  0
   -2.7700    4.2070   -0.8530 C   0  0  0  0  0  3  0  0  0  0  0  0
   -3.3060    4.3580    0.4270 C   0  0  0  0  0  3  0  0  0  0  0  0
   -3.8380    3.2580    1.0960 C   0  0  0  0  0  3  0  0  0  0  0  0
   -3.8310    2.0050    0.4850 C   0  0  0  0  0  3  0  0  0  0  0  0
   -3.2950    1.8530   -0.7940 C   0  0  0  0  0  3  0  0  0  0  0  0
   -1.3080    0.8360   -5.4640 C   0  0  0  0  0  2  0  0  0  0  0  0
   -2.2240    1.9120   -6.0040 C   0  0  0  0  0  0  0  0  0  0  0  0
   -3.5640    1.9860   -5.5950 C   0  0  0  0  0  3  0  0  0  0  0  0
   -4.4070    2.9780   -6.0990 C   0  0  0  0  0  3  0  0  0  0  0  0
   -3.9230    3.9040   -7.0210 C   0  0  0  0  0  3  0  0  0  0  0  0
   -2.5980    3.8280   -7.4420 C   0  0  0  0  0  0  0  0  0  0  0  0
   -1.9330    5.0920   -8.6820 Br  0  0  0  0  0  0  0  0  0  0  0  0
   -1.7530    2.8340   -6.9510 C   0  0  0  0  0  3  0  0  0  0  0  0
  1  2  1  0  0  0  0
  1 12  1  0  0  0  0
  2  3  2  0  0  0  0
  4  2  1  0  0  0  0
  5  4  2  0  0  0  0
  6  5  1  0  0  0  0
  7  6  2  0  0  0  0
  7  9  1  0  0  0  0
  8  7  1  0  0  0  0
  9 10  2  0  0  0  0
 10  4  1  0  0  0  0
 10 11  1  0  0  0  0
 12 16  1  6  0  0  0
 14 12  1  0  0  0  0
 14 13  1  0  0  0  0
 15 14  2  0  0  0  0
 16 17  1  0  0  0  0
 17 18  2  0  0  0  0
 17 22  1  0  0  0  0
 18 19  1  0  0  0  0
 19 20  2  0  0  0  0
 21 20  1  0  0  0  0
 22 21  2  0  0  0  0
 23  1  1  0  0  0  0
 24 25  1  0  0  0  0
 24 23  1  0  0  0  0
 26 25  2  0  0  0  0
 27 26  1  0  0  0  0
 28 27  2  0  0  0  0
 28 30  1  0  0  0  0
 29 28  1  0  0  0  0
 30 24  2  0  0  0  0
M  END
>  <minimizedAffinity>
77.5367508

$$$$

 OpenBabel09122222143D

 30 32  0  0  1  0  0  0  0  0999 V2000
    2.0090    4.9020   -4.4750 N   0  0  0  0  0  0  0  0  0  0  0  0
    1.6950    4.2960   -3.2510 C   0  0  0  0  0  0  0  0  0  0  0  0
    2.1340    4.6070   -2.1490 O   0  0  0  0  0  0  0  0  0  0  0  0
    0.6950    3.2190   -3.2310 C   0  0  0  0  0  0  0  0  0  0  0  0
    0.9740    2.0650   -3.9800 C   0  0  0  0  0  3  0  0  0  0  0  0
    0.0520    1.0190   -4.0110 C   0  0  0  0  0  3  0  0  0  0  0  0
   -1.1480    1.1410   -3.3130 C   0  0  0  0  0  0  0  0  0  0  0  0
   -2.2830   -0.1540   -3.3380 Cl  0  0  0  0  0  0  0  0  0  0  0  0
   -1.4450    2.3020   -2.5970 C   0  0  0  0  0  3  0  0  0  0  0  0
   -0.5260    3.3540   -2.5650 C   0  0  0  0  0  0  0  0  0  0  0  0
   -0.9520    4.7720   -1.6770 Cl  0  0  0  0  0  0  0  0  0  0  0  0
    2.6990    6.2320   -4.4180 C   0  0  1  0  0  3  0  0  0  0  0  0
    1.8240    8.3580   -5.1330 O   0  0  0  0  0  0  0  0  0  0  0  0
    1.7420    7.4580   -4.2480 C   0  0  0  0  0  0  0  0  0  0  0  0
    0.8800    7.3350   -3.3180 O   0  0  0  0  0  1  0  0  0  0  0  0
    4.0630    6.2320   -3.6990 C   0  0  0  0  0  2  0  0  0  0  0  0
    5.2940    6.7600   -4.3910 C   0  0  0  0  0  0  0  0  0  0  0  0
    5.2920    8.0310   -4.9860 C   0  0  0  0  0  3  0  0  0  0  0  0
    6.4420    8.5270   -5.6040 C   0  0  0  0  0  3  0  0  0  0  0  0
    7.6060    7.7620   -5.6320 C   0  0  0  0  0  3  0  0  0  0  0  0
    7.6180    6.4980   -5.0450 C   0  0  0  0  0  3  0  0  0  0  0  0
    6.4690    6.0000   -4.4290 C   0  0  0  0  0  3  0  0  0  0  0  0
    1.2830    4.6060   -5.7160 C   0  0  0  0  0  2  0  0  0  0  0  0
    2.0390    3.7030   -6.6640 C   0  0  0  0  0  0  0  0  0  0  0  0
    2.7170    4.2310   -7.7720 C   0  0  0  0  0  3  0  0  0  0  0  0
    3.4100    3.3930   -8.6480 C   0  0  0  0  0  3  0  0  0  0  0  0
    3.4310    2.0170   -8.4280 C   0  0  0  0  0  3  0  0  0  0  0  0
    2.7490    1.4840   -7.3370 C   0  0  0  0  0  0  0  0  0  0  0  0
    2.7870   -0.3810   -7.0270 Br  0  0  0  0  0  0  0  0  0  0  0  0
    2.0460    2.3130   -6.4650 C   0  0  0  0  0  3  0  0  0  0  0  0
  1 12  1  0  0  0  0
  1  2  1  0  0  0  0
  2  4  1  0  0  0  0
  2  3  2  0  0  0  0
  4 10  1  0  0  0  0
  5  4  2  0  0  0  0
  6  5  1  0  0  0  0
  6  7  2  0  0  0  0
  7  9  1  0  0  0  0
  8  7  1  0  0  0  0
  9 10  2  0  0  0  0
 10 11  1  0  0  0  0
 12 14  1  0  0  0  0
 12 16  1  1  0  0  0
 13 14  2  0  0  0  0
 14 15  1  0  0  0  0
 17 16  1  0  0  0  0
 18 17  2  0  0  0  0
 19 18  1  0  0  0  0
 20 19  2  0  0  0  0
 20 21  1  0  0  0  0
 21 22  2  0  0  0  0
 22 17  1  0  0  0  0
 23  1  1  0  0  0  0
 24 30  1  0  0  0  0
 24 23  1  0  0  0  0
 25 24  2  0  0  0  0
 26 27  2  0  0  0  0
 26 25  1  0  0  0  0
 27 28  1  0  0  0  0
 28 29  1  0  0  0  0
 28 30  2  0  0  0  0
M  END
>  <minimizedAffinity>
78.1244125

$$$$
