
 OpenBabel09082221133D

 42 47  0  0  0  0  0  0  0  0999 V2000
    6.8270    3.1830    7.9710 C   0  0  0  0  0  1  0  0  0  0  0  0
    5.5620    3.9130    7.8940 N   0  0  0  0  0  0  0  0  0  0  0  0
    5.4290    5.0760    8.7680 C   0  0  0  0  0  2  0  0  0  0  0  0
    6.1970    6.2950    8.2450 C   0  0  0  0  0  2  0  0  0  0  0  0
    5.5120    6.9590    7.0460 C   0  0  0  0  0  2  0  0  0  0  0  0
    6.3260    8.1310    6.5020 C   0  0  0  0  0  2  0  0  0  0  0  0
    7.0180    7.7210    5.2370 N   0  0  0  0  0  0  0  0  0  0  0  0
    6.4310    8.4100    4.0650 C   0  0  0  0  0  1  0  0  0  0  0  0
    8.7070    7.7720    5.3510 S   0  0  0  0  0  0  0  0  0  0  0  0
    9.0890    9.1640    5.4090 O   0  0  0  0  0  0  0  0  0  0  0  0
    9.1270    6.8270    6.3540 O   0  0  0  0  0  0  0  0  0  0  0  0
    9.1510    7.2400    3.8360 N   0  0  0  0  0  0  0  0  0  0  0  0
   10.0560    6.1750    3.6710 C   0  0  0  0  0  0  0  0  0  0  0  0
   11.1240    6.3850    3.1140 O   0  0  0  0  0  0  0  0  0  0  0  0
    9.6290    4.7980    4.0430 C   0  0  0  0  0  0  0  0  0  0  0  0
   10.6310    3.8370    4.1840 C   0  0  0  0  0  3  0  0  0  0  0  0
   10.3090    2.4960    4.4150 C   0  0  0  0  0  3  0  0  0  0  0  0
    8.9580    2.0930    4.4820 C   0  0  0  0  0  0  0  0  0  0  0  0
    8.3070    0.8200    4.6470 C   0  0  0  0  0  0  0  0  0  0  0  0
    6.9340    1.0470    4.5430 C   0  0  0  0  0  0  0  0  0  0  0  0
    6.7590    2.4220    4.5110 N   0  0  0  0  0  0  0  0  0  0  0  0
    7.9680    3.0720    4.3670 C   0  0  0  0  0  0  0  0  0  0  0  0
    8.2790    4.4330    4.1590 C   0  0  0  0  0  3  0  0  0  0  0  0
    5.4600    3.0700    4.6790 C   0  0  0  0  0  2  0  0  0  0  0  0
    4.8240    2.6240    5.9580 C   0  0  0  0  0  0  0  0  0  0  0  0
    4.4490    1.3700    6.2610 C   0  0  0  0  0  3  0  0  0  0  0  0
    4.6550    0.2420    5.3400 C   0  0  0  0  0  0  0  0  0  0  0  0
    3.6440   -0.7340    5.2960 C   0  0  0  0  0  3  0  0  0  0  0  0
    3.7400   -1.8260    4.4340 C   0  0  0  0  0  3  0  0  0  0  0  0
    4.8490   -1.9500    3.6060 C   0  0  0  0  0  0  0  0  0  0  0  0
    4.9660   -3.2860    2.5280 Cl  0  0  0  0  0  0  0  0  0  0  0  0
    5.8680   -1.0010    3.6450 C   0  0  0  0  0  3  0  0  0  0  0  0
    5.8030    0.0920    4.5260 C   0  0  0  0  0  0  0  0  0  0  0  0
    4.5680    3.6800    6.9570 C   0  0  0  0  0  0  0  0  0  0  0  0
    3.5230    4.3220    6.8750 O   0  0  0  0  0  0  0  0  0  0  0  0
    9.5240    8.0640    3.3660 H   0  0  0  0  0  0  0  0  0  0  0  0
    8.9810   -0.5200    4.8800 C   0  0  0  0  0  3  0  0  0  0  0  0
    9.8880   -0.9390    3.7120 C   0  0  0  0  0  2  0  0  0  0  0  0
   10.5200   -2.3080    3.9590 C   0  0  0  0  0  2  0  0  0  0  0  0
   11.2660   -2.3510    5.2900 C   0  0  0  0  0  2  0  0  0  0  0  0
   10.3660   -1.9440    6.4520 C   0  0  0  0  0  2  0  0  0  0  0  0
    9.7320   -0.5730    6.2220 C   0  0  0  0  0  2  0  0  0  0  0  0
  2  1  1  0  0  0  0
  2  3  1  0  0  0  0
  4  3  1  0  0  0  0
  5  4  1  0  0  0  0
  6  5  1  0  0  0  0
  7  9  1  0  0  0  0
  7  6  1  0  0  0  0
  8  7  1  0  0  0  0
  9 10  2  0  0  0  0
  9 11  2  0  0  0  0
 12  9  1  0  0  0  0
 13 12  1  0  0  0  0
 13 15  1  0  0  0  0
 14 13  2  0  0  0  0
 15 23  2  0  0  0  0
 15 16  1  0  0  0  0
 16 17  2  0  0  0  0
 17 18  1  0  0  0  0
 18 19  1  0  0  0  0
 19 37  1  0  0  0  0
 20 19  2  0  0  0  0
 21 20  1  0  0  0  0
 21 24  1  0  0  0  0
 22 18  2  0  0  0  0
 22 21  1  0  0  0  0
 23 22  1  0  0  0  0
 24 25  1  0  0  0  0
 25 26  2  0  0  0  0
 25 34  1  0  0  0  0
 27 26  1  0  0  0  0
 28 27  1  0  0  0  0
 29 28  2  0  0  0  0
 30 32  2  0  0  0  0
 30 29  1  0  0  0  0
 31 30  1  0  0  0  0
 32 33  1  0  0  0  0
 33 20  1  0  0  0  0
 33 27  2  0  0  0  0
 34  2  1  0  0  0  0
 35 34  2  0  0  0  0
 36 12  1  0  0  0  0
 37 42  1  0  0  0  0
 38 39  1  0  0  0  0
 38 37  1  0  0  0  0
 39 40  1  0  0  0  0
 40 41  1  0  0  0  0
 42 41  1  0  0  0  0
M  END
>  <minimizedAffinity>
-5.09931993

$$$$

 OpenBabel09082221133D

 42 47  0  0  0  0  0  0  0  0999 V2000
    5.2060    3.3450    4.1230 C   0  0  0  0  0  1  0  0  0  0  0  0
    4.3090    2.5470    4.9580 N   0  0  0  0  0  0  0  0  0  0  0  0
    3.4520    1.5910    4.2610 C   0  0  0  0  0  2  0  0  0  0  0  0
    4.2100    0.3330    3.8220 C   0  0  0  0  0  2  0  0  0  0  0  0
    4.5260   -0.6080    4.9890 C   0  0  0  0  0  2  0  0  0  0  0  0
    5.3360   -1.8220    4.5400 C   0  0  0  0  0  2  0  0  0  0  0  0
    6.7680   -1.6530    4.9480 N   0  0  0  0  0  0  0  0  0  0  0  0
    7.1280   -2.6080    6.0220 C   0  0  0  0  0  1  0  0  0  0  0  0
    7.8360   -1.5850    3.6360 S   0  0  0  0  0  0  0  0  0  0  0  0
    7.8910   -2.9090    3.0620 O   0  0  0  0  0  0  0  0  0  0  0  0
    7.5140   -0.4260    2.8430 O   0  0  0  0  0  0  0  0  0  0  0  0
    9.2930   -1.3630    4.4130 N   0  0  0  0  0  0  0  0  0  0  0  0
   10.1560   -0.3100    4.0620 C   0  0  0  0  0  0  0  0  0  0  0  0
   11.2630   -0.5740    3.6150 O   0  0  0  0  0  0  0  0  0  0  0  0
    9.7590    1.0890    4.3820 C   0  0  0  0  0  0  0  0  0  0  0  0
   10.4570    2.1120    3.7390 C   0  0  0  0  0  3  0  0  0  0  0  0
   10.2290    3.4520    4.0700 C   0  0  0  0  0  3  0  0  0  0  0  0
    9.3040    3.7840    5.0830 C   0  0  0  0  0  0  0  0  0  0  0  0
    8.8900    5.0250    5.6830 C   0  0  0  0  0  0  0  0  0  0  0  0
    7.9980    4.7050    6.7070 C   0  0  0  0  0  0  0  0  0  0  0  0
    7.7390    3.3470    6.6010 N   0  0  0  0  0  0  0  0  0  0  0  0
    8.5940    2.7500    5.6960 C   0  0  0  0  0  0  0  0  0  0  0  0
    8.7950    1.3950    5.3550 C   0  0  0  0  0  3  0  0  0  0  0  0
    6.6530    2.6790    7.3140 C   0  0  0  0  0  2  0  0  0  0  0  0
    5.3500    3.3510    7.0140 C   0  0  0  0  0  0  0  0  0  0  0  0
    5.0230    4.6170    7.3190 C   0  0  0  0  0  3  0  0  0  0  0  0
    5.9610    5.5340    7.9870 C   0  0  0  0  0  0  0  0  0  0  0  0
    5.4150    6.4200    8.9320 C   0  0  0  0  0  3  0  0  0  0  0  0
    6.2300    7.3070    9.6350 C   0  0  0  0  0  3  0  0  0  0  0  0
    7.6000    7.3130    9.4000 C   0  0  0  0  0  0  0  0  0  0  0  0
    8.6130    8.3930   10.2750 Cl  0  0  0  0  0  0  0  0  0  0  0  0
    8.1570    6.4520    8.4570 C   0  0  0  0  0  3  0  0  0  0  0  0
    7.3490    5.5700    7.7190 C   0  0  0  0  0  0  0  0  0  0  0  0
    4.3310    2.5190    6.3440 C   0  0  0  0  0  0  0  0  0  0  0  0
    3.5990    1.8180    7.0380 O   0  0  0  0  0  0  0  0  0  0  0  0
    9.7890   -2.2470    4.3000 H   0  0  0  0  0  0  0  0  0  0  0  0
    9.3420    6.4180    5.2880 C   0  0  0  0  0  3  0  0  0  0  0  0
   10.8340    6.6600    5.5680 C   0  0  0  0  0  2  0  0  0  0  0  0
   11.2490    8.0830    5.1970 C   0  0  0  0  0  2  0  0  0  0  0  0
   10.8900    8.4150    3.7510 C   0  0  0  0  0  2  0  0  0  0  0  0
    9.4080    8.1840    3.4710 C   0  0  0  0  0  2  0  0  0  0  0  0
    8.9810    6.7620    3.8320 C   0  0  0  0  0  2  0  0  0  0  0  0
  1  2  1  0  0  0  0
  2 34  1  0  0  0  0
  3  2  1  0  0  0  0
  4  3  1  0  0  0  0
  4  5  1  0  0  0  0
  6  7  1  0  0  0  0
  6  5  1  0  0  0  0
  7  8  1  0  0  0  0
  9 12  1  0  0  0  0
  9  7  1  0  0  0  0
 10  9  2  0  0  0  0
 11  9  2  0  0  0  0
 13 15  1  0  0  0  0
 13 12  1  0  0  0  0
 14 13  2  0  0  0  0
 15 23  1  0  0  0  0
 16 17  1  0  0  0  0
 16 15  2  0  0  0  0
 17 18  2  0  0  0  0
 18 19  1  0  0  0  0
 18 22  1  0  0  0  0
 19 20  2  0  0  0  0
 20 33  1  0  0  0  0
 21 20  1  0  0  0  0
 21 24  1  0  0  0  0
 22 21  1  0  0  0  0
 23 22  2  0  0  0  0
 25 24  1  0  0  0  0
 25 26  2  0  0  0  0
 26 27  1  0  0  0  0
 27 28  1  0  0  0  0
 28 29  2  0  0  0  0
 30 29  1  0  0  0  0
 30 31  1  0  0  0  0
 32 30  2  0  0  0  0
 33 27  2  0  0  0  0
 33 32  1  0  0  0  0
 34 25  1  0  0  0  0
 34 35  2  0  0  0  0
 36 12  1  0  0  0  0
 37 38  1  0  0  0  0
 37 19  1  0  0  0  0
 39 38  1  0  0  0  0
 40 39  1  0  0  0  0
 41 40  1  0  0  0  0
 41 42  1  0  0  0  0
 42 37  1  0  0  0  0
M  END
>  <minimizedAffinity>
-4.81463909

$$$$

 OpenBabel09082221133D

 42 47  0  0  0  0  0  0  0  0999 V2000
    6.2160    3.9350    7.9900 C   0  0  0  0  0  1  0  0  0  0  0  0
    5.1250    4.9050    7.8990 N   0  0  0  0  0  0  0  0  0  0  0  0
    5.2460    6.0990    8.7330 C   0  0  0  0  0  2  0  0  0  0  0  0
    6.2390    7.1170    8.1610 C   0  0  0  0  0  2  0  0  0  0  0  0
    5.6860    7.8680    6.9440 C   0  0  0  0  0  2  0  0  0  0  0  0
    6.7130    8.8300    6.3530 C   0  0  0  0  0  2  0  0  0  0  0  0
    7.2880    8.2460    5.0980 N   0  0  0  0  0  0  0  0  0  0  0  0
    6.8360    9.0020    3.9070 C   0  0  0  0  0  1  0  0  0  0  0  0
    8.9530    7.9540    5.1950 S   0  0  0  0  0  0  0  0  0  0  0  0
    9.6120    9.2390    5.2010 O   0  0  0  0  0  0  0  0  0  0  0  0
    9.1870    6.9770    6.2270 O   0  0  0  0  0  0  0  0  0  0  0  0
    9.2560    7.2930    3.6970 N   0  0  0  0  0  0  0  0  0  0  0  0
    9.9210    6.0610    3.5620 C   0  0  0  0  0  0  0  0  0  0  0  0
   11.0010    6.0300    2.9890 O   0  0  0  0  0  0  0  0  0  0  0  0
    9.2290    4.8130    3.9850 C   0  0  0  0  0  0  0  0  0  0  0  0
   10.0150    3.6730    4.1510 C   0  0  0  0  0  3  0  0  0  0  0  0
    9.4290    2.4340    4.4310 C   0  0  0  0  0  3  0  0  0  0  0  0
    8.0260    2.3190    4.5240 C   0  0  0  0  0  0  0  0  0  0  0  0
    7.1310    1.2120    4.7390 C   0  0  0  0  0  0  0  0  0  0  0  0
    5.8320    1.7120    4.6390 C   0  0  0  0  0  0  0  0  0  0  0  0
    5.9410    3.0910    4.5590 N   0  0  0  0  0  0  0  0  0  0  0  0
    7.2550    3.4750    4.3830 C   0  0  0  0  0  0  0  0  0  0  0  0
    7.8340    4.7370    4.1250 C   0  0  0  0  0  3  0  0  0  0  0  0
    4.8040    3.9960    4.7160 C   0  0  0  0  0  2  0  0  0  0  0  0
    4.1100    3.7320    6.0150 C   0  0  0  0  0  0  0  0  0  0  0  0
    3.4920    2.5920    6.3650 C   0  0  0  0  0  3  0  0  0  0  0  0
    3.4490    1.4160    5.4820 C   0  0  0  0  0  0  0  0  0  0  0  0
    2.2590    0.6670    5.4810 C   0  0  0  0  0  3  0  0  0  0  0  0
    2.1170   -0.4490    4.6570 C   0  0  0  0  0  3  0  0  0  0  0  0
    3.1650   -0.8240    3.8240 C   0  0  0  0  0  0  0  0  0  0  0  0
    2.9900   -2.1900    2.7930 Cl  0  0  0  0  0  0  0  0  0  0  0  0
    4.3560   -0.1030    3.8210 C   0  0  0  0  0  3  0  0  0  0  0  0
    4.5290    1.0080    4.6640 C   0  0  0  0  0  0  0  0  0  0  0  0
    4.0910    4.8510    6.9780 C   0  0  0  0  0  0  0  0  0  0  0  0
    3.1980    5.6890    6.8820 O   0  0  0  0  0  0  0  0  0  0  0  0
    9.7820    8.0080    3.1950 H   0  0  0  0  0  0  0  0  0  0  0  0
    7.5210   -0.2290    5.0130 C   0  0  0  0  0  3  0  0  0  0  0  0
    8.1950   -0.9010    3.8060 C   0  0  0  0  0  2  0  0  0  0  0  0
    8.5390   -2.3610    4.1000 C   0  0  0  0  0  2  0  0  0  0  0  0
    9.3870   -2.4960    5.3620 C   0  0  0  0  0  2  0  0  0  0  0  0
    8.7170   -1.8370    6.5630 C   0  0  0  0  0  2  0  0  0  0  0  0
    8.3730   -0.3750    6.2860 C   0  0  0  0  0  2  0  0  0  0  0  0
  2  1  1  0  0  0  0
  2  3  1  0  0  0  0
  4  3  1  0  0  0  0
  5  4  1  0  0  0  0
  6  5  1  0  0  0  0
  7  9  1  0  0  0  0
  7  6  1  0  0  0  0
  8  7  1  0  0  0  0
  9 10  2  0  0  0  0
  9 11  2  0  0  0  0
 12  9  1  0  0  0  0
 13 12  1  0  0  0  0
 13 15  1  0  0  0  0
 14 13  2  0  0  0  0
 15 23  2  0  0  0  0
 15 16  1  0  0  0  0
 16 17  2  0  0  0  0
 17 18  1  0  0  0  0
 18 19  1  0  0  0  0
 19 37  1  0  0  0  0
 20 33  1  0  0  0  0
 20 19  2  0  0  0  0
 21 20  1  0  0  0  0
 21 24  1  0  0  0  0
 22 18  2  0  0  0  0
 22 21  1  0  0  0  0
 23 22  1  0  0  0  0
 24 25  1  0  0  0  0
 25 26  2  0  0  0  0
 25 34  1  0  0  0  0
 27 26  1  0  0  0  0
 28 27  1  0  0  0  0
 29 28  2  0  0  0  0
 30 29  1  0  0  0  0
 31 30  1  0  0  0  0
 32 30  2  0  0  0  0
 32 33  1  0  0  0  0
 33 27  2  0  0  0  0
 34  2  1  0  0  0  0
 35 34  2  0  0  0  0
 36 12  1  0  0  0  0
 37 42  1  0  0  0  0
 38 39  1  0  0  0  0
 38 37  1  0  0  0  0
 39 40  1  0  0  0  0
 40 41  1  0  0  0  0
 42 41  1  0  0  0  0
M  END
>  <minimizedAffinity>
-4.71685648

$$$$

 OpenBabel09082221133D

 42 47  0  0  0  0  0  0  0  0999 V2000
    5.2560    0.9210    4.4880 C   0  0  0  0  0  1  0  0  0  0  0  0
    4.5760    0.3640    5.6560 N   0  0  0  0  0  0  0  0  0  0  0  0
    3.6340   -0.7240    5.4020 C   0  0  0  0  0  2  0  0  0  0  0  0
    4.3360   -2.0600    5.1360 C   0  0  0  0  0  2  0  0  0  0  0  0
    4.9160   -2.6900    6.4070 C   0  0  0  0  0  2  0  0  0  0  0  0
    5.6640   -3.9870    6.1110 C   0  0  0  0  0  2  0  0  0  0  0  0
    7.1420   -3.7410    6.1650 N   0  0  0  0  0  0  0  0  0  0  0  0
    7.7470   -4.4070    7.3420 C   0  0  0  0  0  1  0  0  0  0  0  0
    7.9220   -4.0100    4.6860 S   0  0  0  0  0  0  0  0  0  0  0  0
    7.9110   -5.4350    4.4520 O   0  0  0  0  0  0  0  0  0  0  0  0
    7.4030   -3.0780    3.7190 O   0  0  0  0  0  0  0  0  0  0  0  0
    9.4950   -3.6220    5.0720 N   0  0  0  0  0  0  0  0  0  0  0  0
   10.2290   -2.6980    4.3080 C   0  0  0  0  0  0  0  0  0  0  0  0
   11.2330   -3.0780    3.7220 O   0  0  0  0  0  0  0  0  0  0  0  0
    9.8520   -1.2590    4.3530 C   0  0  0  0  0  0  0  0  0  0  0  0
   10.3670   -0.4330    3.3530 C   0  0  0  0  0  3  0  0  0  0  0  0
   10.1590    0.9490    3.3870 C   0  0  0  0  0  3  0  0  0  0  0  0
    9.4440    1.5310    4.4560 C   0  0  0  0  0  0  0  0  0  0  0  0
    9.1120    2.8860    4.8090 C   0  0  0  0  0  0  0  0  0  0  0  0
    8.4560    2.8390    6.0390 C   0  0  0  0  0  0  0  0  0  0  0  0
    8.2330    1.5000    6.3210 N   0  0  0  0  0  0  0  0  0  0  0  0
    8.9110    0.6880    5.4340 C   0  0  0  0  0  0  0  0  0  0  0  0
    9.0910   -0.7120    5.3980 C   0  0  0  0  0  3  0  0  0  0  0  0
    7.3380    1.0400    7.3810 C   0  0  0  0  0  2  0  0  0  0  0  0
    5.9770    1.6340    7.1990 C   0  0  0  0  0  0  0  0  0  0  0  0
    5.6700    2.9410    7.2470 C   0  0  0  0  0  3  0  0  0  0  0  0
    6.6870    3.9810    7.4680 C   0  0  0  0  0  0  0  0  0  0  0  0
    6.3080    5.0790    8.2600 C   0  0  0  0  0  3  0  0  0  0  0  0
    7.2130    6.1020    8.5450 C   0  0  0  0  0  3  0  0  0  0  0  0
    8.5060    6.0330    8.0410 C   0  0  0  0  0  0  0  0  0  0  0  0
    9.6320    7.2820    8.4030 Cl  0  0  0  0  0  0  0  0  0  0  0  0
    8.8960    4.9600    7.2430 C   0  0  0  0  0  3  0  0  0  0  0  0
    7.9910    3.9340    6.9220 C   0  0  0  0  0  0  0  0  0  0  0  0
    4.8770    0.6760    6.9730 C   0  0  0  0  0  0  0  0  0  0  0  0
    4.3270    0.1760    7.9510 O   0  0  0  0  0  0  0  0  0  0  0  0
    9.9920   -4.5130    5.0780 H   0  0  0  0  0  0  0  0  0  0  0  0
    9.4210    4.1350    4.0040 C   0  0  0  0  0  3  0  0  0  0  0  0
    8.1890    5.0320    3.8030 C   0  0  0  0  0  2  0  0  0  0  0  0
    8.5240    6.2600    2.9570 C   0  0  0  0  0  2  0  0  0  0  0  0
    9.6970    7.0430    3.5410 C   0  0  0  0  0  2  0  0  0  0  0  0
   10.9240    6.1570    3.7340 C   0  0  0  0  0  2  0  0  0  0  0  0
   10.6050    4.9280    4.5830 C   0  0  0  0  0  2  0  0  0  0  0  0
  1  2  1  0  0  0  0
  2 34  1  0  0  0  0
  3  2  1  0  0  0  0
  4  3  1  0  0  0  0
  4  5  1  0  0  0  0
  6  7  1  0  0  0  0
  6  5  1  0  0  0  0
  7  8  1  0  0  0  0
  9 12  1  0  0  0  0
  9  7  1  0  0  0  0
 10  9  2  0  0  0  0
 11  9  2  0  0  0  0
 12 36  1  0  0  0  0
 13 15  1  0  0  0  0
 13 12  1  0  0  0  0
 14 13  2  0  0  0  0
 15 23  1  0  0  0  0
 16 17  1  0  0  0  0
 16 15  2  0  0  0  0
 17 18  2  0  0  0  0
 18 19  1  0  0  0  0
 18 22  1  0  0  0  0
 19 20  2  0  0  0  0
 20 21  1  0  0  0  0
 20 33  1  0  0  0  0
 21 24  1  0  0  0  0
 22 21  1  0  0  0  0
 23 22  2  0  0  0  0
 25 26  2  0  0  0  0
 25 24  1  0  0  0  0
 26 27  1  0  0  0  0
 27 28  1  0  0  0  0
 28 29  2  0  0  0  0
 30 31  1  0  0  0  0
 30 29  1  0  0  0  0
 32 30  2  0  0  0  0
 33 32  1  0  0  0  0
 33 27  2  0  0  0  0
 34 25  1  0  0  0  0
 34 35  2  0  0  0  0
 37 42  1  0  0  0  0
 37 19  1  0  0  0  0
 38 37  1  0  0  0  0
 39 40  1  0  0  0  0
 39 38  1  0  0  0  0
 40 41  1  0  0  0  0
 41 42  1  0  0  0  0
M  END
>  <minimizedAffinity>
-4.39313507

$$$$

 OpenBabel09082221133D

 42 47  0  0  0  0  0  0  0  0999 V2000
    6.3810   -3.9110    5.8610 C   0  0  0  0  0  1  0  0  0  0  0  0
    5.8210   -3.2170    7.0200 N   0  0  0  0  0  0  0  0  0  0  0  0
    6.5780   -3.3210    8.2670 C   0  0  0  0  0  2  0  0  0  0  0  0
    7.8120   -2.4120    8.2830 C   0  0  0  0  0  2  0  0  0  0  0  0
    7.4580   -0.9330    8.4710 C   0  0  0  0  0  2  0  0  0  0  0  0
    8.6960   -0.0400    8.4210 C   0  0  0  0  0  2  0  0  0  0  0  0
    8.7570    0.6640    7.0990 N   0  0  0  0  0  0  0  0  0  0  0  0
    8.4990    2.1140    7.2590 C   0  0  0  0  0  1  0  0  0  0  0  0
   10.1220    0.2560    6.1840 S   0  0  0  0  0  0  0  0  0  0  0  0
   11.2660    0.8470    6.8380 O   0  0  0  0  0  0  0  0  0  0  0  0
   10.0650   -1.1500    5.8780 O   0  0  0  0  0  0  0  0  0  0  0  0
    9.8700    1.1560    4.8050 N   0  0  0  0  0  0  0  0  0  0  0  0
    9.9040    0.5640    3.5290 C   0  0  0  0  0  0  0  0  0  0  0  0
   10.7580    0.9220    2.7320 O   0  0  0  0  0  0  0  0  0  0  0  0
    8.8130   -0.3690    3.1340 C   0  0  0  0  0  0  0  0  0  0  0  0
    9.0400   -1.1820    2.0230 C   0  0  0  0  0  3  0  0  0  0  0  0
    8.0250   -1.9990    1.5150 C   0  0  0  0  0  3  0  0  0  0  0  0
    6.7450   -1.9900    2.1080 C   0  0  0  0  0  0  0  0  0  0  0  0
    5.5040   -2.6520    1.8020 C   0  0  0  0  0  0  0  0  0  0  0  0
    4.5530   -2.1730    2.7050 C   0  0  0  0  0  0  0  0  0  0  0  0
    5.2370   -1.4040    3.6330 N   0  0  0  0  0  0  0  0  0  0  0  0
    6.5420   -1.1930    3.2350 C   0  0  0  0  0  0  0  0  0  0  0  0
    7.5640   -0.3810    3.7750 C   0  0  0  0  0  3  0  0  0  0  0  0
    4.6470   -0.9500    4.8900 C   0  0  0  0  0  2  0  0  0  0  0  0
    4.1180   -2.1170    5.6620 C   0  0  0  0  0  0  0  0  0  0  0  0
    3.1290   -2.9400    5.2770 C   0  0  0  0  0  3  0  0  0  0  0  0
    2.4420   -2.7930    3.9830 C   0  0  0  0  0  0  0  0  0  0  0  0
    1.0610   -3.0560    3.9660 C   0  0  0  0  0  3  0  0  0  0  0  0
    0.3210   -2.9180    2.7920 C   0  0  0  0  0  3  0  0  0  0  0  0
    0.9580   -2.5140    1.6240 C   0  0  0  0  0  0  0  0  0  0  0  0
    0.0480   -2.3260    0.1760 Cl  0  0  0  0  0  0  0  0  0  0  0  0
    2.3280   -2.2630    1.6190 C   0  0  0  0  0  3  0  0  0  0  0  0
    3.0950   -2.4220    2.7850 C   0  0  0  0  0  0  0  0  0  0  0  0
    4.7370   -2.3550    6.9820 C   0  0  0  0  0  0  0  0  0  0  0  0
    4.2950   -1.7470    7.9530 O   0  0  0  0  0  0  0  0  0  0  0  0
   10.5690    1.8970    4.8420 H   0  0  0  0  0  0  0  0  0  0  0  0
    5.2650   -3.6710    0.7030 C   0  0  0  0  0  3  0  0  0  0  0  0
    5.0780   -3.0210   -0.6770 C   0  0  0  0  0  2  0  0  0  0  0  0
    4.8010   -4.0690   -1.7550 C   0  0  0  0  0  2  0  0  0  0  0  0
    5.8830   -5.1450   -1.7850 C   0  0  0  0  0  2  0  0  0  0  0  0
    6.0660   -5.7970   -0.4190 C   0  0  0  0  0  2  0  0  0  0  0  0
    6.3500   -4.7610    0.6680 C   0  0  0  0  0  2  0  0  0  0  0  0
  1  2  1  0  0  0  0
  2  3  1  0  0  0  0
  3  4  1  0  0  0  0
  4  5  1  0  0  0  0
  6  5  1  0  0  0  0
  7  8  1  0  0  0  0
  7  6  1  0  0  0  0
  9 10  2  0  0  0  0
  9  7  1  0  0  0  0
 11  9  2  0  0  0  0
 12 36  1  0  0  0  0
 12  9  1  0  0  0  0
 13 12  1  0  0  0  0
 14 13  2  0  0  0  0
 15 13  1  0  0  0  0
 15 23  1  0  0  0  0
 16 15  2  0  0  0  0
 17 16  1  0  0  0  0
 17 18  2  0  0  0  0
 18 22  1  0  0  0  0
 19 18  1  0  0  0  0
 19 20  2  0  0  0  0
 20 33  1  0  0  0  0
 20 21  1  0  0  0  0
 21 24  1  0  0  0  0
 22 21  1  0  0  0  0
 22 23  2  0  0  0  0
 24 25  1  0  0  0  0
 25 34  1  0  0  0  0
 26 25  2  0  0  0  0
 27 26  1  0  0  0  0
 28 27  1  0  0  0  0
 29 28  2  0  0  0  0
 30 29  1  0  0  0  0
 31 30  1  0  0  0  0
 32 30  2  0  0  0  0
 32 33  1  0  0  0  0
 33 27  2  0  0  0  0
 34  2  1  0  0  0  0
 34 35  2  0  0  0  0
 37 19  1  0  0  0  0
 38 37  1  0  0  0  0
 39 38  1  0  0  0  0
 40 39  1  0  0  0  0
 40 41  1  0  0  0  0
 41 42  1  0  0  0  0
 42 37  1  0  0  0  0
M  END
>  <minimizedAffinity>
-4.34823799

$$$$

 OpenBabel09082221133D

 42 47  0  0  0  0  0  0  0  0999 V2000
    8.7240   -0.7300    7.1080 C   0  0  0  0  0  1  0  0  0  0  0  0
    9.7080   -1.4250    6.2780 N   0  0  0  0  0  0  0  0  0  0  0  0
   10.0410   -2.7920    6.6740 C   0  0  0  0  0  2  0  0  0  0  0  0
    8.9550   -3.7990    6.2800 C   0  0  0  0  0  2  0  0  0  0  0  0
    8.9410   -4.1020    4.7780 C   0  0  0  0  0  2  0  0  0  0  0  0
    7.8120   -5.0580    4.3990 C   0  0  0  0  0  2  0  0  0  0  0  0
    6.7030   -4.2930    3.7430 N   0  0  0  0  0  0  0  0  0  0  0  0
    6.6110   -4.6270    2.3020 C   0  0  0  0  0  1  0  0  0  0  0  0
    5.2470   -4.3500    4.6050 S   0  0  0  0  0  0  0  0  0  0  0  0
    4.7330   -5.6950    4.4860 O   0  0  0  0  0  0  0  0  0  0  0  0
    5.4490   -3.7260    5.8870 O   0  0  0  0  0  0  0  0  0  0  0  0
    4.2660   -3.4010    3.6510 N   0  0  0  0  0  0  0  0  0  0  0  0
    3.5440   -2.3210    4.1910 C   0  0  0  0  0  0  0  0  0  0  0  0
    2.3220   -2.3470    4.1570 O   0  0  0  0  0  0  0  0  0  0  0  0
    4.2840   -1.1140    4.6530 C   0  0  0  0  0  0  0  0  0  0  0  0
    3.5950   -0.2190    5.4720 C   0  0  0  0  0  3  0  0  0  0  0  0
    4.1750    0.9960    5.8530 C   0  0  0  0  0  3  0  0  0  0  0  0
    5.4610    1.3430    5.3860 C   0  0  0  0  0  0  0  0  0  0  0  0
    6.2940    2.5060    5.5420 C   0  0  0  0  0  0  0  0  0  0  0  0
    7.4350    2.2980    4.7650 C   0  0  0  0  0  0  0  0  0  0  0  0
    7.3780    0.9880    4.3160 N   0  0  0  0  0  0  0  0  0  0  0  0
    6.1480    0.4240    4.5900 C   0  0  0  0  0  0  0  0  0  0  0  0
    5.5850   -0.8170    4.2190 C   0  0  0  0  0  3  0  0  0  0  0  0
    8.5110    0.3010    3.7000 C   0  0  0  0  0  2  0  0  0  0  0  0
    9.7000    0.3530    4.6070 C   0  0  0  0  0  0  0  0  0  0  0  0
   10.3460    1.4620    5.0030 C   0  0  0  0  0  3  0  0  0  0  0  0
    9.9220    2.8100    4.5920 C   0  0  0  0  0  0  0  0  0  0  0  0
   10.9410    3.7420    4.3310 C   0  0  0  0  0  3  0  0  0  0  0  0
   10.6350    5.0370    3.9110 C   0  0  0  0  0  3  0  0  0  0  0  0
    9.3060    5.4080    3.7470 C   0  0  0  0  0  0  0  0  0  0  0  0
    8.9230    6.9980    3.2130 Cl  0  0  0  0  0  0  0  0  0  0  0  0
    8.2820    4.5020    4.0140 C   0  0  0  0  0  3  0  0  0  0  0  0
    8.5690    3.2020    4.4650 C   0  0  0  0  0  0  0  0  0  0  0  0
   10.2130   -0.9490    5.0790 C   0  0  0  0  0  0  0  0  0  0  0  0
   11.0110   -1.5550    4.3680 O   0  0  0  0  0  0  0  0  0  0  0  0
    3.6100   -4.0500    3.2180 H   0  0  0  0  0  0  0  0  0  0  0  0
    5.9920    3.7330    6.3830 C   0  0  0  0  0  3  0  0  0  0  0  0
    4.7880    4.5300    5.8570 C   0  0  0  0  0  2  0  0  0  0  0  0
    4.5330    5.7780    6.7000 C   0  0  0  0  0  2  0  0  0  0  0  0
    4.3740    5.4360    8.1790 C   0  0  0  0  0  2  0  0  0  0  0  0
    5.5710    4.6510    8.7070 C   0  0  0  0  0  2  0  0  0  0  0  0
    5.8340    3.3960    7.8760 C   0  0  0  0  0  2  0  0  0  0  0  0
  2  3  1  0  0  0  0
  2  1  1  0  0  0  0
  4  3  1  0  0  0  0
  5  4  1  0  0  0  0
  6  5  1  0  0  0  0
  7  6  1  0  0  0  0
  7  9  1  0  0  0  0
  8  7  1  0  0  0  0
  9 11  2  0  0  0  0
 10  9  2  0  0  0  0
 12 13  1  0  0  0  0
 12  9  1  0  0  0  0
 13 15  1  0  0  0  0
 14 13  2  0  0  0  0
 15 16  1  0  0  0  0
 16 17  2  0  0  0  0
 18 19  1  0  0  0  0
 18 17  1  0  0  0  0
 19 37  1  0  0  0  0
 20 19  2  0  0  0  0
 21 22  1  0  0  0  0
 21 20  1  0  0  0  0
 22 18  2  0  0  0  0
 23 22  1  0  0  0  0
 23 15  2  0  0  0  0
 24 21  1  0  0  0  0
 24 25  1  0  0  0  0
 25 26  2  0  0  0  0
 25 34  1  0  0  0  0
 27 26  1  0  0  0  0
 28 27  2  0  0  0  0
 29 28  1  0  0  0  0
 30 29  2  0  0  0  0
 30 32  1  0  0  0  0
 31 30  1  0  0  0  0
 32 33  2  0  0  0  0
 33 27  1  0  0  0  0
 33 20  1  0  0  0  0
 34  2  1  0  0  0  0
 35 34  2  0  0  0  0
 36 12  1  0  0  0  0
 37 42  1  0  0  0  0
 38 37  1  0  0  0  0
 38 39  1  0  0  0  0
 39 40  1  0  0  0  0
 40 41  1  0  0  0  0
 42 41  1  0  0  0  0
M  END
>  <minimizedAffinity>
-4.34397602

$$$$

 OpenBabel09082221133D

 42 47  0  0  0  0  0  0  0  0999 V2000
    4.5610   -4.9590    1.6900 C   0  0  0  0  0  1  0  0  0  0  0  0
    4.6010   -4.5810    0.2770 N   0  0  0  0  0  0  0  0  0  0  0  0
    3.9030   -5.4670   -0.6520 C   0  0  0  0  0  2  0  0  0  0  0  0
    2.3820   -5.2770   -0.6150 C   0  0  0  0  0  2  0  0  0  0  0  0
    1.9270   -3.9860   -1.3040 C   0  0  0  0  0  2  0  0  0  0  0  0
    0.4170   -3.7860   -1.2000 C   0  0  0  0  0  2  0  0  0  0  0  0
    0.1160   -2.7430   -0.1660 N   0  0  0  0  0  0  0  0  0  0  0  0
   -0.4040   -1.5080   -0.7960 C   0  0  0  0  0  1  0  0  0  0  0  0
   -0.7800   -3.3350    1.1430 S   0  0  0  0  0  0  0  0  0  0  0  0
   -2.1140   -3.6040    0.6600 O   0  0  0  0  0  0  0  0  0  0  0  0
    0.0010   -4.3420    1.8150 O   0  0  0  0  0  0  0  0  0  0  0  0
   -0.9060   -1.9740    2.0950 N   0  0  0  0  0  0  0  0  0  0  0  0
   -0.5350   -1.9930    3.4510 C   0  0  0  0  0  0  0  0  0  0  0  0
   -1.3870   -1.7800    4.3020 O   0  0  0  0  0  0  0  0  0  0  0  0
    0.9050   -2.1230    3.8070 C   0  0  0  0  0  0  0  0  0  0  0  0
    1.2070   -2.4690    5.1240 C   0  0  0  0  0  3  0  0  0  0  0  0
    2.5320   -2.4970    5.5720 C   0  0  0  0  0  3  0  0  0  0  0  0
    3.5820   -2.1470    4.6970 C   0  0  0  0  0  0  0  0  0  0  0  0
    5.0080   -2.0230    4.8540 C   0  0  0  0  0  0  0  0  0  0  0  0
    5.5120   -1.5520    3.6410 C   0  0  0  0  0  0  0  0  0  0  0  0
    4.4630   -1.5740    2.7360 N   0  0  0  0  0  0  0  0  0  0  0  0
    3.2650   -1.8300    3.3740 C   0  0  0  0  0  0  0  0  0  0  0  0
    1.9350   -1.8220    2.9020 C   0  0  0  0  0  3  0  0  0  0  0  0
    4.6420   -1.4150    1.2950 C   0  0  0  0  0  2  0  0  0  0  0  0
    5.6220   -2.4230    0.7830 C   0  0  0  0  0  0  0  0  0  0  0  0
    6.9180   -2.5120    1.1250 C   0  0  0  0  0  3  0  0  0  0  0  0
    7.5390   -1.6040    2.1030 C   0  0  0  0  0  0  0  0  0  0  0  0
    8.8610   -1.2020    1.8430 C   0  0  0  0  0  3  0  0  0  0  0  0
    9.5220   -0.3230    2.7010 C   0  0  0  0  0  3  0  0  0  0  0  0
    8.8640    0.1640    3.8250 C   0  0  0  0  0  0  0  0  0  0  0  0
    9.6680    1.2610    4.8770 Cl  0  0  0  0  0  0  0  0  0  0  0  0
    7.5590   -0.2350    4.1060 C   0  0  0  0  0  3  0  0  0  0  0  0
    6.8860   -1.1410    3.2690 C   0  0  0  0  0  0  0  0  0  0  0  0
    5.1040   -3.3850   -0.2100 C   0  0  0  0  0  0  0  0  0  0  0  0
    5.1010   -3.0580   -1.3940 O   0  0  0  0  0  0  0  0  0  0  0  0
   -1.8830   -1.6920    2.0250 H   0  0  0  0  0  0  0  0  0  0  0  0
    5.8130   -2.3360    6.1010 C   0  0  0  0  0  3  0  0  0  0  0  0
    5.4880   -1.3920    7.2700 C   0  0  0  0  0  2  0  0  0  0  0  0
    6.3420   -1.7070    8.4970 C   0  0  0  0  0  2  0  0  0  0  0  0
    6.2160   -3.1720    8.9090 C   0  0  0  0  0  2  0  0  0  0  0  0
    6.5460   -4.1120    7.7540 C   0  0  0  0  0  2  0  0  0  0  0  0
    5.6950   -3.8120    6.5220 C   0  0  0  0  0  2  0  0  0  0  0  0
  2  1  1  0  0  0  0
  3  4  1  0  0  0  0
  3  2  1  0  0  0  0
  5  6  1  0  0  0  0
  5  4  1  0  0  0  0
  6  7  1  0  0  0  0
  7  9  1  0  0  0  0
  8  7  1  0  0  0  0
  9 11  2  0  0  0  0
  9 12  1  0  0  0  0
 10  9  2  0  0  0  0
 12 13  1  0  0  0  0
 13 15  1  0  0  0  0
 13 14  2  0  0  0  0
 15 16  1  0  0  0  0
 16 17  2  0  0  0  0
 18 19  1  0  0  0  0
 18 17  1  0  0  0  0
 19 37  1  0  0  0  0
 20 19  2  0  0  0  0
 21 22  1  0  0  0  0
 21 20  1  0  0  0  0
 22 18  2  0  0  0  0
 23 22  1  0  0  0  0
 23 15  2  0  0  0  0
 24 21  1  0  0  0  0
 25 26  2  0  0  0  0
 25 24  1  0  0  0  0
 26 27  1  0  0  0  0
 27 33  1  0  0  0  0
 28 27  2  0  0  0  0
 28 29  1  0  0  0  0
 29 30  2  0  0  0  0
 30 32  1  0  0  0  0
 30 31  1  0  0  0  0
 33 20  1  0  0  0  0
 33 32  2  0  0  0  0
 34  2  1  0  0  0  0
 34 25  1  0  0  0  0
 35 34  2  0  0  0  0
 36 12  1  0  0  0  0
 37 42  1  0  0  0  0
 37 38  1  0  0  0  0
 38 39  1  0  0  0  0
 39 40  1  0  0  0  0
 41 40  1  0  0  0  0
 42 41  1  0  0  0  0
M  END
>  <minimizedAffinity>
-4.25529099

$$$$

 OpenBabel09082221133D

 42 47  0  0  0  0  0  0  0  0999 V2000
    4.0000    5.4730    6.9840 C   0  0  0  0  0  1  0  0  0  0  0  0
    2.9650    4.4410    7.0350 N   0  0  0  0  0  0  0  0  0  0  0  0
    1.6600    4.8550    7.5490 C   0  0  0  0  0  2  0  0  0  0  0  0
    0.8520    5.6560    6.5240 C   0  0  0  0  0  2  0  0  0  0  0  0
    0.2760    4.7810    5.4060 C   0  0  0  0  0  2  0  0  0  0  0  0
   -0.4720    5.6080    4.3620 C   0  0  0  0  0  2  0  0  0  0  0  0
    0.3700    5.7470    3.1300 N   0  0  0  0  0  0  0  0  0  0  0  0
   -0.2060    4.9750    2.0040 C   0  0  0  0  0  1  0  0  0  0  0  0
    0.7920    7.3500    2.7830 S   0  0  0  0  0  0  0  0  0  0  0  0
   -0.4090    8.0220    2.3460 O   0  0  0  0  0  0  0  0  0  0  0  0
    1.5940    7.8570    3.8670 O   0  0  0  0  0  0  0  0  0  0  0  0
    1.7280    7.1520    1.4190 N   0  0  0  0  0  0  0  0  0  0  0  0
    3.0200    7.7010    1.3330 C   0  0  0  0  0  0  0  0  0  0  0  0
    3.2480    8.5490    0.4830 O   0  0  0  0  0  0  0  0  0  0  0  0
    4.1070    7.1310    2.1750 C   0  0  0  0  0  0  0  0  0  0  0  0
    5.2690    7.8900    2.3160 C   0  0  0  0  0  3  0  0  0  0  0  0
    6.3820    7.3780    2.9910 C   0  0  0  0  0  3  0  0  0  0  0  0
    6.3500    6.0680    3.5160 C   0  0  0  0  0  0  0  0  0  0  0  0
    7.3170    5.2460    4.1960 C   0  0  0  0  0  0  0  0  0  0  0  0
    6.7250    3.9980    4.3920 C   0  0  0  0  0  0  0  0  0  0  0  0
    5.3950    4.1230    4.0200 N   0  0  0  0  0  0  0  0  0  0  0  0
    5.1700    5.3310    3.3900 C   0  0  0  0  0  0  0  0  0  0  0  0
    4.0310    5.8450    2.7340 C   0  0  0  0  0  3  0  0  0  0  0  0
    4.3770    3.1230    4.3290 C   0  0  0  0  0  2  0  0  0  0  0  0
    4.3480    2.8550    5.8010 C   0  0  0  0  0  0  0  0  0  0  0  0
    5.3480    2.3360    6.5310 C   0  0  0  0  0  3  0  0  0  0  0  0
    6.6510    1.9820    5.9450 C   0  0  0  0  0  0  0  0  0  0  0  0
    7.2760    0.8260    6.4410 C   0  0  0  0  0  3  0  0  0  0  0  0
    8.5010    0.3980    5.9280 C   0  0  0  0  0  3  0  0  0  0  0  0
    9.1090    1.1240    4.9100 C   0  0  0  0  0  0  0  0  0  0  0  0
   10.6100    0.5920    4.2610 Cl  0  0  0  0  0  0  0  0  0  0  0  0
    8.5110    2.2800    4.4150 C   0  0  0  0  0  3  0  0  0  0  0  0
    7.2910    2.7430    4.9380 C   0  0  0  0  0  0  0  0  0  0  0  0
    3.0830    3.1720    6.4920 C   0  0  0  0  0  0  0  0  0  0  0  0
    2.1950    2.3220    6.5060 O   0  0  0  0  0  0  0  0  0  0  0  0
    1.1620    7.5220    0.6560 H   0  0  0  0  0  0  0  0  0  0  0  0
    8.7180    5.6510    4.6150 C   0  0  0  0  0  3  0  0  0  0  0  0
    9.6310    5.9530    3.4160 C   0  0  0  0  0  2  0  0  0  0  0  0
   11.0440    6.3190    3.8680 C   0  0  0  0  0  2  0  0  0  0  0  0
   11.0330    7.4730    4.8670 C   0  0  0  0  0  2  0  0  0  0  0  0
   10.1340    7.1740    6.0620 C   0  0  0  0  0  2  0  0  0  0  0  0
    8.7160    6.8120    5.6250 C   0  0  0  0  0  2  0  0  0  0  0  0
  1  2  1  0  0  0  0
  2  3  1  0  0  0  0
  4  3  1  0  0  0  0
  5  4  1  0  0  0  0
  6  5  1  0  0  0  0
  7  6  1  0  0  0  0
  8  7  1  0  0  0  0
  9  7  1  0  0  0  0
  9 11  2  0  0  0  0
 10  9  2  0  0  0  0
 12  9  1  0  0  0  0
 13 12  1  0  0  0  0
 13 15  1  0  0  0  0
 14 13  2  0  0  0  0
 15 16  2  0  0  0  0
 15 23  1  0  0  0  0
 16 17  1  0  0  0  0
 17 18  2  0  0  0  0
 18 19  1  0  0  0  0
 19 20  2  0  0  0  0
 19 37  1  0  0  0  0
 20 33  1  0  0  0  0
 21 24  1  0  0  0  0
 21 20  1  0  0  0  0
 22 18  1  0  0  0  0
 22 21  1  0  0  0  0
 23 22  2  0  0  0  0
 24 25  1  0  0  0  0
 25 34  1  0  0  0  0
 25 26  2  0  0  0  0
 27 28  1  0  0  0  0
 27 26  1  0  0  0  0
 29 28  2  0  0  0  0
 30 29  1  0  0  0  0
 31 30  1  0  0  0  0
 32 30  2  0  0  0  0
 32 33  1  0  0  0  0
 33 27  2  0  0  0  0
 34 35  2  0  0  0  0
 34  2  1  0  0  0  0
 36 12  1  0  0  0  0
 37 42  1  0  0  0  0
 38 39  1  0  0  0  0
 38 37  1  0  0  0  0
 39 40  1  0  0  0  0
 40 41  1  0  0  0  0
 42 41  1  0  0  0  0
M  END
>  <minimizedAffinity>
-4.23469543

$$$$

 OpenBabel09082221133D

 42 47  0  0  0  0  0  0  0  0999 V2000
    7.2730   -1.3810    7.5090 C   0  0  0  0  0  1  0  0  0  0  0  0
    6.4150   -0.4940    8.2940 N   0  0  0  0  0  0  0  0  0  0  0  0
    6.9520   -0.0360    9.5740 C   0  0  0  0  0  2  0  0  0  0  0  0
    7.9970    1.0730    9.4100 C   0  0  0  0  0  2  0  0  0  0  0  0
    7.3770    2.4250    9.0410 C   0  0  0  0  0  2  0  0  0  0  0  0
    8.4400    3.4990    8.8210 C   0  0  0  0  0  2  0  0  0  0  0  0
    8.6110    3.7460    7.3520 N   0  0  0  0  0  0  0  0  0  0  0  0
    8.0930    5.0830    6.9780 C   0  0  0  0  0  1  0  0  0  0  0  0
   10.1610    3.3720    6.7840 S   0  0  0  0  0  0  0  0  0  0  0  0
   11.0620    4.3680    7.3160 O   0  0  0  0  0  0  0  0  0  0  0  0
   10.3910    1.9630    6.9750 O   0  0  0  0  0  0  0  0  0  0  0  0
   10.0060    3.7160    5.1620 N   0  0  0  0  0  0  0  0  0  0  0  0
   10.3560    2.7740    4.1780 C   0  0  0  0  0  0  0  0  0  0  0  0
   11.2640    3.0360    3.4030 O   0  0  0  0  0  0  0  0  0  0  0  0
    9.5190    1.5540    4.0120 C   0  0  0  0  0  0  0  0  0  0  0  0
   10.0650    0.5010    3.2780 C   0  0  0  0  0  3  0  0  0  0  0  0
    9.3030   -0.6320    2.9740 C   0  0  0  0  0  3  0  0  0  0  0  0
    7.9550   -0.7100    3.3870 C   0  0  0  0  0  0  0  0  0  0  0  0
    6.9120   -1.6830    3.1960 C   0  0  0  0  0  0  0  0  0  0  0  0
    5.7540   -1.1580    3.7720 C   0  0  0  0  0  0  0  0  0  0  0  0
    6.1310   -0.0080    4.4480 N   0  0  0  0  0  0  0  0  0  0  0  0
    7.4320    0.3400    4.1450 C   0  0  0  0  0  0  0  0  0  0  0  0
    8.1970    1.4780    4.4810 C   0  0  0  0  0  3  0  0  0  0  0  0
    5.2660    0.6820    5.4030 C   0  0  0  0  0  2  0  0  0  0  0  0
    4.8130   -0.2670    6.4660 C   0  0  0  0  0  0  0  0  0  0  0  0
    4.0540   -1.3600    6.2820 C   0  0  0  0  0  3  0  0  0  0  0  0
    3.5860   -1.7790    4.9510 C   0  0  0  0  0  0  0  0  0  0  0  0
    2.2910   -2.3210    4.8770 C   0  0  0  0  0  3  0  0  0  0  0  0
    1.7530   -2.7220    3.6540 C   0  0  0  0  0  3  0  0  0  0  0  0
    2.5050   -2.5800    2.4940 C   0  0  0  0  0  0  0  0  0  0  0  0
    1.8400   -3.0560    0.9810 Cl  0  0  0  0  0  0  0  0  0  0  0  0
    3.7950   -2.0580    2.5500 C   0  0  0  0  0  3  0  0  0  0  0  0
    4.3660   -1.6740    3.7760 C   0  0  0  0  0  0  0  0  0  0  0  0
    5.2260    0.0600    7.8460 C   0  0  0  0  0  0  0  0  0  0  0  0
    4.5280    0.8340    8.4970 O   0  0  0  0  0  0  0  0  0  0  0  0
   10.5560    4.5620    5.0180 H   0  0  0  0  0  0  0  0  0  0  0  0
    7.0380   -3.0220    2.4930 C   0  0  0  0  0  3  0  0  0  0  0  0
    6.4690   -4.1830    3.3240 C   0  0  0  0  0  2  0  0  0  0  0  0
    6.6460   -5.5220    2.6080 C   0  0  0  0  0  2  0  0  0  0  0  0
    6.0470   -5.4920    1.2040 C   0  0  0  0  0  2  0  0  0  0  0  0
    6.6160   -4.3450    0.3740 C   0  0  0  0  0  2  0  0  0  0  0  0
    6.4400   -3.0000    1.0760 C   0  0  0  0  0  2  0  0  0  0  0  0
  1  2  1  0  0  0  0
  2  3  1  0  0  0  0
  4  3  1  0  0  0  0
  5  4  1  0  0  0  0
  6  5  1  0  0  0  0
  7  6  1  0  0  0  0
  8  7  1  0  0  0  0
  9 11  2  0  0  0  0
  9 10  2  0  0  0  0
  9  7  1  0  0  0  0
 12  9  1  0  0  0  0
 13 12  1  0  0  0  0
 14 13  2  0  0  0  0
 15 13  1  0  0  0  0
 15 23  1  0  0  0  0
 16 15  2  0  0  0  0
 17 16  1  0  0  0  0
 17 18  2  0  0  0  0
 18 22  1  0  0  0  0
 19 18  1  0  0  0  0
 19 20  2  0  0  0  0
 20 33  1  0  0  0  0
 20 21  1  0  0  0  0
 21 24  1  0  0  0  0
 22 21  1  0  0  0  0
 22 23  2  0  0  0  0
 24 25  1  0  0  0  0
 25 34  1  0  0  0  0
 26 25  2  0  0  0  0
 27 26  1  0  0  0  0
 28 27  1  0  0  0  0
 29 28  2  0  0  0  0
 30 32  2  0  0  0  0
 30 29  1  0  0  0  0
 31 30  1  0  0  0  0
 32 33  1  0  0  0  0
 33 27  2  0  0  0  0
 34  2  1  0  0  0  0
 34 35  2  0  0  0  0
 36 12  1  0  0  0  0
 37 19  1  0  0  0  0
 37 38  1  0  0  0  0
 39 38  1  0  0  0  0
 40 39  1  0  0  0  0
 41 42  1  0  0  0  0
 41 40  1  0  0  0  0
 42 37  1  0  0  0  0
M  END
>  <minimizedAffinity>
-4.15162754

$$$$

 OpenBabel09082221133D

 42 47  0  0  0  0  0  0  0  0999 V2000
    5.8940    1.7330    7.0720 C   0  0  0  0  0  1  0  0  0  0  0  0
    5.7670    0.3780    7.6070 N   0  0  0  0  0  0  0  0  0  0  0  0
    4.8580   -0.5190    6.8950 C   0  0  0  0  0  2  0  0  0  0  0  0
    5.4640   -1.0580    5.5950 C   0  0  0  0  0  2  0  0  0  0  0  0
    6.5340   -2.1280    5.8360 C   0  0  0  0  0  2  0  0  0  0  0  0
    7.1680   -2.6050    4.5310 C   0  0  0  0  0  2  0  0  0  0  0  0
    8.5290   -1.9960    4.3790 N   0  0  0  0  0  0  0  0  0  0  0  0
    9.5870   -3.0230    4.5260 C   0  0  0  0  0  1  0  0  0  0  0  0
    8.6660   -0.9880    3.0260 S   0  0  0  0  0  0  0  0  0  0  0  0
    8.6360   -1.8350    1.8570 O   0  0  0  0  0  0  0  0  0  0  0  0
    7.7570    0.1180    3.1850 O   0  0  0  0  0  0  0  0  0  0  0  0
   10.2410   -0.4630    3.1690 N   0  0  0  0  0  0  0  0  0  0  0  0
   10.5610    0.9060    3.1470 C   0  0  0  0  0  0  0  0  0  0  0  0
   11.2650    1.3360    2.2450 O   0  0  0  0  0  0  0  0  0  0  0  0
   10.1590    1.7620    4.2970 C   0  0  0  0  0  0  0  0  0  0  0  0
   10.1890    3.1440    4.1040 C   0  0  0  0  0  3  0  0  0  0  0  0
    9.9410    4.0200    5.1650 C   0  0  0  0  0  3  0  0  0  0  0  0
    9.6840    3.5130    6.4570 C   0  0  0  0  0  0  0  0  0  0  0  0
    9.4510    4.1280    7.7380 C   0  0  0  0  0  0  0  0  0  0  0  0
    9.3450    3.0960    8.6720 C   0  0  0  0  0  0  0  0  0  0  0  0
    9.3220    1.9100    7.9550 N   0  0  0  0  0  0  0  0  0  0  0  0
    9.6300    2.1280    6.6270 C   0  0  0  0  0  0  0  0  0  0  0  0
    9.8520    1.2310    5.5600 C   0  0  0  0  0  3  0  0  0  0  0  0
    8.9490    0.6250    8.5420 C   0  0  0  0  0  2  0  0  0  0  0  0
    7.6000    0.7220    9.1810 C   0  0  0  0  0  0  0  0  0  0  0  0
    7.2710    1.5060   10.2210 C   0  0  0  0  0  3  0  0  0  0  0  0
    8.2370    2.4150   10.8590 C   0  0  0  0  0  0  0  0  0  0  0  0
    8.1500    2.5520   12.2560 C   0  0  0  0  0  3  0  0  0  0  0  0
    9.0400    3.3720   12.9500 C   0  0  0  0  0  3  0  0  0  0  0  0
   10.0270    4.0590   12.2520 C   0  0  0  0  0  0  0  0  0  0  0  0
   11.1370    5.0580   13.1050 Cl  0  0  0  0  0  0  0  0  0  0  0  0
   10.1190    3.9460   10.8670 C   0  0  0  0  0  3  0  0  0  0  0  0
    9.2150    3.1470   10.1460 C   0  0  0  0  0  0  0  0  0  0  0  0
    6.5520   -0.1520    8.6190 C   0  0  0  0  0  0  0  0  0  0  0  0
    6.4640   -1.3040    9.0380 O   0  0  0  0  0  0  0  0  0  0  0  0
   10.7440   -0.9300    2.4140 H   0  0  0  0  0  0  0  0  0  0  0  0
    9.3490    5.6140    8.0260 C   0  0  0  0  0  3  0  0  0  0  0  0
   10.6130    6.3860    7.6160 C   0  0  0  0  0  2  0  0  0  0  0  0
   10.4950    7.8720    7.9540 C   0  0  0  0  0  2  0  0  0  0  0  0
    9.2400    8.4900    7.3440 C   0  0  0  0  0  2  0  0  0  0  0  0
    7.9820    7.7310    7.7550 C   0  0  0  0  0  2  0  0  0  0  0  0
    8.0840    6.2440    7.4170 C   0  0  0  0  0  2  0  0  0  0  0  0
  1  2  1  0  0  0  0
  2 34  1  0  0  0  0
  3  2  1  0  0  0  0
  4  5  1  0  0  0  0
  4  3  1  0  0  0  0
  6  5  1  0  0  0  0
  7  8  1  0  0  0  0
  7  6  1  0  0  0  0
  9 12  1  0  0  0  0
  9 11  2  0  0  0  0
  9  7  1  0  0  0  0
 10  9  2  0  0  0  0
 13 12  1  0  0  0  0
 13 15  1  0  0  0  0
 14 13  2  0  0  0  0
 15 23  1  0  0  0  0
 16 15  2  0  0  0  0
 16 17  1  0  0  0  0
 17 18  2  0  0  0  0
 18 22  1  0  0  0  0
 18 19  1  0  0  0  0
 19 37  1  0  0  0  0
 19 20  2  0  0  0  0
 20 33  1  0  0  0  0
 21 24  1  0  0  0  0
 21 20  1  0  0  0  0
 22 21  1  0  0  0  0
 23 22  2  0  0  0  0
 24 25  1  0  0  0  0
 25 26  2  0  0  0  0
 26 27  1  0  0  0  0
 27 28  1  0  0  0  0
 28 29  2  0  0  0  0
 30 29  1  0  0  0  0
 30 31  1  0  0  0  0
 32 30  2  0  0  0  0
 33 27  2  0  0  0  0
 33 32  1  0  0  0  0
 34 35  2  0  0  0  0
 34 25  1  0  0  0  0
 36 12  1  0  0  0  0
 38 39  1  0  0  0  0
 38 37  1  0  0  0  0
 40 41  1  0  0  0  0
 40 39  1  0  0  0  0
 42 41  1  0  0  0  0
 42 37  1  0  0  0  0
M  END
>  <minimizedAffinity>
-3.96578979

$$$$
