
 OpenBabel09092210413D

 42 47  0  0  0  0  0  0  0  0999 V2000
    8.7240   -0.7300    7.1080 C   0  0  0  0  0  1  0  0  0  0  0  0
    9.7080   -1.4250    6.2780 N   0  0  0  0  0  0  0  0  0  0  0  0
   10.0410   -2.7920    6.6740 C   0  0  0  0  0  2  0  0  0  0  0  0
    8.9550   -3.7990    6.2800 C   0  0  0  0  0  2  0  0  0  0  0  0
    8.9410   -4.1020    4.7780 C   0  0  0  0  0  2  0  0  0  0  0  0
    7.8120   -5.0580    4.3990 C   0  0  0  0  0  2  0  0  0  0  0  0
    6.7030   -4.2930    3.7430 N   0  0  0  0  0  0  0  0  0  0  0  0
    6.6110   -4.6270    2.3020 C   0  0  0  0  0  1  0  0  0  0  0  0
    5.2470   -4.3500    4.6050 S   0  0  0  0  0  0  0  0  0  0  0  0
    4.7330   -5.6950    4.4860 O   0  0  0  0  0  0  0  0  0  0  0  0
    5.4490   -3.7260    5.8870 O   0  0  0  0  0  0  0  0  0  0  0  0
    4.2660   -3.4010    3.6510 N   0  0  0  0  0  0  0  0  0  0  0  0
    3.5440   -2.3210    4.1910 C   0  0  0  0  0  0  0  0  0  0  0  0
    2.3220   -2.3470    4.1570 O   0  0  0  0  0  0  0  0  0  0  0  0
    4.2840   -1.1140    4.6530 C   0  0  0  0  0  0  0  0  0  0  0  0
    3.5950   -0.2190    5.4720 C   0  0  0  0  0  3  0  0  0  0  0  0
    4.1750    0.9960    5.8530 C   0  0  0  0  0  3  0  0  0  0  0  0
    5.4610    1.3430    5.3860 C   0  0  0  0  0  0  0  0  0  0  0  0
    6.2940    2.5060    5.5420 C   0  0  0  0  0  0  0  0  0  0  0  0
    7.4350    2.2980    4.7650 C   0  0  0  0  0  0  0  0  0  0  0  0
    7.3780    0.9880    4.3160 N   0  0  0  0  0  0  0  0  0  0  0  0
    6.1480    0.4240    4.5900 C   0  0  0  0  0  0  0  0  0  0  0  0
    5.5850   -0.8170    4.2190 C   0  0  0  0  0  3  0  0  0  0  0  0
    8.5110    0.3010    3.7000 C   0  0  0  0  0  2  0  0  0  0  0  0
    9.7000    0.3530    4.6070 C   0  0  0  0  0  0  0  0  0  0  0  0
   10.3460    1.4620    5.0030 C   0  0  0  0  0  3  0  0  0  0  0  0
    9.9220    2.8100    4.5920 C   0  0  0  0  0  0  0  0  0  0  0  0
   10.9410    3.7420    4.3310 C   0  0  0  0  0  3  0  0  0  0  0  0
   10.6350    5.0370    3.9110 C   0  0  0  0  0  3  0  0  0  0  0  0
    9.3060    5.4080    3.7470 C   0  0  0  0  0  0  0  0  0  0  0  0
    8.9230    6.9980    3.2130 Cl  0  0  0  0  0  0  0  0  0  0  0  0
    8.2820    4.5020    4.0140 C   0  0  0  0  0  3  0  0  0  0  0  0
    8.5690    3.2020    4.4650 C   0  0  0  0  0  0  0  0  0  0  0  0
   10.2130   -0.9490    5.0790 C   0  0  0  0  0  0  0  0  0  0  0  0
   11.0110   -1.5550    4.3680 O   0  0  0  0  0  0  0  0  0  0  0  0
    3.6100   -4.0500    3.2180 H   0  0  0  0  0  0  0  0  0  0  0  0
    5.9920    3.7330    6.3830 C   0  0  0  0  0  3  0  0  0  0  0  0
    4.7880    4.5300    5.8570 C   0  0  0  0  0  2  0  0  0  0  0  0
    4.5330    5.7780    6.7000 C   0  0  0  0  0  2  0  0  0  0  0  0
    4.3740    5.4360    8.1790 C   0  0  0  0  0  2  0  0  0  0  0  0
    5.5710    4.6510    8.7070 C   0  0  0  0  0  2  0  0  0  0  0  0
    5.8340    3.3960    7.8760 C   0  0  0  0  0  2  0  0  0  0  0  0
  2  3  1  0  0  0  0
  2  1  1  0  0  0  0
  4  3  1  0  0  0  0
  5  4  1  0  0  0  0
  6  5  1  0  0  0  0
  7  6  1  0  0  0  0
  7  9  1  0  0  0  0
  8  7  1  0  0  0  0
  9 11  2  0  0  0  0
 10  9  2  0  0  0  0
 12 13  1  0  0  0  0
 12  9  1  0  0  0  0
 13 15  1  0  0  0  0
 14 13  2  0  0  0  0
 15 16  1  0  0  0  0
 16 17  2  0  0  0  0
 18 19  1  0  0  0  0
 18 17  1  0  0  0  0
 19 37  1  0  0  0  0
 20 19  2  0  0  0  0
 21 22  1  0  0  0  0
 21 20  1  0  0  0  0
 22 18  2  0  0  0  0
 23 22  1  0  0  0  0
 23 15  2  0  0  0  0
 24 21  1  0  0  0  0
 24 25  1  0  0  0  0
 25 26  2  0  0  0  0
 25 34  1  0  0  0  0
 27 26  1  0  0  0  0
 28 27  2  0  0  0  0
 29 28  1  0  0  0  0
 30 29  2  0  0  0  0
 30 32  1  0  0  0  0
 31 30  1  0  0  0  0
 32 33  2  0  0  0  0
 33 27  1  0  0  0  0
 33 20  1  0  0  0  0
 34  2  1  0  0  0  0
 35 34  2  0  0  0  0
 36 12  1  0  0  0  0
 37 42  1  0  0  0  0
 38 37  1  0  0  0  0
 38 39  1  0  0  0  0
 39 40  1  0  0  0  0
 40 41  1  0  0  0  0
 42 41  1  0  0  0  0
M  END
>  <minimizedAffinity>
-4.34397602

$$$$
