
 OpenBabel09092210413D

 42 47  0  0  0  0  0  0  0  0999 V2000
    4.0000    5.4730    6.9840 C   0  0  0  0  0  1  0  0  0  0  0  0
    2.9650    4.4410    7.0350 N   0  0  0  0  0  0  0  0  0  0  0  0
    1.6600    4.8550    7.5490 C   0  0  0  0  0  2  0  0  0  0  0  0
    0.8520    5.6560    6.5240 C   0  0  0  0  0  2  0  0  0  0  0  0
    0.2760    4.7810    5.4060 C   0  0  0  0  0  2  0  0  0  0  0  0
   -0.4720    5.6080    4.3620 C   0  0  0  0  0  2  0  0  0  0  0  0
    0.3700    5.7470    3.1300 N   0  0  0  0  0  0  0  0  0  0  0  0
   -0.2060    4.9750    2.0040 C   0  0  0  0  0  1  0  0  0  0  0  0
    0.7920    7.3500    2.7830 S   0  0  0  0  0  0  0  0  0  0  0  0
   -0.4090    8.0220    2.3460 O   0  0  0  0  0  0  0  0  0  0  0  0
    1.5940    7.8570    3.8670 O   0  0  0  0  0  0  0  0  0  0  0  0
    1.7280    7.1520    1.4190 N   0  0  0  0  0  0  0  0  0  0  0  0
    3.0200    7.7010    1.3330 C   0  0  0  0  0  0  0  0  0  0  0  0
    3.2480    8.5490    0.4830 O   0  0  0  0  0  0  0  0  0  0  0  0
    4.1070    7.1310    2.1750 C   0  0  0  0  0  0  0  0  0  0  0  0
    5.2690    7.8900    2.3160 C   0  0  0  0  0  3  0  0  0  0  0  0
    6.3820    7.3780    2.9910 C   0  0  0  0  0  3  0  0  0  0  0  0
    6.3500    6.0680    3.5160 C   0  0  0  0  0  0  0  0  0  0  0  0
    7.3170    5.2460    4.1960 C   0  0  0  0  0  0  0  0  0  0  0  0
    6.7250    3.9980    4.3920 C   0  0  0  0  0  0  0  0  0  0  0  0
    5.3950    4.1230    4.0200 N   0  0  0  0  0  0  0  0  0  0  0  0
    5.1700    5.3310    3.3900 C   0  0  0  0  0  0  0  0  0  0  0  0
    4.0310    5.8450    2.7340 C   0  0  0  0  0  3  0  0  0  0  0  0
    4.3770    3.1230    4.3290 C   0  0  0  0  0  2  0  0  0  0  0  0
    4.3480    2.8550    5.8010 C   0  0  0  0  0  0  0  0  0  0  0  0
    5.3480    2.3360    6.5310 C   0  0  0  0  0  3  0  0  0  0  0  0
    6.6510    1.9820    5.9450 C   0  0  0  0  0  0  0  0  0  0  0  0
    7.2760    0.8260    6.4410 C   0  0  0  0  0  3  0  0  0  0  0  0
    8.5010    0.3980    5.9280 C   0  0  0  0  0  3  0  0  0  0  0  0
    9.1090    1.1240    4.9100 C   0  0  0  0  0  0  0  0  0  0  0  0
   10.6100    0.5920    4.2610 Cl  0  0  0  0  0  0  0  0  0  0  0  0
    8.5110    2.2800    4.4150 C   0  0  0  0  0  3  0  0  0  0  0  0
    7.2910    2.7430    4.9380 C   0  0  0  0  0  0  0  0  0  0  0  0
    3.0830    3.1720    6.4920 C   0  0  0  0  0  0  0  0  0  0  0  0
    2.1950    2.3220    6.5060 O   0  0  0  0  0  0  0  0  0  0  0  0
    1.1620    7.5220    0.6560 H   0  0  0  0  0  0  0  0  0  0  0  0
    8.7180    5.6510    4.6150 C   0  0  0  0  0  3  0  0  0  0  0  0
    9.6310    5.9530    3.4160 C   0  0  0  0  0  2  0  0  0  0  0  0
   11.0440    6.3190    3.8680 C   0  0  0  0  0  2  0  0  0  0  0  0
   11.0330    7.4730    4.8670 C   0  0  0  0  0  2  0  0  0  0  0  0
   10.1340    7.1740    6.0620 C   0  0  0  0  0  2  0  0  0  0  0  0
    8.7160    6.8120    5.6250 C   0  0  0  0  0  2  0  0  0  0  0  0
  1  2  1  0  0  0  0
  2  3  1  0  0  0  0
  4  3  1  0  0  0  0
  5  4  1  0  0  0  0
  6  5  1  0  0  0  0
  7  6  1  0  0  0  0
  8  7  1  0  0  0  0
  9  7  1  0  0  0  0
  9 11  2  0  0  0  0
 10  9  2  0  0  0  0
 12  9  1  0  0  0  0
 13 12  1  0  0  0  0
 13 15  1  0  0  0  0
 14 13  2  0  0  0  0
 15 16  2  0  0  0  0
 15 23  1  0  0  0  0
 16 17  1  0  0  0  0
 17 18  2  0  0  0  0
 18 19  1  0  0  0  0
 19 20  2  0  0  0  0
 19 37  1  0  0  0  0
 20 33  1  0  0  0  0
 21 24  1  0  0  0  0
 21 20  1  0  0  0  0
 22 18  1  0  0  0  0
 22 21  1  0  0  0  0
 23 22  2  0  0  0  0
 24 25  1  0  0  0  0
 25 34  1  0  0  0  0
 25 26  2  0  0  0  0
 27 28  1  0  0  0  0
 27 26  1  0  0  0  0
 29 28  2  0  0  0  0
 30 29  1  0  0  0  0
 31 30  1  0  0  0  0
 32 30  2  0  0  0  0
 32 33  1  0  0  0  0
 33 27  2  0  0  0  0
 34 35  2  0  0  0  0
 34  2  1  0  0  0  0
 36 12  1  0  0  0  0
 37 42  1  0  0  0  0
 38 39  1  0  0  0  0
 38 37  1  0  0  0  0
 39 40  1  0  0  0  0
 40 41  1  0  0  0  0
 42 41  1  0  0  0  0
M  END
>  <minimizedAffinity>
-4.23469543

$$$$
