
 OpenBabel09092210413D

 42 47  0  0  0  0  0  0  0  0999 V2000
    5.8940    1.7330    7.0720 C   0  0  0  0  0  1  0  0  0  0  0  0
    5.7670    0.3780    7.6070 N   0  0  0  0  0  0  0  0  0  0  0  0
    4.8580   -0.5190    6.8950 C   0  0  0  0  0  2  0  0  0  0  0  0
    5.4640   -1.0580    5.5950 C   0  0  0  0  0  2  0  0  0  0  0  0
    6.5340   -2.1280    5.8360 C   0  0  0  0  0  2  0  0  0  0  0  0
    7.1680   -2.6050    4.5310 C   0  0  0  0  0  2  0  0  0  0  0  0
    8.5290   -1.9960    4.3790 N   0  0  0  0  0  0  0  0  0  0  0  0
    9.5870   -3.0230    4.5260 C   0  0  0  0  0  1  0  0  0  0  0  0
    8.6660   -0.9880    3.0260 S   0  0  0  0  0  0  0  0  0  0  0  0
    8.6360   -1.8350    1.8570 O   0  0  0  0  0  0  0  0  0  0  0  0
    7.7570    0.1180    3.1850 O   0  0  0  0  0  0  0  0  0  0  0  0
   10.2410   -0.4630    3.1690 N   0  0  0  0  0  0  0  0  0  0  0  0
   10.5610    0.9060    3.1470 C   0  0  0  0  0  0  0  0  0  0  0  0
   11.2650    1.3360    2.2450 O   0  0  0  0  0  0  0  0  0  0  0  0
   10.1590    1.7620    4.2970 C   0  0  0  0  0  0  0  0  0  0  0  0
   10.1890    3.1440    4.1040 C   0  0  0  0  0  3  0  0  0  0  0  0
    9.9410    4.0200    5.1650 C   0  0  0  0  0  3  0  0  0  0  0  0
    9.6840    3.5130    6.4570 C   0  0  0  0  0  0  0  0  0  0  0  0
    9.4510    4.1280    7.7380 C   0  0  0  0  0  0  0  0  0  0  0  0
    9.3450    3.0960    8.6720 C   0  0  0  0  0  0  0  0  0  0  0  0
    9.3220    1.9100    7.9550 N   0  0  0  0  0  0  0  0  0  0  0  0
    9.6300    2.1280    6.6270 C   0  0  0  0  0  0  0  0  0  0  0  0
    9.8520    1.2310    5.5600 C   0  0  0  0  0  3  0  0  0  0  0  0
    8.9490    0.6250    8.5420 C   0  0  0  0  0  2  0  0  0  0  0  0
    7.6000    0.7220    9.1810 C   0  0  0  0  0  0  0  0  0  0  0  0
    7.2710    1.5060   10.2210 C   0  0  0  0  0  3  0  0  0  0  0  0
    8.2370    2.4150   10.8590 C   0  0  0  0  0  0  0  0  0  0  0  0
    8.1500    2.5520   12.2560 C   0  0  0  0  0  3  0  0  0  0  0  0
    9.0400    3.3720   12.9500 C   0  0  0  0  0  3  0  0  0  0  0  0
   10.0270    4.0590   12.2520 C   0  0  0  0  0  0  0  0  0  0  0  0
   11.1370    5.0580   13.1050 Cl  0  0  0  0  0  0  0  0  0  0  0  0
   10.1190    3.9460   10.8670 C   0  0  0  0  0  3  0  0  0  0  0  0
    9.2150    3.1470   10.1460 C   0  0  0  0  0  0  0  0  0  0  0  0
    6.5520   -0.1520    8.6190 C   0  0  0  0  0  0  0  0  0  0  0  0
    6.4640   -1.3040    9.0380 O   0  0  0  0  0  0  0  0  0  0  0  0
   10.7440   -0.9300    2.4140 H   0  0  0  0  0  0  0  0  0  0  0  0
    9.3490    5.6140    8.0260 C   0  0  0  0  0  3  0  0  0  0  0  0
   10.6130    6.3860    7.6160 C   0  0  0  0  0  2  0  0  0  0  0  0
   10.4950    7.8720    7.9540 C   0  0  0  0  0  2  0  0  0  0  0  0
    9.2400    8.4900    7.3440 C   0  0  0  0  0  2  0  0  0  0  0  0
    7.9820    7.7310    7.7550 C   0  0  0  0  0  2  0  0  0  0  0  0
    8.0840    6.2440    7.4170 C   0  0  0  0  0  2  0  0  0  0  0  0
  1  2  1  0  0  0  0
  2 34  1  0  0  0  0
  3  2  1  0  0  0  0
  4  5  1  0  0  0  0
  4  3  1  0  0  0  0
  6  5  1  0  0  0  0
  7  8  1  0  0  0  0
  7  6  1  0  0  0  0
  9 12  1  0  0  0  0
  9 11  2  0  0  0  0
  9  7  1  0  0  0  0
 10  9  2  0  0  0  0
 13 12  1  0  0  0  0
 13 15  1  0  0  0  0
 14 13  2  0  0  0  0
 15 23  1  0  0  0  0
 16 15  2  0  0  0  0
 16 17  1  0  0  0  0
 17 18  2  0  0  0  0
 18 22  1  0  0  0  0
 18 19  1  0  0  0  0
 19 37  1  0  0  0  0
 19 20  2  0  0  0  0
 20 33  1  0  0  0  0
 21 24  1  0  0  0  0
 21 20  1  0  0  0  0
 22 21  1  0  0  0  0
 23 22  2  0  0  0  0
 24 25  1  0  0  0  0
 25 26  2  0  0  0  0
 26 27  1  0  0  0  0
 27 28  1  0  0  0  0
 28 29  2  0  0  0  0
 30 29  1  0  0  0  0
 30 31  1  0  0  0  0
 32 30  2  0  0  0  0
 33 27  2  0  0  0  0
 33 32  1  0  0  0  0
 34 35  2  0  0  0  0
 34 25  1  0  0  0  0
 36 12  1  0  0  0  0
 38 39  1  0  0  0  0
 38 37  1  0  0  0  0
 40 41  1  0  0  0  0
 40 39  1  0  0  0  0
 42 41  1  0  0  0  0
 42 37  1  0  0  0  0
M  END
>  <minimizedAffinity>
-3.96578979

$$$$
