
 OpenBabel09092210413D

 42 47  0  0  0  0  0  0  0  0999 V2000
    6.2160    3.9350    7.9900 C   0  0  0  0  0  1  0  0  0  0  0  0
    5.1250    4.9050    7.8990 N   0  0  0  0  0  0  0  0  0  0  0  0
    5.2460    6.0990    8.7330 C   0  0  0  0  0  2  0  0  0  0  0  0
    6.2390    7.1170    8.1610 C   0  0  0  0  0  2  0  0  0  0  0  0
    5.6860    7.8680    6.9440 C   0  0  0  0  0  2  0  0  0  0  0  0
    6.7130    8.8300    6.3530 C   0  0  0  0  0  2  0  0  0  0  0  0
    7.2880    8.2460    5.0980 N   0  0  0  0  0  0  0  0  0  0  0  0
    6.8360    9.0020    3.9070 C   0  0  0  0  0  1  0  0  0  0  0  0
    8.9530    7.9540    5.1950 S   0  0  0  0  0  0  0  0  0  0  0  0
    9.6120    9.2390    5.2010 O   0  0  0  0  0  0  0  0  0  0  0  0
    9.1870    6.9770    6.2270 O   0  0  0  0  0  0  0  0  0  0  0  0
    9.2560    7.2930    3.6970 N   0  0  0  0  0  0  0  0  0  0  0  0
    9.9210    6.0610    3.5620 C   0  0  0  0  0  0  0  0  0  0  0  0
   11.0010    6.0300    2.9890 O   0  0  0  0  0  0  0  0  0  0  0  0
    9.2290    4.8130    3.9850 C   0  0  0  0  0  0  0  0  0  0  0  0
   10.0150    3.6730    4.1510 C   0  0  0  0  0  3  0  0  0  0  0  0
    9.4290    2.4340    4.4310 C   0  0  0  0  0  3  0  0  0  0  0  0
    8.0260    2.3190    4.5240 C   0  0  0  0  0  0  0  0  0  0  0  0
    7.1310    1.2120    4.7390 C   0  0  0  0  0  0  0  0  0  0  0  0
    5.8320    1.7120    4.6390 C   0  0  0  0  0  0  0  0  0  0  0  0
    5.9410    3.0910    4.5590 N   0  0  0  0  0  0  0  0  0  0  0  0
    7.2550    3.4750    4.3830 C   0  0  0  0  0  0  0  0  0  0  0  0
    7.8340    4.7370    4.1250 C   0  0  0  0  0  3  0  0  0  0  0  0
    4.8040    3.9960    4.7160 C   0  0  0  0  0  2  0  0  0  0  0  0
    4.1100    3.7320    6.0150 C   0  0  0  0  0  0  0  0  0  0  0  0
    3.4920    2.5920    6.3650 C   0  0  0  0  0  3  0  0  0  0  0  0
    3.4490    1.4160    5.4820 C   0  0  0  0  0  0  0  0  0  0  0  0
    2.2590    0.6670    5.4810 C   0  0  0  0  0  3  0  0  0  0  0  0
    2.1170   -0.4490    4.6570 C   0  0  0  0  0  3  0  0  0  0  0  0
    3.1650   -0.8240    3.8240 C   0  0  0  0  0  0  0  0  0  0  0  0
    2.9900   -2.1900    2.7930 Cl  0  0  0  0  0  0  0  0  0  0  0  0
    4.3560   -0.1030    3.8210 C   0  0  0  0  0  3  0  0  0  0  0  0
    4.5290    1.0080    4.6640 C   0  0  0  0  0  0  0  0  0  0  0  0
    4.0910    4.8510    6.9780 C   0  0  0  0  0  0  0  0  0  0  0  0
    3.1980    5.6890    6.8820 O   0  0  0  0  0  0  0  0  0  0  0  0
    9.7820    8.0080    3.1950 H   0  0  0  0  0  0  0  0  0  0  0  0
    7.5210   -0.2290    5.0130 C   0  0  0  0  0  3  0  0  0  0  0  0
    8.1950   -0.9010    3.8060 C   0  0  0  0  0  2  0  0  0  0  0  0
    8.5390   -2.3610    4.1000 C   0  0  0  0  0  2  0  0  0  0  0  0
    9.3870   -2.4960    5.3620 C   0  0  0  0  0  2  0  0  0  0  0  0
    8.7170   -1.8370    6.5630 C   0  0  0  0  0  2  0  0  0  0  0  0
    8.3730   -0.3750    6.2860 C   0  0  0  0  0  2  0  0  0  0  0  0
  2  1  1  0  0  0  0
  2  3  1  0  0  0  0
  4  3  1  0  0  0  0
  5  4  1  0  0  0  0
  6  5  1  0  0  0  0
  7  9  1  0  0  0  0
  7  6  1  0  0  0  0
  8  7  1  0  0  0  0
  9 10  2  0  0  0  0
  9 11  2  0  0  0  0
 12  9  1  0  0  0  0
 13 12  1  0  0  0  0
 13 15  1  0  0  0  0
 14 13  2  0  0  0  0
 15 23  2  0  0  0  0
 15 16  1  0  0  0  0
 16 17  2  0  0  0  0
 17 18  1  0  0  0  0
 18 19  1  0  0  0  0
 19 37  1  0  0  0  0
 20 33  1  0  0  0  0
 20 19  2  0  0  0  0
 21 20  1  0  0  0  0
 21 24  1  0  0  0  0
 22 18  2  0  0  0  0
 22 21  1  0  0  0  0
 23 22  1  0  0  0  0
 24 25  1  0  0  0  0
 25 26  2  0  0  0  0
 25 34  1  0  0  0  0
 27 26  1  0  0  0  0
 28 27  1  0  0  0  0
 29 28  2  0  0  0  0
 30 29  1  0  0  0  0
 31 30  1  0  0  0  0
 32 30  2  0  0  0  0
 32 33  1  0  0  0  0
 33 27  2  0  0  0  0
 34  2  1  0  0  0  0
 35 34  2  0  0  0  0
 36 12  1  0  0  0  0
 37 42  1  0  0  0  0
 38 39  1  0  0  0  0
 38 37  1  0  0  0  0
 39 40  1  0  0  0  0
 40 41  1  0  0  0  0
 42 41  1  0  0  0  0
M  END
>  <minimizedAffinity>
-4.71685648

$$$$
