
 OpenBabel09092210413D

 42 47  0  0  0  0  0  0  0  0999 V2000
    7.2730   -1.3810    7.5090 C   0  0  0  0  0  1  0  0  0  0  0  0
    6.4150   -0.4940    8.2940 N   0  0  0  0  0  0  0  0  0  0  0  0
    6.9520   -0.0360    9.5740 C   0  0  0  0  0  2  0  0  0  0  0  0
    7.9970    1.0730    9.4100 C   0  0  0  0  0  2  0  0  0  0  0  0
    7.3770    2.4250    9.0410 C   0  0  0  0  0  2  0  0  0  0  0  0
    8.4400    3.4990    8.8210 C   0  0  0  0  0  2  0  0  0  0  0  0
    8.6110    3.7460    7.3520 N   0  0  0  0  0  0  0  0  0  0  0  0
    8.0930    5.0830    6.9780 C   0  0  0  0  0  1  0  0  0  0  0  0
   10.1610    3.3720    6.7840 S   0  0  0  0  0  0  0  0  0  0  0  0
   11.0620    4.3680    7.3160 O   0  0  0  0  0  0  0  0  0  0  0  0
   10.3910    1.9630    6.9750 O   0  0  0  0  0  0  0  0  0  0  0  0
   10.0060    3.7160    5.1620 N   0  0  0  0  0  0  0  0  0  0  0  0
   10.3560    2.7740    4.1780 C   0  0  0  0  0  0  0  0  0  0  0  0
   11.2640    3.0360    3.4030 O   0  0  0  0  0  0  0  0  0  0  0  0
    9.5190    1.5540    4.0120 C   0  0  0  0  0  0  0  0  0  0  0  0
   10.0650    0.5010    3.2780 C   0  0  0  0  0  3  0  0  0  0  0  0
    9.3030   -0.6320    2.9740 C   0  0  0  0  0  3  0  0  0  0  0  0
    7.9550   -0.7100    3.3870 C   0  0  0  0  0  0  0  0  0  0  0  0
    6.9120   -1.6830    3.1960 C   0  0  0  0  0  0  0  0  0  0  0  0
    5.7540   -1.1580    3.7720 C   0  0  0  0  0  0  0  0  0  0  0  0
    6.1310   -0.0080    4.4480 N   0  0  0  0  0  0  0  0  0  0  0  0
    7.4320    0.3400    4.1450 C   0  0  0  0  0  0  0  0  0  0  0  0
    8.1970    1.4780    4.4810 C   0  0  0  0  0  3  0  0  0  0  0  0
    5.2660    0.6820    5.4030 C   0  0  0  0  0  2  0  0  0  0  0  0
    4.8130   -0.2670    6.4660 C   0  0  0  0  0  0  0  0  0  0  0  0
    4.0540   -1.3600    6.2820 C   0  0  0  0  0  3  0  0  0  0  0  0
    3.5860   -1.7790    4.9510 C   0  0  0  0  0  0  0  0  0  0  0  0
    2.2910   -2.3210    4.8770 C   0  0  0  0  0  3  0  0  0  0  0  0
    1.7530   -2.7220    3.6540 C   0  0  0  0  0  3  0  0  0  0  0  0
    2.5050   -2.5800    2.4940 C   0  0  0  0  0  0  0  0  0  0  0  0
    1.8400   -3.0560    0.9810 Cl  0  0  0  0  0  0  0  0  0  0  0  0
    3.7950   -2.0580    2.5500 C   0  0  0  0  0  3  0  0  0  0  0  0
    4.3660   -1.6740    3.7760 C   0  0  0  0  0  0  0  0  0  0  0  0
    5.2260    0.0600    7.8460 C   0  0  0  0  0  0  0  0  0  0  0  0
    4.5280    0.8340    8.4970 O   0  0  0  0  0  0  0  0  0  0  0  0
   10.5560    4.5620    5.0180 H   0  0  0  0  0  0  0  0  0  0  0  0
    7.0380   -3.0220    2.4930 C   0  0  0  0  0  3  0  0  0  0  0  0
    6.4690   -4.1830    3.3240 C   0  0  0  0  0  2  0  0  0  0  0  0
    6.6460   -5.5220    2.6080 C   0  0  0  0  0  2  0  0  0  0  0  0
    6.0470   -5.4920    1.2040 C   0  0  0  0  0  2  0  0  0  0  0  0
    6.6160   -4.3450    0.3740 C   0  0  0  0  0  2  0  0  0  0  0  0
    6.4400   -3.0000    1.0760 C   0  0  0  0  0  2  0  0  0  0  0  0
  1  2  1  0  0  0  0
  2  3  1  0  0  0  0
  4  3  1  0  0  0  0
  5  4  1  0  0  0  0
  6  5  1  0  0  0  0
  7  6  1  0  0  0  0
  8  7  1  0  0  0  0
  9 11  2  0  0  0  0
  9 10  2  0  0  0  0
  9  7  1  0  0  0  0
 12  9  1  0  0  0  0
 13 12  1  0  0  0  0
 14 13  2  0  0  0  0
 15 13  1  0  0  0  0
 15 23  1  0  0  0  0
 16 15  2  0  0  0  0
 17 16  1  0  0  0  0
 17 18  2  0  0  0  0
 18 22  1  0  0  0  0
 19 18  1  0  0  0  0
 19 20  2  0  0  0  0
 20 33  1  0  0  0  0
 20 21  1  0  0  0  0
 21 24  1  0  0  0  0
 22 21  1  0  0  0  0
 22 23  2  0  0  0  0
 24 25  1  0  0  0  0
 25 34  1  0  0  0  0
 26 25  2  0  0  0  0
 27 26  1  0  0  0  0
 28 27  1  0  0  0  0
 29 28  2  0  0  0  0
 30 32  2  0  0  0  0
 30 29  1  0  0  0  0
 31 30  1  0  0  0  0
 32 33  1  0  0  0  0
 33 27  2  0  0  0  0
 34  2  1  0  0  0  0
 34 35  2  0  0  0  0
 36 12  1  0  0  0  0
 37 19  1  0  0  0  0
 37 38  1  0  0  0  0
 39 38  1  0  0  0  0
 40 39  1  0  0  0  0
 41 42  1  0  0  0  0
 41 40  1  0  0  0  0
 42 37  1  0  0  0  0
M  END
>  <minimizedAffinity>
-4.15162754

$$$$
