REMARK  Name = 
REMARK  3 active torsions:
REMARK  status: ('A' for Active; 'I' for Inactive)
REMARK    1  A    between atoms: C_1  and  N_2
REMARK    2  A    between atoms: N_7  and  C_8
REMARK    3  A    between atoms: C_19  and  C_20
REMARK                            x       y       z     vdW  Elec       q    Type
REMARK                         _______ _______ _______ _____ _____    ______ ____
ROOT
ATOM      1  C   UNL     1       1.925  -0.953   6.956  0.00  0.00    +0.132 C 
ATOM      2  N   UNL     1       2.561  -1.985   6.138  0.00  0.00    -0.301 N 
ATOM      3  C   UNL     1       1.905  -2.306   4.872  0.00  0.00    +0.108 C 
ATOM      4  C   UNL     1       2.163  -1.250   3.792  0.00  0.00    +0.020 C 
ATOM      5  C   UNL     1       3.583  -1.319   3.220  0.00  0.00    +0.019 C 
ATOM      6  C   UNL     1       3.838  -0.219   2.192  0.00  0.00    +0.110 C 
ATOM      7  N   UNL     1       4.680   0.859   2.805  0.00  0.00    -0.167 NA
ATOM      8  C   UNL     1       6.038   0.871   2.213  0.00  0.00    +0.133 C 
ATOM      9  S   UNL     1       3.898   2.359   2.882  0.00  0.00    +0.114 S 
ATOM     10  O   UNL     1       3.795   2.856   1.530  0.00  0.00    -0.138 OA
ATOM     11  O   UNL     1       2.743   2.230   3.733  0.00  0.00    -0.138 OA
ATOM     12  N   UNL     1       5.059   3.294   3.625  0.00  0.00    -0.171 N 
ATOM     13  C   UNL     1       4.764   4.051   4.773  0.00  0.00    +0.264 C 
ATOM     14  O   UNL     1       4.856   5.269   4.720  0.00  0.00    -0.269 OA
ATOM     15  C   UNL     1       4.494   3.346   6.056  0.00  0.00    +0.040 A 
ATOM     16  C   UNL     1       3.889   4.084   7.074  0.00  0.00    +0.014 A 
ATOM     17  C   UNL     1       3.708   3.534   8.347  0.00  0.00    +0.011 A 
ATOM     18  C   UNL     1       4.163   2.227   8.625  0.00  0.00    +0.004 A 
ATOM     19  C   UNL     1       4.180   1.412   9.811  0.00  0.00    -0.011 A 
ATOM     20  C   UNL     1       4.846   0.230   9.484  0.00  0.00    +0.054 A 
ATOM     21  N   UNL     1       5.050   0.253   8.113  0.00  0.00    -0.335 N 
ATOM     22  C   UNL     1       4.741   1.492   7.588  0.00  0.00    +0.051 A 
ATOM     23  C   UNL     1       4.907   2.025   6.291  0.00  0.00    +0.039 A 
ATOM     24  C   UNL     1       5.470  -0.916   7.344  0.00  0.00    +0.162 C 
ATOM     25  C   UNL     1       4.528  -2.054   7.581  0.00  0.00    +0.035 C 
ATOM     26  C   UNL     1       4.309  -2.670   8.754  0.00  0.00    +0.019 C 
ATOM     27  C   UNL     1       4.981  -2.259   9.997  0.00  0.00    -0.015 A 
ATOM     28  C   UNL     1       5.356  -3.284  10.883  0.00  0.00    +0.010 A 
ATOM     29  C   UNL     1       6.021  -2.992  12.074  0.00  0.00    +0.020 A 
ATOM     30  C   UNL     1       6.319  -1.671  12.387  0.00  0.00    +0.042 A 
ATOM     31 CL   UNL     1       7.154  -1.306  13.846  0.00  0.00    -0.084 Cl
ATOM     32  C   UNL     1       5.943  -0.641  11.528  0.00  0.00    +0.030 A 
ATOM     33  C   UNL     1       5.248  -0.912  10.337  0.00  0.00    +0.007 A 
ATOM     34  C   UNL     1       3.800  -2.550   6.396  0.00  0.00    +0.244 C 
ATOM     35  O   UNL     1       4.345  -3.390   5.684  0.00  0.00    -0.270 OA
ATOM     36  H   UNL     1       5.399   3.921   2.896  0.00  0.00    +0.178 HD
ENDROOT
BRANCH  19  37
ATOM     37  C   UNL     1       3.595   1.768  11.165  0.00  0.00    +0.022 C 
ATOM     38  C   UNL     1       4.317   2.950  11.831  0.00  0.00    +0.008 C 
ATOM     39  C   UNL     1       3.731   3.259  13.208  0.00  0.00    +0.001 C 
ATOM     40  C   UNL     1       2.224   3.491  13.139  0.00  0.00    +0.000 C 
ATOM     41  C   UNL     1       1.503   2.316  12.486  0.00  0.00    +0.001 C 
ATOM     42  C   UNL     1       2.075   2.000  11.105  0.00  0.00    +0.008 C 
ENDBRANCH  19  37
TORSDOF 1
