@<TRIPOS>MOLECULE
*****
 41 46 0 0 0
SMALL
GASTEIGER

@<TRIPOS>ATOM
      1 C           0.0000    0.0000    0.0000 C.3     1  UNL11       0.1151
      2 N           0.0000    0.0000    0.0000 N.am    1  UNL11      -0.2745
      3 C           0.0000    0.0000    0.0000 C.3     1  UNL11       0.0938
      4 C           0.0000    0.0000    0.0000 C.3     1  UNL11       0.0230
      5 C           0.0000    0.0000    0.0000 C.3     1  UNL11       0.0210
      6 C           0.0000    0.0000    0.0000 C.3     1  UNL11       0.0973
      7 N           0.0000    0.0000    0.0000 N.3     1  UNL11      -0.1397
      8 C           0.0000    0.0000    0.0000 C.3     1  UNL11       0.1164
      9 S           0.0000    0.0000    0.0000 S.O2    1  UNL11       0.1354
     10 O           0.0000    0.0000    0.0000 O.2     1  UNL11      -0.1362
     11 O           0.0000    0.0000    0.0000 O.2     1  UNL11      -0.1362
     12 N           0.0000    0.0000    0.0000 N.am    1  UNL11      -0.0440
     13 C           0.0000    0.0000    0.0000 C.2     1  UNL11       0.2867
     14 O           0.0000    0.0000    0.0000 O.2     1  UNL11      -0.2666
     15 C           0.0000    0.0000    0.0000 C.ar    1  UNL11       0.0581
     16 C           0.0000    0.0000    0.0000 C.ar    1  UNL11       0.0047
     17 C           0.0000    0.0000    0.0000 C.ar    1  UNL11       0.0013
     18 C           0.0000    0.0000    0.0000 C.ar    1  UNL11       0.0132
     19 C           0.0000    0.0000    0.0000 C.ar    1  UNL11      -0.0053
     20 C           0.0000    0.0000    0.0000 C.3     1  UNL11       0.0238
     21 C           0.0000    0.0000    0.0000 C.3     1  UNL11       0.0044
     22 C           0.0000    0.0000    0.0000 C.3     1  UNL11       0.0003
     23 C           0.0000    0.0000    0.0000 C.3     1  UNL11       0.0000
     24 C           0.0000    0.0000    0.0000 C.3     1  UNL11       0.0003
     25 C           0.0000    0.0000    0.0000 C.3     1  UNL11       0.0044
     26 C           0.0000    0.0000    0.0000 C.ar    1  UNL11       0.0561
     27 N           0.0000    0.0000    0.0000 N.ar    1  UNL11      -0.3230
     28 C           0.0000    0.0000    0.0000 C.ar    1  UNL11       0.0600
     29 C           0.0000    0.0000    0.0000 C.ar    1  UNL11       0.0218
     30 C           0.0000    0.0000    0.0000 C.3     1  UNL11       0.1372
     31 C           0.0000    0.0000    0.0000 C.2     1  UNL11       0.0540
     32 C           0.0000    0.0000    0.0000 C.2     1  UNL11       0.0022
     33 C           0.0000    0.0000    0.0000 C.ar    1  UNL11       0.0013
     34 C           0.0000    0.0000    0.0000 C.ar    1  UNL11       0.0009
     35 C           0.0000    0.0000    0.0000 C.ar    1  UNL11       0.0114
     36 C           0.0000    0.0000    0.0000 C.ar    1  UNL11       0.0577
     37 CL          0.0000    0.0000    0.0000 Cl      1  UNL11      -0.0822
     38 C           0.0000    0.0000    0.0000 C.ar    1  UNL11       0.0128
     39 C           0.0000    0.0000    0.0000 C.ar    1  UNL11       0.0163
     40 C           0.0000    0.0000    0.0000 C.2     1  UNL11       0.2469
     41 O           0.0000    0.0000    0.0000 O.2     1  UNL11      -0.2702
@<TRIPOS>BOND
     1     1     2    1
     2     2     3    1
     3     3     4    1
     4     4     5    1
     5     5     6    1
     6     6     7    1
     7     7     8    1
     8     7     9    1
     9     9    10    2
    10     9    11    2
    11     9    12    1
    12    12    13   am
    13    13    14    2
    14    13    15    1
    15    15    16   ar
    16    16    17   ar
    17    17    18   ar
    18    18    19   ar
    19    19    20    1
    20    20    21    1
    21    21    22    1
    22    22    23    1
    23    23    24    1
    24    24    25    1
    25    20    25    1
    26    19    26   ar
    27    26    27   ar
    28    27    28   ar
    29    18    28   ar
    30    28    29   ar
    31    15    29   ar
    32    27    30    1
    33    30    31    1
    34    31    32    2
    35    32    33    1
    36    33    34   ar
    37    34    35   ar
    38    35    36   ar
    39    36    37    1
    40    36    38   ar
    41    38    39   ar
    42    33    39   ar
    43    26    39    1
    44    31    40    1
    45     2    40   am
    46    40    41    2
