
 OpenBabel09082221303D

 42 47  0  0  0  0  0  0  0  0999 V2000
    6.7920    3.2230    7.9610 C   0  0  0  0  0  1  0  0  0  0  0  0
    5.5270    3.9500    7.8690 N   0  0  0  0  0  0  0  0  0  0  0  0
    5.3840    5.1190    8.7350 C   0  0  0  0  0  2  0  0  0  0  0  0
    6.1550    6.3350    8.2120 C   0  0  0  0  0  2  0  0  0  0  0  0
    5.4810    6.9910    7.0020 C   0  0  0  0  0  2  0  0  0  0  0  0
    6.2970    8.1620    6.4590 C   0  0  0  0  0  2  0  0  0  0  0  0
    7.0020    7.7450    5.2030 N   0  0  0  0  0  0  0  0  0  0  0  0
    6.4250    8.4270    4.0210 C   0  0  0  0  0  1  0  0  0  0  0  0
    8.6900    7.7990    5.3320 S   0  0  0  0  0  0  0  0  0  0  0  0
    9.0690    9.1920    5.3850 O   0  0  0  0  0  0  0  0  0  0  0  0
    9.1020    6.8610    6.3440 O   0  0  0  0  0  0  0  0  0  0  0  0
    9.1490    7.2590    3.8250 N   0  0  0  0  0  0  0  0  0  0  0  0
   10.0570    6.1950    3.6750 C   0  0  0  0  0  0  0  0  0  0  0  0
   11.1290    6.4030    3.1260 O   0  0  0  0  0  0  0  0  0  0  0  0
    9.6290    4.8190    4.0500 C   0  0  0  0  0  0  0  0  0  0  0  0
   10.6310    3.8600    4.2060 C   0  0  0  0  0  3  0  0  0  0  0  0
   10.3090    2.5200    4.4420 C   0  0  0  0  0  3  0  0  0  0  0  0
    8.9570    2.1160    4.4980 C   0  0  0  0  0  0  0  0  0  0  0  0
    8.3070    0.8430    4.6650 C   0  0  0  0  0  0  0  0  0  0  0  0
    6.9350    1.0670    4.5470 C   0  0  0  0  0  0  0  0  0  0  0  0
    6.7580    2.4410    4.5050 N   0  0  0  0  0  0  0  0  0  0  0  0
    7.9680    3.0920    4.3690 C   0  0  0  0  0  0  0  0  0  0  0  0
    8.2780    4.4530    4.1560 C   0  0  0  0  0  3  0  0  0  0  0  0
    5.4560    3.0880    4.6570 C   0  0  0  0  0  2  0  0  0  0  0  0
    4.8090    2.6490    5.9330 C   0  0  0  0  0  0  0  0  0  0  0  0
    4.4330    1.3970    6.2400 C   0  0  0  0  0  3  0  0  0  0  0  0
    4.6500    0.2630    5.3270 C   0  0  0  0  0  0  0  0  0  0  0  0
    3.6400   -0.7140    5.2800 C   0  0  0  0  0  3  0  0  0  0  0  0
    3.7460   -1.8120    4.4250 C   0  0  0  0  0  3  0  0  0  0  0  0
    4.8630   -1.9390    3.6080 C   0  0  0  0  0  0  0  0  0  0  0  0
    4.9920   -3.2810    2.5390 Cl  0  0  0  0  0  0  0  0  0  0  0  0
    5.8800   -0.9880    3.6510 C   0  0  0  0  0  3  0  0  0  0  0  0
    5.8050    0.1100    4.5250 C   0  0  0  0  0  0  0  0  0  0  0  0
    4.5420    3.7110    6.9230 C   0  0  0  0  0  0  0  0  0  0  0  0
    3.4970    4.3500    6.8280 O   0  0  0  0  0  0  0  0  0  0  0  0
    9.5250    8.0810    3.3530 H   0  0  0  0  0  0  0  0  0  0  0  0
    8.9810   -0.4950    4.9120 C   0  0  0  0  0  3  0  0  0  0  0  0
    9.8890   -0.9250    3.7490 C   0  0  0  0  0  2  0  0  0  0  0  0
   10.5210   -2.2920    4.0100 C   0  0  0  0  0  2  0  0  0  0  0  0
   11.2650   -2.3220    5.3420 C   0  0  0  0  0  2  0  0  0  0  0  0
   10.3650   -1.9030    6.5000 C   0  0  0  0  0  2  0  0  0  0  0  0
    9.7300   -0.5350    6.2550 C   0  0  0  0  0  2  0  0  0  0  0  0
  2  1  1  0  0  0  0
  2  3  1  0  0  0  0
  4  3  1  0  0  0  0
  5  4  1  0  0  0  0
  6  5  1  0  0  0  0
  7  9  1  0  0  0  0
  7  6  1  0  0  0  0
  8  7  1  0  0  0  0
  9 10  2  0  0  0  0
  9 11  2  0  0  0  0
 12  9  1  0  0  0  0
 13 12  1  0  0  0  0
 13 15  1  0  0  0  0
 14 13  2  0  0  0  0
 15 23  2  0  0  0  0
 15 16  1  0  0  0  0
 16 17  2  0  0  0  0
 17 18  1  0  0  0  0
 18 19  1  0  0  0  0
 19 37  1  0  0  0  0
 20 19  2  0  0  0  0
 21 20  1  0  0  0  0
 21 24  1  0  0  0  0
 22 18  2  0  0  0  0
 22 21  1  0  0  0  0
 23 22  1  0  0  0  0
 24 25  1  0  0  0  0
 25 26  2  0  0  0  0
 25 34  1  0  0  0  0
 27 26  1  0  0  0  0
 28 27  1  0  0  0  0
 29 28  2  0  0  0  0
 30 32  2  0  0  0  0
 30 29  1  0  0  0  0
 31 30  1  0  0  0  0
 32 33  1  0  0  0  0
 33 20  1  0  0  0  0
 33 27  2  0  0  0  0
 34  2  1  0  0  0  0
 35 34  2  0  0  0  0
 36 12  1  0  0  0  0
 37 42  1  0  0  0  0
 38 39  1  0  0  0  0
 38 37  1  0  0  0  0
 39 40  1  0  0  0  0
 40 41  1  0  0  0  0
 42 41  1  0  0  0  0
M  END
>  <minimizedAffinity>
-5.08544827

$$$$

 OpenBabel09082221303D

 42 47  0  0  0  0  0  0  0  0999 V2000
    5.2100    3.3930    4.1260 C   0  0  0  0  0  1  0  0  0  0  0  0
    4.3110    2.5880    4.9510 N   0  0  0  0  0  0  0  0  0  0  0  0
    3.4550    1.6390    4.2430 C   0  0  0  0  0  2  0  0  0  0  0  0
    4.2130    0.3850    3.7940 C   0  0  0  0  0  2  0  0  0  0  0  0
    4.5260   -0.5680    4.9530 C   0  0  0  0  0  2  0  0  0  0  0  0
    5.3350   -1.7780    4.4930 C   0  0  0  0  0  2  0  0  0  0  0  0
    6.7670   -1.6140    4.9060 N   0  0  0  0  0  0  0  0  0  0  0  0
    7.1250   -2.5790    5.9720 C   0  0  0  0  0  1  0  0  0  0  0  0
    7.8380   -1.5340    3.5970 S   0  0  0  0  0  0  0  0  0  0  0  0
    7.8930   -2.8520    3.0100 O   0  0  0  0  0  0  0  0  0  0  0  0
    7.5180   -0.3680    2.8140 O   0  0  0  0  0  0  0  0  0  0  0  0
    9.2930   -1.3210    4.3790 N   0  0  0  0  0  0  0  0  0  0  0  0
   10.1580   -0.2650    4.0400 C   0  0  0  0  0  0  0  0  0  0  0  0
   11.2650   -0.5250    3.5930 O   0  0  0  0  0  0  0  0  0  0  0  0
    9.7620    1.1310    4.3720 C   0  0  0  0  0  0  0  0  0  0  0  0
   10.4620    2.1600    3.7410 C   0  0  0  0  0  3  0  0  0  0  0  0
   10.2340    3.4970    4.0840 C   0  0  0  0  0  3  0  0  0  0  0  0
    9.3070    3.8200    5.0980 C   0  0  0  0  0  0  0  0  0  0  0  0
    8.8930    5.0550    5.7090 C   0  0  0  0  0  0  0  0  0  0  0  0
    7.9980    4.7260    6.7290 C   0  0  0  0  0  0  0  0  0  0  0  0
    7.7380    3.3700    6.6090 N   0  0  0  0  0  0  0  0  0  0  0  0
    8.5950    2.7800    5.7000 C   0  0  0  0  0  0  0  0  0  0  0  0
    8.7950    1.4280    5.3460 C   0  0  0  0  0  3  0  0  0  0  0  0
    6.6500    2.6950    7.3130 C   0  0  0  0  0  2  0  0  0  0  0  0
    5.3490    3.3710    7.0170 C   0  0  0  0  0  0  0  0  0  0  0  0
    5.0220    4.6350    7.3330 C   0  0  0  0  0  3  0  0  0  0  0  0
    5.9590    5.5440    8.0120 C   0  0  0  0  0  0  0  0  0  0  0  0
    5.4120    6.4210    8.9650 C   0  0  0  0  0  3  0  0  0  0  0  0
    6.2260    7.3010    9.6780 C   0  0  0  0  0  3  0  0  0  0  0  0
    7.5960    7.3090    9.4450 C   0  0  0  0  0  0  0  0  0  0  0  0
    8.6080    8.3800   10.3330 Cl  0  0  0  0  0  0  0  0  0  0  0  0
    8.1550    6.4560    8.4950 C   0  0  0  0  0  3  0  0  0  0  0  0
    7.3480    5.5820    7.7470 C   0  0  0  0  0  0  0  0  0  0  0  0
    4.3300    2.5460    6.3360 C   0  0  0  0  0  0  0  0  0  0  0  0
    3.5970    1.8390    7.0230 O   0  0  0  0  0  0  0  0  0  0  0  0
    9.7890   -2.2040    4.2580 H   0  0  0  0  0  0  0  0  0  0  0  0
    9.3460    6.4520    5.3290 C   0  0  0  0  0  3  0  0  0  0  0  0
   10.8480    6.6740    5.5670 C   0  0  0  0  0  2  0  0  0  0  0  0
   11.2660    8.1000    5.2110 C   0  0  0  0  0  2  0  0  0  0  0  0
   10.8660    8.4640    3.7840 C   0  0  0  0  0  2  0  0  0  0  0  0
    9.3740    8.2530    3.5460 C   0  0  0  0  0  2  0  0  0  0  0  0
    8.9440    6.8290    3.8920 C   0  0  0  0  0  2  0  0  0  0  0  0
  1  2  1  0  0  0  0
  2 34  1  0  0  0  0
  3  2  1  0  0  0  0
  4  3  1  0  0  0  0
  4  5  1  0  0  0  0
  6  7  1  0  0  0  0
  6  5  1  0  0  0  0
  7  8  1  0  0  0  0
  9 12  1  0  0  0  0
  9  7  1  0  0  0  0
 10  9  2  0  0  0  0
 11  9  2  0  0  0  0
 13 15  1  0  0  0  0
 13 12  1  0  0  0  0
 14 13  2  0  0  0  0
 15 23  1  0  0  0  0
 16 17  1  0  0  0  0
 16 15  2  0  0  0  0
 17 18  2  0  0  0  0
 18 22  1  0  0  0  0
 18 19  1  0  0  0  0
 19 20  2  0  0  0  0
 20 33  1  0  0  0  0
 21 20  1  0  0  0  0
 21 24  1  0  0  0  0
 22 21  1  0  0  0  0
 23 22  2  0  0  0  0
 25 24  1  0  0  0  0
 25 26  2  0  0  0  0
 26 27  1  0  0  0  0
 27 28  1  0  0  0  0
 28 29  2  0  0  0  0
 30 29  1  0  0  0  0
 30 31  1  0  0  0  0
 32 30  2  0  0  0  0
 33 27  2  0  0  0  0
 33 32  1  0  0  0  0
 34 25  1  0  0  0  0
 34 35  2  0  0  0  0
 36 12  1  0  0  0  0
 37 38  1  0  0  0  0
 37 19  1  0  0  0  0
 39 38  1  0  0  0  0
 40 39  1  0  0  0  0
 41 40  1  0  0  0  0
 41 42  1  0  0  0  0
 42 37  1  0  0  0  0
M  END
>  <minimizedAffinity>
-4.82793379

$$$$

 OpenBabel09082221303D

 42 47  0  0  0  0  0  0  0  0999 V2000
    5.6670    4.6220    7.7330 C   0  0  0  0  0  1  0  0  0  0  0  0
    4.6880    5.6790    7.4820 N   0  0  0  0  0  0  0  0  0  0  0  0
    4.8560    6.9150    8.2450 C   0  0  0  0  0  2  0  0  0  0  0  0
    5.9870    7.7930    7.7000 C   0  0  0  0  0  2  0  0  0  0  0  0
    5.6130    8.5010    6.3940 C   0  0  0  0  0  2  0  0  0  0  0  0
    6.7750    9.3200    5.8360 C   0  0  0  0  0  2  0  0  0  0  0  0
    7.3930    8.5960    4.6780 N   0  0  0  0  0  0  0  0  0  0  0  0
    7.1180    9.3020    3.4050 C   0  0  0  0  0  1  0  0  0  0  0  0
    9.0080    8.1600    4.9430 S   0  0  0  0  0  0  0  0  0  0  0  0
    9.7860    9.3760    4.9260 O   0  0  0  0  0  0  0  0  0  0  0  0
    9.0580    7.2420    6.0520 O   0  0  0  0  0  0  0  0  0  0  0  0
    9.3680    7.3670    3.5230 N   0  0  0  0  0  0  0  0  0  0  0  0
    9.9190    6.0730    3.5280 C   0  0  0  0  0  0  0  0  0  0  0  0
   11.0340    5.9010    3.0570 O   0  0  0  0  0  0  0  0  0  0  0  0
    9.0740    4.9280    3.9670 C   0  0  0  0  0  0  0  0  0  0  0  0
    9.7280    3.7350    4.2750 C   0  0  0  0  0  3  0  0  0  0  0  0
    9.0030    2.5790    4.5810 C   0  0  0  0  0  3  0  0  0  0  0  0
    7.5920    2.6000    4.5540 C   0  0  0  0  0  0  0  0  0  0  0  0
    6.5790    1.5980    4.7580 C   0  0  0  0  0  0  0  0  0  0  0  0
    5.3480    2.2070    4.5110 C   0  0  0  0  0  0  0  0  0  0  0  0
    5.5970    3.5610    4.3530 N   0  0  0  0  0  0  0  0  0  0  0  0
    6.9530    3.8080    4.2710 C   0  0  0  0  0  0  0  0  0  0  0  0
    7.6720    4.9900    3.9850 C   0  0  0  0  0  3  0  0  0  0  0  0
    4.5460    4.5760    4.3480 C   0  0  0  0  0  2  0  0  0  0  0  0
    3.7230    4.4710    5.5940 C   0  0  0  0  0  0  0  0  0  0  0  0
    2.9700    3.4220    5.9590 C   0  0  0  0  0  3  0  0  0  0  0  0
    2.8860    2.1930    5.1530 C   0  0  0  0  0  0  0  0  0  0  0  0
    1.6320    1.5590    5.0940 C   0  0  0  0  0  3  0  0  0  0  0  0
    1.4510    0.4040    4.3340 C   0  0  0  0  0  3  0  0  0  0  0  0
    2.5220   -0.1260    3.6240 C   0  0  0  0  0  0  0  0  0  0  0  0
    2.3010   -1.5410    2.6710 Cl  0  0  0  0  0  0  0  0  0  0  0  0
    3.7750    0.4810    3.6820 C   0  0  0  0  0  3  0  0  0  0  0  0
    3.9850    1.6300    4.4640 C   0  0  0  0  0  0  0  0  0  0  0  0
    3.7330    5.6540    6.4780 C   0  0  0  0  0  0  0  0  0  0  0  0
    2.9380    6.5620    6.2490 O   0  0  0  0  0  0  0  0  0  0  0  0
   10.0020    7.9920    3.0250 H   0  0  0  0  0  0  0  0  0  0  0  0
    6.8010    0.1510    5.1580 C   0  0  0  0  0  3  0  0  0  0  0  0
    7.5370   -0.6570    4.0770 C   0  0  0  0  0  2  0  0  0  0  0  0
    7.7110   -2.1170    4.4920 C   0  0  0  0  0  2  0  0  0  0  0  0
    8.4010   -2.2380    5.8480 C   0  0  0  0  0  2  0  0  0  0  0  0
    7.6690   -1.4440    6.9260 C   0  0  0  0  0  2  0  0  0  0  0  0
    7.4940    0.0200    6.5260 C   0  0  0  0  0  2  0  0  0  0  0  0
  2  1  1  0  0  0  0
  2  3  1  0  0  0  0
  4  3  1  0  0  0  0
  5  4  1  0  0  0  0
  6  5  1  0  0  0  0
  7  9  1  0  0  0  0
  7  6  1  0  0  0  0
  8  7  1  0  0  0  0
  9 11  2  0  0  0  0
 10  9  2  0  0  0  0
 12 13  1  0  0  0  0
 12  9  1  0  0  0  0
 13 15  1  0  0  0  0
 14 13  2  0  0  0  0
 15 23  2  0  0  0  0
 15 16  1  0  0  0  0
 16 17  2  0  0  0  0
 18 17  1  0  0  0  0
 18 19  1  0  0  0  0
 19 37  1  0  0  0  0
 20 19  2  0  0  0  0
 21 20  1  0  0  0  0
 22 21  1  0  0  0  0
 22 18  2  0  0  0  0
 23 22  1  0  0  0  0
 24 21  1  0  0  0  0
 24 25  1  0  0  0  0
 25 26  2  0  0  0  0
 25 34  1  0  0  0  0
 27 26  1  0  0  0  0
 28 27  1  0  0  0  0
 29 28  2  0  0  0  0
 30 32  2  0  0  0  0
 30 29  1  0  0  0  0
 31 30  1  0  0  0  0
 32 33  1  0  0  0  0
 33 20  1  0  0  0  0
 33 27  2  0  0  0  0
 34  2  1  0  0  0  0
 35 34  2  0  0  0  0
 36 12  1  0  0  0  0
 37 42  1  0  0  0  0
 38 39  1  0  0  0  0
 38 37  1  0  0  0  0
 39 40  1  0  0  0  0
 40 41  1  0  0  0  0
 42 41  1  0  0  0  0
M  END
>  <minimizedAffinity>
-4.53897429

$$$$

 OpenBabel09082221303D

 42 47  0  0  0  0  0  0  0  0999 V2000
    7.6140   -3.2680    6.1800 C   0  0  0  0  0  1  0  0  0  0  0  0
    8.7260   -4.0250    5.6060 N   0  0  0  0  0  0  0  0  0  0  0  0
    8.7170   -5.4680    5.8360 C   0  0  0  0  0  2  0  0  0  0  0  0
    7.7170   -6.2000    4.9350 C   0  0  0  0  0  2  0  0  0  0  0  0
    8.1920   -6.3060    3.4820 C   0  0  0  0  0  2  0  0  0  0  0  0
    7.1540   -6.9820    2.5900 C   0  0  0  0  0  2  0  0  0  0  0  0
    6.4560   -5.9500    1.7560 N   0  0  0  0  0  0  0  0  0  0  0  0
    6.8340   -6.0790    0.3290 C   0  0  0  0  0  1  0  0  0  0  0  0
    4.7960   -5.8430    2.0700 S   0  0  0  0  0  0  0  0  0  0  0  0
    4.1850   -7.0440    1.5500 O   0  0  0  0  0  0  0  0  0  0  0  0
    4.6150   -5.4310    3.4390 O   0  0  0  0  0  0  0  0  0  0  0  0
    4.3460   -4.6170    1.0360 N   0  0  0  0  0  0  0  0  0  0  0  0
    3.6290   -3.4980    1.4960 C   0  0  0  0  0  0  0  0  0  0  0  0
    2.5060   -3.2940    1.0610 O   0  0  0  0  0  0  0  0  0  0  0  0
    4.3110   -2.5160    2.3830 C   0  0  0  0  0  0  0  0  0  0  0  0
    3.5020   -1.6180    3.0800 C   0  0  0  0  0  3  0  0  0  0  0  0
    4.0650   -0.5880    3.8410 C   0  0  0  0  0  3  0  0  0  0  0  0
    5.4670   -0.4300    3.8910 C   0  0  0  0  0  0  0  0  0  0  0  0
    6.3360    0.5310    4.5170 C   0  0  0  0  0  0  0  0  0  0  0  0
    7.6390    0.2140    4.1310 C   0  0  0  0  0  0  0  0  0  0  0  0
    7.5730   -0.9970    3.4600 N   0  0  0  0  0  0  0  0  0  0  0  0
    6.2630   -1.3530    3.2110 C   0  0  0  0  0  0  0  0  0  0  0  0
    5.7090   -2.4130    2.4590 C   0  0  0  0  0  3  0  0  0  0  0  0
    8.7490   -1.8000    3.1340 C   0  0  0  0  0  2  0  0  0  0  0  0
    9.5390   -2.0820    4.3730 C   0  0  0  0  0  0  0  0  0  0  0  0
   10.1440   -1.1700    5.1510 C   0  0  0  0  0  3  0  0  0  0  0  0
   10.0720    0.2740    4.8750 C   0  0  0  0  0  0  0  0  0  0  0  0
   11.2310    1.0270    5.1330 C   0  0  0  0  0  3  0  0  0  0  0  0
   11.2650    2.3980    4.8770 C   0  0  0  0  0  3  0  0  0  0  0  0
   10.1390    3.0260    4.3570 C   0  0  0  0  0  0  0  0  0  0  0  0
   10.1800    4.7130    4.0230 Cl  0  0  0  0  0  0  0  0  0  0  0  0
    8.9780    2.2990    4.1080 C   0  0  0  0  0  3  0  0  0  0  0  0
    8.9140    0.9230    4.3850 C   0  0  0  0  0  0  0  0  0  0  0  0
    9.6780   -3.5040    4.7440 C   0  0  0  0  0  0  0  0  0  0  0  0
   10.5890   -4.1550    4.2360 O   0  0  0  0  0  0  0  0  0  0  0  0
    3.8050   -5.0760    0.3030 H   0  0  0  0  0  0  0  0  0  0  0  0
    5.9210    1.6780    5.4190 C   0  0  0  0  0  3  0  0  0  0  0  0
    5.0990    2.7460    4.6810 C   0  0  0  0  0  2  0  0  0  0  0  0
    4.7300    3.9050    5.6050 C   0  0  0  0  0  2  0  0  0  0  0  0
    4.0130    3.4170    6.8610 C   0  0  0  0  0  2  0  0  0  0  0  0
    4.8300    2.3630    7.6020 C   0  0  0  0  0  2  0  0  0  0  0  0
    5.2010    1.1940    6.6900 C   0  0  0  0  0  2  0  0  0  0  0  0
  2  3  1  0  0  0  0
  2  1  1  0  0  0  0
  4  3  1  0  0  0  0
  5  4  1  0  0  0  0
  6  5  1  0  0  0  0
  7  9  1  0  0  0  0
  7  6  1  0  0  0  0
  8  7  1  0  0  0  0
  9 11  2  0  0  0  0
 10  9  2  0  0  0  0
 12 13  1  0  0  0  0
 12  9  1  0  0  0  0
 13 15  1  0  0  0  0
 14 13  2  0  0  0  0
 15 23  2  0  0  0  0
 15 16  1  0  0  0  0
 16 17  2  0  0  0  0
 17 18  1  0  0  0  0
 18 19  1  0  0  0  0
 19 37  1  0  0  0  0
 20 33  1  0  0  0  0
 20 19  2  0  0  0  0
 21 20  1  0  0  0  0
 22 21  1  0  0  0  0
 22 18  2  0  0  0  0
 23 22  1  0  0  0  0
 24 21  1  0  0  0  0
 24 25  1  0  0  0  0
 25 34  1  0  0  0  0
 25 26  2  0  0  0  0
 27 28  1  0  0  0  0
 27 26  1  0  0  0  0
 29 28  2  0  0  0  0
 30 29  1  0  0  0  0
 31 30  1  0  0  0  0
 32 30  2  0  0  0  0
 32 33  1  0  0  0  0
 33 27  2  0  0  0  0
 34  2  1  0  0  0  0
 35 34  2  0  0  0  0
 36 12  1  0  0  0  0
 37 42  1  0  0  0  0
 38 37  1  0  0  0  0
 38 39  1  0  0  0  0
 39 40  1  0  0  0  0
 40 41  1  0  0  0  0
 42 41  1  0  0  0  0
M  END
>  <minimizedAffinity>
-4.35864258

$$$$

 OpenBabel09082221303D

 42 47  0  0  0  0  0  0  0  0999 V2000
    8.5060   -1.1840    6.9680 C   0  0  0  0  0  1  0  0  0  0  0  0
    9.4870   -1.9000    6.1530 N   0  0  0  0  0  0  0  0  0  0  0  0
    9.7220   -3.3000    6.5010 C   0  0  0  0  0  2  0  0  0  0  0  0
    8.6010   -4.2230    6.0140 C   0  0  0  0  0  2  0  0  0  0  0  0
    8.6410   -4.4600    4.5010 C   0  0  0  0  0  2  0  0  0  0  0  0
    7.4790   -5.3310    4.0280 C   0  0  0  0  0  2  0  0  0  0  0  0
    6.4470   -4.4750    3.3580 N   0  0  0  0  0  0  0  0  0  0  0  0
    6.4050   -4.7400    1.9010 C   0  0  0  0  0  1  0  0  0  0  0  0
    4.9510   -4.4830    4.1500 S   0  0  0  0  0  0  0  0  0  0  0  0
    4.3670   -5.7880    3.9480 O   0  0  0  0  0  0  0  0  0  0  0  0
    5.1270   -3.9270    5.4670 O   0  0  0  0  0  0  0  0  0  0  0  0
    4.0720   -3.4370    3.1970 N   0  0  0  0  0  0  0  0  0  0  0  0
    3.3880   -2.3400    3.7520 C   0  0  0  0  0  0  0  0  0  0  0  0
    2.1700   -2.2930    3.6620 O   0  0  0  0  0  0  0  0  0  0  0  0
    4.1720   -1.2000    4.3010 C   0  0  0  0  0  0  0  0  0  0  0  0
    3.4980   -0.3020    5.1280 C   0  0  0  0  0  3  0  0  0  0  0  0
    4.1270    0.8590    5.5890 C   0  0  0  0  0  3  0  0  0  0  0  0
    5.4520    1.1500    5.1970 C   0  0  0  0  0  0  0  0  0  0  0  0
    6.3410    2.2540    5.4430 C   0  0  0  0  0  0  0  0  0  0  0  0
    7.5040    2.0120    4.7100 C   0  0  0  0  0  0  0  0  0  0  0  0
    7.3940    0.7280    4.1990 N   0  0  0  0  0  0  0  0  0  0  0  0
    6.1220    0.2270    4.3920 C   0  0  0  0  0  0  0  0  0  0  0  0
    5.5080   -0.9620    3.9400 C   0  0  0  0  0  3  0  0  0  0  0  0
    8.5140    0.0020    3.6050 C   0  0  0  0  0  2  0  0  0  0  0  0
    9.6590   -0.0540    4.5660 C   0  0  0  0  0  0  0  0  0  0  0  0
   10.3480    0.9960    5.0400 C   0  0  0  0  0  3  0  0  0  0  0  0
   10.0210    2.3830    4.6720 C   0  0  0  0  0  0  0  0  0  0  0  0
   11.1030    3.2640    4.4990 C   0  0  0  0  0  3  0  0  0  0  0  0
   10.8920    4.5910    4.1250 C   0  0  0  0  0  3  0  0  0  0  0  0
    9.5950    5.0470    3.9180 C   0  0  0  0  0  0  0  0  0  0  0  0
    9.3290    6.6780    3.4410 Cl  0  0  0  0  0  0  0  0  0  0  0  0
    8.5100    4.1930    4.0980 C   0  0  0  0  0  3  0  0  0  0  0  0
    8.7000    2.8600    4.5020 C   0  0  0  0  0  0  0  0  0  0  0  0
   10.0740   -1.4030    5.0010 C   0  0  0  0  0  0  0  0  0  0  0  0
   10.8700   -2.0240    4.3000 O   0  0  0  0  0  0  0  0  0  0  0  0
    3.4010   -4.0280    2.7060 H   0  0  0  0  0  0  0  0  0  0  0  0
    6.0690    3.4590    6.3240 C   0  0  0  0  0  3  0  0  0  0  0  0
    4.9510    4.3570    5.7720 C   0  0  0  0  0  2  0  0  0  0  0  0
    4.7280    5.5810    6.6590 C   0  0  0  0  0  2  0  0  0  0  0  0
    4.4620    5.1840    8.1090 C   0  0  0  0  0  2  0  0  0  0  0  0
    5.5740    4.2990    8.6630 C   0  0  0  0  0  2  0  0  0  0  0  0
    5.8040    3.0680    7.7880 C   0  0  0  0  0  2  0  0  0  0  0  0
  2  3  1  0  0  0  0
  2  1  1  0  0  0  0
  4  3  1  0  0  0  0
  5  4  1  0  0  0  0
  6  5  1  0  0  0  0
  7  6  1  0  0  0  0
  7  9  1  0  0  0  0
  8  7  1  0  0  0  0
  9 11  2  0  0  0  0
 10  9  2  0  0  0  0
 12 13  1  0  0  0  0
 12  9  1  0  0  0  0
 13 15  1  0  0  0  0
 14 13  2  0  0  0  0
 15 16  1  0  0  0  0
 16 17  2  0  0  0  0
 18 19  1  0  0  0  0
 18 17  1  0  0  0  0
 19 37  1  0  0  0  0
 20 19  2  0  0  0  0
 21 22  1  0  0  0  0
 21 20  1  0  0  0  0
 22 18  2  0  0  0  0
 23 15  2  0  0  0  0
 23 22  1  0  0  0  0
 24 21  1  0  0  0  0
 24 25  1  0  0  0  0
 25 34  1  0  0  0  0
 25 26  2  0  0  0  0
 27 26  1  0  0  0  0
 28 27  2  0  0  0  0
 29 28  1  0  0  0  0
 30 32  1  0  0  0  0
 30 29  2  0  0  0  0
 31 30  1  0  0  0  0
 32 33  2  0  0  0  0
 33 27  1  0  0  0  0
 33 20  1  0  0  0  0
 34  2  1  0  0  0  0
 35 34  2  0  0  0  0
 36 12  1  0  0  0  0
 37 42  1  0  0  0  0
 38 37  1  0  0  0  0
 38 39  1  0  0  0  0
 39 40  1  0  0  0  0
 40 41  1  0  0  0  0
 42 41  1  0  0  0  0
M  END
>  <minimizedAffinity>
-4.35128355

$$$$

 OpenBabel09082221303D

 42 47  0  0  0  0  0  0  0  0999 V2000
    6.2820   -3.3330    6.2870 C   0  0  0  0  0  1  0  0  0  0  0  0
    5.7050   -2.5250    7.3610 N   0  0  0  0  0  0  0  0  0  0  0  0
    6.4170   -2.5380    8.6370 C   0  0  0  0  0  2  0  0  0  0  0  0
    7.6750   -1.6630    8.6160 C   0  0  0  0  0  2  0  0  0  0  0  0
    7.3580   -0.1640    8.6620 C   0  0  0  0  0  2  0  0  0  0  0  0
    8.6220    0.6890    8.5770 C   0  0  0  0  0  2  0  0  0  0  0  0
    8.7460    1.2710    7.2020 N   0  0  0  0  0  0  0  0  0  0  0  0
    8.5250    2.7360    7.2250 C   0  0  0  0  0  1  0  0  0  0  0  0
   10.1270    0.7490    6.3740 S   0  0  0  0  0  0  0  0  0  0  0  0
   11.2660    1.3660    7.0130 O   0  0  0  0  0  0  0  0  0  0  0  0
   10.0400   -0.6770    6.1910 O   0  0  0  0  0  0  0  0  0  0  0  0
    9.9460    1.5290    4.9130 N   0  0  0  0  0  0  0  0  0  0  0  0
   10.0050    0.8260    3.6970 C   0  0  0  0  0  0  0  0  0  0  0  0
   10.8950    1.0900    2.9010 O   0  0  0  0  0  0  0  0  0  0  0  0
    8.9010   -0.1100    3.3470 C   0  0  0  0  0  0  0  0  0  0  0  0
    9.1410   -1.0230    2.3200 C   0  0  0  0  0  3  0  0  0  0  0  0
    8.1210   -1.8560    1.8500 C   0  0  0  0  0  3  0  0  0  0  0  0
    6.8220   -1.7620    2.3950 C   0  0  0  0  0  0  0  0  0  0  0  0
    5.5730   -2.4160    2.1050 C   0  0  0  0  0  0  0  0  0  0  0  0
    4.6080   -1.8350    2.9280 C   0  0  0  0  0  0  0  0  0  0  0  0
    5.2820   -1.0040    3.8090 N   0  0  0  0  0  0  0  0  0  0  0  0
    6.6050   -0.8630    3.4400 C   0  0  0  0  0  0  0  0  0  0  0  0
    7.6320   -0.0340    3.9430 C   0  0  0  0  0  3  0  0  0  0  0  0
    4.6650   -0.4260    5.0000 C   0  0  0  0  0  2  0  0  0  0  0  0
    4.0780   -1.5070    5.8530 C   0  0  0  0  0  0  0  0  0  0  0  0
    3.0790   -2.3340    5.5060 C   0  0  0  0  0  3  0  0  0  0  0  0
    2.4390   -2.2860    4.1820 C   0  0  0  0  0  0  0  0  0  0  0  0
    1.0530   -2.5130    4.1400 C   0  0  0  0  0  3  0  0  0  0  0  0
    0.3560   -2.4610    2.9320 C   0  0  0  0  0  3  0  0  0  0  0  0
    1.0410   -2.1780    1.7570 C   0  0  0  0  0  0  0  0  0  0  0  0
    0.1850   -2.0960    0.2670 Cl  0  0  0  0  0  0  0  0  0  0  0  0
    2.4170   -1.9640    1.7770 C   0  0  0  0  0  3  0  0  0  0  0  0
    3.1420   -2.0390    2.9790 C   0  0  0  0  0  0  0  0  0  0  0  0
    4.6470   -1.6430    7.2090 C   0  0  0  0  0  0  0  0  0  0  0  0
    4.1910   -0.9400    8.1070 O   0  0  0  0  0  0  0  0  0  0  0  0
   10.6650    2.2530    4.9100 H   0  0  0  0  0  0  0  0  0  0  0  0
    5.3410   -3.5220    1.0920 C   0  0  0  0  0  3  0  0  0  0  0  0
    5.2700   -2.9980   -0.3520 C   0  0  0  0  0  2  0  0  0  0  0  0
    4.9970   -4.1280   -1.3430 C   0  0  0  0  0  2  0  0  0  0  0  0
    6.0180   -5.2550   -1.2070 C   0  0  0  0  0  2  0  0  0  0  0  0
    6.0860   -5.7830    0.2230 C   0  0  0  0  0  2  0  0  0  0  0  0
    6.3640   -4.6640    1.2250 C   0  0  0  0  0  2  0  0  0  0  0  0
  1  2  1  0  0  0  0
  2  3  1  0  0  0  0
  4  3  1  0  0  0  0
  4  5  1  0  0  0  0
  6  5  1  0  0  0  0
  7  8  1  0  0  0  0
  7  6  1  0  0  0  0
  9 10  2  0  0  0  0
  9  7  1  0  0  0  0
 11  9  2  0  0  0  0
 12  9  1  0  0  0  0
 13 12  1  0  0  0  0
 14 13  2  0  0  0  0
 15 13  1  0  0  0  0
 15 23  1  0  0  0  0
 16 15  2  0  0  0  0
 17 16  1  0  0  0  0
 17 18  2  0  0  0  0
 18 22  1  0  0  0  0
 19 18  1  0  0  0  0
 19 20  2  0  0  0  0
 20 33  1  0  0  0  0
 20 21  1  0  0  0  0
 21 24  1  0  0  0  0
 22 21  1  0  0  0  0
 22 23  2  0  0  0  0
 24 25  1  0  0  0  0
 25 34  1  0  0  0  0
 26 25  2  0  0  0  0
 27 26  1  0  0  0  0
 28 27  1  0  0  0  0
 29 28  2  0  0  0  0
 30 32  2  0  0  0  0
 30 29  1  0  0  0  0
 31 30  1  0  0  0  0
 32 33  1  0  0  0  0
 33 27  2  0  0  0  0
 34  2  1  0  0  0  0
 34 35  2  0  0  0  0
 36 12  1  0  0  0  0
 37 42  1  0  0  0  0
 37 19  1  0  0  0  0
 38 37  1  0  0  0  0
 39 40  1  0  0  0  0
 39 38  1  0  0  0  0
 40 41  1  0  0  0  0
 41 42  1  0  0  0  0
M  END
>  <minimizedAffinity>
-4.31885624

$$$$

 OpenBabel09082221303D

 42 47  0  0  0  0  0  0  0  0999 V2000
    4.5310   -4.9520    1.6880 C   0  0  0  0  0  1  0  0  0  0  0  0
    4.6480   -4.6440    0.2630 N   0  0  0  0  0  0  0  0  0  0  0  0
    3.9740   -5.5580   -0.6570 C   0  0  0  0  0  2  0  0  0  0  0  0
    2.4590   -5.3340   -0.7030 C   0  0  0  0  0  2  0  0  0  0  0  0
    2.0690   -4.0680   -1.4740 C   0  0  0  0  0  2  0  0  0  0  0  0
    0.5610   -3.8310   -1.4550 C   0  0  0  0  0  2  0  0  0  0  0  0
    0.2350   -2.7330   -0.4870 N   0  0  0  0  0  0  0  0  0  0  0  0
   -0.2240   -1.5180   -1.2000 C   0  0  0  0  0  1  0  0  0  0  0  0
   -0.7370   -3.2410    0.8020 S   0  0  0  0  0  0  0  0  0  0  0  0
   -2.0520   -3.5050    0.2670 O   0  0  0  0  0  0  0  0  0  0  0  0
   -0.0140   -4.2310    1.5590 O   0  0  0  0  0  0  0  0  0  0  0  0
   -0.8760   -1.8330    1.6810 N   0  0  0  0  0  0  0  0  0  0  0  0
   -0.5720   -1.7950    3.0530 C   0  0  0  0  0  0  0  0  0  0  0  0
   -1.4580   -1.5220    3.8500 O   0  0  0  0  0  0  0  0  0  0  0  0
    0.8460   -1.9390    3.4860 C   0  0  0  0  0  0  0  0  0  0  0  0
    1.0760   -2.2270    4.8310 C   0  0  0  0  0  3  0  0  0  0  0  0
    2.3760   -2.2620    5.3450 C   0  0  0  0  0  3  0  0  0  0  0  0
    3.4760   -1.9770    4.5070 C   0  0  0  0  0  0  0  0  0  0  0  0
    4.8940   -1.8770    4.7280 C   0  0  0  0  0  0  0  0  0  0  0  0
    5.4680   -1.4760    3.5210 C   0  0  0  0  0  0  0  0  0  0  0  0
    4.4630   -1.5200    2.5670 N   0  0  0  0  0  0  0  0  0  0  0  0
    3.2310   -1.7180    3.1570 C   0  0  0  0  0  0  0  0  0  0  0  0
    1.9250   -1.7040    2.6190 C   0  0  0  0  0  3  0  0  0  0  0  0
    4.7160   -1.4340    1.1310 C   0  0  0  0  0  2  0  0  0  0  0  0
    5.6950   -2.4870    0.7170 C   0  0  0  0  0  0  0  0  0  0  0  0
    6.9700   -2.5870    1.1250 C   0  0  0  0  0  3  0  0  0  0  0  0
    7.5650   -1.6470    2.0890 C   0  0  0  0  0  0  0  0  0  0  0  0
    8.9070   -1.2860    1.8760 C   0  0  0  0  0  3  0  0  0  0  0  0
    9.5470   -0.3810    2.7230 C   0  0  0  0  0  3  0  0  0  0  0  0
    8.8480    0.1730    3.7890 C   0  0  0  0  0  0  0  0  0  0  0  0
    9.6260    1.3030    4.8270 Cl  0  0  0  0  0  0  0  0  0  0  0  0
    7.5210   -0.1830    4.0230 C   0  0  0  0  0  3  0  0  0  0  0  0
    6.8670   -1.1140    3.1980 C   0  0  0  0  0  0  0  0  0  0  0  0
    5.2030   -3.4840   -0.2540 C   0  0  0  0  0  0  0  0  0  0  0  0
    5.2650   -3.2150   -1.4520 O   0  0  0  0  0  0  0  0  0  0  0  0
   -1.8420   -1.5340    1.5500 H   0  0  0  0  0  0  0  0  0  0  0  0
    5.6310   -2.1470    6.0270 C   0  0  0  0  0  3  0  0  0  0  0  0
    5.2690   -1.1440    7.1340 C   0  0  0  0  0  2  0  0  0  0  0  0
    6.0540   -1.4170    8.4150 C   0  0  0  0  0  2  0  0  0  0  0  0
    5.8780   -2.8580    8.8870 C   0  0  0  0  0  2  0  0  0  0  0  0
    6.2450   -3.8570    7.7940 C   0  0  0  0  0  2  0  0  0  0  0  0
    5.4610   -3.5990    6.5080 C   0  0  0  0  0  2  0  0  0  0  0  0
  2  1  1  0  0  0  0
  3  2  1  0  0  0  0
  4  3  1  0  0  0  0
  5  6  1  0  0  0  0
  5  4  1  0  0  0  0
  6  7  1  0  0  0  0
  7  9  1  0  0  0  0
  8  7  1  0  0  0  0
  9 11  2  0  0  0  0
  9 12  1  0  0  0  0
 10  9  2  0  0  0  0
 12 13  1  0  0  0  0
 13 15  1  0  0  0  0
 13 14  2  0  0  0  0
 15 16  1  0  0  0  0
 16 17  2  0  0  0  0
 18 19  1  0  0  0  0
 18 17  1  0  0  0  0
 19 37  1  0  0  0  0
 20 19  2  0  0  0  0
 21 22  1  0  0  0  0
 21 20  1  0  0  0  0
 22 18  2  0  0  0  0
 23 22  1  0  0  0  0
 23 15  2  0  0  0  0
 24 21  1  0  0  0  0
 25 26  2  0  0  0  0
 25 24  1  0  0  0  0
 26 27  1  0  0  0  0
 27 33  1  0  0  0  0
 28 27  2  0  0  0  0
 28 29  1  0  0  0  0
 29 30  2  0  0  0  0
 30 32  1  0  0  0  0
 30 31  1  0  0  0  0
 33 20  1  0  0  0  0
 33 32  2  0  0  0  0
 34  2  1  0  0  0  0
 34 25  1  0  0  0  0
 35 34  2  0  0  0  0
 36 12  1  0  0  0  0
 37 42  1  0  0  0  0
 37 38  1  0  0  0  0
 38 39  1  0  0  0  0
 39 40  1  0  0  0  0
 41 40  1  0  0  0  0
 42 41  1  0  0  0  0
M  END
>  <minimizedAffinity>
-4.26594591

$$$$

 OpenBabel09082221303D

 42 47  0  0  0  0  0  0  0  0999 V2000
    4.1080    5.3800    6.9840 C   0  0  0  0  0  1  0  0  0  0  0  0
    3.1000    4.3220    7.0210 N   0  0  0  0  0  0  0  0  0  0  0  0
    1.7840    4.6960    7.5360 C   0  0  0  0  0  2  0  0  0  0  0  0
    0.9580    5.4880    6.5170 C   0  0  0  0  0  2  0  0  0  0  0  0
    0.4070    4.6110    5.3880 C   0  0  0  0  0  2  0  0  0  0  0  0
   -0.3590    5.4290    4.3510 C   0  0  0  0  0  2  0  0  0  0  0  0
    0.4820    5.6030    3.1230 N   0  0  0  0  0  0  0  0  0  0  0  0
   -0.0720    4.8290    1.9880 C   0  0  0  0  0  1  0  0  0  0  0  0
    0.8640    7.2200    2.7950 S   0  0  0  0  0  0  0  0  0  0  0  0
   -0.3530    7.8660    2.3610 O   0  0  0  0  0  0  0  0  0  0  0  0
    1.6500    7.7360    3.8860 O   0  0  0  0  0  0  0  0  0  0  0  0
    1.8070    7.0610    1.4310 N   0  0  0  0  0  0  0  0  0  0  0  0
    3.0850    7.6430    1.3540 C   0  0  0  0  0  0  0  0  0  0  0  0
    3.2940    8.5060    0.5130 O   0  0  0  0  0  0  0  0  0  0  0  0
    4.1840    7.0920    2.1930 C   0  0  0  0  0  0  0  0  0  0  0  0
    5.3260    7.8790    2.3450 C   0  0  0  0  0  3  0  0  0  0  0  0
    6.4500    7.3880    3.0170 C   0  0  0  0  0  3  0  0  0  0  0  0
    6.4510    6.0720    3.5280 C   0  0  0  0  0  0  0  0  0  0  0  0
    7.4370    5.2680    4.2020 C   0  0  0  0  0  0  0  0  0  0  0  0
    6.8760    4.0030    4.3830 C   0  0  0  0  0  0  0  0  0  0  0  0
    5.5450    4.0990    4.0080 N   0  0  0  0  0  0  0  0  0  0  0  0
    5.2910    5.3080    3.3920 C   0  0  0  0  0  0  0  0  0  0  0  0
    4.1390    5.7990    2.7380 C   0  0  0  0  0  3  0  0  0  0  0  0
    4.5520    3.0690    4.3040 C   0  0  0  0  0  2  0  0  0  0  0  0
    4.5260    2.7850    5.7730 C   0  0  0  0  0  0  0  0  0  0  0  0
    5.5380    2.2840    6.5000 C   0  0  0  0  0  3  0  0  0  0  0  0
    6.8500    1.9700    5.9130 C   0  0  0  0  0  0  0  0  0  0  0  0
    7.5040    0.8240    6.3990 C   0  0  0  0  0  3  0  0  0  0  0  0
    8.7400    0.4340    5.8850 C   0  0  0  0  0  3  0  0  0  0  0  0
    9.3320    1.1850    4.8760 C   0  0  0  0  0  0  0  0  0  0  0  0
   10.8480    0.6990    4.2250 Cl  0  0  0  0  0  0  0  0  0  0  0  0
    8.7050    2.3320    4.3920 C   0  0  0  0  0  3  0  0  0  0  0  0
    7.4730    2.7570    4.9170 C   0  0  0  0  0  0  0  0  0  0  0  0
    3.2510    3.0620    6.4640 C   0  0  0  0  0  0  0  0  0  0  0  0
    2.3860    2.1900    6.4670 O   0  0  0  0  0  0  0  0  0  0  0  0
    1.2340    7.4250    0.6700 H   0  0  0  0  0  0  0  0  0  0  0  0
    8.8260    5.7050    4.6280 C   0  0  0  0  0  3  0  0  0  0  0  0
    9.6980    6.1500    3.4430 C   0  0  0  0  0  2  0  0  0  0  0  0
   11.1010    6.5450    3.9000 C   0  0  0  0  0  2  0  0  0  0  0  0
   11.0580    7.6090    4.9930 C   0  0  0  0  0  2  0  0  0  0  0  0
   10.2000    7.1680    6.1750 C   0  0  0  0  0  2  0  0  0  0  0  0
    8.7920    6.7750    5.7330 C   0  0  0  0  0  2  0  0  0  0  0  0
  1  2  1  0  0  0  0
  2  3  1  0  0  0  0
  4  3  1  0  0  0  0
  5  4  1  0  0  0  0
  6  5  1  0  0  0  0
  7  6  1  0  0  0  0
  8  7  1  0  0  0  0
  9  7  1  0  0  0  0
  9 11  2  0  0  0  0
 10  9  2  0  0  0  0
 12  9  1  0  0  0  0
 13 12  1  0  0  0  0
 13 15  1  0  0  0  0
 14 13  2  0  0  0  0
 15 16  2  0  0  0  0
 15 23  1  0  0  0  0
 16 17  1  0  0  0  0
 17 18  2  0  0  0  0
 18 19  1  0  0  0  0
 19 20  2  0  0  0  0
 19 37  1  0  0  0  0
 20 33  1  0  0  0  0
 21 24  1  0  0  0  0
 21 20  1  0  0  0  0
 22 18  1  0  0  0  0
 22 21  1  0  0  0  0
 23 22  2  0  0  0  0
 24 25  1  0  0  0  0
 25 34  1  0  0  0  0
 25 26  2  0  0  0  0
 27 28  1  0  0  0  0
 27 26  1  0  0  0  0
 29 28  2  0  0  0  0
 30 29  1  0  0  0  0
 31 30  1  0  0  0  0
 32 30  2  0  0  0  0
 32 33  1  0  0  0  0
 33 27  2  0  0  0  0
 34 35  2  0  0  0  0
 34  2  1  0  0  0  0
 36 12  1  0  0  0  0
 37 42  1  0  0  0  0
 38 39  1  0  0  0  0
 38 37  1  0  0  0  0
 39 40  1  0  0  0  0
 40 41  1  0  0  0  0
 42 41  1  0  0  0  0
M  END
>  <minimizedAffinity>
-4.26228905

$$$$

 OpenBabel09082221303D

 42 47  0  0  0  0  0  0  0  0999 V2000
    5.1600    1.6860    6.1740 C   0  0  0  0  0  1  0  0  0  0  0  0
    4.9780    0.3650    6.7730 N   0  0  0  0  0  0  0  0  0  0  0  0
    4.2210   -0.6070    5.9860 C   0  0  0  0  0  2  0  0  0  0  0  0
    5.0460   -1.2070    4.8420 C   0  0  0  0  0  2  0  0  0  0  0  0
    6.0870   -2.2210    5.3290 C   0  0  0  0  0  2  0  0  0  0  0  0
    6.9390   -2.7590    4.1820 C   0  0  0  0  0  2  0  0  0  0  0  0
    8.2920   -2.1150    4.2130 N   0  0  0  0  0  0  0  0  0  0  0  0
    9.3350   -3.0920    4.6020 C   0  0  0  0  0  1  0  0  0  0  0  0
    8.6280   -1.1910    2.8340 S   0  0  0  0  0  0  0  0  0  0  0  0
    8.8120   -2.1130    1.7380 O   0  0  0  0  0  0  0  0  0  0  0  0
    7.6790   -0.1100    2.7650 O   0  0  0  0  0  0  0  0  0  0  0  0
   10.1440   -0.6040    3.1960 N   0  0  0  0  0  0  0  0  0  0  0  0
   10.4310    0.7710    3.1330 C   0  0  0  0  0  0  0  0  0  0  0  0
   11.2650    1.1670    2.3310 O   0  0  0  0  0  0  0  0  0  0  0  0
    9.8240    1.6850    4.1390 C   0  0  0  0  0  0  0  0  0  0  0  0
    9.8520    3.0520    3.8590 C   0  0  0  0  0  3  0  0  0  0  0  0
    9.4120    3.9860    4.8020 C   0  0  0  0  0  3  0  0  0  0  0  0
    8.9550    3.5540    6.0660 C   0  0  0  0  0  0  0  0  0  0  0  0
    8.4990    4.2420    7.2450 C   0  0  0  0  0  0  0  0  0  0  0  0
    8.2640    3.2690    8.2180 C   0  0  0  0  0  0  0  0  0  0  0  0
    8.3880    2.0390    7.5920 N   0  0  0  0  0  0  0  0  0  0  0  0
    8.9070    2.1820    6.3200 C   0  0  0  0  0  0  0  0  0  0  0  0
    9.3240    1.2270    5.3680 C   0  0  0  0  0  3  0  0  0  0  0  0
    7.9540    0.7820    8.1970 C   0  0  0  0  0  2  0  0  0  0  0  0
    6.5160    0.8740    8.5980 C   0  0  0  0  0  0  0  0  0  0  0  0
    6.0000    1.7100    9.5140 C   0  0  0  0  0  3  0  0  0  0  0  0
    6.8250    2.6920   10.2370 C   0  0  0  0  0  0  0  0  0  0  0  0
    6.5050    2.9160   11.5870 C   0  0  0  0  0  3  0  0  0  0  0  0
    7.2480    3.8090   12.3590 C   0  0  0  0  0  3  0  0  0  0  0  0
    8.3190    4.4840   11.7870 C   0  0  0  0  0  0  0  0  0  0  0  0
    9.2500    5.5740   12.7390 Cl  0  0  0  0  0  0  0  0  0  0  0  0
    8.6430    4.2850   10.4470 C   0  0  0  0  0  3  0  0  0  0  0  0
    7.8900    3.4100    9.6450 C   0  0  0  0  0  0  0  0  0  0  0  0
    5.5960   -0.0710    7.9340 C   0  0  0  0  0  0  0  0  0  0  0  0
    5.4680   -1.1960    8.4120 O   0  0  0  0  0  0  0  0  0  0  0  0
   10.7760   -1.1010    2.5690 H   0  0  0  0  0  0  0  0  0  0  0  0
    8.3150    5.7390    7.4090 C   0  0  0  0  0  3  0  0  0  0  0  0
    9.6500    6.4990    7.4520 C   0  0  0  0  0  2  0  0  0  0  0  0
    9.4340    7.9980    7.6560 C   0  0  0  0  0  2  0  0  0  0  0  0
    8.4930    8.5790    6.6050 C   0  0  0  0  0  2  0  0  0  0  0  0
    7.1630    7.8320    6.5650 C   0  0  0  0  0  2  0  0  0  0  0  0
    7.3650    6.3320    6.3550 C   0  0  0  0  0  2  0  0  0  0  0  0
  1  2  1  0  0  0  0
  2 34  1  0  0  0  0
  3  2  1  0  0  0  0
  4  5  1  0  0  0  0
  4  3  1  0  0  0  0
  6  7  1  0  0  0  0
  6  5  1  0  0  0  0
  7  8  1  0  0  0  0
  9 12  1  0  0  0  0
  9  7  1  0  0  0  0
 10  9  2  0  0  0  0
 11  9  2  0  0  0  0
 13 12  1  0  0  0  0
 13 15  1  0  0  0  0
 14 13  2  0  0  0  0
 15 23  1  0  0  0  0
 16 15  2  0  0  0  0
 16 17  1  0  0  0  0
 17 18  2  0  0  0  0
 18 22  1  0  0  0  0
 18 19  1  0  0  0  0
 19 37  1  0  0  0  0
 19 20  2  0  0  0  0
 20 33  1  0  0  0  0
 21 24  1  0  0  0  0
 21 20  1  0  0  0  0
 22 21  1  0  0  0  0
 23 22  2  0  0  0  0
 24 25  1  0  0  0  0
 25 26  2  0  0  0  0
 26 27  1  0  0  0  0
 27 28  1  0  0  0  0
 28 29  2  0  0  0  0
 30 29  1  0  0  0  0
 30 31  1  0  0  0  0
 32 30  2  0  0  0  0
 33 27  2  0  0  0  0
 33 32  1  0  0  0  0
 34 35  2  0  0  0  0
 34 25  1  0  0  0  0
 36 12  1  0  0  0  0
 37 38  1  0  0  0  0
 38 39  1  0  0  0  0
 40 39  1  0  0  0  0
 41 40  1  0  0  0  0
 42 41  1  0  0  0  0
 42 37  1  0  0  0  0
M  END
>  <minimizedAffinity>
-4.01430416

$$$$

 OpenBabel09082221303D

 42 47  0  0  0  0  0  0  0  0999 V2000
    5.0630   -4.1530    4.7730 C   0  0  0  0  0  1  0  0  0  0  0  0
    5.7920   -5.1380    3.9750 N   0  0  0  0  0  0  0  0  0  0  0  0
    5.1640   -6.4490    3.8290 C   0  0  0  0  0  2  0  0  0  0  0  0
    4.0120   -6.4410    2.8190 C   0  0  0  0  0  2  0  0  0  0  0  0
    4.4950   -6.3700    1.3670 C   0  0  0  0  0  2  0  0  0  0  0  0
    3.3310   -6.2990    0.3810 C   0  0  0  0  0  2  0  0  0  0  0  0
    3.1870   -4.8970   -0.1290 N   0  0  0  0  0  0  0  0  0  0  0  0
    3.5700   -4.8120   -1.5580 C   0  0  0  0  0  1  0  0  0  0  0  0
    1.7070   -4.1830    0.2790 S   0  0  0  0  0  0  0  0  0  0  0  0
    0.6860   -4.8430   -0.5010 O   0  0  0  0  0  0  0  0  0  0  0  0
    1.6240   -4.0900    1.7140 O   0  0  0  0  0  0  0  0  0  0  0  0
    1.8810   -2.6670   -0.3870 N   0  0  0  0  0  0  0  0  0  0  0  0
    1.6690   -1.5040    0.3760 C   0  0  0  0  0  0  0  0  0  0  0  0
    0.7660   -0.7440    0.0590 O   0  0  0  0  0  0  0  0  0  0  0  0
    2.6390   -1.1570    1.4510 C   0  0  0  0  0  0  0  0  0  0  0  0
    2.2350   -0.2070    2.3900 C   0  0  0  0  0  3  0  0  0  0  0  0
    3.1250    0.2630    3.3610 C   0  0  0  0  0  3  0  0  0  0  0  0
    4.4580   -0.2020    3.3840 C   0  0  0  0  0  0  0  0  0  0  0  0
    5.6060    0.1130    4.1930 C   0  0  0  0  0  0  0  0  0  0  0  0
    6.6790   -0.6160    3.6790 C   0  0  0  0  0  0  0  0  0  0  0  0
    6.1570   -1.4760    2.7250 N   0  0  0  0  0  0  0  0  0  0  0  0
    4.8380   -1.1720    2.4550 C   0  0  0  0  0  0  0  0  0  0  0  0
    3.9430   -1.6750    1.4850 C   0  0  0  0  0  3  0  0  0  0  0  0
    6.9080   -2.5900    2.1520 C   0  0  0  0  0  2  0  0  0  0  0  0
    7.4240   -3.4780    3.2400 C   0  0  0  0  0  0  0  0  0  0  0  0
    8.3010   -3.1320    4.1960 C   0  0  0  0  0  3  0  0  0  0  0  0
    8.8590   -1.7740    4.2990 C   0  0  0  0  0  0  0  0  0  0  0  0
   10.2060   -1.6700    4.6860 C   0  0  0  0  0  3  0  0  0  0  0  0
   10.8270   -0.4250    4.7860 C   0  0  0  0  0  3  0  0  0  0  0  0
   10.1060    0.7270    4.4970 C   0  0  0  0  0  0  0  0  0  0  0  0
   10.8710    2.2640    4.6020 Cl  0  0  0  0  0  0  0  0  0  0  0  0
    8.7660    0.6440    4.1260 C   0  0  0  0  0  3  0  0  0  0  0  0
    8.1140   -0.5980    4.0460 C   0  0  0  0  0  0  0  0  0  0  0  0
    6.9300   -4.8690    3.2300 C   0  0  0  0  0  0  0  0  0  0  0  0
    7.5160   -5.6930    2.5320 O   0  0  0  0  0  0  0  0  0  0  0  0
    1.2480   -2.6550   -1.1870 H   0  0  0  0  0  0  0  0  0  0  0  0
    5.6500    1.0620    5.3760 C   0  0  0  0  0  3  0  0  0  0  0  0
    5.4330    2.5280    4.9690 C   0  0  0  0  0  2  0  0  0  0  0  0
    5.5210    3.4630    6.1740 C   0  0  0  0  0  2  0  0  0  0  0  0
    4.5610    3.0420    7.2840 C   0  0  0  0  0  2  0  0  0  0  0  0
    4.7790    1.5900    7.6970 C   0  0  0  0  0  2  0  0  0  0  0  0
    4.6870    0.6440    6.5010 C   0  0  0  0  0  2  0  0  0  0  0  0
  2  1  1  0  0  0  0
  3  2  1  0  0  0  0
  4  3  1  0  0  0  0
  5  4  1  0  0  0  0
  6  5  1  0  0  0  0
  7  9  1  0  0  0  0
  7  6  1  0  0  0  0
  8  7  1  0  0  0  0
  9 11  2  0  0  0  0
 10  9  2  0  0  0  0
 12  9  1  0  0  0  0
 12 13  1  0  0  0  0
 13 15  1  0  0  0  0
 14 13  2  0  0  0  0
 15 23  2  0  0  0  0
 15 16  1  0  0  0  0
 16 17  2  0  0  0  0
 17 18  1  0  0  0  0
 18 19  1  0  0  0  0
 19 37  1  0  0  0  0
 20 33  1  0  0  0  0
 20 19  2  0  0  0  0
 21 20  1  0  0  0  0
 22 21  1  0  0  0  0
 22 18  2  0  0  0  0
 23 22  1  0  0  0  0
 24 21  1  0  0  0  0
 24 25  1  0  0  0  0
 25 26  2  0  0  0  0
 26 27  1  0  0  0  0
 27 28  1  0  0  0  0
 28 29  2  0  0  0  0
 30 31  1  0  0  0  0
 30 29  1  0  0  0  0
 32 30  2  0  0  0  0
 33 32  1  0  0  0  0
 33 27  2  0  0  0  0
 34 25  1  0  0  0  0
 34  2  1  0  0  0  0
 35 34  2  0  0  0  0
 36 12  1  0  0  0  0
 37 42  1  0  0  0  0
 38 37  1  0  0  0  0
 38 39  1  0  0  0  0
 39 40  1  0  0  0  0
 40 41  1  0  0  0  0
 42 41  1  0  0  0  0
M  END
>  <minimizedAffinity>
-3.98477912

$$$$
