
 OpenBabel09092210413D

 42 47  0  0  0  0  0  0  0  0999 V2000
    5.0630   -4.1530    4.7730 C   0  0  0  0  0  1  0  0  0  0  0  0
    5.7920   -5.1380    3.9750 N   0  0  0  0  0  0  0  0  0  0  0  0
    5.1640   -6.4490    3.8290 C   0  0  0  0  0  2  0  0  0  0  0  0
    4.0120   -6.4410    2.8190 C   0  0  0  0  0  2  0  0  0  0  0  0
    4.4950   -6.3700    1.3670 C   0  0  0  0  0  2  0  0  0  0  0  0
    3.3310   -6.2990    0.3810 C   0  0  0  0  0  2  0  0  0  0  0  0
    3.1870   -4.8970   -0.1290 N   0  0  0  0  0  0  0  0  0  0  0  0
    3.5700   -4.8120   -1.5580 C   0  0  0  0  0  1  0  0  0  0  0  0
    1.7070   -4.1830    0.2790 S   0  0  0  0  0  0  0  0  0  0  0  0
    0.6860   -4.8430   -0.5010 O   0  0  0  0  0  0  0  0  0  0  0  0
    1.6240   -4.0900    1.7140 O   0  0  0  0  0  0  0  0  0  0  0  0
    1.8810   -2.6670   -0.3870 N   0  0  0  0  0  0  0  0  0  0  0  0
    1.6690   -1.5040    0.3760 C   0  0  0  0  0  0  0  0  0  0  0  0
    0.7660   -0.7440    0.0590 O   0  0  0  0  0  0  0  0  0  0  0  0
    2.6390   -1.1570    1.4510 C   0  0  0  0  0  0  0  0  0  0  0  0
    2.2350   -0.2070    2.3900 C   0  0  0  0  0  3  0  0  0  0  0  0
    3.1250    0.2630    3.3610 C   0  0  0  0  0  3  0  0  0  0  0  0
    4.4580   -0.2020    3.3840 C   0  0  0  0  0  0  0  0  0  0  0  0
    5.6060    0.1130    4.1930 C   0  0  0  0  0  0  0  0  0  0  0  0
    6.6790   -0.6160    3.6790 C   0  0  0  0  0  0  0  0  0  0  0  0
    6.1570   -1.4760    2.7250 N   0  0  0  0  0  0  0  0  0  0  0  0
    4.8380   -1.1720    2.4550 C   0  0  0  0  0  0  0  0  0  0  0  0
    3.9430   -1.6750    1.4850 C   0  0  0  0  0  3  0  0  0  0  0  0
    6.9080   -2.5900    2.1520 C   0  0  0  0  0  2  0  0  0  0  0  0
    7.4240   -3.4780    3.2400 C   0  0  0  0  0  0  0  0  0  0  0  0
    8.3010   -3.1320    4.1960 C   0  0  0  0  0  3  0  0  0  0  0  0
    8.8590   -1.7740    4.2990 C   0  0  0  0  0  0  0  0  0  0  0  0
   10.2060   -1.6700    4.6860 C   0  0  0  0  0  3  0  0  0  0  0  0
   10.8270   -0.4250    4.7860 C   0  0  0  0  0  3  0  0  0  0  0  0
   10.1060    0.7270    4.4970 C   0  0  0  0  0  0  0  0  0  0  0  0
   10.8710    2.2640    4.6020 Cl  0  0  0  0  0  0  0  0  0  0  0  0
    8.7660    0.6440    4.1260 C   0  0  0  0  0  3  0  0  0  0  0  0
    8.1140   -0.5980    4.0460 C   0  0  0  0  0  0  0  0  0  0  0  0
    6.9300   -4.8690    3.2300 C   0  0  0  0  0  0  0  0  0  0  0  0
    7.5160   -5.6930    2.5320 O   0  0  0  0  0  0  0  0  0  0  0  0
    1.2480   -2.6550   -1.1870 H   0  0  0  0  0  0  0  0  0  0  0  0
    5.6500    1.0620    5.3760 C   0  0  0  0  0  3  0  0  0  0  0  0
    5.4330    2.5280    4.9690 C   0  0  0  0  0  2  0  0  0  0  0  0
    5.5210    3.4630    6.1740 C   0  0  0  0  0  2  0  0  0  0  0  0
    4.5610    3.0420    7.2840 C   0  0  0  0  0  2  0  0  0  0  0  0
    4.7790    1.5900    7.6970 C   0  0  0  0  0  2  0  0  0  0  0  0
    4.6870    0.6440    6.5010 C   0  0  0  0  0  2  0  0  0  0  0  0
  2  1  1  0  0  0  0
  3  2  1  0  0  0  0
  4  3  1  0  0  0  0
  5  4  1  0  0  0  0
  6  5  1  0  0  0  0
  7  9  1  0  0  0  0
  7  6  1  0  0  0  0
  8  7  1  0  0  0  0
  9 11  2  0  0  0  0
 10  9  2  0  0  0  0
 12  9  1  0  0  0  0
 12 13  1  0  0  0  0
 13 15  1  0  0  0  0
 14 13  2  0  0  0  0
 15 23  2  0  0  0  0
 15 16  1  0  0  0  0
 16 17  2  0  0  0  0
 17 18  1  0  0  0  0
 18 19  1  0  0  0  0
 19 37  1  0  0  0  0
 20 33  1  0  0  0  0
 20 19  2  0  0  0  0
 21 20  1  0  0  0  0
 22 21  1  0  0  0  0
 22 18  2  0  0  0  0
 23 22  1  0  0  0  0
 24 21  1  0  0  0  0
 24 25  1  0  0  0  0
 25 26  2  0  0  0  0
 26 27  1  0  0  0  0
 27 28  1  0  0  0  0
 28 29  2  0  0  0  0
 30 31  1  0  0  0  0
 30 29  1  0  0  0  0
 32 30  2  0  0  0  0
 33 32  1  0  0  0  0
 33 27  2  0  0  0  0
 34 25  1  0  0  0  0
 34  2  1  0  0  0  0
 35 34  2  0  0  0  0
 36 12  1  0  0  0  0
 37 42  1  0  0  0  0
 38 37  1  0  0  0  0
 38 39  1  0  0  0  0
 39 40  1  0  0  0  0
 40 41  1  0  0  0  0
 42 41  1  0  0  0  0
M  END
>  <minimizedAffinity>
-3.98477912

$$$$
