
 OpenBabel09092210413D

 42 47  0  0  0  0  0  0  0  0999 V2000
    4.5310   -4.9520    1.6880 C   0  0  0  0  0  1  0  0  0  0  0  0
    4.6480   -4.6440    0.2630 N   0  0  0  0  0  0  0  0  0  0  0  0
    3.9740   -5.5580   -0.6570 C   0  0  0  0  0  2  0  0  0  0  0  0
    2.4590   -5.3340   -0.7030 C   0  0  0  0  0  2  0  0  0  0  0  0
    2.0690   -4.0680   -1.4740 C   0  0  0  0  0  2  0  0  0  0  0  0
    0.5610   -3.8310   -1.4550 C   0  0  0  0  0  2  0  0  0  0  0  0
    0.2350   -2.7330   -0.4870 N   0  0  0  0  0  0  0  0  0  0  0  0
   -0.2240   -1.5180   -1.2000 C   0  0  0  0  0  1  0  0  0  0  0  0
   -0.7370   -3.2410    0.8020 S   0  0  0  0  0  0  0  0  0  0  0  0
   -2.0520   -3.5050    0.2670 O   0  0  0  0  0  0  0  0  0  0  0  0
   -0.0140   -4.2310    1.5590 O   0  0  0  0  0  0  0  0  0  0  0  0
   -0.8760   -1.8330    1.6810 N   0  0  0  0  0  0  0  0  0  0  0  0
   -0.5720   -1.7950    3.0530 C   0  0  0  0  0  0  0  0  0  0  0  0
   -1.4580   -1.5220    3.8500 O   0  0  0  0  0  0  0  0  0  0  0  0
    0.8460   -1.9390    3.4860 C   0  0  0  0  0  0  0  0  0  0  0  0
    1.0760   -2.2270    4.8310 C   0  0  0  0  0  3  0  0  0  0  0  0
    2.3760   -2.2620    5.3450 C   0  0  0  0  0  3  0  0  0  0  0  0
    3.4760   -1.9770    4.5070 C   0  0  0  0  0  0  0  0  0  0  0  0
    4.8940   -1.8770    4.7280 C   0  0  0  0  0  0  0  0  0  0  0  0
    5.4680   -1.4760    3.5210 C   0  0  0  0  0  0  0  0  0  0  0  0
    4.4630   -1.5200    2.5670 N   0  0  0  0  0  0  0  0  0  0  0  0
    3.2310   -1.7180    3.1570 C   0  0  0  0  0  0  0  0  0  0  0  0
    1.9250   -1.7040    2.6190 C   0  0  0  0  0  3  0  0  0  0  0  0
    4.7160   -1.4340    1.1310 C   0  0  0  0  0  2  0  0  0  0  0  0
    5.6950   -2.4870    0.7170 C   0  0  0  0  0  0  0  0  0  0  0  0
    6.9700   -2.5870    1.1250 C   0  0  0  0  0  3  0  0  0  0  0  0
    7.5650   -1.6470    2.0890 C   0  0  0  0  0  0  0  0  0  0  0  0
    8.9070   -1.2860    1.8760 C   0  0  0  0  0  3  0  0  0  0  0  0
    9.5470   -0.3810    2.7230 C   0  0  0  0  0  3  0  0  0  0  0  0
    8.8480    0.1730    3.7890 C   0  0  0  0  0  0  0  0  0  0  0  0
    9.6260    1.3030    4.8270 Cl  0  0  0  0  0  0  0  0  0  0  0  0
    7.5210   -0.1830    4.0230 C   0  0  0  0  0  3  0  0  0  0  0  0
    6.8670   -1.1140    3.1980 C   0  0  0  0  0  0  0  0  0  0  0  0
    5.2030   -3.4840   -0.2540 C   0  0  0  0  0  0  0  0  0  0  0  0
    5.2650   -3.2150   -1.4520 O   0  0  0  0  0  0  0  0  0  0  0  0
   -1.8420   -1.5340    1.5500 H   0  0  0  0  0  0  0  0  0  0  0  0
    5.6310   -2.1470    6.0270 C   0  0  0  0  0  3  0  0  0  0  0  0
    5.2690   -1.1440    7.1340 C   0  0  0  0  0  2  0  0  0  0  0  0
    6.0540   -1.4170    8.4150 C   0  0  0  0  0  2  0  0  0  0  0  0
    5.8780   -2.8580    8.8870 C   0  0  0  0  0  2  0  0  0  0  0  0
    6.2450   -3.8570    7.7940 C   0  0  0  0  0  2  0  0  0  0  0  0
    5.4610   -3.5990    6.5080 C   0  0  0  0  0  2  0  0  0  0  0  0
  2  1  1  0  0  0  0
  3  2  1  0  0  0  0
  4  3  1  0  0  0  0
  5  6  1  0  0  0  0
  5  4  1  0  0  0  0
  6  7  1  0  0  0  0
  7  9  1  0  0  0  0
  8  7  1  0  0  0  0
  9 11  2  0  0  0  0
  9 12  1  0  0  0  0
 10  9  2  0  0  0  0
 12 13  1  0  0  0  0
 13 15  1  0  0  0  0
 13 14  2  0  0  0  0
 15 16  1  0  0  0  0
 16 17  2  0  0  0  0
 18 19  1  0  0  0  0
 18 17  1  0  0  0  0
 19 37  1  0  0  0  0
 20 19  2  0  0  0  0
 21 22  1  0  0  0  0
 21 20  1  0  0  0  0
 22 18  2  0  0  0  0
 23 22  1  0  0  0  0
 23 15  2  0  0  0  0
 24 21  1  0  0  0  0
 25 26  2  0  0  0  0
 25 24  1  0  0  0  0
 26 27  1  0  0  0  0
 27 33  1  0  0  0  0
 28 27  2  0  0  0  0
 28 29  1  0  0  0  0
 29 30  2  0  0  0  0
 30 32  1  0  0  0  0
 30 31  1  0  0  0  0
 33 20  1  0  0  0  0
 33 32  2  0  0  0  0
 34  2  1  0  0  0  0
 34 25  1  0  0  0  0
 35 34  2  0  0  0  0
 36 12  1  0  0  0  0
 37 42  1  0  0  0  0
 37 38  1  0  0  0  0
 38 39  1  0  0  0  0
 39 40  1  0  0  0  0
 41 40  1  0  0  0  0
 42 41  1  0  0  0  0
M  END
>  <minimizedAffinity>
-4.26594591

$$$$
