
 OpenBabel09092210413D

 42 47  0  0  0  0  0  0  0  0999 V2000
    5.2100    3.3930    4.1260 C   0  0  0  0  0  1  0  0  0  0  0  0
    4.3110    2.5880    4.9510 N   0  0  0  0  0  0  0  0  0  0  0  0
    3.4550    1.6390    4.2430 C   0  0  0  0  0  2  0  0  0  0  0  0
    4.2130    0.3850    3.7940 C   0  0  0  0  0  2  0  0  0  0  0  0
    4.5260   -0.5680    4.9530 C   0  0  0  0  0  2  0  0  0  0  0  0
    5.3350   -1.7780    4.4930 C   0  0  0  0  0  2  0  0  0  0  0  0
    6.7670   -1.6140    4.9060 N   0  0  0  0  0  0  0  0  0  0  0  0
    7.1250   -2.5790    5.9720 C   0  0  0  0  0  1  0  0  0  0  0  0
    7.8380   -1.5340    3.5970 S   0  0  0  0  0  0  0  0  0  0  0  0
    7.8930   -2.8520    3.0100 O   0  0  0  0  0  0  0  0  0  0  0  0
    7.5180   -0.3680    2.8140 O   0  0  0  0  0  0  0  0  0  0  0  0
    9.2930   -1.3210    4.3790 N   0  0  0  0  0  0  0  0  0  0  0  0
   10.1580   -0.2650    4.0400 C   0  0  0  0  0  0  0  0  0  0  0  0
   11.2650   -0.5250    3.5930 O   0  0  0  0  0  0  0  0  0  0  0  0
    9.7620    1.1310    4.3720 C   0  0  0  0  0  0  0  0  0  0  0  0
   10.4620    2.1600    3.7410 C   0  0  0  0  0  3  0  0  0  0  0  0
   10.2340    3.4970    4.0840 C   0  0  0  0  0  3  0  0  0  0  0  0
    9.3070    3.8200    5.0980 C   0  0  0  0  0  0  0  0  0  0  0  0
    8.8930    5.0550    5.7090 C   0  0  0  0  0  0  0  0  0  0  0  0
    7.9980    4.7260    6.7290 C   0  0  0  0  0  0  0  0  0  0  0  0
    7.7380    3.3700    6.6090 N   0  0  0  0  0  0  0  0  0  0  0  0
    8.5950    2.7800    5.7000 C   0  0  0  0  0  0  0  0  0  0  0  0
    8.7950    1.4280    5.3460 C   0  0  0  0  0  3  0  0  0  0  0  0
    6.6500    2.6950    7.3130 C   0  0  0  0  0  2  0  0  0  0  0  0
    5.3490    3.3710    7.0170 C   0  0  0  0  0  0  0  0  0  0  0  0
    5.0220    4.6350    7.3330 C   0  0  0  0  0  3  0  0  0  0  0  0
    5.9590    5.5440    8.0120 C   0  0  0  0  0  0  0  0  0  0  0  0
    5.4120    6.4210    8.9650 C   0  0  0  0  0  3  0  0  0  0  0  0
    6.2260    7.3010    9.6780 C   0  0  0  0  0  3  0  0  0  0  0  0
    7.5960    7.3090    9.4450 C   0  0  0  0  0  0  0  0  0  0  0  0
    8.6080    8.3800   10.3330 Cl  0  0  0  0  0  0  0  0  0  0  0  0
    8.1550    6.4560    8.4950 C   0  0  0  0  0  3  0  0  0  0  0  0
    7.3480    5.5820    7.7470 C   0  0  0  0  0  0  0  0  0  0  0  0
    4.3300    2.5460    6.3360 C   0  0  0  0  0  0  0  0  0  0  0  0
    3.5970    1.8390    7.0230 O   0  0  0  0  0  0  0  0  0  0  0  0
    9.7890   -2.2040    4.2580 H   0  0  0  0  0  0  0  0  0  0  0  0
    9.3460    6.4520    5.3290 C   0  0  0  0  0  3  0  0  0  0  0  0
   10.8480    6.6740    5.5670 C   0  0  0  0  0  2  0  0  0  0  0  0
   11.2660    8.1000    5.2110 C   0  0  0  0  0  2  0  0  0  0  0  0
   10.8660    8.4640    3.7840 C   0  0  0  0  0  2  0  0  0  0  0  0
    9.3740    8.2530    3.5460 C   0  0  0  0  0  2  0  0  0  0  0  0
    8.9440    6.8290    3.8920 C   0  0  0  0  0  2  0  0  0  0  0  0
  1  2  1  0  0  0  0
  2 34  1  0  0  0  0
  3  2  1  0  0  0  0
  4  3  1  0  0  0  0
  4  5  1  0  0  0  0
  6  7  1  0  0  0  0
  6  5  1  0  0  0  0
  7  8  1  0  0  0  0
  9 12  1  0  0  0  0
  9  7  1  0  0  0  0
 10  9  2  0  0  0  0
 11  9  2  0  0  0  0
 13 15  1  0  0  0  0
 13 12  1  0  0  0  0
 14 13  2  0  0  0  0
 15 23  1  0  0  0  0
 16 17  1  0  0  0  0
 16 15  2  0  0  0  0
 17 18  2  0  0  0  0
 18 22  1  0  0  0  0
 18 19  1  0  0  0  0
 19 20  2  0  0  0  0
 20 33  1  0  0  0  0
 21 20  1  0  0  0  0
 21 24  1  0  0  0  0
 22 21  1  0  0  0  0
 23 22  2  0  0  0  0
 25 24  1  0  0  0  0
 25 26  2  0  0  0  0
 26 27  1  0  0  0  0
 27 28  1  0  0  0  0
 28 29  2  0  0  0  0
 30 29  1  0  0  0  0
 30 31  1  0  0  0  0
 32 30  2  0  0  0  0
 33 27  2  0  0  0  0
 33 32  1  0  0  0  0
 34 25  1  0  0  0  0
 34 35  2  0  0  0  0
 36 12  1  0  0  0  0
 37 38  1  0  0  0  0
 37 19  1  0  0  0  0
 39 38  1  0  0  0  0
 40 39  1  0  0  0  0
 41 40  1  0  0  0  0
 41 42  1  0  0  0  0
 42 37  1  0  0  0  0
M  END
>  <minimizedAffinity>
-4.82793379

$$$$
