
 OpenBabel09092210413D

 42 47  0  0  0  0  0  0  0  0999 V2000
    6.2820   -3.3330    6.2870 C   0  0  0  0  0  1  0  0  0  0  0  0
    5.7050   -2.5250    7.3610 N   0  0  0  0  0  0  0  0  0  0  0  0
    6.4170   -2.5380    8.6370 C   0  0  0  0  0  2  0  0  0  0  0  0
    7.6750   -1.6630    8.6160 C   0  0  0  0  0  2  0  0  0  0  0  0
    7.3580   -0.1640    8.6620 C   0  0  0  0  0  2  0  0  0  0  0  0
    8.6220    0.6890    8.5770 C   0  0  0  0  0  2  0  0  0  0  0  0
    8.7460    1.2710    7.2020 N   0  0  0  0  0  0  0  0  0  0  0  0
    8.5250    2.7360    7.2250 C   0  0  0  0  0  1  0  0  0  0  0  0
   10.1270    0.7490    6.3740 S   0  0  0  0  0  0  0  0  0  0  0  0
   11.2660    1.3660    7.0130 O   0  0  0  0  0  0  0  0  0  0  0  0
   10.0400   -0.6770    6.1910 O   0  0  0  0  0  0  0  0  0  0  0  0
    9.9460    1.5290    4.9130 N   0  0  0  0  0  0  0  0  0  0  0  0
   10.0050    0.8260    3.6970 C   0  0  0  0  0  0  0  0  0  0  0  0
   10.8950    1.0900    2.9010 O   0  0  0  0  0  0  0  0  0  0  0  0
    8.9010   -0.1100    3.3470 C   0  0  0  0  0  0  0  0  0  0  0  0
    9.1410   -1.0230    2.3200 C   0  0  0  0  0  3  0  0  0  0  0  0
    8.1210   -1.8560    1.8500 C   0  0  0  0  0  3  0  0  0  0  0  0
    6.8220   -1.7620    2.3950 C   0  0  0  0  0  0  0  0  0  0  0  0
    5.5730   -2.4160    2.1050 C   0  0  0  0  0  0  0  0  0  0  0  0
    4.6080   -1.8350    2.9280 C   0  0  0  0  0  0  0  0  0  0  0  0
    5.2820   -1.0040    3.8090 N   0  0  0  0  0  0  0  0  0  0  0  0
    6.6050   -0.8630    3.4400 C   0  0  0  0  0  0  0  0  0  0  0  0
    7.6320   -0.0340    3.9430 C   0  0  0  0  0  3  0  0  0  0  0  0
    4.6650   -0.4260    5.0000 C   0  0  0  0  0  2  0  0  0  0  0  0
    4.0780   -1.5070    5.8530 C   0  0  0  0  0  0  0  0  0  0  0  0
    3.0790   -2.3340    5.5060 C   0  0  0  0  0  3  0  0  0  0  0  0
    2.4390   -2.2860    4.1820 C   0  0  0  0  0  0  0  0  0  0  0  0
    1.0530   -2.5130    4.1400 C   0  0  0  0  0  3  0  0  0  0  0  0
    0.3560   -2.4610    2.9320 C   0  0  0  0  0  3  0  0  0  0  0  0
    1.0410   -2.1780    1.7570 C   0  0  0  0  0  0  0  0  0  0  0  0
    0.1850   -2.0960    0.2670 Cl  0  0  0  0  0  0  0  0  0  0  0  0
    2.4170   -1.9640    1.7770 C   0  0  0  0  0  3  0  0  0  0  0  0
    3.1420   -2.0390    2.9790 C   0  0  0  0  0  0  0  0  0  0  0  0
    4.6470   -1.6430    7.2090 C   0  0  0  0  0  0  0  0  0  0  0  0
    4.1910   -0.9400    8.1070 O   0  0  0  0  0  0  0  0  0  0  0  0
   10.6650    2.2530    4.9100 H   0  0  0  0  0  0  0  0  0  0  0  0
    5.3410   -3.5220    1.0920 C   0  0  0  0  0  3  0  0  0  0  0  0
    5.2700   -2.9980   -0.3520 C   0  0  0  0  0  2  0  0  0  0  0  0
    4.9970   -4.1280   -1.3430 C   0  0  0  0  0  2  0  0  0  0  0  0
    6.0180   -5.2550   -1.2070 C   0  0  0  0  0  2  0  0  0  0  0  0
    6.0860   -5.7830    0.2230 C   0  0  0  0  0  2  0  0  0  0  0  0
    6.3640   -4.6640    1.2250 C   0  0  0  0  0  2  0  0  0  0  0  0
  1  2  1  0  0  0  0
  2  3  1  0  0  0  0
  4  3  1  0  0  0  0
  4  5  1  0  0  0  0
  6  5  1  0  0  0  0
  7  8  1  0  0  0  0
  7  6  1  0  0  0  0
  9 10  2  0  0  0  0
  9  7  1  0  0  0  0
 11  9  2  0  0  0  0
 12  9  1  0  0  0  0
 13 12  1  0  0  0  0
 14 13  2  0  0  0  0
 15 13  1  0  0  0  0
 15 23  1  0  0  0  0
 16 15  2  0  0  0  0
 17 16  1  0  0  0  0
 17 18  2  0  0  0  0
 18 22  1  0  0  0  0
 19 18  1  0  0  0  0
 19 20  2  0  0  0  0
 20 33  1  0  0  0  0
 20 21  1  0  0  0  0
 21 24  1  0  0  0  0
 22 21  1  0  0  0  0
 22 23  2  0  0  0  0
 24 25  1  0  0  0  0
 25 34  1  0  0  0  0
 26 25  2  0  0  0  0
 27 26  1  0  0  0  0
 28 27  1  0  0  0  0
 29 28  2  0  0  0  0
 30 32  2  0  0  0  0
 30 29  1  0  0  0  0
 31 30  1  0  0  0  0
 32 33  1  0  0  0  0
 33 27  2  0  0  0  0
 34  2  1  0  0  0  0
 34 35  2  0  0  0  0
 36 12  1  0  0  0  0
 37 42  1  0  0  0  0
 37 19  1  0  0  0  0
 38 37  1  0  0  0  0
 39 40  1  0  0  0  0
 39 38  1  0  0  0  0
 40 41  1  0  0  0  0
 41 42  1  0  0  0  0
M  END
>  <minimizedAffinity>
-4.31885624

$$$$
