
 OpenBabel09092210413D

 42 47  0  0  0  0  0  0  0  0999 V2000
    6.7920    3.2230    7.9610 C   0  0  0  0  0  1  0  0  0  0  0  0
    5.5270    3.9500    7.8690 N   0  0  0  0  0  0  0  0  0  0  0  0
    5.3840    5.1190    8.7350 C   0  0  0  0  0  2  0  0  0  0  0  0
    6.1550    6.3350    8.2120 C   0  0  0  0  0  2  0  0  0  0  0  0
    5.4810    6.9910    7.0020 C   0  0  0  0  0  2  0  0  0  0  0  0
    6.2970    8.1620    6.4590 C   0  0  0  0  0  2  0  0  0  0  0  0
    7.0020    7.7450    5.2030 N   0  0  0  0  0  0  0  0  0  0  0  0
    6.4250    8.4270    4.0210 C   0  0  0  0  0  1  0  0  0  0  0  0
    8.6900    7.7990    5.3320 S   0  0  0  0  0  0  0  0  0  0  0  0
    9.0690    9.1920    5.3850 O   0  0  0  0  0  0  0  0  0  0  0  0
    9.1020    6.8610    6.3440 O   0  0  0  0  0  0  0  0  0  0  0  0
    9.1490    7.2590    3.8250 N   0  0  0  0  0  0  0  0  0  0  0  0
   10.0570    6.1950    3.6750 C   0  0  0  0  0  0  0  0  0  0  0  0
   11.1290    6.4030    3.1260 O   0  0  0  0  0  0  0  0  0  0  0  0
    9.6290    4.8190    4.0500 C   0  0  0  0  0  0  0  0  0  0  0  0
   10.6310    3.8600    4.2060 C   0  0  0  0  0  3  0  0  0  0  0  0
   10.3090    2.5200    4.4420 C   0  0  0  0  0  3  0  0  0  0  0  0
    8.9570    2.1160    4.4980 C   0  0  0  0  0  0  0  0  0  0  0  0
    8.3070    0.8430    4.6650 C   0  0  0  0  0  0  0  0  0  0  0  0
    6.9350    1.0670    4.5470 C   0  0  0  0  0  0  0  0  0  0  0  0
    6.7580    2.4410    4.5050 N   0  0  0  0  0  0  0  0  0  0  0  0
    7.9680    3.0920    4.3690 C   0  0  0  0  0  0  0  0  0  0  0  0
    8.2780    4.4530    4.1560 C   0  0  0  0  0  3  0  0  0  0  0  0
    5.4560    3.0880    4.6570 C   0  0  0  0  0  2  0  0  0  0  0  0
    4.8090    2.6490    5.9330 C   0  0  0  0  0  0  0  0  0  0  0  0
    4.4330    1.3970    6.2400 C   0  0  0  0  0  3  0  0  0  0  0  0
    4.6500    0.2630    5.3270 C   0  0  0  0  0  0  0  0  0  0  0  0
    3.6400   -0.7140    5.2800 C   0  0  0  0  0  3  0  0  0  0  0  0
    3.7460   -1.8120    4.4250 C   0  0  0  0  0  3  0  0  0  0  0  0
    4.8630   -1.9390    3.6080 C   0  0  0  0  0  0  0  0  0  0  0  0
    4.9920   -3.2810    2.5390 Cl  0  0  0  0  0  0  0  0  0  0  0  0
    5.8800   -0.9880    3.6510 C   0  0  0  0  0  3  0  0  0  0  0  0
    5.8050    0.1100    4.5250 C   0  0  0  0  0  0  0  0  0  0  0  0
    4.5420    3.7110    6.9230 C   0  0  0  0  0  0  0  0  0  0  0  0
    3.4970    4.3500    6.8280 O   0  0  0  0  0  0  0  0  0  0  0  0
    9.5250    8.0810    3.3530 H   0  0  0  0  0  0  0  0  0  0  0  0
    8.9810   -0.4950    4.9120 C   0  0  0  0  0  3  0  0  0  0  0  0
    9.8890   -0.9250    3.7490 C   0  0  0  0  0  2  0  0  0  0  0  0
   10.5210   -2.2920    4.0100 C   0  0  0  0  0  2  0  0  0  0  0  0
   11.2650   -2.3220    5.3420 C   0  0  0  0  0  2  0  0  0  0  0  0
   10.3650   -1.9030    6.5000 C   0  0  0  0  0  2  0  0  0  0  0  0
    9.7300   -0.5350    6.2550 C   0  0  0  0  0  2  0  0  0  0  0  0
  2  1  1  0  0  0  0
  2  3  1  0  0  0  0
  4  3  1  0  0  0  0
  5  4  1  0  0  0  0
  6  5  1  0  0  0  0
  7  9  1  0  0  0  0
  7  6  1  0  0  0  0
  8  7  1  0  0  0  0
  9 10  2  0  0  0  0
  9 11  2  0  0  0  0
 12  9  1  0  0  0  0
 13 12  1  0  0  0  0
 13 15  1  0  0  0  0
 14 13  2  0  0  0  0
 15 23  2  0  0  0  0
 15 16  1  0  0  0  0
 16 17  2  0  0  0  0
 17 18  1  0  0  0  0
 18 19  1  0  0  0  0
 19 37  1  0  0  0  0
 20 19  2  0  0  0  0
 21 20  1  0  0  0  0
 21 24  1  0  0  0  0
 22 18  2  0  0  0  0
 22 21  1  0  0  0  0
 23 22  1  0  0  0  0
 24 25  1  0  0  0  0
 25 26  2  0  0  0  0
 25 34  1  0  0  0  0
 27 26  1  0  0  0  0
 28 27  1  0  0  0  0
 29 28  2  0  0  0  0
 30 32  2  0  0  0  0
 30 29  1  0  0  0  0
 31 30  1  0  0  0  0
 32 33  1  0  0  0  0
 33 20  1  0  0  0  0
 33 27  2  0  0  0  0
 34  2  1  0  0  0  0
 35 34  2  0  0  0  0
 36 12  1  0  0  0  0
 37 42  1  0  0  0  0
 38 39  1  0  0  0  0
 38 37  1  0  0  0  0
 39 40  1  0  0  0  0
 40 41  1  0  0  0  0
 42 41  1  0  0  0  0
M  END
>  <minimizedAffinity>
-5.08544827

$$$$
