
 OpenBabel09092210413D

 42 47  0  0  0  0  0  0  0  0999 V2000
    4.1080    5.3800    6.9840 C   0  0  0  0  0  1  0  0  0  0  0  0
    3.1000    4.3220    7.0210 N   0  0  0  0  0  0  0  0  0  0  0  0
    1.7840    4.6960    7.5360 C   0  0  0  0  0  2  0  0  0  0  0  0
    0.9580    5.4880    6.5170 C   0  0  0  0  0  2  0  0  0  0  0  0
    0.4070    4.6110    5.3880 C   0  0  0  0  0  2  0  0  0  0  0  0
   -0.3590    5.4290    4.3510 C   0  0  0  0  0  2  0  0  0  0  0  0
    0.4820    5.6030    3.1230 N   0  0  0  0  0  0  0  0  0  0  0  0
   -0.0720    4.8290    1.9880 C   0  0  0  0  0  1  0  0  0  0  0  0
    0.8640    7.2200    2.7950 S   0  0  0  0  0  0  0  0  0  0  0  0
   -0.3530    7.8660    2.3610 O   0  0  0  0  0  0  0  0  0  0  0  0
    1.6500    7.7360    3.8860 O   0  0  0  0  0  0  0  0  0  0  0  0
    1.8070    7.0610    1.4310 N   0  0  0  0  0  0  0  0  0  0  0  0
    3.0850    7.6430    1.3540 C   0  0  0  0  0  0  0  0  0  0  0  0
    3.2940    8.5060    0.5130 O   0  0  0  0  0  0  0  0  0  0  0  0
    4.1840    7.0920    2.1930 C   0  0  0  0  0  0  0  0  0  0  0  0
    5.3260    7.8790    2.3450 C   0  0  0  0  0  3  0  0  0  0  0  0
    6.4500    7.3880    3.0170 C   0  0  0  0  0  3  0  0  0  0  0  0
    6.4510    6.0720    3.5280 C   0  0  0  0  0  0  0  0  0  0  0  0
    7.4370    5.2680    4.2020 C   0  0  0  0  0  0  0  0  0  0  0  0
    6.8760    4.0030    4.3830 C   0  0  0  0  0  0  0  0  0  0  0  0
    5.5450    4.0990    4.0080 N   0  0  0  0  0  0  0  0  0  0  0  0
    5.2910    5.3080    3.3920 C   0  0  0  0  0  0  0  0  0  0  0  0
    4.1390    5.7990    2.7380 C   0  0  0  0  0  3  0  0  0  0  0  0
    4.5520    3.0690    4.3040 C   0  0  0  0  0  2  0  0  0  0  0  0
    4.5260    2.7850    5.7730 C   0  0  0  0  0  0  0  0  0  0  0  0
    5.5380    2.2840    6.5000 C   0  0  0  0  0  3  0  0  0  0  0  0
    6.8500    1.9700    5.9130 C   0  0  0  0  0  0  0  0  0  0  0  0
    7.5040    0.8240    6.3990 C   0  0  0  0  0  3  0  0  0  0  0  0
    8.7400    0.4340    5.8850 C   0  0  0  0  0  3  0  0  0  0  0  0
    9.3320    1.1850    4.8760 C   0  0  0  0  0  0  0  0  0  0  0  0
   10.8480    0.6990    4.2250 Cl  0  0  0  0  0  0  0  0  0  0  0  0
    8.7050    2.3320    4.3920 C   0  0  0  0  0  3  0  0  0  0  0  0
    7.4730    2.7570    4.9170 C   0  0  0  0  0  0  0  0  0  0  0  0
    3.2510    3.0620    6.4640 C   0  0  0  0  0  0  0  0  0  0  0  0
    2.3860    2.1900    6.4670 O   0  0  0  0  0  0  0  0  0  0  0  0
    1.2340    7.4250    0.6700 H   0  0  0  0  0  0  0  0  0  0  0  0
    8.8260    5.7050    4.6280 C   0  0  0  0  0  3  0  0  0  0  0  0
    9.6980    6.1500    3.4430 C   0  0  0  0  0  2  0  0  0  0  0  0
   11.1010    6.5450    3.9000 C   0  0  0  0  0  2  0  0  0  0  0  0
   11.0580    7.6090    4.9930 C   0  0  0  0  0  2  0  0  0  0  0  0
   10.2000    7.1680    6.1750 C   0  0  0  0  0  2  0  0  0  0  0  0
    8.7920    6.7750    5.7330 C   0  0  0  0  0  2  0  0  0  0  0  0
  1  2  1  0  0  0  0
  2  3  1  0  0  0  0
  4  3  1  0  0  0  0
  5  4  1  0  0  0  0
  6  5  1  0  0  0  0
  7  6  1  0  0  0  0
  8  7  1  0  0  0  0
  9  7  1  0  0  0  0
  9 11  2  0  0  0  0
 10  9  2  0  0  0  0
 12  9  1  0  0  0  0
 13 12  1  0  0  0  0
 13 15  1  0  0  0  0
 14 13  2  0  0  0  0
 15 16  2  0  0  0  0
 15 23  1  0  0  0  0
 16 17  1  0  0  0  0
 17 18  2  0  0  0  0
 18 19  1  0  0  0  0
 19 20  2  0  0  0  0
 19 37  1  0  0  0  0
 20 33  1  0  0  0  0
 21 24  1  0  0  0  0
 21 20  1  0  0  0  0
 22 18  1  0  0  0  0
 22 21  1  0  0  0  0
 23 22  2  0  0  0  0
 24 25  1  0  0  0  0
 25 34  1  0  0  0  0
 25 26  2  0  0  0  0
 27 28  1  0  0  0  0
 27 26  1  0  0  0  0
 29 28  2  0  0  0  0
 30 29  1  0  0  0  0
 31 30  1  0  0  0  0
 32 30  2  0  0  0  0
 32 33  1  0  0  0  0
 33 27  2  0  0  0  0
 34 35  2  0  0  0  0
 34  2  1  0  0  0  0
 36 12  1  0  0  0  0
 37 42  1  0  0  0  0
 38 39  1  0  0  0  0
 38 37  1  0  0  0  0
 39 40  1  0  0  0  0
 40 41  1  0  0  0  0
 42 41  1  0  0  0  0
M  END
>  <minimizedAffinity>
-4.26228905

$$$$
