
 OpenBabel09122222553D

 46 51  0  0  1  0  0  0  0  0999 V2000
  -12.0660    7.5920    6.2280 N   0  0  0  0  0  0  0  0  0  0  0  0
  -10.8540    7.1650    6.6970 C   0  0  0  0  0  0  0  0  0  0  0  0
  -10.1080    6.4850    5.9920 O   0  0  0  0  0  0  0  0  0  0  0  0
  -12.1780    7.3970    5.2420 H   0  0  0  0  0  0  0  0  0  0  0  0
  -10.4730    7.3910    8.0990 C   0  0  0  0  0  0  0  0  0  0  0  0
  -11.1360    6.6470    9.0820 C   0  0  0  0  0  3  0  0  0  0  0  0
  -10.8630    6.8490   10.4370 C   0  0  0  0  0  3  0  0  0  0  0  0
   -9.8770    7.7910   10.7580 C   0  0  0  0  0  0  0  0  0  0  0  0
   -9.1510    8.4730    9.7820 C   0  0  0  0  0  0  0  0  0  0  0  0
   -9.4530    8.2910    8.4230 C   0  0  0  0  0  3  0  0  0  0  0  0
   -8.1860    9.2540   10.3580 N   0  0  0  0  0  0  0  0  0  0  0  0
   -8.2990    9.0890   11.6630 C   0  0  0  0  0  0  0  0  0  0  0  0
   -9.4070    8.3100   11.9530 N   0  0  0  0  0  0  0  0  0  0  0  0
  -10.0310    8.1400   13.2620 C   0  0  0  0  0  3  0  0  0  0  0  0
  -10.5540    9.4460   13.8880 C   0  0  0  0  0  2  0  0  0  0  0  0
  -11.1200    9.1930   15.2850 C   0  0  0  0  0  2  0  0  0  0  0  0
  -12.1950    8.1090   15.2630 C   0  0  0  0  0  2  0  0  0  0  0  0
  -11.6760    6.8120   14.6500 C   0  0  0  0  0  2  0  0  0  0  0  0
  -11.0990    7.0370   13.2540 C   0  0  0  0  0  2  0  0  0  0  0  0
   -7.2980    9.6940   12.5920 C   0  0  0  0  0  0  0  0  0  0  0  0
   -5.9760    9.3190   12.9370 C   0  0  0  0  0  3  0  0  0  0  0  0
   -5.5260   10.2670   13.8280 C   0  0  0  0  0  3  0  0  0  0  0  0
   -6.4760   11.2120   14.0420 O   0  0  0  0  0  0  0  0  0  0  0  0
   -7.5460   10.8620   13.2820 C   0  0  0  0  0  3  0  0  0  0  0  0
  -13.0530    8.5980    6.7460 C   0  0  2  0  0  3  0  0  0  0  0  0
  -14.5270    8.1750    6.4530 C   0  0  0  0  0  0  0  0  0  0  0  0
  -14.6690    6.9570    6.1230 O   0  0  0  0  0  0  0  0  0  0  0  0
  -15.3980    9.0890    6.5020 O   0  0  0  0  0  1  0  0  0  0  0  0
  -12.7880   10.0500    6.3340 C   0  0  0  0  0  2  0  0  0  0  0  0
  -12.4600   10.5990   10.9540 C   0  0  0  0  0  0  0  0  0  0  0  0
  -11.3680   11.3720   11.3410 C   0  0  0  0  0  3  0  0  0  0  0  0
  -10.5220   11.9510   10.3880 C   0  0  0  0  0  3  0  0  0  0  0  0
  -10.7990   11.6980    9.0390 C   0  0  0  0  0  0  0  0  0  0  0  0
  -10.1430   12.1100    7.9020 N   0  0  0  0  0  0  0  0  0  0  0  0
  -10.7480   11.5990    6.7880 C   0  0  0  0  0  3  0  0  0  0  0  0
  -11.8290   10.8390    7.1870 C   0  0  0  0  0  0  0  0  0  0  0  0
  -11.8630   10.8980    8.6240 C   0  0  0  0  0  0  0  0  0  0  0  0
  -12.6960   10.3230    9.6070 C   0  0  0  0  0  3  0  0  0  0  0  0
   -9.3160   12.6880    7.8930 H   0  0  0  0  0  0  0  0  0  0  0  0
  -13.2150    9.9990   11.9250 O   0  0  0  0  0  0  0  0  0  0  0  0
  -13.6330   11.5950   13.8130 C   0  0  0  0  0  1  0  0  0  0  0  0
  -14.1940   10.8370   12.6000 C   0  0  0  0  0  0  0  0  0  0  0  0
  -14.8440   11.8210   11.6180 C   0  0  0  0  0  1  0  0  0  0  0  0
  -15.3080    9.8680   13.1710 C   0  0  0  0  0  0  0  0  0  0  0  0
  -15.2490    9.6190   14.4160 O   0  0  0  0  0  1  0  0  0  0  0  0
  -16.1670    9.4390   12.3410 O   0  0  0  0  0  0  0  0  0  0  0  0
  1  2  1  0  0  0  0
  1 25  1  0  0  0  0
  2  5  1  0  0  0  0
  3  2  2  0  0  0  0
  4  1  1  0  0  0  0
  5 10  2  0  0  0  0
  5  6  1  0  0  0  0
  6  7  2  0  0  0  0
  7  8  1  0  0  0  0
  8 13  1  0  0  0  0
  9 11  1  0  0  0  0
  9  8  2  0  0  0  0
 10  9  1  0  0  0  0
 11 12  2  0  0  0  0
 12 13  1  0  0  0  0
 12 20  1  0  0  0  0
 13 14  1  0  0  0  0
 14 15  1  0  0  0  0
 15 16  1  0  0  0  0
 17 16  1  0  0  0  0
 18 17  1  0  0  0  0
 19 14  1  0  0  0  0
 19 18  1  0  0  0  0
 20 21  1  0  0  0  0
 20 24  2  0  0  0  0
 21 22  2  0  0  0  0
 22 23  1  0  0  0  0
 24 23  1  0  0  0  0
 25 29  1  6  0  0  0
 26 28  1  0  0  0  0
 26 25  1  0  0  0  0
 27 26  2  0  0  0  0
 29 36  1  0  0  0  0
 30 31  1  0  0  0  0
 30 40  1  0  0  0  0
 32 31  2  0  0  0  0
 33 32  1  0  0  0  0
 34 33  1  0  0  0  0
 35 36  2  0  0  0  0
 35 34  1  0  0  0  0
 36 37  1  0  0  0  0
 37 33  2  0  0  0  0
 37 38  1  0  0  0  0
 38 30  2  0  0  0  0
 39 34  1  0  0  0  0
 40 42  1  0  0  0  0
 42 44  1  0  0  0  0
 42 41  1  0  0  0  0
 43 42  1  0  0  0  0
 44 45  1  0  0  0  0
 46 44  2  0  0  0  0
M  END
>  <minimizedAffinity>
-8.76839542

$$$$

 OpenBabel09122222553D

 46 51  0  0  1  0  0  0  0  0999 V2000
   -9.3300    8.1370   13.2960 N   0  0  0  0  0  0  0  0  0  0  0  0
   -9.7980    7.0180   12.6620 C   0  0  0  0  0  0  0  0  0  0  0  0
   -9.6740    5.9050   13.1740 O   0  0  0  0  0  0  0  0  0  0  0  0
   -9.0200    7.9350   14.2370 H   0  0  0  0  0  0  0  0  0  0  0  0
  -10.3380    7.1020   11.2970 C   0  0  0  0  0  0  0  0  0  0  0  0
   -9.4480    7.4170   10.2630 C   0  0  0  0  0  3  0  0  0  0  0  0
   -9.9000    7.5660    8.9510 C   0  0  0  0  0  3  0  0  0  0  0  0
  -11.2640    7.3480    8.7150 C   0  0  0  0  0  0  0  0  0  0  0  0
  -12.1400    6.9500    9.7230 C   0  0  0  0  0  0  0  0  0  0  0  0
  -11.6870    6.8340   11.0470 C   0  0  0  0  0  3  0  0  0  0  0  0
  -13.3870    6.7090    9.2100 N   0  0  0  0  0  0  0  0  0  0  0  0
  -13.3140    6.9590    7.9160 C   0  0  0  0  0  0  0  0  0  0  0  0
  -12.0720    7.4820    7.5980 N   0  0  0  0  0  0  0  0  0  0  0  0
  -11.7020    8.1450    6.3510 C   0  0  0  0  0  3  0  0  0  0  0  0
  -11.3890    9.6460    6.4990 C   0  0  0  0  0  2  0  0  0  0  0  0
  -11.0870   10.2770    5.1410 C   0  0  0  0  0  2  0  0  0  0  0  0
   -9.9650    9.5360    4.4190 C   0  0  0  0  0  2  0  0  0  0  0  0
  -10.2760    8.0510    4.2630 C   0  0  0  0  0  2  0  0  0  0  0  0
  -10.5870    7.3950    5.6080 C   0  0  0  0  0  2  0  0  0  0  0  0
  -14.4720    6.6580    7.0220 C   0  0  0  0  0  0  0  0  0  0  0  0
  -15.3410    7.4960    6.2810 C   0  0  0  0  0  3  0  0  0  0  0  0
  -16.2110    6.6610    5.6180 C   0  0  0  0  0  3  0  0  0  0  0  0
  -15.9250    5.3620    5.8860 O   0  0  0  0  0  0  0  0  0  0  0  0
  -14.8630    5.3670    6.7320 C   0  0  0  0  0  3  0  0  0  0  0  0
   -9.5400    9.6030   13.0460 C   0  0  2  0  0  3  0  0  0  0  0  0
   -8.1900   10.3840   12.9800 C   0  0  0  0  0  0  0  0  0  0  0  0
   -7.4190   10.0240   12.0370 O   0  0  0  0  0  0  0  0  0  0  0  0
   -7.9780   11.2250   13.8980 O   0  0  0  0  0  1  0  0  0  0  0  0
  -10.5470   10.2900   13.9740 C   0  0  0  0  0  2  0  0  0  0  0  0
  -14.9510   10.2270   12.4370 C   0  0  0  0  0  0  0  0  0  0  0  0
  -15.7400    9.2680   13.0680 C   0  0  0  0  0  3  0  0  0  0  0  0
  -15.2240    8.4720   14.0960 C   0  0  0  0  0  3  0  0  0  0  0  0
  -13.8790    8.6570   14.4440 C   0  0  0  0  0  0  0  0  0  0  0  0
  -13.1070    8.0190   15.3860 N   0  0  0  0  0  0  0  0  0  0  0  0
  -11.8280    8.5020   15.3640 C   0  0  0  0  0  3  0  0  0  0  0  0
  -11.7480    9.4840   14.3970 C   0  0  0  0  0  0  0  0  0  0  0  0
  -13.0550    9.5830   13.8050 C   0  0  0  0  0  0  0  0  0  0  0  0
  -13.6020   10.3690   12.7680 C   0  0  0  0  0  3  0  0  0  0  0  0
  -13.4310    7.2800   15.9910 H   0  0  0  0  0  0  0  0  0  0  0  0
  -15.4830   10.9310   11.3920 O   0  0  0  0  0  0  0  0  0  0  0  0
  -14.0600   10.3280    9.4180 C   0  0  0  0  0  1  0  0  0  0  0  0
  -15.4440   10.2900   10.0860 C   0  0  0  0  0  0  0  0  0  0  0  0
  -15.9510    8.8450   10.1690 C   0  0  0  0  0  1  0  0  0  0  0  0
  -16.4050   11.1200    9.1410 C   0  0  0  0  0  0  0  0  0  0  0  0
  -16.9360   12.1550    9.6520 O   0  0  0  0  0  1  0  0  0  0  0  0
  -16.5470   10.6870    7.9570 O   0  0  0  0  0  0  0  0  0  0  0  0
  1  4  1  0  0  0  0
  2  3  2  0  0  0  0
  2  1  1  0  0  0  0
  5  2  1  0  0  0  0
  6  5  2  0  0  0  0
  7  6  1  0  0  0  0
  8  7  2  0  0  0  0
  8  9  1  0  0  0  0
  9 10  2  0  0  0  0
 10  5  1  0  0  0  0
 11  9  1  0  0  0  0
 12 11  2  0  0  0  0
 13 12  1  0  0  0  0
 13  8  1  0  0  0  0
 14 15  1  0  0  0  0
 14 13  1  0  0  0  0
 16 15  1  0  0  0  0
 17 16  1  0  0  0  0
 18 17  1  0  0  0  0
 18 19  1  0  0  0  0
 19 14  1  0  0  0  0
 20 12  1  0  0  0  0
 21 20  1  0  0  0  0
 22 23  1  0  0  0  0
 22 21  2  0  0  0  0
 23 24  1  0  0  0  0
 24 20  2  0  0  0  0
 25  1  1  0  0  0  0
 25 29  1  1  0  0  0
 26 25  1  0  0  0  0
 26 28  1  0  0  0  0
 27 26  2  0  0  0  0
 29 36  1  0  0  0  0
 30 38  2  0  0  0  0
 30 31  1  0  0  0  0
 31 32  2  0  0  0  0
 32 33  1  0  0  0  0
 33 34  1  0  0  0  0
 34 39  1  0  0  0  0
 35 34  1  0  0  0  0
 36 35  2  0  0  0  0
 37 36  1  0  0  0  0
 37 33  2  0  0  0  0
 38 37  1  0  0  0  0
 40 30  1  0  0  0  0
 41 42  1  0  0  0  0
 42 43  1  0  0  0  0
 42 40  1  0  0  0  0
 44 45  1  0  0  0  0
 44 42  1  0  0  0  0
 46 44  2  0  0  0  0
M  END
>  <minimizedAffinity>
-8.73246193

$$$$

 OpenBabel09122222553D

 46 51  0  0  1  0  0  0  0  0999 V2000
   -9.2940    8.1220   13.2540 N   0  0  0  0  0  0  0  0  0  0  0  0
   -9.8500    7.0440   12.6210 C   0  0  0  0  0  0  0  0  0  0  0  0
   -9.7440    5.9120   13.0930 O   0  0  0  0  0  0  0  0  0  0  0  0
   -8.9350    7.8790   14.1680 H   0  0  0  0  0  0  0  0  0  0  0  0
  -10.4690    7.1930   11.2960 C   0  0  0  0  0  0  0  0  0  0  0  0
  -11.8670    7.1830   11.2250 C   0  0  0  0  0  3  0  0  0  0  0  0
  -12.5210    7.2660    9.9940 C   0  0  0  0  0  3  0  0  0  0  0  0
  -11.7210    7.3990    8.8510 C   0  0  0  0  0  0  0  0  0  0  0  0
  -10.3320    7.4960    8.9210 C   0  0  0  0  0  0  0  0  0  0  0  0
   -9.6780    7.3790   10.1580 C   0  0  0  0  0  3  0  0  0  0  0  0
   -9.8020    7.7200    7.6780 N   0  0  0  0  0  0  0  0  0  0  0  0
  -10.8200    7.7500    6.8380 C   0  0  0  0  0  0  0  0  0  0  0  0
  -11.9940    7.4230    7.4940 N   0  0  0  0  0  0  0  0  0  0  0  0
  -13.2670    7.0690    6.8720 C   0  0  0  0  0  3  0  0  0  0  0  0
  -13.9760    5.8660    7.5210 C   0  0  0  0  0  2  0  0  0  0  0  0
  -15.2580    5.5160    6.7650 C   0  0  0  0  0  2  0  0  0  0  0  0
  -16.1860    6.7220    6.6520 C   0  0  0  0  0  2  0  0  0  0  0  0
  -15.4880    7.9140    6.0030 C   0  0  0  0  0  2  0  0  0  0  0  0
  -14.1990    8.2820    6.7360 C   0  0  0  0  0  2  0  0  0  0  0  0
  -10.6060    8.1180    5.4060 C   0  0  0  0  0  0  0  0  0  0  0  0
  -10.1020    7.3860    4.3030 C   0  0  0  0  0  3  0  0  0  0  0  0
  -10.1570    8.2330    3.2190 C   0  0  0  0  0  3  0  0  0  0  0  0
  -10.6780    9.4340    3.5760 O   0  0  0  0  0  0  0  0  0  0  0  0
  -10.9560    9.3540    4.9030 C   0  0  0  0  0  3  0  0  0  0  0  0
   -9.4540    9.6030   13.0580 C   0  0  2  0  0  3  0  0  0  0  0  0
   -8.0780   10.3400   13.0270 C   0  0  0  0  0  0  0  0  0  0  0  0
   -7.3180    9.9950   12.0700 O   0  0  0  0  0  0  0  0  0  0  0  0
   -7.8400   11.1330   13.9810 O   0  0  0  0  0  1  0  0  0  0  0  0
  -10.4420   10.2880   14.0080 C   0  0  0  0  0  2  0  0  0  0  0  0
  -14.8630   10.2900   12.5200 C   0  0  0  0  0  0  0  0  0  0  0  0
  -15.6560    9.3320   13.1480 C   0  0  0  0  0  3  0  0  0  0  0  0
  -15.1360    8.5180   14.1610 C   0  0  0  0  0  3  0  0  0  0  0  0
  -13.7860    8.6840   14.4950 C   0  0  0  0  0  0  0  0  0  0  0  0
  -13.0100    8.0260   15.4200 N   0  0  0  0  0  0  0  0  0  0  0  0
  -11.7260    8.4970   15.3900 C   0  0  0  0  0  3  0  0  0  0  0  0
  -11.6470    9.4900   14.4340 C   0  0  0  0  0  0  0  0  0  0  0  0
  -12.9590    9.6100   13.8580 C   0  0  0  0  0  0  0  0  0  0  0  0
  -13.5100   10.4140   12.8370 C   0  0  0  0  0  3  0  0  0  0  0  0
  -13.3350    7.2840   16.0200 H   0  0  0  0  0  0  0  0  0  0  0  0
  -15.4000   11.0130   11.4900 O   0  0  0  0  0  0  0  0  0  0  0  0
  -13.8690   10.5810    9.5530 C   0  0  0  0  0  1  0  0  0  0  0  0
  -15.2750   10.4420   10.1580 C   0  0  0  0  0  0  0  0  0  0  0  0
  -15.7110    8.9710   10.1490 C   0  0  0  0  0  1  0  0  0  0  0  0
  -16.2380   11.2710    9.2130 C   0  0  0  0  0  0  0  0  0  0  0  0
  -16.3170   10.8750    8.0090 O   0  0  0  0  0  0  0  0  0  0  0  0
  -16.8540   12.2440    9.7460 O   0  0  0  0  0  1  0  0  0  0  0  0
  1  4  1  0  0  0  0
  2  3  2  0  0  0  0
  2  1  1  0  0  0  0
  5  2  1  0  0  0  0
  6  5  1  0  0  0  0
  7  6  2  0  0  0  0
  8  9  2  0  0  0  0
  8  7  1  0  0  0  0
  9 10  1  0  0  0  0
 10  5  2  0  0  0  0
 11  9  1  0  0  0  0
 12 13  1  0  0  0  0
 12 11  2  0  0  0  0
 13  8  1  0  0  0  0
 14 13  1  0  0  0  0
 14 15  1  0  0  0  0
 16 15  1  0  0  0  0
 17 16  1  0  0  0  0
 18 17  1  0  0  0  0
 18 19  1  0  0  0  0
 19 14  1  0  0  0  0
 20 12  1  0  0  0  0
 21 20  1  0  0  0  0
 22 23  1  0  0  0  0
 22 21  2  0  0  0  0
 23 24  1  0  0  0  0
 24 20  2  0  0  0  0
 25  1  1  0  0  0  0
 25 29  1  1  0  0  0
 26 25  1  0  0  0  0
 26 28  1  0  0  0  0
 27 26  2  0  0  0  0
 29 36  1  0  0  0  0
 30 38  2  0  0  0  0
 30 31  1  0  0  0  0
 31 32  2  0  0  0  0
 32 33  1  0  0  0  0
 33 34  1  0  0  0  0
 34 39  1  0  0  0  0
 35 34  1  0  0  0  0
 36 35  2  0  0  0  0
 37 36  1  0  0  0  0
 37 33  2  0  0  0  0
 38 37  1  0  0  0  0
 40 30  1  0  0  0  0
 41 42  1  0  0  0  0
 42 40  1  0  0  0  0
 43 42  1  0  0  0  0
 44 46  1  0  0  0  0
 44 42  1  0  0  0  0
 45 44  2  0  0  0  0
M  END
>  <minimizedAffinity>
-8.70858383

$$$$

 OpenBabel09122222553D

 46 51  0  0  1  0  0  0  0  0999 V2000
  -12.0510    8.3170    6.1610 N   0  0  0  0  0  0  0  0  0  0  0  0
  -10.8390    7.8440    6.5870 C   0  0  0  0  0  0  0  0  0  0  0  0
  -10.0760    7.2730    5.8080 O   0  0  0  0  0  0  0  0  0  0  0  0
  -12.1470    8.2550    5.1560 H   0  0  0  0  0  0  0  0  0  0  0  0
  -10.4800    7.8840    8.0120 C   0  0  0  0  0  0  0  0  0  0  0  0
  -11.2140    7.0800    8.8920 C   0  0  0  0  0  3  0  0  0  0  0  0
  -10.9630    7.1080   10.2650 C   0  0  0  0  0  3  0  0  0  0  0  0
   -9.9260    7.9410   10.7090 C   0  0  0  0  0  0  0  0  0  0  0  0
   -9.1340    8.6780    9.8310 C   0  0  0  0  0  0  0  0  0  0  0  0
   -9.4130    8.6710    8.4550 C   0  0  0  0  0  3  0  0  0  0  0  0
   -8.1340    9.3230   10.5090 N   0  0  0  0  0  0  0  0  0  0  0  0
   -8.2910    9.0190   11.7840 C   0  0  0  0  0  0  0  0  0  0  0  0
   -9.4540    8.2880   11.9640 N   0  0  0  0  0  0  0  0  0  0  0  0
  -10.1200    8.0130   13.2340 C   0  0  0  0  0  3  0  0  0  0  0  0
  -11.0120    9.1620   13.7420 C   0  0  0  0  0  2  0  0  0  0  0  0
  -11.6080    8.8250   15.1080 C   0  0  0  0  0  2  0  0  0  0  0  0
  -12.3620    7.4990   15.0760 C   0  0  0  0  0  2  0  0  0  0  0  0
  -11.4780    6.3580   14.5800 C   0  0  0  0  0  2  0  0  0  0  0  0
  -10.8640    6.6710   13.2170 C   0  0  0  0  0  2  0  0  0  0  0  0
   -7.2760    9.4470   12.7940 C   0  0  0  0  0  0  0  0  0  0  0  0
   -7.3960    9.8600   14.1430 C   0  0  0  0  0  3  0  0  0  0  0  0
   -6.1170   10.1110   14.5850 C   0  0  0  0  0  3  0  0  0  0  0  0
   -5.2140    9.8630   13.6030 O   0  0  0  0  0  0  0  0  0  0  0  0
   -5.9240    9.4520   12.5210 C   0  0  0  0  0  3  0  0  0  0  0  0
  -13.0560    9.2350    6.7940 C   0  0  2  0  0  3  0  0  0  0  0  0
  -14.4990    8.9820    6.2530 C   0  0  0  0  0  0  0  0  0  0  0  0
  -14.6290    7.9150    5.5780 O   0  0  0  0  0  0  0  0  0  0  0  0
  -15.3530    9.8860    6.4780 O   0  0  0  0  0  1  0  0  0  0  0  0
  -12.6950   10.7230    6.7690 C   0  0  0  0  0  2  0  0  0  0  0  0
  -14.2580   10.9950   11.1560 C   0  0  0  0  0  0  0  0  0  0  0  0
  -13.3340   11.5550   12.0360 C   0  0  0  0  0  3  0  0  0  0  0  0
  -12.0990   12.0270   11.5790 C   0  0  0  0  0  3  0  0  0  0  0  0
  -11.8170   11.8870   10.2140 C   0  0  0  0  0  0  0  0  0  0  0  0
  -10.6980   12.2350    9.4950 N   0  0  0  0  0  0  0  0  0  0  0  0
  -10.8440   11.8850    8.1810 C   0  0  0  0  0  3  0  0  0  0  0  0
  -12.0850   11.3000    8.0200 C   0  0  0  0  0  0  0  0  0  0  0  0
  -12.7070   11.2970    9.3170 C   0  0  0  0  0  0  0  0  0  0  0  0
  -13.9440   10.8250    9.8070 C   0  0  0  0  0  3  0  0  0  0  0  0
   -9.8740   12.6660    9.8860 H   0  0  0  0  0  0  0  0  0  0  0  0
  -15.4220   10.4860   11.6640 O   0  0  0  0  0  0  0  0  0  0  0  0
  -14.1500    8.3350   11.8680 C   0  0  0  0  0  1  0  0  0  0  0  0
  -15.3340    9.1980   12.3340 C   0  0  0  0  0  0  0  0  0  0  0  0
  -15.2900    9.3740   13.8570 C   0  0  0  0  0  1  0  0  0  0  0  0
  -16.6390    8.3910   11.9460 C   0  0  0  0  0  0  0  0  0  0  0  0
  -16.9880    7.4710   12.7490 O   0  0  0  0  0  1  0  0  0  0  0  0
  -17.2270    8.7440   10.8780 O   0  0  0  0  0  0  0  0  0  0  0  0
  1  2  1  0  0  0  0
  1 25  1  0  0  0  0
  2  5  1  0  0  0  0
  3  2  2  0  0  0  0
  4  1  1  0  0  0  0
  5 10  2  0  0  0  0
  5  6  1  0  0  0  0
  6  7  2  0  0  0  0
  7  8  1  0  0  0  0
  8 13  1  0  0  0  0
  9 11  1  0  0  0  0
  9  8  2  0  0  0  0
 10  9  1  0  0  0  0
 11 12  2  0  0  0  0
 12 13  1  0  0  0  0
 12 20  1  0  0  0  0
 13 14  1  0  0  0  0
 14 15  1  0  0  0  0
 15 16  1  0  0  0  0
 17 16  1  0  0  0  0
 18 17  1  0  0  0  0
 19 14  1  0  0  0  0
 19 18  1  0  0  0  0
 20 21  1  0  0  0  0
 21 22  2  0  0  0  0
 23 22  1  0  0  0  0
 24 20  2  0  0  0  0
 24 23  1  0  0  0  0
 25 29  1  6  0  0  0
 26 28  1  0  0  0  0
 26 25  1  0  0  0  0
 27 26  2  0  0  0  0
 29 36  1  0  0  0  0
 30 40  1  0  0  0  0
 30 31  1  0  0  0  0
 32 31  2  0  0  0  0
 33 32  1  0  0  0  0
 34 39  1  0  0  0  0
 34 33  1  0  0  0  0
 35 34  1  0  0  0  0
 36 35  2  0  0  0  0
 36 37  1  0  0  0  0
 37 38  1  0  0  0  0
 37 33  2  0  0  0  0
 38 30  2  0  0  0  0
 40 42  1  0  0  0  0
 41 42  1  0  0  0  0
 42 43  1  0  0  0  0
 44 42  1  0  0  0  0
 44 45  1  0  0  0  0
 46 44  2  0  0  0  0
M  END
>  <minimizedAffinity>
-8.56035042

$$$$

 OpenBabel09122222553D

 46 51  0  0  1  0  0  0  0  0999 V2000
  -11.4430    8.7460    4.1490 N   0  0  0  0  0  0  0  0  0  0  0  0
  -10.3140    8.2050    4.7030 C   0  0  0  0  0  0  0  0  0  0  0  0
   -9.4510    7.6850    3.9960 O   0  0  0  0  0  0  0  0  0  0  0  0
  -11.3900    8.7750    3.1400 H   0  0  0  0  0  0  0  0  0  0  0  0
  -10.1700    8.1110    6.1630 C   0  0  0  0  0  0  0  0  0  0  0  0
  -10.8160    7.0540    6.8150 C   0  0  0  0  0  3  0  0  0  0  0  0
  -10.7670    6.9340    8.2050 C   0  0  0  0  0  3  0  0  0  0  0  0
  -10.0130    7.8870    8.9040 C   0  0  0  0  0  0  0  0  0  0  0  0
   -9.2960    8.8910    8.2560 C   0  0  0  0  0  0  0  0  0  0  0  0
   -9.3760    9.0270    6.8610 C   0  0  0  0  0  3  0  0  0  0  0  0
   -8.5680    9.6210    9.1570 N   0  0  0  0  0  0  0  0  0  0  0  0
   -8.8240    9.1090   10.3460 C   0  0  0  0  0  0  0  0  0  0  0  0
   -9.8060    8.1380   10.2500 N   0  0  0  0  0  0  0  0  0  0  0  0
  -10.5590    7.5510   11.3550 C   0  0  0  0  0  3  0  0  0  0  0  0
   -9.6920    6.8100   12.3890 C   0  0  0  0  0  2  0  0  0  0  0  0
  -10.5610    6.1630   13.4670 C   0  0  0  0  0  2  0  0  0  0  0  0
  -11.4790    7.1850   14.1300 C   0  0  0  0  0  2  0  0  0  0  0  0
  -12.3450    7.9160   13.1080 C   0  0  0  0  0  2  0  0  0  0  0  0
  -11.5010    8.5680   12.0150 C   0  0  0  0  0  2  0  0  0  0  0  0
   -8.0770    9.5850   11.5500 C   0  0  0  0  0  0  0  0  0  0  0  0
   -6.7800    9.2930   12.0380 C   0  0  0  0  0  3  0  0  0  0  0  0
   -6.6190   10.0440   13.1810 C   0  0  0  0  0  3  0  0  0  0  0  0
   -7.7250   10.7940   13.4210 O   0  0  0  0  0  0  0  0  0  0  0  0
   -8.6030   10.5160   12.4220 C   0  0  0  0  0  3  0  0  0  0  0  0
  -12.5190    9.6300    4.7090 C   0  0  2  0  0  3  0  0  0  0  0  0
  -13.9350    9.2290    4.1870 C   0  0  0  0  0  0  0  0  0  0  0  0
  -14.8950    9.6020    4.9310 O   0  0  0  0  0  1  0  0  0  0  0  0
  -13.9730    8.5240    3.1390 O   0  0  0  0  0  0  0  0  0  0  0  0
  -12.2710   11.1360    4.5700 C   0  0  0  0  0  2  0  0  0  0  0  0
  -12.4340   11.1380    9.2320 C   0  0  0  0  0  0  0  0  0  0  0  0
  -11.3690   11.8170    9.8190 C   0  0  0  0  0  3  0  0  0  0  0  0
  -10.4080   12.4660    9.0360 C   0  0  0  0  0  3  0  0  0  0  0  0
  -10.5430   12.3810    7.6450 C   0  0  0  0  0  0  0  0  0  0  0  0
   -9.7550   12.8920    6.6400 N   0  0  0  0  0  0  0  0  0  0  0  0
  -10.2500   12.5370    5.4160 C   0  0  0  0  0  3  0  0  0  0  0  0
  -11.3890   11.7820    5.6060 C   0  0  0  0  0  0  0  0  0  0  0  0
  -11.5780   11.6770    7.0290 C   0  0  0  0  0  0  0  0  0  0  0  0
  -12.5300   11.0280    7.8440 C   0  0  0  0  0  3  0  0  0  0  0  0
   -8.9170   13.4330    6.7860 H   0  0  0  0  0  0  0  0  0  0  0  0
  -13.3080   10.4630   10.0400 O   0  0  0  0  0  0  0  0  0  0  0  0
  -14.4870   12.6740   10.1050 C   0  0  0  0  0  1  0  0  0  0  0  0
  -14.5160   11.1730   10.4310 C   0  0  0  0  0  0  0  0  0  0  0  0
  -15.7590   10.5220    9.8110 C   0  0  0  0  0  1  0  0  0  0  0  0
  -14.6140   11.0730   12.0080 C   0  0  0  0  0  0  0  0  0  0  0  0
  -15.5790   10.3840   12.4660 O   0  0  0  0  0  0  0  0  0  0  0  0
  -13.7160   11.6750   12.6710 O   0  0  0  0  0  1  0  0  0  0  0  0
  1  2  1  0  0  0  0
  1 25  1  0  0  0  0
  2  5  1  0  0  0  0
  3  2  2  0  0  0  0
  4  1  1  0  0  0  0
  5  6  2  0  0  0  0
  5 10  1  0  0  0  0
  6  7  1  0  0  0  0
  7  8  2  0  0  0  0
  8 13  1  0  0  0  0
  9  8  1  0  0  0  0
  9 11  1  0  0  0  0
 10  9  2  0  0  0  0
 11 12  2  0  0  0  0
 12 20  1  0  0  0  0
 13 12  1  0  0  0  0
 13 14  1  0  0  0  0
 14 19  1  0  0  0  0
 14 15  1  0  0  0  0
 15 16  1  0  0  0  0
 16 17  1  0  0  0  0
 18 17  1  0  0  0  0
 19 18  1  0  0  0  0
 20 21  1  0  0  0  0
 20 24  2  0  0  0  0
 21 22  2  0  0  0  0
 22 23  1  0  0  0  0
 24 23  1  0  0  0  0
 25 29  1  6  0  0  0
 26 25  1  0  0  0  0
 26 27  1  0  0  0  0
 28 26  2  0  0  0  0
 29 36  1  0  0  0  0
 30 31  1  0  0  0  0
 30 40  1  0  0  0  0
 32 31  2  0  0  0  0
 33 32  1  0  0  0  0
 34 39  1  0  0  0  0
 34 33  1  0  0  0  0
 35 36  2  0  0  0  0
 35 34  1  0  0  0  0
 36 37  1  0  0  0  0
 37 33  2  0  0  0  0
 37 38  1  0  0  0  0
 38 30  2  0  0  0  0
 40 42  1  0  0  0  0
 41 42  1  0  0  0  0
 42 44  1  0  0  0  0
 43 42  1  0  0  0  0
 44 45  2  0  0  0  0
 44 46  1  0  0  0  0
M  END
>  <minimizedAffinity>
-8.51124668

$$$$

 OpenBabel09122222553D

 46 51  0  0  1  0  0  0  0  0999 V2000
   -8.9590    8.0810   12.8410 N   0  0  0  0  0  0  0  0  0  0  0  0
   -9.6870    7.0630   12.2860 C   0  0  0  0  0  0  0  0  0  0  0  0
   -9.8060    5.9840   12.8650 O   0  0  0  0  0  0  0  0  0  0  0  0
   -8.6780    7.8690   13.7890 H   0  0  0  0  0  0  0  0  0  0  0  0
  -10.2300    7.1890   10.9250 C   0  0  0  0  0  0  0  0  0  0  0  0
   -9.3250    7.4090    9.8800 C   0  0  0  0  0  3  0  0  0  0  0  0
   -9.7740    7.5910    8.5710 C   0  0  0  0  0  3  0  0  0  0  0  0
  -11.1560    7.5030    8.3500 C   0  0  0  0  0  0  0  0  0  0  0  0
  -12.0550    7.1990    9.3700 C   0  0  0  0  0  0  0  0  0  0  0  0
  -11.6010    7.0500   10.6900 C   0  0  0  0  0  3  0  0  0  0  0  0
  -13.3250    7.0750    8.8710 N   0  0  0  0  0  0  0  0  0  0  0  0
  -13.2410    7.3070    7.5750 C   0  0  0  0  0  0  0  0  0  0  0  0
  -11.9580    7.7060    7.2400 N   0  0  0  0  0  0  0  0  0  0  0  0
  -11.5390    8.3200    5.9830 C   0  0  0  0  0  3  0  0  0  0  0  0
  -11.1610    9.8090    6.1020 C   0  0  0  0  0  2  0  0  0  0  0  0
  -10.8100   10.3930    4.7340 C   0  0  0  0  0  2  0  0  0  0  0  0
   -9.7110    9.5850    4.0480 C   0  0  0  0  0  2  0  0  0  0  0  0
  -10.0870    8.1110    3.9230 C   0  0  0  0  0  2  0  0  0  0  0  0
  -10.4480    7.5030    5.2770 C   0  0  0  0  0  2  0  0  0  0  0  0
  -14.4320    7.1120    6.6940 C   0  0  0  0  0  0  0  0  0  0  0  0
  -15.1410    7.9990    5.8480 C   0  0  0  0  0  3  0  0  0  0  0  0
  -16.1420    7.2570    5.2610 C   0  0  0  0  0  3  0  0  0  0  0  0
  -16.0860    5.9670    5.6750 O   0  0  0  0  0  0  0  0  0  0  0  0
  -15.0400    5.8840    6.5390 C   0  0  0  0  0  3  0  0  0  0  0  0
   -8.8360    9.5380   12.5020 C   0  0  2  0  0  3  0  0  0  0  0  0
   -7.6650   10.2220   13.2750 C   0  0  0  0  0  0  0  0  0  0  0  0
   -8.0190   11.1890   14.0190 O   0  0  0  0  0  1  0  0  0  0  0  0
   -6.5010    9.7970   13.0280 O   0  0  0  0  0  0  0  0  0  0  0  0
  -10.1330   10.3480   12.6060 C   0  0  0  0  0  2  0  0  0  0  0  0
  -14.6760   10.0050   11.6060 C   0  0  0  0  0  0  0  0  0  0  0  0
  -14.9810   10.3760   10.2990 C   0  0  0  0  0  3  0  0  0  0  0  0
  -13.9750   10.7480    9.4010 C   0  0  0  0  0  3  0  0  0  0  0  0
  -12.6570   10.7610    9.8770 C   0  0  0  0  0  0  0  0  0  0  0  0
  -11.4840   11.0960    9.2420 N   0  0  0  0  0  0  0  0  0  0  0  0
  -10.4270   10.9930   10.1030 C   0  0  0  0  0  3  0  0  0  0  0  0
  -10.9020   10.5760   11.3310 C   0  0  0  0  0  0  0  0  0  0  0  0
  -12.3260   10.4310   11.1910 C   0  0  0  0  0  0  0  0  0  0  0  0
  -13.3630   10.0640   12.0750 C   0  0  0  0  0  3  0  0  0  0  0  0
  -11.4160   11.3980    8.2820 H   0  0  0  0  0  0  0  0  0  0  0  0
  -15.7030    9.7160   12.4630 O   0  0  0  0  0  0  0  0  0  0  0  0
  -17.2280    7.7490   12.7610 C   0  0  0  0  0  1  0  0  0  0  0  0
  -15.8150    8.3350   12.9050 C   0  0  0  0  0  0  0  0  0  0  0  0
  -14.7980    7.4440   12.1800 C   0  0  0  0  0  1  0  0  0  0  0  0
  -15.4970    8.3240   14.4560 C   0  0  0  0  0  0  0  0  0  0  0  0
  -15.0010    7.2490   14.9180 O   0  0  0  0  0  0  0  0  0  0  0  0
  -15.7500    9.3910   15.0930 O   0  0  0  0  0  1  0  0  0  0  0  0
  1  4  1  0  0  0  0
  2  1  1  0  0  0  0
  2  3  2  0  0  0  0
  5  2  1  0  0  0  0
  6  5  2  0  0  0  0
  7  6  1  0  0  0  0
  8  7  2  0  0  0  0
  8  9  1  0  0  0  0
  9 10  2  0  0  0  0
 10  5  1  0  0  0  0
 11  9  1  0  0  0  0
 12 11  2  0  0  0  0
 13 12  1  0  0  0  0
 13  8  1  0  0  0  0
 14 15  1  0  0  0  0
 14 13  1  0  0  0  0
 16 15  1  0  0  0  0
 17 16  1  0  0  0  0
 18 17  1  0  0  0  0
 18 19  1  0  0  0  0
 19 14  1  0  0  0  0
 20 12  1  0  0  0  0
 21 20  1  0  0  0  0
 22 23  1  0  0  0  0
 22 21  2  0  0  0  0
 23 24  1  0  0  0  0
 24 20  2  0  0  0  0
 25 29  1  1  0  0  0
 25  1  1  0  0  0  0
 25 26  1  0  0  0  0
 26 27  1  0  0  0  0
 28 26  2  0  0  0  0
 30 38  1  0  0  0  0
 30 40  1  0  0  0  0
 31 30  2  0  0  0  0
 32 33  2  0  0  0  0
 32 31  1  0  0  0  0
 33 37  1  0  0  0  0
 34 33  1  0  0  0  0
 34 35  1  0  0  0  0
 35 36  2  0  0  0  0
 36 29  1  0  0  0  0
 37 36  1  0  0  0  0
 37 38  2  0  0  0  0
 39 34  1  0  0  0  0
 40 42  1  0  0  0  0
 41 42  1  0  0  0  0
 42 44  1  0  0  0  0
 43 42  1  0  0  0  0
 44 45  2  0  0  0  0
 44 46  1  0  0  0  0
M  END
>  <minimizedAffinity>
-8.48352909

$$$$

 OpenBabel09122222553D

 46 51  0  0  1  0  0  0  0  0999 V2000
   -8.7170    8.3390   12.9020 N   0  0  0  0  0  0  0  0  0  0  0  0
   -9.4270    7.3360   12.3000 C   0  0  0  0  0  0  0  0  0  0  0  0
   -9.4720    6.2100   12.7960 O   0  0  0  0  0  0  0  0  0  0  0  0
   -8.3820    8.0670   13.8170 H   0  0  0  0  0  0  0  0  0  0  0  0
  -10.0390    7.5420   10.9800 C   0  0  0  0  0  0  0  0  0  0  0  0
  -11.4360    7.5970   10.9100 C   0  0  0  0  0  3  0  0  0  0  0  0
  -12.0870    7.7370    9.6830 C   0  0  0  0  0  3  0  0  0  0  0  0
  -11.2820    7.8590    8.5420 C   0  0  0  0  0  0  0  0  0  0  0  0
   -9.8900    7.8920    8.6120 C   0  0  0  0  0  0  0  0  0  0  0  0
   -9.2410    7.7170    9.8450 C   0  0  0  0  0  3  0  0  0  0  0  0
   -9.3510    8.1190    7.3740 N   0  0  0  0  0  0  0  0  0  0  0  0
  -10.3660    8.2140    6.5360 C   0  0  0  0  0  0  0  0  0  0  0  0
  -11.5540    7.9250    7.1860 N   0  0  0  0  0  0  0  0  0  0  0  0
  -12.8420    7.6440    6.5580 C   0  0  0  0  0  3  0  0  0  0  0  0
  -13.6430    6.5150    7.2350 C   0  0  0  0  0  2  0  0  0  0  0  0
  -14.9380    6.2330    6.4730 C   0  0  0  0  0  2  0  0  0  0  0  0
  -15.7750    7.4990    6.3100 C   0  0  0  0  0  2  0  0  0  0  0  0
  -14.9860    8.6160    5.6330 C   0  0  0  0  0  2  0  0  0  0  0  0
  -13.6830    8.9150    6.3720 C   0  0  0  0  0  2  0  0  0  0  0  0
  -10.1370    8.6040    5.1120 C   0  0  0  0  0  0  0  0  0  0  0  0
  -10.1730    7.8610    3.9070 C   0  0  0  0  0  3  0  0  0  0  0  0
   -9.9030    8.7530    2.8940 C   0  0  0  0  0  3  0  0  0  0  0  0
   -9.7210   10.0020    3.3920 O   0  0  0  0  0  0  0  0  0  0  0  0
   -9.8730    9.9060    4.7390 C   0  0  0  0  0  3  0  0  0  0  0  0
   -8.6730    9.8230   12.6750 C   0  0  2  0  0  3  0  0  0  0  0  0
   -7.3360   10.4520   13.1800 C   0  0  0  0  0  0  0  0  0  0  0  0
   -7.4820   11.3900   14.0240 O   0  0  0  0  0  1  0  0  0  0  0  0
   -6.2730   10.0200   12.6520 O   0  0  0  0  0  0  0  0  0  0  0  0
   -9.8920   10.6010   13.1810 C   0  0  0  0  0  2  0  0  0  0  0  0
  -14.4970   10.0010   12.7410 C   0  0  0  0  0  0  0  0  0  0  0  0
  -15.0390   10.6840   11.6550 C   0  0  0  0  0  3  0  0  0  0  0  0
  -14.2250   11.4130   10.7820 C   0  0  0  0  0  3  0  0  0  0  0  0
  -12.8520   11.4530   11.0600 C   0  0  0  0  0  0  0  0  0  0  0  0
  -11.8290   12.0930   10.4020 N   0  0  0  0  0  0  0  0  0  0  0  0
  -10.6400   11.8820   11.0450 C   0  0  0  0  0  3  0  0  0  0  0  0
  -10.8740   11.0830   12.1460 C   0  0  0  0  0  0  0  0  0  0  0  0
  -12.2860   10.8100   12.1600 C   0  0  0  0  0  0  0  0  0  0  0  0
  -13.1330   10.0850   13.0260 C   0  0  0  0  0  3  0  0  0  0  0  0
  -11.9420   12.6590    9.5750 H   0  0  0  0  0  0  0  0  0  0  0  0
  -15.3440    9.3590   13.6030 O   0  0  0  0  0  0  0  0  0  0  0  0
  -17.0530    7.6090   13.0530 C   0  0  0  0  0  1  0  0  0  0  0  0
  -15.5830    7.9460   13.3510 C   0  0  0  0  0  0  0  0  0  0  0  0
  -14.6840    7.4310   12.2210 C   0  0  0  0  0  1  0  0  0  0  0  0
  -15.2230    7.1770   14.6880 C   0  0  0  0  0  0  0  0  0  0  0  0
  -14.5770    7.8400   15.5580 O   0  0  0  0  0  1  0  0  0  0  0  0
  -15.6250    5.9770   14.7760 O   0  0  0  0  0  0  0  0  0  0  0  0
  1  4  1  0  0  0  0
  2  3  2  0  0  0  0
  2  1  1  0  0  0  0
  5  2  1  0  0  0  0
  6  5  1  0  0  0  0
  7  6  2  0  0  0  0
  8  9  2  0  0  0  0
  8  7  1  0  0  0  0
  9 10  1  0  0  0  0
 10  5  2  0  0  0  0
 11  9  1  0  0  0  0
 12 13  1  0  0  0  0
 12 11  2  0  0  0  0
 13  8  1  0  0  0  0
 14 13  1  0  0  0  0
 14 15  1  0  0  0  0
 16 15  1  0  0  0  0
 17 16  1  0  0  0  0
 18 17  1  0  0  0  0
 18 19  1  0  0  0  0
 19 14  1  0  0  0  0
 20 12  1  0  0  0  0
 21 20  1  0  0  0  0
 22 23  1  0  0  0  0
 22 21  2  0  0  0  0
 23 24  1  0  0  0  0
 24 20  2  0  0  0  0
 25  1  1  0  0  0  0
 25 26  1  0  0  0  0
 25 29  1  1  0  0  0
 26 27  1  0  0  0  0
 28 26  2  0  0  0  0
 30 38  1  0  0  0  0
 30 40  1  0  0  0  0
 31 30  2  0  0  0  0
 32 33  2  0  0  0  0
 32 31  1  0  0  0  0
 33 37  1  0  0  0  0
 34 35  1  0  0  0  0
 34 33  1  0  0  0  0
 35 36  2  0  0  0  0
 36 37  1  0  0  0  0
 36 29  1  0  0  0  0
 37 38  2  0  0  0  0
 39 34  1  0  0  0  0
 41 42  1  0  0  0  0
 42 40  1  0  0  0  0
 42 44  1  0  0  0  0
 43 42  1  0  0  0  0
 44 46  2  0  0  0  0
 44 45  1  0  0  0  0
M  END
>  <minimizedAffinity>
-8.40288067

$$$$

 OpenBabel09122222553D

 46 51  0  0  1  0  0  0  0  0999 V2000
  -12.0970    7.2500    6.2490 N   0  0  0  0  0  0  0  0  0  0  0  0
  -11.0440    6.6700    6.9030 C   0  0  0  0  0  0  0  0  0  0  0  0
  -10.4640    5.6960    6.4250 O   0  0  0  0  0  0  0  0  0  0  0  0
  -12.2180    6.8710    5.3190 H   0  0  0  0  0  0  0  0  0  0  0  0
  -10.6700    7.1110    8.2550 C   0  0  0  0  0  0  0  0  0  0  0  0
  -11.4710    6.6890    9.3230 C   0  0  0  0  0  3  0  0  0  0  0  0
  -11.2060    7.1130   10.6270 C   0  0  0  0  0  3  0  0  0  0  0  0
  -10.0890    7.9380   10.8170 C   0  0  0  0  0  0  0  0  0  0  0  0
   -9.2370    8.2910    9.7720 C   0  0  0  0  0  0  0  0  0  0  0  0
   -9.5270    7.8900    8.4590 C   0  0  0  0  0  3  0  0  0  0  0  0
   -8.1730    9.0150   10.2420 N   0  0  0  0  0  0  0  0  0  0  0  0
   -8.3470    9.1320   11.5450 C   0  0  0  0  0  0  0  0  0  0  0  0
   -9.5740    8.6060   11.9150 N   0  0  0  0  0  0  0  0  0  0  0  0
  -10.2520    8.7990   13.1940 C   0  0  0  0  0  3  0  0  0  0  0  0
  -11.2550    9.9680   13.2080 C   0  0  0  0  0  2  0  0  0  0  0  0
  -11.8610   10.1490   14.5990 C   0  0  0  0  0  2  0  0  0  0  0  0
  -12.4960    8.8560   15.1030 C   0  0  0  0  0  2  0  0  0  0  0  0
  -11.5030    7.6970   15.0960 C   0  0  0  0  0  2  0  0  0  0  0  0
  -10.8770    7.4980   13.7180 C   0  0  0  0  0  2  0  0  0  0  0  0
   -7.2860    9.7500   12.3970 C   0  0  0  0  0  0  0  0  0  0  0  0
   -7.3530   10.5670   13.5520 C   0  0  0  0  0  3  0  0  0  0  0  0
   -6.0520   10.8170   13.9240 C   0  0  0  0  0  3  0  0  0  0  0  0
   -5.1860   10.1950   13.0850 O   0  0  0  0  0  0  0  0  0  0  0  0
   -5.9430    9.5410   12.1650 C   0  0  0  0  0  3  0  0  0  0  0  0
  -12.8240    8.5480    6.4540 C   0  0  2  0  0  3  0  0  0  0  0  0
  -14.2610    8.5160    5.8450 C   0  0  0  0  0  0  0  0  0  0  0  0
  -14.6970    7.3510    5.5880 O   0  0  0  0  0  0  0  0  0  0  0  0
  -14.7990    9.6340    5.6070 O   0  0  0  0  0  1  0  0  0  0  0  0
  -12.0570    9.8050    6.0310 C   0  0  0  0  0  2  0  0  0  0  0  0
  -12.6010    9.9840    1.4010 C   0  0  0  0  0  0  0  0  0  0  0  0
  -11.4030    9.8630    0.7010 C   0  0  0  0  0  3  0  0  0  0  0  0
  -10.1940    9.6490    1.3730 C   0  0  0  0  0  3  0  0  0  0  0  0
  -10.2330    9.5930    2.7720 C   0  0  0  0  0  0  0  0  0  0  0  0
   -9.2200    9.4160    3.6840 N   0  0  0  0  0  0  0  0  0  0  0  0
   -9.7120    9.4570    4.9600 C   0  0  0  0  0  3  0  0  0  0  0  0
  -11.0760    9.6580    4.8960 C   0  0  0  0  0  0  0  0  0  0  0  0
  -11.4120    9.7480    3.5010 C   0  0  0  0  0  0  0  0  0  0  0  0
  -12.6150    9.9670    2.7960 C   0  0  0  0  0  3  0  0  0  0  0  0
   -8.2470    9.2980    3.4480 H   0  0  0  0  0  0  0  0  0  0  0  0
  -13.7450   10.2600    0.7020 O   0  0  0  0  0  0  0  0  0  0  0  0
  -13.7340   12.5620    1.6950 C   0  0  0  0  0  1  0  0  0  0  0  0
  -14.0550   11.6650    0.4890 C   0  0  0  0  0  0  0  0  0  0  0  0
  -13.3530   12.1980   -0.7670 C   0  0  0  0  0  1  0  0  0  0  0  0
  -15.6220   11.7600    0.2820 C   0  0  0  0  0  0  0  0  0  0  0  0
  -16.0240   11.8410   -0.9210 O   0  0  0  0  0  0  0  0  0  0  0  0
  -16.3350   11.7320    1.3310 O   0  0  0  0  0  1  0  0  0  0  0  0
  1 25  1  0  0  0  0
  1  2  1  0  0  0  0
  2  5  1  0  0  0  0
  3  2  2  0  0  0  0
  4  1  1  0  0  0  0
  5 10  2  0  0  0  0
  5  6  1  0  0  0  0
  6  7  2  0  0  0  0
  7  8  1  0  0  0  0
  8 13  1  0  0  0  0
  9 11  1  0  0  0  0
  9  8  2  0  0  0  0
 10  9  1  0  0  0  0
 11 12  2  0  0  0  0
 12 13  1  0  0  0  0
 12 20  1  0  0  0  0
 13 14  1  0  0  0  0
 14 15  1  0  0  0  0
 14 19  1  0  0  0  0
 15 16  1  0  0  0  0
 16 17  1  0  0  0  0
 18 17  1  0  0  0  0
 19 18  1  0  0  0  0
 20 21  1  0  0  0  0
 21 22  2  0  0  0  0
 23 22  1  0  0  0  0
 24 20  2  0  0  0  0
 24 23  1  0  0  0  0
 25 29  1  6  0  0  0
 26 25  1  0  0  0  0
 27 26  2  0  0  0  0
 28 26  1  0  0  0  0
 30 38  1  0  0  0  0
 31 32  1  0  0  0  0
 31 30  2  0  0  0  0
 32 33  2  0  0  0  0
 33 37  1  0  0  0  0
 33 34  1  0  0  0  0
 34 35  1  0  0  0  0
 36 35  2  0  0  0  0
 36 29  1  0  0  0  0
 37 36  1  0  0  0  0
 38 37  2  0  0  0  0
 39 34  1  0  0  0  0
 40 30  1  0  0  0  0
 42 40  1  0  0  0  0
 42 41  1  0  0  0  0
 43 42  1  0  0  0  0
 44 42  1  0  0  0  0
 44 46  1  0  0  0  0
 45 44  2  0  0  0  0
M  END
>  <minimizedAffinity>
-8.3602829

$$$$

 OpenBabel09122222553D

 46 51  0  0  1  0  0  0  0  0999 V2000
  -13.4690   11.6320   13.6900 N   0  0  0  0  0  0  0  0  0  0  0  0
  -12.4170   11.9070   12.8590 C   0  0  0  0  0  0  0  0  0  0  0  0
  -11.6050   12.7880   13.1400 O   0  0  0  0  0  0  0  0  0  0  0  0
  -13.3970   12.1300   14.5670 H   0  0  0  0  0  0  0  0  0  0  0  0
  -12.3090   11.2500   11.5480 C   0  0  0  0  0  0  0  0  0  0  0  0
  -11.0810   10.6700   11.2100 C   0  0  0  0  0  3  0  0  0  0  0  0
  -10.8900   10.0760    9.9610 C   0  0  0  0  0  3  0  0  0  0  0  0
  -11.9870   10.0540    9.0880 C   0  0  0  0  0  0  0  0  0  0  0  0
  -13.2370   10.5520    9.4500 C   0  0  0  0  0  0  0  0  0  0  0  0
  -13.4140   11.1780   10.6950 C   0  0  0  0  0  3  0  0  0  0  0  0
  -14.1540   10.3180    8.4600 N   0  0  0  0  0  0  0  0  0  0  0  0
  -13.5060    9.7020    7.4890 C   0  0  0  0  0  0  0  0  0  0  0  0
  -12.1530    9.6440    7.7760 N   0  0  0  0  0  0  0  0  0  0  0  0
  -11.0810    9.3080    6.8440 C   0  0  0  0  0  3  0  0  0  0  0  0
  -11.2500    7.9440    6.1490 C   0  0  0  0  0  2  0  0  0  0  0  0
  -10.0520    7.6360    5.2510 C   0  0  0  0  0  2  0  0  0  0  0  0
   -9.8090    8.7560    4.2430 C   0  0  0  0  0  2  0  0  0  0  0  0
   -9.6330   10.1070    4.9290 C   0  0  0  0  0  2  0  0  0  0  0  0
  -10.8160   10.4370    5.8380 C   0  0  0  0  0  2  0  0  0  0  0  0
  -14.2470    9.1710    6.3060 C   0  0  0  0  0  0  0  0  0  0  0  0
  -14.2190    9.5210    4.9340 C   0  0  0  0  0  3  0  0  0  0  0  0
  -15.0990    8.6720    4.3000 C   0  0  0  0  0  3  0  0  0  0  0  0
  -15.6540    7.8090    5.1870 O   0  0  0  0  0  0  0  0  0  0  0  0
  -15.1260    8.1120    6.4020 C   0  0  0  0  0  3  0  0  0  0  0  0
  -14.4510   10.4970   13.7360 C   0  0  2  0  0  3  0  0  0  0  0  0
  -15.7920   10.9120   14.4190 C   0  0  0  0  0  0  0  0  0  0  0  0
  -16.7890   10.1890   14.1050 O   0  0  0  0  0  0  0  0  0  0  0  0
  -15.7620   11.9480   15.1420 O   0  0  0  0  0  1  0  0  0  0  0  0
  -13.9090    9.1820   14.3060 C   0  0  0  0  0  2  0  0  0  0  0  0
   -9.3380    8.4500   13.7310 C   0  0  0  0  0  0  0  0  0  0  0  0
   -9.0520    7.4780   12.7760 C   0  0  0  0  0  3  0  0  0  0  0  0
  -10.0750    6.8580   12.0490 C   0  0  0  0  0  3  0  0  0  0  0  0
  -11.3930    7.2330   12.3400 C   0  0  0  0  0  0  0  0  0  0  0  0
  -12.5820    6.7900   11.8120 N   0  0  0  0  0  0  0  0  0  0  0  0
  -13.6380    7.4130   12.4180 C   0  0  0  0  0  3  0  0  0  0  0  0
  -13.1440    8.2910   13.3610 C   0  0  0  0  0  0  0  0  0  0  0  0
  -11.7110    8.1760   13.3170 C   0  0  0  0  0  0  0  0  0  0  0  0
  -10.6580    8.7810   14.0380 C   0  0  0  0  0  3  0  0  0  0  0  0
  -12.6660    6.0860   11.0940 H   0  0  0  0  0  0  0  0  0  0  0  0
   -8.3070    8.9750   14.4610 O   0  0  0  0  0  0  0  0  0  0  0  0
   -6.5060    9.4530   12.7830 C   0  0  0  0  0  1  0  0  0  0  0  0
   -7.5050   10.0020   13.8140 C   0  0  0  0  0  0  0  0  0  0  0  0
   -8.3990   11.0680   13.1660 C   0  0  0  0  0  1  0  0  0  0  0  0
   -6.6310   10.6810   14.9460 C   0  0  0  0  0  0  0  0  0  0  0  0
   -5.7720   11.5320   14.5560 O   0  0  0  0  0  0  0  0  0  0  0  0
   -6.8760   10.3270   16.1390 O   0  0  0  0  0  1  0  0  0  0  0  0
  1 25  1  0  0  0  0
  1  4  1  0  0  0  0
  2  3  2  0  0  0  0
  2  1  1  0  0  0  0
  5  2  1  0  0  0  0
  6  5  1  0  0  0  0
  7  6  2  0  0  0  0
  8  9  2  0  0  0  0
  8  7  1  0  0  0  0
  9 10  1  0  0  0  0
 10  5  2  0  0  0  0
 11  9  1  0  0  0  0
 12 13  1  0  0  0  0
 12 11  2  0  0  0  0
 13  8  1  0  0  0  0
 14 13  1  0  0  0  0
 15 14  1  0  0  0  0
 16 15  1  0  0  0  0
 17 18  1  0  0  0  0
 17 16  1  0  0  0  0
 18 19  1  0  0  0  0
 19 14  1  0  0  0  0
 20 24  2  0  0  0  0
 20 12  1  0  0  0  0
 21 20  1  0  0  0  0
 22 21  2  0  0  0  0
 22 23  1  0  0  0  0
 23 24  1  0  0  0  0
 25 29  1  1  0  0  0
 25 26  1  0  0  0  0
 26 28  1  0  0  0  0
 27 26  2  0  0  0  0
 30 38  1  0  0  0  0
 30 40  1  0  0  0  0
 31 30  2  0  0  0  0
 32 33  2  0  0  0  0
 32 31  1  0  0  0  0
 33 37  1  0  0  0  0
 34 33  1  0  0  0  0
 34 35  1  0  0  0  0
 35 36  2  0  0  0  0
 36 29  1  0  0  0  0
 37 36  1  0  0  0  0
 37 38  2  0  0  0  0
 39 34  1  0  0  0  0
 41 42  1  0  0  0  0
 42 40  1  0  0  0  0
 42 44  1  0  0  0  0
 43 42  1  0  0  0  0
 44 46  1  0  0  0  0
 45 44  2  0  0  0  0
M  END
>  <minimizedAffinity>
-8.1318388

$$$$

 OpenBabel09122222553D

 46 51  0  0  1  0  0  0  0  0999 V2000
  -14.4570    6.0150   10.7370 N   0  0  0  0  0  0  0  0  0  0  0  0
  -13.4230    5.6660    9.9090 C   0  0  0  0  0  0  0  0  0  0  0  0
  -12.9110    4.5490    9.9770 O   0  0  0  0  0  0  0  0  0  0  0  0
  -14.7960    5.2250   11.2690 H   0  0  0  0  0  0  0  0  0  0  0  0
  -12.8130    6.6610    9.0160 C   0  0  0  0  0  0  0  0  0  0  0  0
  -12.1020    7.7140    9.6030 C   0  0  0  0  0  3  0  0  0  0  0  0
  -11.5410    8.7240    8.8180 C   0  0  0  0  0  3  0  0  0  0  0  0
  -11.6890    8.6110    7.4280 C   0  0  0  0  0  0  0  0  0  0  0  0
  -12.3200    7.5210    6.8320 C   0  0  0  0  0  0  0  0  0  0  0  0
  -12.9110    6.5260    7.6280 C   0  0  0  0  0  3  0  0  0  0  0  0
  -12.2400    7.6060    5.4680 N   0  0  0  0  0  0  0  0  0  0  0  0
  -11.5900    8.7230    5.2000 C   0  0  0  0  0  0  0  0  0  0  0  0
  -11.3560    9.4330    6.3650 N   0  0  0  0  0  0  0  0  0  0  0  0
  -10.9310   10.8270    6.4620 C   0  0  0  0  0  3  0  0  0  0  0  0
  -12.0210   11.7880    6.9720 C   0  0  0  0  0  2  0  0  0  0  0  0
  -11.5200   13.2310    6.9710 C   0  0  0  0  0  2  0  0  0  0  0  0
  -10.2260   13.3730    7.7690 C   0  0  0  0  0  2  0  0  0  0  0  0
   -9.1420   12.4270    7.2610 C   0  0  0  0  0  2  0  0  0  0  0  0
   -9.6190   10.9760    7.2460 C   0  0  0  0  0  2  0  0  0  0  0  0
  -11.2020    9.0530    3.7950 C   0  0  0  0  0  0  0  0  0  0  0  0
  -11.9700    9.2630    2.6240 C   0  0  0  0  0  3  0  0  0  0  0  0
  -11.0730    9.5610    1.6230 C   0  0  0  0  0  3  0  0  0  0  0  0
   -9.8040    9.5660    2.1030 O   0  0  0  0  0  0  0  0  0  0  0  0
   -9.8910    9.2650    3.4250 C   0  0  0  0  0  3  0  0  0  0  0  0
  -15.4110    7.1740   10.7290 C   0  0  2  0  0  3  0  0  0  0  0  0
  -15.8240    7.5800    9.2790 C   0  0  0  0  0  0  0  0  0  0  0  0
  -15.5220    8.7720    8.9590 O   0  0  0  0  0  1  0  0  0  0  0  0
  -16.4690    6.7220    8.6140 O   0  0  0  0  0  0  0  0  0  0  0  0
  -14.9760    8.3890   11.5540 C   0  0  0  0  0  2  0  0  0  0  0  0
  -11.0020    9.7080   13.6110 C   0  0  0  0  0  0  0  0  0  0  0  0
  -10.9030    9.2890   14.9360 C   0  0  0  0  0  3  0  0  0  0  0  0
  -11.9010    8.5010   15.5190 C   0  0  0  0  0  3  0  0  0  0  0  0
  -13.0130    8.1770   14.7310 C   0  0  0  0  0  0  0  0  0  0  0  0
  -14.1380    7.4470   15.0350 N   0  0  0  0  0  0  0  0  0  0  0  0
  -14.9870    7.4080   13.9640 C   0  0  0  0  0  3  0  0  0  0  0  0
  -14.4160    8.1180   12.9270 C   0  0  0  0  0  0  0  0  0  0  0  0
  -13.1570    8.6130   13.4140 C   0  0  0  0  0  0  0  0  0  0  0  0
  -12.1360    9.4110   12.8540 C   0  0  0  0  0  3  0  0  0  0  0  0
  -14.3220    7.0210   15.9300 H   0  0  0  0  0  0  0  0  0  0  0  0
  -10.0330   10.5330   13.1090 O   0  0  0  0  0  0  0  0  0  0  0  0
   -8.9690    8.3640   12.4380 C   0  0  0  0  0  1  0  0  0  0  0  0
   -8.9650    9.8990   12.3510 C   0  0  0  0  0  0  0  0  0  0  0  0
   -8.9940   10.3450   10.8840 C   0  0  0  0  0  1  0  0  0  0  0  0
   -7.6010   10.3670   13.0050 C   0  0  0  0  0  0  0  0  0  0  0  0
   -7.6870   11.2780   13.8870 O   0  0  0  0  0  1  0  0  0  0  0  0
   -6.5500    9.7820   12.6020 O   0  0  0  0  0  0  0  0  0  0  0  0
  1  4  1  0  0  0  0
  2  3  2  0  0  0  0
  2  1  1  0  0  0  0
  5  6  1  0  0  0  0
  5  2  1  0  0  0  0
  7  6  2  0  0  0  0
  8  7  1  0  0  0  0
  9  8  2  0  0  0  0
  9 10  1  0  0  0  0
 10  5  2  0  0  0  0
 11  9  1  0  0  0  0
 12 11  2  0  0  0  0
 12 13  1  0  0  0  0
 13 14  1  0  0  0  0
 13  8  1  0  0  0  0
 14 15  1  0  0  0  0
 14 19  1  0  0  0  0
 16 15  1  0  0  0  0
 16 17  1  0  0  0  0
 18 17  1  0  0  0  0
 19 18  1  0  0  0  0
 20 12  1  0  0  0  0
 21 20  1  0  0  0  0
 22 23  1  0  0  0  0
 22 21  2  0  0  0  0
 23 24  1  0  0  0  0
 24 20  2  0  0  0  0
 25  1  1  0  0  0  0
 25 29  1  6  0  0  0
 26 25  1  0  0  0  0
 27 26  1  0  0  0  0
 28 26  2  0  0  0  0
 29 36  1  0  0  0  0
 30 31  1  0  0  0  0
 31 32  2  0  0  0  0
 33 34  1  0  0  0  0
 33 32  1  0  0  0  0
 34 39  1  0  0  0  0
 35 34  1  0  0  0  0
 36 37  1  0  0  0  0
 36 35  2  0  0  0  0
 37 33  2  0  0  0  0
 38 37  1  0  0  0  0
 38 30  2  0  0  0  0
 40 30  1  0  0  0  0
 42 41  1  0  0  0  0
 42 44  1  0  0  0  0
 42 40  1  0  0  0  0
 43 42  1  0  0  0  0
 44 45  1  0  0  0  0
 46 44  2  0  0  0  0
M  END
>  <minimizedAffinity>
-8.12369537

$$$$
