
 OpenBabel09132204463D

 46 51  0  0  1  0  0  0  0  0999 V2000
  -11.4430    8.7460    4.1490 N   0  0  0  0  0  0  0  0  0  0  0  0
  -10.3140    8.2050    4.7030 C   0  0  0  0  0  0  0  0  0  0  0  0
   -9.4510    7.6850    3.9960 O   0  0  0  0  0  0  0  0  0  0  0  0
  -11.3900    8.7750    3.1400 H   0  0  0  0  0  0  0  0  0  0  0  0
  -10.1700    8.1110    6.1630 C   0  0  0  0  0  0  0  0  0  0  0  0
  -10.8160    7.0540    6.8150 C   0  0  0  0  0  3  0  0  0  0  0  0
  -10.7670    6.9340    8.2050 C   0  0  0  0  0  3  0  0  0  0  0  0
  -10.0130    7.8870    8.9040 C   0  0  0  0  0  0  0  0  0  0  0  0
   -9.2960    8.8910    8.2560 C   0  0  0  0  0  0  0  0  0  0  0  0
   -9.3760    9.0270    6.8610 C   0  0  0  0  0  3  0  0  0  0  0  0
   -8.5680    9.6210    9.1570 N   0  0  0  0  0  0  0  0  0  0  0  0
   -8.8240    9.1090   10.3460 C   0  0  0  0  0  0  0  0  0  0  0  0
   -9.8060    8.1380   10.2500 N   0  0  0  0  0  0  0  0  0  0  0  0
  -10.5590    7.5510   11.3550 C   0  0  0  0  0  3  0  0  0  0  0  0
   -9.6920    6.8100   12.3890 C   0  0  0  0  0  2  0  0  0  0  0  0
  -10.5610    6.1630   13.4670 C   0  0  0  0  0  2  0  0  0  0  0  0
  -11.4790    7.1850   14.1300 C   0  0  0  0  0  2  0  0  0  0  0  0
  -12.3450    7.9160   13.1080 C   0  0  0  0  0  2  0  0  0  0  0  0
  -11.5010    8.5680   12.0150 C   0  0  0  0  0  2  0  0  0  0  0  0
   -8.0770    9.5850   11.5500 C   0  0  0  0  0  0  0  0  0  0  0  0
   -6.7800    9.2930   12.0380 C   0  0  0  0  0  3  0  0  0  0  0  0
   -6.6190   10.0440   13.1810 C   0  0  0  0  0  3  0  0  0  0  0  0
   -7.7250   10.7940   13.4210 O   0  0  0  0  0  0  0  0  0  0  0  0
   -8.6030   10.5160   12.4220 C   0  0  0  0  0  3  0  0  0  0  0  0
  -12.5190    9.6300    4.7090 C   0  0  2  0  0  3  0  0  0  0  0  0
  -13.9350    9.2290    4.1870 C   0  0  0  0  0  0  0  0  0  0  0  0
  -14.8950    9.6020    4.9310 O   0  0  0  0  0  1  0  0  0  0  0  0
  -13.9730    8.5240    3.1390 O   0  0  0  0  0  0  0  0  0  0  0  0
  -12.2710   11.1360    4.5700 C   0  0  0  0  0  2  0  0  0  0  0  0
  -12.4340   11.1380    9.2320 C   0  0  0  0  0  0  0  0  0  0  0  0
  -11.3690   11.8170    9.8190 C   0  0  0  0  0  3  0  0  0  0  0  0
  -10.4080   12.4660    9.0360 C   0  0  0  0  0  3  0  0  0  0  0  0
  -10.5430   12.3810    7.6450 C   0  0  0  0  0  0  0  0  0  0  0  0
   -9.7550   12.8920    6.6400 N   0  0  0  0  0  0  0  0  0  0  0  0
  -10.2500   12.5370    5.4160 C   0  0  0  0  0  3  0  0  0  0  0  0
  -11.3890   11.7820    5.6060 C   0  0  0  0  0  0  0  0  0  0  0  0
  -11.5780   11.6770    7.0290 C   0  0  0  0  0  0  0  0  0  0  0  0
  -12.5300   11.0280    7.8440 C   0  0  0  0  0  3  0  0  0  0  0  0
   -8.9170   13.4330    6.7860 H   0  0  0  0  0  0  0  0  0  0  0  0
  -13.3080   10.4630   10.0400 O   0  0  0  0  0  0  0  0  0  0  0  0
  -14.4870   12.6740   10.1050 C   0  0  0  0  0  1  0  0  0  0  0  0
  -14.5160   11.1730   10.4310 C   0  0  0  0  0  0  0  0  0  0  0  0
  -15.7590   10.5220    9.8110 C   0  0  0  0  0  1  0  0  0  0  0  0
  -14.6140   11.0730   12.0080 C   0  0  0  0  0  0  0  0  0  0  0  0
  -15.5790   10.3840   12.4660 O   0  0  0  0  0  0  0  0  0  0  0  0
  -13.7160   11.6750   12.6710 O   0  0  0  0  0  1  0  0  0  0  0  0
  1  2  1  0  0  0  0
  1 25  1  0  0  0  0
  2  5  1  0  0  0  0
  3  2  2  0  0  0  0
  4  1  1  0  0  0  0
  5  6  2  0  0  0  0
  5 10  1  0  0  0  0
  6  7  1  0  0  0  0
  7  8  2  0  0  0  0
  8 13  1  0  0  0  0
  9  8  1  0  0  0  0
  9 11  1  0  0  0  0
 10  9  2  0  0  0  0
 11 12  2  0  0  0  0
 12 20  1  0  0  0  0
 13 12  1  0  0  0  0
 13 14  1  0  0  0  0
 14 19  1  0  0  0  0
 14 15  1  0  0  0  0
 15 16  1  0  0  0  0
 16 17  1  0  0  0  0
 18 17  1  0  0  0  0
 19 18  1  0  0  0  0
 20 21  1  0  0  0  0
 20 24  2  0  0  0  0
 21 22  2  0  0  0  0
 22 23  1  0  0  0  0
 24 23  1  0  0  0  0
 25 29  1  6  0  0  0
 26 25  1  0  0  0  0
 26 27  1  0  0  0  0
 28 26  2  0  0  0  0
 29 36  1  0  0  0  0
 30 31  1  0  0  0  0
 30 40  1  0  0  0  0
 32 31  2  0  0  0  0
 33 32  1  0  0  0  0
 34 39  1  0  0  0  0
 34 33  1  0  0  0  0
 35 36  2  0  0  0  0
 35 34  1  0  0  0  0
 36 37  1  0  0  0  0
 37 33  2  0  0  0  0
 37 38  1  0  0  0  0
 38 30  2  0  0  0  0
 40 42  1  0  0  0  0
 41 42  1  0  0  0  0
 42 44  1  0  0  0  0
 43 42  1  0  0  0  0
 44 45  2  0  0  0  0
 44 46  1  0  0  0  0
M  END
>  <minimizedAffinity>
-8.51124668

$$$$
