
 OpenBabel09132204463D

 46 51  0  0  1  0  0  0  0  0999 V2000
   -8.7170    8.3390   12.9020 N   0  0  0  0  0  0  0  0  0  0  0  0
   -9.4270    7.3360   12.3000 C   0  0  0  0  0  0  0  0  0  0  0  0
   -9.4720    6.2100   12.7960 O   0  0  0  0  0  0  0  0  0  0  0  0
   -8.3820    8.0670   13.8170 H   0  0  0  0  0  0  0  0  0  0  0  0
  -10.0390    7.5420   10.9800 C   0  0  0  0  0  0  0  0  0  0  0  0
  -11.4360    7.5970   10.9100 C   0  0  0  0  0  3  0  0  0  0  0  0
  -12.0870    7.7370    9.6830 C   0  0  0  0  0  3  0  0  0  0  0  0
  -11.2820    7.8590    8.5420 C   0  0  0  0  0  0  0  0  0  0  0  0
   -9.8900    7.8920    8.6120 C   0  0  0  0  0  0  0  0  0  0  0  0
   -9.2410    7.7170    9.8450 C   0  0  0  0  0  3  0  0  0  0  0  0
   -9.3510    8.1190    7.3740 N   0  0  0  0  0  0  0  0  0  0  0  0
  -10.3660    8.2140    6.5360 C   0  0  0  0  0  0  0  0  0  0  0  0
  -11.5540    7.9250    7.1860 N   0  0  0  0  0  0  0  0  0  0  0  0
  -12.8420    7.6440    6.5580 C   0  0  0  0  0  3  0  0  0  0  0  0
  -13.6430    6.5150    7.2350 C   0  0  0  0  0  2  0  0  0  0  0  0
  -14.9380    6.2330    6.4730 C   0  0  0  0  0  2  0  0  0  0  0  0
  -15.7750    7.4990    6.3100 C   0  0  0  0  0  2  0  0  0  0  0  0
  -14.9860    8.6160    5.6330 C   0  0  0  0  0  2  0  0  0  0  0  0
  -13.6830    8.9150    6.3720 C   0  0  0  0  0  2  0  0  0  0  0  0
  -10.1370    8.6040    5.1120 C   0  0  0  0  0  0  0  0  0  0  0  0
  -10.1730    7.8610    3.9070 C   0  0  0  0  0  3  0  0  0  0  0  0
   -9.9030    8.7530    2.8940 C   0  0  0  0  0  3  0  0  0  0  0  0
   -9.7210   10.0020    3.3920 O   0  0  0  0  0  0  0  0  0  0  0  0
   -9.8730    9.9060    4.7390 C   0  0  0  0  0  3  0  0  0  0  0  0
   -8.6730    9.8230   12.6750 C   0  0  2  0  0  3  0  0  0  0  0  0
   -7.3360   10.4520   13.1800 C   0  0  0  0  0  0  0  0  0  0  0  0
   -7.4820   11.3900   14.0240 O   0  0  0  0  0  1  0  0  0  0  0  0
   -6.2730   10.0200   12.6520 O   0  0  0  0  0  0  0  0  0  0  0  0
   -9.8920   10.6010   13.1810 C   0  0  0  0  0  2  0  0  0  0  0  0
  -14.4970   10.0010   12.7410 C   0  0  0  0  0  0  0  0  0  0  0  0
  -15.0390   10.6840   11.6550 C   0  0  0  0  0  3  0  0  0  0  0  0
  -14.2250   11.4130   10.7820 C   0  0  0  0  0  3  0  0  0  0  0  0
  -12.8520   11.4530   11.0600 C   0  0  0  0  0  0  0  0  0  0  0  0
  -11.8290   12.0930   10.4020 N   0  0  0  0  0  0  0  0  0  0  0  0
  -10.6400   11.8820   11.0450 C   0  0  0  0  0  3  0  0  0  0  0  0
  -10.8740   11.0830   12.1460 C   0  0  0  0  0  0  0  0  0  0  0  0
  -12.2860   10.8100   12.1600 C   0  0  0  0  0  0  0  0  0  0  0  0
  -13.1330   10.0850   13.0260 C   0  0  0  0  0  3  0  0  0  0  0  0
  -11.9420   12.6590    9.5750 H   0  0  0  0  0  0  0  0  0  0  0  0
  -15.3440    9.3590   13.6030 O   0  0  0  0  0  0  0  0  0  0  0  0
  -17.0530    7.6090   13.0530 C   0  0  0  0  0  1  0  0  0  0  0  0
  -15.5830    7.9460   13.3510 C   0  0  0  0  0  0  0  0  0  0  0  0
  -14.6840    7.4310   12.2210 C   0  0  0  0  0  1  0  0  0  0  0  0
  -15.2230    7.1770   14.6880 C   0  0  0  0  0  0  0  0  0  0  0  0
  -14.5770    7.8400   15.5580 O   0  0  0  0  0  1  0  0  0  0  0  0
  -15.6250    5.9770   14.7760 O   0  0  0  0  0  0  0  0  0  0  0  0
  1  4  1  0  0  0  0
  2  3  2  0  0  0  0
  2  1  1  0  0  0  0
  5  2  1  0  0  0  0
  6  5  1  0  0  0  0
  7  6  2  0  0  0  0
  8  9  2  0  0  0  0
  8  7  1  0  0  0  0
  9 10  1  0  0  0  0
 10  5  2  0  0  0  0
 11  9  1  0  0  0  0
 12 13  1  0  0  0  0
 12 11  2  0  0  0  0
 13  8  1  0  0  0  0
 14 13  1  0  0  0  0
 14 15  1  0  0  0  0
 16 15  1  0  0  0  0
 17 16  1  0  0  0  0
 18 17  1  0  0  0  0
 18 19  1  0  0  0  0
 19 14  1  0  0  0  0
 20 12  1  0  0  0  0
 21 20  1  0  0  0  0
 22 23  1  0  0  0  0
 22 21  2  0  0  0  0
 23 24  1  0  0  0  0
 24 20  2  0  0  0  0
 25  1  1  0  0  0  0
 25 26  1  0  0  0  0
 25 29  1  1  0  0  0
 26 27  1  0  0  0  0
 28 26  2  0  0  0  0
 30 38  1  0  0  0  0
 30 40  1  0  0  0  0
 31 30  2  0  0  0  0
 32 33  2  0  0  0  0
 32 31  1  0  0  0  0
 33 37  1  0  0  0  0
 34 35  1  0  0  0  0
 34 33  1  0  0  0  0
 35 36  2  0  0  0  0
 36 37  1  0  0  0  0
 36 29  1  0  0  0  0
 37 38  2  0  0  0  0
 39 34  1  0  0  0  0
 41 42  1  0  0  0  0
 42 40  1  0  0  0  0
 42 44  1  0  0  0  0
 43 42  1  0  0  0  0
 44 46  2  0  0  0  0
 44 45  1  0  0  0  0
M  END
>  <minimizedAffinity>
-8.40288067

$$$$
