REMARK  Name = 
REMARK  6 active torsions:
REMARK  status: ('A' for Active; 'I' for Inactive)
REMARK    1  A    between atoms: C_1  and  O_2
REMARK    2  A    between atoms: O_2  and  C_3
REMARK    3  A    between atoms: C_4  and  O_5
REMARK    4  A    between atoms: C_6  and  C_7
REMARK    5  A    between atoms: C_7  and  O_8
REMARK    6  A    between atoms: C_10  and  N_11
REMARK                            x       y       z     vdW  Elec       q    Type
REMARK                         _______ _______ _______ _____ _____    ______ ____
ROOT
ATOM      1  C   UNL     1       1.312   1.366   1.842  0.00  0.00    +0.198 C 
ATOM      2  C   UNL     1       1.324   2.835   2.249  0.00  0.00    +0.179 C 
ATOM      3  C   UNL     1       2.218   2.866   3.484  0.00  0.00    +0.177 C 
ATOM      4  O   UNL     1       3.114   1.733   3.385  0.00  0.00    -0.346 OA
ATOM      5  C   UNL     1       2.740   0.956   2.226  0.00  0.00    +0.254 C 
ENDROOT
BRANCH   5   6
ATOM      6  N   UNL     1       2.886  -0.444   2.568  0.00  0.00    -0.286 N 
ATOM      7  C   UNL     1       2.366  -1.076   3.667  0.00  0.00    +0.203 A 
ATOM      8  N   UNL     1       2.651  -2.361   3.683  0.00  0.00    -0.231 NA
ATOM      9  C   UNL     1       3.424  -2.561   2.557  0.00  0.00    +0.147 A 
ATOM     10  C   UNL     1       4.044  -3.704   2.023  0.00  0.00    +0.147 A 
ATOM     11  N   UNL     1       3.967  -4.945   2.612  0.00  0.00    -0.341 N 
ATOM     12  N   UNL     1       4.747  -3.580   0.874  0.00  0.00    -0.219 NA
ATOM     13  C   UNL     1       4.820  -2.362   0.296  0.00  0.00    +0.225 A 
ATOM     14  N   UNL     1       4.264  -1.204   0.707  0.00  0.00    -0.216 NA
ATOM     15  C   UNL     1       3.584  -1.379   1.852  0.00  0.00    +0.167 A 
ATOM     16  H   UNL     1       3.469  -5.043   3.485  0.00  0.00    +0.144 HD
ATOM     17  H   UNL     1       4.464  -5.709   2.183  0.00  0.00    +0.144 HD
ENDBRANCH   5   6
BRANCH   1  19
ATOM     18  C   UNL     1       0.728  -0.026  -0.009  0.00  0.00    +0.194 C 
ATOM     19  O   UNL     1       0.984   1.296   0.446  0.00  0.00    -0.373 OA
ENDBRANCH   1  19
BRANCH   2  20
ATOM     20  O   UNL     1       1.932   3.614   1.204  0.00  0.00    -0.386 OA
ATOM     21  H   UNL     1       1.574   3.247   0.369  0.00  0.00    +0.210 HD
ENDBRANCH   2  20
BRANCH   3  22
ATOM     22  C   UNL     1       1.443   2.768   4.802  0.00  0.00    +0.190 C 
BRANCH  22  23
ATOM     23  O   UNL     1       0.515   1.684   4.779  0.00  0.00    -0.392 OA
ATOM     24  H   UNL     1       0.119   1.638   5.669  0.00  0.00    +0.210 HD
ENDBRANCH  22  23
ENDBRANCH   3  22
TORSDOF 5
