
 OpenBabel09122222393D

 24 26  0  0  1  0  0  0  0  0999 V2000
    3.7200   -5.4760    5.2470 C   0  0  2  0  0  3  0  0  0  0  0  0
    2.3790   -4.9240    5.7160 C   0  0  1  0  0  3  0  0  0  0  0  0
    2.1850   -3.6670    4.8740 C   0  0  2  0  0  3  0  0  0  0  0  0
    2.9450   -3.8540    3.6560 O   0  0  0  0  0  0  0  0  0  0  0  0
    3.6770   -5.0950    3.7610 C   0  0  1  0  0  3  0  0  0  0  0  0
    4.9790   -4.8910    3.1600 N   0  0  0  0  0  0  0  0  0  0  0  0
    5.9790   -4.0810    3.6310 C   0  0  0  0  0  3  0  0  0  0  0  0
    7.0560   -4.1300    2.8760 N   0  0  0  0  0  0  0  0  0  0  0  0
    6.7220   -4.9870    1.8460 C   0  0  0  0  0  0  0  0  0  0  0  0
    7.4310   -5.4390    0.7200 C   0  0  0  0  0  0  0  0  0  0  0  0
    8.7200   -5.0500    0.4380 N   0  0  0  0  0  0  0  0  0  0  0  0
    6.8200   -6.3010   -0.1250 N   0  0  0  0  0  0  0  0  0  0  0  0
    5.5560   -6.6840    0.1540 C   0  0  0  0  0  3  0  0  0  0  0  0
    4.7830   -6.3270    1.2000 N   0  0  0  0  0  0  0  0  0  0  0  0
    5.4320   -5.4680    2.0040 C   0  0  0  0  0  0  0  0  0  0  0  0
    9.1760   -4.3850    1.0470 H   0  0  0  0  0  0  0  0  0  0  0  0
    9.1500   -5.3960   -0.4050 H   0  0  0  0  0  0  0  0  0  0  0  0
    3.6890   -7.7030    4.3850 C   0  0  0  0  0  1  0  0  0  0  0  0
    3.7490   -6.8810    5.5420 O   0  0  0  0  0  0  0  0  0  0  0  0
    1.3400   -5.8680    5.4050 O   0  0  0  0  0  0  0  0  0  0  0  0
    1.7150   -6.7450    5.6280 H   0  0  0  0  0  0  0  0  0  0  0  0
    2.6680   -2.3880    5.5650 C   0  0  0  0  0  2  0  0  0  0  0  0
    1.5900   -1.4800    5.7880 O   0  0  0  0  0  0  0  0  0  0  0  0
    1.9570   -0.7320    6.2950 H   0  0  0  0  0  0  0  0  0  0  0  0
  1 19  1  6  0  0  0
  1  2  1  0  0  0  0
  2 20  1  6  0  0  0
  3 22  1  1  0  0  0
  3  2  1  0  0  0  0
  4  5  1  0  0  0  0
  4  3  1  0  0  0  0
  5  6  1  1  0  0  0
  5  1  1  0  0  0  0
  6  7  1  0  0  0  0
  8  7  2  0  0  0  0
  9 15  1  0  0  0  0
  9  8  1  0  0  0  0
 10  9  2  0  0  0  0
 11 10  1  0  0  0  0
 11 16  1  0  0  0  0
 12 13  2  0  0  0  0
 12 10  1  0  0  0  0
 13 14  1  0  0  0  0
 14 15  2  0  0  0  0
 15  6  1  0  0  0  0
 17 11  1  0  0  0  0
 18 19  1  0  0  0  0
 20 21  1  0  0  0  0
 22 23  1  0  0  0  0
 23 24  1  0  0  0  0
M  END
>  <minimizedAffinity>
-5.7268939

$$$$
