
 OpenBabel09122222393D

 24 26  0  0  1  0  0  0  0  0999 V2000
    4.0140   -7.9480    2.6620 C   0  0  2  0  0  3  0  0  0  0  0  0
    4.9100   -8.7990    1.7700 C   0  0  1  0  0  3  0  0  0  0  0  0
    5.9480   -7.8130    1.2460 C   0  0  2  0  0  3  0  0  0  0  0  0
    6.0410   -6.7420    2.2150 O   0  0  0  0  0  0  0  0  0  0  0  0
    5.0410   -6.9620    3.2350 C   0  0  1  0  0  3  0  0  0  0  0  0
    4.4910   -5.6730    3.5980 N   0  0  0  0  0  0  0  0  0  0  0  0
    4.3370   -4.5880    2.7760 C   0  0  0  0  0  3  0  0  0  0  0  0
    3.7810   -3.5680    3.3960 N   0  0  0  0  0  0  0  0  0  0  0  0
    3.6010   -4.0050    4.6920 C   0  0  0  0  0  0  0  0  0  0  0  0
    3.0680   -3.3850    5.8360 C   0  0  0  0  0  0  0  0  0  0  0  0
    2.5910   -2.0950    5.8380 N   0  0  0  0  0  0  0  0  0  0  0  0
    3.0200   -4.0910    6.9900 N   0  0  0  0  0  0  0  0  0  0  0  0
    3.4870   -5.3580    6.9860 C   0  0  0  0  0  3  0  0  0  0  0  0
    4.0080   -6.0560    5.9560 N   0  0  0  0  0  0  0  0  0  0  0  0
    4.0400   -5.3110    4.8390 C   0  0  0  0  0  0  0  0  0  0  0  0
    2.6490   -1.5500    4.9910 H   0  0  0  0  0  0  0  0  0  0  0  0
    2.2520   -1.7120    6.7070 H   0  0  0  0  0  0  0  0  0  0  0  0
    2.1560   -9.3740    3.1280 C   0  0  0  0  0  1  0  0  0  0  0  0
    3.3730   -8.8180    3.6070 O   0  0  0  0  0  0  0  0  0  0  0  0
    5.5660   -9.7990    2.5690 O   0  0  0  0  0  0  0  0  0  0  0  0
    4.8770  -10.1290    3.1830 H   0  0  0  0  0  0  0  0  0  0  0  0
    5.5880   -7.2140   -0.1180 C   0  0  0  0  0  2  0  0  0  0  0  0
    5.3040   -8.2350   -1.0740 O   0  0  0  0  0  0  0  0  0  0  0  0
    5.0110   -7.7810   -1.8860 H   0  0  0  0  0  0  0  0  0  0  0  0
  1  5  1  0  0  0  0
  1 19  1  1  0  0  0
  2 20  1  1  0  0  0
  2  1  1  0  0  0  0
  3 22  1  6  0  0  0
  3  2  1  0  0  0  0
  3  4  1  0  0  0  0
  4  5  1  0  0  0  0
  5  6  1  6  0  0  0
  6 15  1  0  0  0  0
  7  8  2  0  0  0  0
  7  6  1  0  0  0  0
  8  9  1  0  0  0  0
  9 15  2  0  0  0  0
  9 10  1  0  0  0  0
 10 11  1  0  0  0  0
 10 12  2  0  0  0  0
 11 17  1  0  0  0  0
 13 12  1  0  0  0  0
 14 13  2  0  0  0  0
 15 14  1  0  0  0  0
 16 11  1  0  0  0  0
 18 19  1  0  0  0  0
 20 21  1  0  0  0  0
 23 22  1  0  0  0  0
 24 23  1  0  0  0  0
M  END
>  <minimizedAffinity>
-6.25392199

$$$$
