
 OpenBabel09122222393D

 24 26  0  0  1  0  0  0  0  0999 V2000
    4.9850   -7.2780    2.8670 C   0  0  2  0  0  3  0  0  0  0  0  0
    5.7670   -7.7810    1.6590 C   0  0  1  0  0  3  0  0  0  0  0  0
    6.0300   -6.5210    0.8410 C   0  0  2  0  0  3  0  0  0  0  0  0
    6.0090   -5.4060    1.7660 O   0  0  0  0  0  0  0  0  0  0  0  0
    5.6360   -5.9030    3.0700 C   0  0  1  0  0  3  0  0  0  0  0  0
    4.7690   -4.9190    3.6850 N   0  0  0  0  0  0  0  0  0  0  0  0
    3.4820   -4.6210    3.3200 C   0  0  0  0  0  3  0  0  0  0  0  0
    2.9480   -3.6980    4.0920 N   0  0  0  0  0  0  0  0  0  0  0  0
    3.9520   -3.3570    4.9750 C   0  0  0  0  0  0  0  0  0  0  0  0
    4.0130   -2.4310    6.0310 C   0  0  0  0  0  0  0  0  0  0  0  0
    2.9550   -1.6250    6.3850 N   0  0  0  0  0  0  0  0  0  0  0  0
    5.1640   -2.3270    6.7340 N   0  0  0  0  0  0  0  0  0  0  0  0
    6.2000   -3.1200    6.3860 C   0  0  0  0  0  3  0  0  0  0  0  0
    6.2560   -4.0450    5.4060 N   0  0  0  0  0  0  0  0  0  0  0  0
    5.0940   -4.1040    4.7360 C   0  0  0  0  0  0  0  0  0  0  0  0
    2.1010   -1.6730    5.8490 H   0  0  0  0  0  0  0  0  0  0  0  0
    3.0880   -0.9650    7.1350 H   0  0  0  0  0  0  0  0  0  0  0  0
    4.0910   -9.1600    4.0340 C   0  0  0  0  0  1  0  0  0  0  0  0
    5.1570   -8.2260    3.9310 O   0  0  0  0  0  0  0  0  0  0  0  0
    7.0210   -8.3320    2.0980 O   0  0  0  0  0  0  0  0  0  0  0  0
    6.8070   -8.8450    2.9040 H   0  0  0  0  0  0  0  0  0  0  0  0
    4.9870   -6.2730   -0.2530 C   0  0  0  0  0  2  0  0  0  0  0  0
    4.7460   -7.4540   -1.0170 O   0  0  0  0  0  0  0  0  0  0  0  0
    4.0240   -7.2420   -1.6370 H   0  0  0  0  0  0  0  0  0  0  0  0
  1  5  1  0  0  0  0
  1 19  1  1  0  0  0
  2 20  1  1  0  0  0
  2  1  1  0  0  0  0
  3 22  1  6  0  0  0
  3  2  1  0  0  0  0
  3  4  1  0  0  0  0
  4  5  1  0  0  0  0
  5  6  1  6  0  0  0
  6 15  1  0  0  0  0
  7  6  1  0  0  0  0
  7  8  2  0  0  0  0
  8  9  1  0  0  0  0
  9 10  1  0  0  0  0
 10 11  1  0  0  0  0
 10 12  2  0  0  0  0
 11 17  1  0  0  0  0
 13 12  1  0  0  0  0
 14 13  2  0  0  0  0
 15  9  2  0  0  0  0
 15 14  1  0  0  0  0
 16 11  1  0  0  0  0
 19 18  1  0  0  0  0
 20 21  1  0  0  0  0
 23 22  1  0  0  0  0
 24 23  1  0  0  0  0
M  END
>  <minimizedAffinity>
-6.1284256

$$$$
