
 OpenBabel09122222393D

 24 26  0  0  1  0  0  0  0  0999 V2000
    3.0480   -4.9700    4.8160 C   0  0  2  0  0  3  0  0  0  0  0  0
    2.7000   -4.8910    6.2980 C   0  0  1  0  0  3  0  0  0  0  0  0
    2.8000   -6.3350    6.7770 C   0  0  2  0  0  3  0  0  0  0  0  0
    3.7180   -7.0120    5.8860 O   0  0  0  0  0  0  0  0  0  0  0  0
    4.0900   -6.0960    4.8320 C   0  0  1  0  0  3  0  0  0  0  0  0
    4.1690   -6.8520    3.5990 N   0  0  0  0  0  0  0  0  0  0  0  0
    3.4230   -7.9520    3.2640 C   0  0  0  0  0  3  0  0  0  0  0  0
    3.7090   -8.3990    2.0600 N   0  0  0  0  0  0  0  0  0  0  0  0
    4.7150   -7.5680    1.6090 C   0  0  0  0  0  0  0  0  0  0  0  0
    5.4490   -7.5310    0.4100 C   0  0  0  0  0  0  0  0  0  0  0  0
    5.2540   -8.4250   -0.6180 N   0  0  0  0  0  0  0  0  0  0  0  0
    6.3890   -6.5710    0.2580 N   0  0  0  0  0  0  0  0  0  0  0  0
    6.5780   -5.6940    1.2670 C   0  0  0  0  0  3  0  0  0  0  0  0
    5.9340   -5.6250    2.4500 N   0  0  0  0  0  0  0  0  0  0  0  0
    5.0170   -6.6010    2.5540 C   0  0  0  0  0  0  0  0  0  0  0  0
    4.5750   -9.1630   -0.5030 H   0  0  0  0  0  0  0  0  0  0  0  0
    5.8410   -8.3500   -1.4330 H   0  0  0  0  0  0  0  0  0  0  0  0
    2.4720   -2.7250    4.2390 C   0  0  0  0  0  1  0  0  0  0  0  0
    3.5140   -3.6780    4.4010 O   0  0  0  0  0  0  0  0  0  0  0  0
    3.6890   -4.0970    6.9780 O   0  0  0  0  0  0  0  0  0  0  0  0
    3.8630   -3.3390    6.3820 H   0  0  0  0  0  0  0  0  0  0  0  0
    1.4600   -7.0780    6.7610 C   0  0  0  0  0  2  0  0  0  0  0  0
    1.6030   -8.3960    6.2340 O   0  0  0  0  0  0  0  0  0  0  0  0
    0.7340   -8.8290    6.3260 H   0  0  0  0  0  0  0  0  0  0  0  0
  1 19  1  1  0  0  0
  1  5  1  0  0  0  0
  1  2  1  0  0  0  0
  2  3  1  0  0  0  0
  2 20  1  1  0  0  0
  3 22  1  6  0  0  0
  4  3  1  0  0  0  0
  5  6  1  6  0  0  0
  5  4  1  0  0  0  0
  7  6  1  0  0  0  0
  8  7  2  0  0  0  0
  9  8  1  0  0  0  0
  9 15  1  0  0  0  0
 10  9  2  0  0  0  0
 11 16  1  0  0  0  0
 11 10  1  0  0  0  0
 12 10  1  0  0  0  0
 12 13  2  0  0  0  0
 13 14  1  0  0  0  0
 14 15  2  0  0  0  0
 15  6  1  0  0  0  0
 17 11  1  0  0  0  0
 18 19  1  0  0  0  0
 21 20  1  0  0  0  0
 23 24  1  0  0  0  0
 23 22  1  0  0  0  0
M  END
>  <minimizedAffinity>
-5.60975933

$$$$
