
 OpenBabel09122222393D

 24 26  0  0  1  0  0  0  0  0999 V2000
    4.3710   -7.0960    0.6820 C   0  0  2  0  0  3  0  0  0  0  0  0
    5.5220   -7.2610   -0.3040 C   0  0  1  0  0  3  0  0  0  0  0  0
    6.7690   -7.1180    0.5620 C   0  0  2  0  0  3  0  0  0  0  0  0
    6.3950   -7.5000    1.9070 O   0  0  0  0  0  0  0  0  0  0  0  0
    4.9740   -7.7540    1.9310 C   0  0  1  0  0  3  0  0  0  0  0  0
    4.4550   -7.2420    3.1830 N   0  0  0  0  0  0  0  0  0  0  0  0
    4.0080   -7.9820    4.2460 C   0  0  0  0  0  3  0  0  0  0  0  0
    3.6230   -7.2240    5.2520 N   0  0  0  0  0  0  0  0  0  0  0  0
    3.7970   -5.9310    4.8010 C   0  0  0  0  0  0  0  0  0  0  0  0
    3.5590   -4.6800    5.3960 C   0  0  0  0  0  0  0  0  0  0  0  0
    3.0560   -4.5360    6.6680 N   0  0  0  0  0  0  0  0  0  0  0  0
    3.8400   -3.5640    4.6850 N   0  0  0  0  0  0  0  0  0  0  0  0
    4.3360   -3.7060    3.4380 C   0  0  0  0  0  3  0  0  0  0  0  0
    4.6120   -4.8450    2.7700 N   0  0  0  0  0  0  0  0  0  0  0  0
    4.3100   -5.9220    3.5140 C   0  0  0  0  0  0  0  0  0  0  0  0
    2.8150   -5.3620    7.1960 H   0  0  0  0  0  0  0  0  0  0  0  0
    2.8850   -3.6050    7.0120 H   0  0  0  0  0  0  0  0  0  0  0  0
    2.7850   -8.8730    0.8590 C   0  0  0  0  0  1  0  0  0  0  0  0
    3.2140   -7.7360    0.1220 O   0  0  0  0  0  0  0  0  0  0  0  0
    5.4830   -8.5850   -0.8640 O   0  0  0  0  0  0  0  0  0  0  0  0
    4.5360   -8.7600   -1.0450 H   0  0  0  0  0  0  0  0  0  0  0  0
    7.3320   -5.6930    0.5920 C   0  0  0  0  0  2  0  0  0  0  0  0
    7.6380   -5.2840    1.9240 O   0  0  0  0  0  0  0  0  0  0  0  0
    8.0590   -4.4070    1.8560 H   0  0  0  0  0  0  0  0  0  0  0  0
  1 19  1  6  0  0  0
  1  5  1  0  0  0  0
  2 20  1  1  0  0  0
  2  3  1  0  0  0  0
  2  1  1  0  0  0  0
  3 22  1  1  0  0  0
  3  4  1  0  0  0  0
  4  5  1  0  0  0  0
  5  6  1  1  0  0  0
  6 15  1  0  0  0  0
  6  7  1  0  0  0  0
  7  8  2  0  0  0  0
  9  8  1  0  0  0  0
  9 10  1  0  0  0  0
 10 11  1  0  0  0  0
 11 17  1  0  0  0  0
 11 16  1  0  0  0  0
 12 10  2  0  0  0  0
 13 12  1  0  0  0  0
 14 13  2  0  0  0  0
 14 15  1  0  0  0  0
 15  9  2  0  0  0  0
 19 18  1  0  0  0  0
 21 20  1  0  0  0  0
 22 23  1  0  0  0  0
 24 23  1  0  0  0  0
M  END
>  <minimizedAffinity>
-6.30811453

$$$$
