
 OpenBabel09122217373D

 24 26  0  0  1  0  0  0  0  0999 V2000
    4.3710   -7.0960    0.6820 C   0  0  2  0  0  3  0  0  0  0  0  0
    5.5220   -7.2610   -0.3040 C   0  0  1  0  0  3  0  0  0  0  0  0
    6.7690   -7.1180    0.5620 C   0  0  2  0  0  3  0  0  0  0  0  0
    6.3950   -7.5000    1.9070 O   0  0  0  0  0  0  0  0  0  0  0  0
    4.9740   -7.7540    1.9310 C   0  0  1  0  0  3  0  0  0  0  0  0
    4.4550   -7.2420    3.1830 N   0  0  0  0  0  0  0  0  0  0  0  0
    4.0080   -7.9820    4.2460 C   0  0  0  0  0  3  0  0  0  0  0  0
    3.6230   -7.2240    5.2520 N   0  0  0  0  0  0  0  0  0  0  0  0
    3.7970   -5.9310    4.8010 C   0  0  0  0  0  0  0  0  0  0  0  0
    3.5590   -4.6800    5.3960 C   0  0  0  0  0  0  0  0  0  0  0  0
    3.0560   -4.5360    6.6680 N   0  0  0  0  0  0  0  0  0  0  0  0
    3.8400   -3.5640    4.6850 N   0  0  0  0  0  0  0  0  0  0  0  0
    4.3360   -3.7060    3.4380 C   0  0  0  0  0  3  0  0  0  0  0  0
    4.6120   -4.8450    2.7700 N   0  0  0  0  0  0  0  0  0  0  0  0
    4.3100   -5.9220    3.5140 C   0  0  0  0  0  0  0  0  0  0  0  0
    2.8150   -5.3620    7.1960 H   0  0  0  0  0  0  0  0  0  0  0  0
    2.8850   -3.6050    7.0120 H   0  0  0  0  0  0  0  0  0  0  0  0
    2.7850   -8.8730    0.8590 C   0  0  0  0  0  1  0  0  0  0  0  0
    3.2140   -7.7360    0.1220 O   0  0  0  0  0  0  0  0  0  0  0  0
    5.4830   -8.5850   -0.8640 O   0  0  0  0  0  0  0  0  0  0  0  0
    4.5360   -8.7600   -1.0450 H   0  0  0  0  0  0  0  0  0  0  0  0
    7.3320   -5.6930    0.5920 C   0  0  0  0  0  2  0  0  0  0  0  0
    7.6380   -5.2840    1.9240 O   0  0  0  0  0  0  0  0  0  0  0  0
    8.0590   -4.4070    1.8560 H   0  0  0  0  0  0  0  0  0  0  0  0
  1 19  1  6  0  0  0
  1  5  1  0  0  0  0
  2 20  1  1  0  0  0
  2  3  1  0  0  0  0
  2  1  1  0  0  0  0
  3 22  1  1  0  0  0
  3  4  1  0  0  0  0
  4  5  1  0  0  0  0
  5  6  1  1  0  0  0
  6 15  1  0  0  0  0
  6  7  1  0  0  0  0
  7  8  2  0  0  0  0
  9  8  1  0  0  0  0
  9 10  1  0  0  0  0
 10 11  1  0  0  0  0
 11 17  1  0  0  0  0
 11 16  1  0  0  0  0
 12 10  2  0  0  0  0
 13 12  1  0  0  0  0
 14 13  2  0  0  0  0
 14 15  1  0  0  0  0
 15  9  2  0  0  0  0
 19 18  1  0  0  0  0
 21 20  1  0  0  0  0
 22 23  1  0  0  0  0
 24 23  1  0  0  0  0
M  END
>  <minimizedAffinity>
-6.30811453

$$$$

 OpenBabel09122217373D

 24 26  0  0  1  0  0  0  0  0999 V2000
    4.8670   -3.9820    5.0850 C   0  0  2  0  0  3  0  0  0  0  0  0
    3.8760   -3.2730    6.0010 C   0  0  1  0  0  3  0  0  0  0  0  0
    2.5240   -3.5200    5.3400 C   0  0  2  0  0  3  0  0  0  0  0  0
    2.6480   -4.7390    4.5680 O   0  0  0  0  0  0  0  0  0  0  0  0
    4.0230   -5.1800    4.6300 C   0  0  1  0  0  3  0  0  0  0  0  0
    4.3790   -5.6980    3.3250 N   0  0  0  0  0  0  0  0  0  0  0  0
    5.0170   -5.0180    2.3210 C   0  0  0  0  0  3  0  0  0  0  0  0
    5.2240   -5.7730    1.2630 N   0  0  0  0  0  0  0  0  0  0  0  0
    4.6600   -6.9900    1.5870 C   0  0  0  0  0  0  0  0  0  0  0  0
    4.5430   -8.1990    0.8790 C   0  0  0  0  0  0  0  0  0  0  0  0
    5.0300   -8.3740   -0.3950 N   0  0  0  0  0  0  0  0  0  0  0  0
    3.9260   -9.2420    1.4810 N   0  0  0  0  0  0  0  0  0  0  0  0
    3.4510   -9.0700    2.7320 C   0  0  0  0  0  3  0  0  0  0  0  0
    3.5110   -7.9680    3.5080 N   0  0  0  0  0  0  0  0  0  0  0  0
    4.1260   -6.9620    2.8650 C   0  0  0  0  0  0  0  0  0  0  0  0
    5.4670   -7.5940   -0.8640 H   0  0  0  0  0  0  0  0  0  0  0  0
    4.8810   -9.2620   -0.8460 H   0  0  0  0  0  0  0  0  0  0  0  0
    6.9550   -3.2020    5.9450 C   0  0  0  0  0  1  0  0  0  0  0  0
    6.0410   -4.2870    5.8540 O   0  0  0  0  0  0  0  0  0  0  0  0
    3.8920   -3.9000    7.2960 O   0  0  0  0  0  0  0  0  0  0  0  0
    4.8380   -4.0700    7.4870 H   0  0  0  0  0  0  0  0  0  0  0  0
    2.0850   -2.3880    4.4070 C   0  0  0  0  0  2  0  0  0  0  0  0
    0.9990   -1.6480    4.9640 O   0  0  0  0  0  0  0  0  0  0  0  0
    0.8280   -0.9050    4.3560 H   0  0  0  0  0  0  0  0  0  0  0  0
  1 19  1  1  0  0  0
  1  2  1  0  0  0  0
  2 20  1  1  0  0  0
  3 22  1  6  0  0  0
  3  2  1  0  0  0  0
  4  5  1  0  0  0  0
  4  3  1  0  0  0  0
  5  6  1  6  0  0  0
  5  1  1  0  0  0  0
  7  6  1  0  0  0  0
  8  9  1  0  0  0  0
  8  7  2  0  0  0  0
  9 15  1  0  0  0  0
 10 12  1  0  0  0  0
 10  9  2  0  0  0  0
 11 10  1  0  0  0  0
 12 13  2  0  0  0  0
 13 14  1  0  0  0  0
 15  6  1  0  0  0  0
 15 14  2  0  0  0  0
 16 11  1  0  0  0  0
 17 11  1  0  0  0  0
 19 18  1  0  0  0  0
 20 21  1  0  0  0  0
 22 23  1  0  0  0  0
 24 23  1  0  0  0  0
M  END
>  <minimizedAffinity>
-6.27862787

$$$$

 OpenBabel09122217373D

 24 26  0  0  1  0  0  0  0  0999 V2000
    4.0140   -7.9480    2.6620 C   0  0  2  0  0  3  0  0  0  0  0  0
    4.9100   -8.7990    1.7700 C   0  0  1  0  0  3  0  0  0  0  0  0
    5.9480   -7.8130    1.2460 C   0  0  2  0  0  3  0  0  0  0  0  0
    6.0410   -6.7420    2.2150 O   0  0  0  0  0  0  0  0  0  0  0  0
    5.0410   -6.9620    3.2350 C   0  0  1  0  0  3  0  0  0  0  0  0
    4.4910   -5.6730    3.5980 N   0  0  0  0  0  0  0  0  0  0  0  0
    4.3370   -4.5880    2.7760 C   0  0  0  0  0  3  0  0  0  0  0  0
    3.7810   -3.5680    3.3960 N   0  0  0  0  0  0  0  0  0  0  0  0
    3.6010   -4.0050    4.6920 C   0  0  0  0  0  0  0  0  0  0  0  0
    3.0680   -3.3850    5.8360 C   0  0  0  0  0  0  0  0  0  0  0  0
    2.5910   -2.0950    5.8380 N   0  0  0  0  0  0  0  0  0  0  0  0
    3.0200   -4.0910    6.9900 N   0  0  0  0  0  0  0  0  0  0  0  0
    3.4870   -5.3580    6.9860 C   0  0  0  0  0  3  0  0  0  0  0  0
    4.0080   -6.0560    5.9560 N   0  0  0  0  0  0  0  0  0  0  0  0
    4.0400   -5.3110    4.8390 C   0  0  0  0  0  0  0  0  0  0  0  0
    2.6490   -1.5500    4.9910 H   0  0  0  0  0  0  0  0  0  0  0  0
    2.2520   -1.7120    6.7070 H   0  0  0  0  0  0  0  0  0  0  0  0
    2.1560   -9.3740    3.1280 C   0  0  0  0  0  1  0  0  0  0  0  0
    3.3730   -8.8180    3.6070 O   0  0  0  0  0  0  0  0  0  0  0  0
    5.5660   -9.7990    2.5690 O   0  0  0  0  0  0  0  0  0  0  0  0
    4.8770  -10.1290    3.1830 H   0  0  0  0  0  0  0  0  0  0  0  0
    5.5880   -7.2140   -0.1180 C   0  0  0  0  0  2  0  0  0  0  0  0
    5.3040   -8.2350   -1.0740 O   0  0  0  0  0  0  0  0  0  0  0  0
    5.0110   -7.7810   -1.8860 H   0  0  0  0  0  0  0  0  0  0  0  0
  1  5  1  0  0  0  0
  1 19  1  1  0  0  0
  2 20  1  1  0  0  0
  2  1  1  0  0  0  0
  3 22  1  6  0  0  0
  3  2  1  0  0  0  0
  3  4  1  0  0  0  0
  4  5  1  0  0  0  0
  5  6  1  6  0  0  0
  6 15  1  0  0  0  0
  7  8  2  0  0  0  0
  7  6  1  0  0  0  0
  8  9  1  0  0  0  0
  9 15  2  0  0  0  0
  9 10  1  0  0  0  0
 10 11  1  0  0  0  0
 10 12  2  0  0  0  0
 11 17  1  0  0  0  0
 13 12  1  0  0  0  0
 14 13  2  0  0  0  0
 15 14  1  0  0  0  0
 16 11  1  0  0  0  0
 18 19  1  0  0  0  0
 20 21  1  0  0  0  0
 23 22  1  0  0  0  0
 24 23  1  0  0  0  0
M  END
>  <minimizedAffinity>
-6.25392199

$$$$

 OpenBabel09122217373D

 24 26  0  0  1  0  0  0  0  0999 V2000
    4.9850   -7.2780    2.8670 C   0  0  2  0  0  3  0  0  0  0  0  0
    5.7670   -7.7810    1.6590 C   0  0  1  0  0  3  0  0  0  0  0  0
    6.0300   -6.5210    0.8410 C   0  0  2  0  0  3  0  0  0  0  0  0
    6.0090   -5.4060    1.7660 O   0  0  0  0  0  0  0  0  0  0  0  0
    5.6360   -5.9030    3.0700 C   0  0  1  0  0  3  0  0  0  0  0  0
    4.7690   -4.9190    3.6850 N   0  0  0  0  0  0  0  0  0  0  0  0
    3.4820   -4.6210    3.3200 C   0  0  0  0  0  3  0  0  0  0  0  0
    2.9480   -3.6980    4.0920 N   0  0  0  0  0  0  0  0  0  0  0  0
    3.9520   -3.3570    4.9750 C   0  0  0  0  0  0  0  0  0  0  0  0
    4.0130   -2.4310    6.0310 C   0  0  0  0  0  0  0  0  0  0  0  0
    2.9550   -1.6250    6.3850 N   0  0  0  0  0  0  0  0  0  0  0  0
    5.1640   -2.3270    6.7340 N   0  0  0  0  0  0  0  0  0  0  0  0
    6.2000   -3.1200    6.3860 C   0  0  0  0  0  3  0  0  0  0  0  0
    6.2560   -4.0450    5.4060 N   0  0  0  0  0  0  0  0  0  0  0  0
    5.0940   -4.1040    4.7360 C   0  0  0  0  0  0  0  0  0  0  0  0
    2.1010   -1.6730    5.8490 H   0  0  0  0  0  0  0  0  0  0  0  0
    3.0880   -0.9650    7.1350 H   0  0  0  0  0  0  0  0  0  0  0  0
    4.0910   -9.1600    4.0340 C   0  0  0  0  0  1  0  0  0  0  0  0
    5.1570   -8.2260    3.9310 O   0  0  0  0  0  0  0  0  0  0  0  0
    7.0210   -8.3320    2.0980 O   0  0  0  0  0  0  0  0  0  0  0  0
    6.8070   -8.8450    2.9040 H   0  0  0  0  0  0  0  0  0  0  0  0
    4.9870   -6.2730   -0.2530 C   0  0  0  0  0  2  0  0  0  0  0  0
    4.7460   -7.4540   -1.0170 O   0  0  0  0  0  0  0  0  0  0  0  0
    4.0240   -7.2420   -1.6370 H   0  0  0  0  0  0  0  0  0  0  0  0
  1  5  1  0  0  0  0
  1 19  1  1  0  0  0
  2 20  1  1  0  0  0
  2  1  1  0  0  0  0
  3 22  1  6  0  0  0
  3  2  1  0  0  0  0
  3  4  1  0  0  0  0
  4  5  1  0  0  0  0
  5  6  1  6  0  0  0
  6 15  1  0  0  0  0
  7  6  1  0  0  0  0
  7  8  2  0  0  0  0
  8  9  1  0  0  0  0
  9 10  1  0  0  0  0
 10 11  1  0  0  0  0
 10 12  2  0  0  0  0
 11 17  1  0  0  0  0
 13 12  1  0  0  0  0
 14 13  2  0  0  0  0
 15  9  2  0  0  0  0
 15 14  1  0  0  0  0
 16 11  1  0  0  0  0
 19 18  1  0  0  0  0
 20 21  1  0  0  0  0
 23 22  1  0  0  0  0
 24 23  1  0  0  0  0
M  END
>  <minimizedAffinity>
-6.1284256

$$$$

 OpenBabel09122217373D

 24 26  0  0  1  0  0  0  0  0999 V2000
    3.7780   -3.5860    5.4480 C   0  0  2  0  0  3  0  0  0  0  0  0
    4.3890   -2.9850    6.7090 C   0  0  1  0  0  3  0  0  0  0  0  0
    5.5000   -3.9620    7.0800 C   0  0  2  0  0  3  0  0  0  0  0  0
    5.9020   -4.6270    5.8590 O   0  0  0  0  0  0  0  0  0  0  0  0
    5.0260   -4.1950    4.7940 C   0  0  1  0  0  3  0  0  0  0  0  0
    4.7560   -5.3430    3.9520 N   0  0  0  0  0  0  0  0  0  0  0  0
    3.7740   -6.2800    4.1370 C   0  0  0  0  0  3  0  0  0  0  0  0
    3.7670   -7.1880    3.1830 N   0  0  0  0  0  0  0  0  0  0  0  0
    4.8210   -6.8400    2.3630 C   0  0  0  0  0  0  0  0  0  0  0  0
    5.3390   -7.4140    1.1890 C   0  0  0  0  0  0  0  0  0  0  0  0
    4.8130   -8.5470    0.6110 N   0  0  0  0  0  0  0  0  0  0  0  0
    6.4030   -6.8250    0.5970 N   0  0  0  0  0  0  0  0  0  0  0  0
    6.9170   -5.7120    1.1630 C   0  0  0  0  0  3  0  0  0  0  0  0
    6.5030   -5.0690    2.2740 N   0  0  0  0  0  0  0  0  0  0  0  0
    5.4510   -5.6960    2.8270 C   0  0  0  0  0  0  0  0  0  0  0  0
    4.0370   -9.0110    1.0610 H   0  0  0  0  0  0  0  0  0  0  0  0
    5.2600   -8.9140   -0.2140 H   0  0  0  0  0  0  0  0  0  0  0  0
    1.8320   -2.2220    5.2080 C   0  0  0  0  0  1  0  0  0  0  0  0
    3.1320   -2.5290    4.7220 O   0  0  0  0  0  0  0  0  0  0  0  0
    4.9680   -1.7060    6.3950 O   0  0  0  0  0  0  0  0  0  0  0  0
    4.3220   -1.2710    5.8000 H   0  0  0  0  0  0  0  0  0  0  0  0
    5.0660   -5.0210    8.0980 C   0  0  0  0  0  2  0  0  0  0  0  0
    6.1890   -5.7360    8.6140 O   0  0  0  0  0  0  0  0  0  0  0  0
    5.8460   -6.3330    9.3040 H   0  0  0  0  0  0  0  0  0  0  0  0
  1 19  1  6  0  0  0
  1  2  1  0  0  0  0
  2 20  1  6  0  0  0
  2  3  1  0  0  0  0
  3 22  1  1  0  0  0
  4  3  1  0  0  0  0
  5  6  1  6  0  0  0
  5  1  1  0  0  0  0
  5  4  1  0  0  0  0
  6  7  1  0  0  0  0
  8  7  2  0  0  0  0
  9 15  1  0  0  0  0
  9  8  1  0  0  0  0
 10  9  2  0  0  0  0
 11 16  1  0  0  0  0
 11 10  1  0  0  0  0
 12 13  2  0  0  0  0
 12 10  1  0  0  0  0
 13 14  1  0  0  0  0
 14 15  2  0  0  0  0
 15  6  1  0  0  0  0
 17 11  1  0  0  0  0
 19 18  1  0  0  0  0
 21 20  1  0  0  0  0
 22 23  1  0  0  0  0
 23 24  1  0  0  0  0
M  END
>  <minimizedAffinity>
-5.94943094

$$$$

 OpenBabel09122217373D

 24 26  0  0  1  0  0  0  0  0999 V2000
    4.1730   -6.7430    3.5850 C   0  0  2  0  0  3  0  0  0  0  0  0
    5.0790   -7.4240    2.5650 C   0  0  1  0  0  3  0  0  0  0  0  0
    5.7000   -6.2640    1.7940 C   0  0  2  0  0  3  0  0  0  0  0  0
    5.6860   -5.1160    2.6750 O   0  0  0  0  0  0  0  0  0  0  0  0
    4.9910   -5.4800    3.8880 C   0  0  1  0  0  3  0  0  0  0  0  0
    4.1960   -4.3410    4.3000 N   0  0  0  0  0  0  0  0  0  0  0  0
    3.6500   -3.3860    3.4830 C   0  0  0  0  0  3  0  0  0  0  0  0
    2.9570   -2.4930    4.1570 N   0  0  0  0  0  0  0  0  0  0  0  0
    3.0930   -2.8690    5.4780 C   0  0  0  0  0  0  0  0  0  0  0  0
    2.6030   -2.3200    6.6760 C   0  0  0  0  0  0  0  0  0  0  0  0
    1.8220   -1.1880    6.7190 N   0  0  0  0  0  0  0  0  0  0  0  0
    2.9100   -2.9350    7.8410 N   0  0  0  0  0  0  0  0  0  0  0  0
    3.6750   -4.0470    7.7960 C   0  0  0  0  0  3  0  0  0  0  0  0
    4.1910   -4.6670    6.7160 N   0  0  0  0  0  0  0  0  0  0  0  0
    3.8630   -4.0160    5.5880 C   0  0  0  0  0  0  0  0  0  0  0  0
    1.6100   -0.7060    5.8580 H   0  0  0  0  0  0  0  0  0  0  0  0
    1.5350   -0.8410    7.6200 H   0  0  0  0  0  0  0  0  0  0  0  0
    2.6840   -8.2420    4.6980 C   0  0  0  0  0  1  0  0  0  0  0  0
    3.9770   -7.6510    4.6790 O   0  0  0  0  0  0  0  0  0  0  0  0
    6.1160   -8.1440    3.2550 O   0  0  0  0  0  0  0  0  0  0  0  0
    5.6680   -8.5760    4.0120 H   0  0  0  0  0  0  0  0  0  0  0  0
    4.9440   -5.9100    0.5100 C   0  0  0  0  0  2  0  0  0  0  0  0
    5.7200   -6.2120   -0.6490 O   0  0  0  0  0  0  0  0  0  0  0  0
    5.1500   -6.0330   -1.4200 H   0  0  0  0  0  0  0  0  0  0  0  0
  1  5  1  0  0  0  0
  1 19  1  1  0  0  0
  2 20  1  1  0  0  0
  2  1  1  0  0  0  0
  3 22  1  6  0  0  0
  3  2  1  0  0  0  0
  3  4  1  0  0  0  0
  4  5  1  0  0  0  0
  5  6  1  6  0  0  0
  6 15  1  0  0  0  0
  7  8  2  0  0  0  0
  7  6  1  0  0  0  0
  8  9  1  0  0  0  0
  9 15  2  0  0  0  0
  9 10  1  0  0  0  0
 10 11  1  0  0  0  0
 10 12  2  0  0  0  0
 11 17  1  0  0  0  0
 13 12  1  0  0  0  0
 14 13  2  0  0  0  0
 15 14  1  0  0  0  0
 16 11  1  0  0  0  0
 19 18  1  0  0  0  0
 20 21  1  0  0  0  0
 23 22  1  0  0  0  0
 24 23  1  0  0  0  0
M  END
>  <minimizedAffinity>
-5.94229507

$$$$

 OpenBabel09122217373D

 24 26  0  0  1  0  0  0  0  0999 V2000
    5.5360   -6.5100    0.7270 C   0  0  2  0  0  3  0  0  0  0  0  0
    5.0030   -7.8880    0.3520 C   0  0  1  0  0  3  0  0  0  0  0  0
    4.4320   -8.4290    1.6580 C   0  0  2  0  0  3  0  0  0  0  0  0
    4.0780   -7.2840    2.4700 O   0  0  0  0  0  0  0  0  0  0  0  0
    4.5050   -6.0870    1.7820 C   0  0  1  0  0  3  0  0  0  0  0  0
    5.0140   -5.1650    2.7760 N   0  0  0  0  0  0  0  0  0  0  0  0
    6.2710   -4.6200    2.8190 C   0  0  0  0  0  3  0  0  0  0  0  0
    6.4210   -3.7940    3.8330 N   0  0  0  0  0  0  0  0  0  0  0  0
    5.2120   -3.8360    4.4990 C   0  0  0  0  0  0  0  0  0  0  0  0
    4.7450   -3.1920    5.6570 C   0  0  0  0  0  0  0  0  0  0  0  0
    5.5120   -2.3180    6.3930 N   0  0  0  0  0  0  0  0  0  0  0  0
    3.4800   -3.4390    6.0680 N   0  0  0  0  0  0  0  0  0  0  0  0
    2.7270   -4.2940    5.3440 C   0  0  0  0  0  3  0  0  0  0  0  0
    3.0610   -4.9600    4.2190 N   0  0  0  0  0  0  0  0  0  0  0  0
    4.3250   -4.6860    3.8580 C   0  0  0  0  0  0  0  0  0  0  0  0
    6.4670   -2.1490    6.1120 H   0  0  0  0  0  0  0  0  0  0  0  0
    5.1140   -1.9200    7.2280 H   0  0  0  0  0  0  0  0  0  0  0  0
    6.9100   -5.4070   -0.8860 C   0  0  0  0  0  1  0  0  0  0  0  0
    5.5870   -5.7140   -0.4670 O   0  0  0  0  0  0  0  0  0  0  0  0
    3.9390   -7.7420   -0.6060 O   0  0  0  0  0  0  0  0  0  0  0  0
    4.2470   -7.0510   -1.2280 H   0  0  0  0  0  0  0  0  0  0  0  0
    5.4180   -9.3020    2.4410 C   0  0  0  0  0  2  0  0  0  0  0  0
    6.0820   -8.5520    3.4570 O   0  0  0  0  0  0  0  0  0  0  0  0
    6.6300   -9.1850    3.9570 H   0  0  0  0  0  0  0  0  0  0  0  0
  1 19  1  6  0  0  0
  1  5  1  0  0  0  0
  2 20  1  6  0  0  0
  2  1  1  0  0  0  0
  2  3  1  0  0  0  0
  3 22  1  1  0  0  0
  3  4  1  0  0  0  0
  5  4  1  0  0  0  0
  5  6  1  1  0  0  0
  6  7  1  0  0  0  0
  6 15  1  0  0  0  0
  7  8  2  0  0  0  0
  8  9  1  0  0  0  0
  9 10  1  0  0  0  0
 10 12  2  0  0  0  0
 10 11  1  0  0  0  0
 11 17  1  0  0  0  0
 13 12  1  0  0  0  0
 14 13  2  0  0  0  0
 15 14  1  0  0  0  0
 15  9  2  0  0  0  0
 16 11  1  0  0  0  0
 18 19  1  0  0  0  0
 21 20  1  0  0  0  0
 22 23  1  0  0  0  0
 23 24  1  0  0  0  0
M  END
>  <minimizedAffinity>
-5.89044142

$$$$

 OpenBabel09122217373D

 24 26  0  0  1  0  0  0  0  0999 V2000
    3.7200   -5.4760    5.2470 C   0  0  2  0  0  3  0  0  0  0  0  0
    2.3790   -4.9240    5.7160 C   0  0  1  0  0  3  0  0  0  0  0  0
    2.1850   -3.6670    4.8740 C   0  0  2  0  0  3  0  0  0  0  0  0
    2.9450   -3.8540    3.6560 O   0  0  0  0  0  0  0  0  0  0  0  0
    3.6770   -5.0950    3.7610 C   0  0  1  0  0  3  0  0  0  0  0  0
    4.9790   -4.8910    3.1600 N   0  0  0  0  0  0  0  0  0  0  0  0
    5.9790   -4.0810    3.6310 C   0  0  0  0  0  3  0  0  0  0  0  0
    7.0560   -4.1300    2.8760 N   0  0  0  0  0  0  0  0  0  0  0  0
    6.7220   -4.9870    1.8460 C   0  0  0  0  0  0  0  0  0  0  0  0
    7.4310   -5.4390    0.7200 C   0  0  0  0  0  0  0  0  0  0  0  0
    8.7200   -5.0500    0.4380 N   0  0  0  0  0  0  0  0  0  0  0  0
    6.8200   -6.3010   -0.1250 N   0  0  0  0  0  0  0  0  0  0  0  0
    5.5560   -6.6840    0.1540 C   0  0  0  0  0  3  0  0  0  0  0  0
    4.7830   -6.3270    1.2000 N   0  0  0  0  0  0  0  0  0  0  0  0
    5.4320   -5.4680    2.0040 C   0  0  0  0  0  0  0  0  0  0  0  0
    9.1760   -4.3850    1.0470 H   0  0  0  0  0  0  0  0  0  0  0  0
    9.1500   -5.3960   -0.4050 H   0  0  0  0  0  0  0  0  0  0  0  0
    3.6890   -7.7030    4.3850 C   0  0  0  0  0  1  0  0  0  0  0  0
    3.7490   -6.8810    5.5420 O   0  0  0  0  0  0  0  0  0  0  0  0
    1.3400   -5.8680    5.4050 O   0  0  0  0  0  0  0  0  0  0  0  0
    1.7150   -6.7450    5.6280 H   0  0  0  0  0  0  0  0  0  0  0  0
    2.6680   -2.3880    5.5650 C   0  0  0  0  0  2  0  0  0  0  0  0
    1.5900   -1.4800    5.7880 O   0  0  0  0  0  0  0  0  0  0  0  0
    1.9570   -0.7320    6.2950 H   0  0  0  0  0  0  0  0  0  0  0  0
  1 19  1  6  0  0  0
  1  2  1  0  0  0  0
  2 20  1  6  0  0  0
  3 22  1  1  0  0  0
  3  2  1  0  0  0  0
  4  5  1  0  0  0  0
  4  3  1  0  0  0  0
  5  6  1  1  0  0  0
  5  1  1  0  0  0  0
  6  7  1  0  0  0  0
  8  7  2  0  0  0  0
  9 15  1  0  0  0  0
  9  8  1  0  0  0  0
 10  9  2  0  0  0  0
 11 10  1  0  0  0  0
 11 16  1  0  0  0  0
 12 13  2  0  0  0  0
 12 10  1  0  0  0  0
 13 14  1  0  0  0  0
 14 15  2  0  0  0  0
 15  6  1  0  0  0  0
 17 11  1  0  0  0  0
 18 19  1  0  0  0  0
 20 21  1  0  0  0  0
 22 23  1  0  0  0  0
 23 24  1  0  0  0  0
M  END
>  <minimizedAffinity>
-5.7268939

$$$$

 OpenBabel09122217373D

 24 26  0  0  1  0  0  0  0  0999 V2000
    3.0480   -4.9700    4.8160 C   0  0  2  0  0  3  0  0  0  0  0  0
    2.7000   -4.8910    6.2980 C   0  0  1  0  0  3  0  0  0  0  0  0
    2.8000   -6.3350    6.7770 C   0  0  2  0  0  3  0  0  0  0  0  0
    3.7180   -7.0120    5.8860 O   0  0  0  0  0  0  0  0  0  0  0  0
    4.0900   -6.0960    4.8320 C   0  0  1  0  0  3  0  0  0  0  0  0
    4.1690   -6.8520    3.5990 N   0  0  0  0  0  0  0  0  0  0  0  0
    3.4230   -7.9520    3.2640 C   0  0  0  0  0  3  0  0  0  0  0  0
    3.7090   -8.3990    2.0600 N   0  0  0  0  0  0  0  0  0  0  0  0
    4.7150   -7.5680    1.6090 C   0  0  0  0  0  0  0  0  0  0  0  0
    5.4490   -7.5310    0.4100 C   0  0  0  0  0  0  0  0  0  0  0  0
    5.2540   -8.4250   -0.6180 N   0  0  0  0  0  0  0  0  0  0  0  0
    6.3890   -6.5710    0.2580 N   0  0  0  0  0  0  0  0  0  0  0  0
    6.5780   -5.6940    1.2670 C   0  0  0  0  0  3  0  0  0  0  0  0
    5.9340   -5.6250    2.4500 N   0  0  0  0  0  0  0  0  0  0  0  0
    5.0170   -6.6010    2.5540 C   0  0  0  0  0  0  0  0  0  0  0  0
    4.5750   -9.1630   -0.5030 H   0  0  0  0  0  0  0  0  0  0  0  0
    5.8410   -8.3500   -1.4330 H   0  0  0  0  0  0  0  0  0  0  0  0
    2.4720   -2.7250    4.2390 C   0  0  0  0  0  1  0  0  0  0  0  0
    3.5140   -3.6780    4.4010 O   0  0  0  0  0  0  0  0  0  0  0  0
    3.6890   -4.0970    6.9780 O   0  0  0  0  0  0  0  0  0  0  0  0
    3.8630   -3.3390    6.3820 H   0  0  0  0  0  0  0  0  0  0  0  0
    1.4600   -7.0780    6.7610 C   0  0  0  0  0  2  0  0  0  0  0  0
    1.6030   -8.3960    6.2340 O   0  0  0  0  0  0  0  0  0  0  0  0
    0.7340   -8.8290    6.3260 H   0  0  0  0  0  0  0  0  0  0  0  0
  1 19  1  1  0  0  0
  1  5  1  0  0  0  0
  1  2  1  0  0  0  0
  2  3  1  0  0  0  0
  2 20  1  1  0  0  0
  3 22  1  6  0  0  0
  4  3  1  0  0  0  0
  5  6  1  6  0  0  0
  5  4  1  0  0  0  0
  7  6  1  0  0  0  0
  8  7  2  0  0  0  0
  9  8  1  0  0  0  0
  9 15  1  0  0  0  0
 10  9  2  0  0  0  0
 11 16  1  0  0  0  0
 11 10  1  0  0  0  0
 12 10  1  0  0  0  0
 12 13  2  0  0  0  0
 13 14  1  0  0  0  0
 14 15  2  0  0  0  0
 15  6  1  0  0  0  0
 17 11  1  0  0  0  0
 18 19  1  0  0  0  0
 21 20  1  0  0  0  0
 23 24  1  0  0  0  0
 23 22  1  0  0  0  0
M  END
>  <minimizedAffinity>
-5.60975933

$$$$

 OpenBabel09122217373D

 24 26  0  0  1  0  0  0  0  0999 V2000
    2.4610   -5.0930    4.8810 C   0  0  2  0  0  3  0  0  0  0  0  0
    2.3810   -5.2400    6.3960 C   0  0  1  0  0  3  0  0  0  0  0  0
    3.4980   -6.2230    6.7290 C   0  0  2  0  0  3  0  0  0  0  0  0
    4.4840   -6.1150    5.6740 O   0  0  0  0  0  0  0  0  0  0  0  0
    3.9760   -5.2120    4.6670 C   0  0  1  0  0  3  0  0  0  0  0  0
    4.3550   -5.7380    3.3720 N   0  0  0  0  0  0  0  0  0  0  0  0
    5.0810   -5.0900    2.4060 C   0  0  0  0  0  3  0  0  0  0  0  0
    5.2850   -5.8450    1.3480 N   0  0  0  0  0  0  0  0  0  0  0  0
    4.6280   -7.0260    1.6290 C   0  0  0  0  0  0  0  0  0  0  0  0
    4.4630   -8.2170    0.9000 C   0  0  0  0  0  0  0  0  0  0  0  0
    4.9940   -8.4090   -0.3540 N   0  0  0  0  0  0  0  0  0  0  0  0
    3.7530   -9.2230    1.4590 N   0  0  0  0  0  0  0  0  0  0  0  0
    3.2340   -9.0330    2.6910 C   0  0  0  0  0  3  0  0  0  0  0  0
    3.3320   -7.9470    3.4840 N   0  0  0  0  0  0  0  0  0  0  0  0
    4.0400   -6.9770    2.8830 C   0  0  0  0  0  0  0  0  0  0  0  0
    5.5020   -7.6550   -0.7930 H   0  0  0  0  0  0  0  0  0  0  0  0
    4.8070   -9.2810   -0.8240 H   0  0  0  0  0  0  0  0  0  0  0  0
    2.8140   -2.8510    4.1360 C   0  0  0  0  0  1  0  0  0  0  0  0
    1.8660   -3.8350    4.5260 O   0  0  0  0  0  0  0  0  0  0  0  0
    2.6650   -3.9720    7.0140 O   0  0  0  0  0  0  0  0  0  0  0  0
    2.1900   -3.3100    6.4700 H   0  0  0  0  0  0  0  0  0  0  0  0
    3.0260   -7.6780    6.8150 C   0  0  0  0  0  2  0  0  0  0  0  0
    4.0140   -8.5750    6.3110 O   0  0  0  0  0  0  0  0  0  0  0  0
    3.6780   -9.4770    6.4680 H   0  0  0  0  0  0  0  0  0  0  0  0
  1 19  1  1  0  0  0
  1  2  1  0  0  0  0
  2  3  1  0  0  0  0
  2 20  1  1  0  0  0
  3 22  1  6  0  0  0
  4  3  1  0  0  0  0
  5  6  1  6  0  0  0
  5  1  1  0  0  0  0
  5  4  1  0  0  0  0
  7  6  1  0  0  0  0
  8  9  1  0  0  0  0
  8  7  2  0  0  0  0
  9 15  1  0  0  0  0
 10 12  1  0  0  0  0
 10  9  2  0  0  0  0
 11 10  1  0  0  0  0
 12 13  2  0  0  0  0
 13 14  1  0  0  0  0
 15  6  1  0  0  0  0
 15 14  2  0  0  0  0
 16 11  1  0  0  0  0
 17 11  1  0  0  0  0
 18 19  1  0  0  0  0
 21 20  1  0  0  0  0
 23 24  1  0  0  0  0
 23 22  1  0  0  0  0
M  END
>  <minimizedAffinity>
-5.49983644

$$$$
