
 OpenBabel09122222393D

 24 26  0  0  1  0  0  0  0  0999 V2000
    5.5360   -6.5100    0.7270 C   0  0  2  0  0  3  0  0  0  0  0  0
    5.0030   -7.8880    0.3520 C   0  0  1  0  0  3  0  0  0  0  0  0
    4.4320   -8.4290    1.6580 C   0  0  2  0  0  3  0  0  0  0  0  0
    4.0780   -7.2840    2.4700 O   0  0  0  0  0  0  0  0  0  0  0  0
    4.5050   -6.0870    1.7820 C   0  0  1  0  0  3  0  0  0  0  0  0
    5.0140   -5.1650    2.7760 N   0  0  0  0  0  0  0  0  0  0  0  0
    6.2710   -4.6200    2.8190 C   0  0  0  0  0  3  0  0  0  0  0  0
    6.4210   -3.7940    3.8330 N   0  0  0  0  0  0  0  0  0  0  0  0
    5.2120   -3.8360    4.4990 C   0  0  0  0  0  0  0  0  0  0  0  0
    4.7450   -3.1920    5.6570 C   0  0  0  0  0  0  0  0  0  0  0  0
    5.5120   -2.3180    6.3930 N   0  0  0  0  0  0  0  0  0  0  0  0
    3.4800   -3.4390    6.0680 N   0  0  0  0  0  0  0  0  0  0  0  0
    2.7270   -4.2940    5.3440 C   0  0  0  0  0  3  0  0  0  0  0  0
    3.0610   -4.9600    4.2190 N   0  0  0  0  0  0  0  0  0  0  0  0
    4.3250   -4.6860    3.8580 C   0  0  0  0  0  0  0  0  0  0  0  0
    6.4670   -2.1490    6.1120 H   0  0  0  0  0  0  0  0  0  0  0  0
    5.1140   -1.9200    7.2280 H   0  0  0  0  0  0  0  0  0  0  0  0
    6.9100   -5.4070   -0.8860 C   0  0  0  0  0  1  0  0  0  0  0  0
    5.5870   -5.7140   -0.4670 O   0  0  0  0  0  0  0  0  0  0  0  0
    3.9390   -7.7420   -0.6060 O   0  0  0  0  0  0  0  0  0  0  0  0
    4.2470   -7.0510   -1.2280 H   0  0  0  0  0  0  0  0  0  0  0  0
    5.4180   -9.3020    2.4410 C   0  0  0  0  0  2  0  0  0  0  0  0
    6.0820   -8.5520    3.4570 O   0  0  0  0  0  0  0  0  0  0  0  0
    6.6300   -9.1850    3.9570 H   0  0  0  0  0  0  0  0  0  0  0  0
  1 19  1  6  0  0  0
  1  5  1  0  0  0  0
  2 20  1  6  0  0  0
  2  1  1  0  0  0  0
  2  3  1  0  0  0  0
  3 22  1  1  0  0  0
  3  4  1  0  0  0  0
  5  4  1  0  0  0  0
  5  6  1  1  0  0  0
  6  7  1  0  0  0  0
  6 15  1  0  0  0  0
  7  8  2  0  0  0  0
  8  9  1  0  0  0  0
  9 10  1  0  0  0  0
 10 12  2  0  0  0  0
 10 11  1  0  0  0  0
 11 17  1  0  0  0  0
 13 12  1  0  0  0  0
 14 13  2  0  0  0  0
 15 14  1  0  0  0  0
 15  9  2  0  0  0  0
 16 11  1  0  0  0  0
 18 19  1  0  0  0  0
 21 20  1  0  0  0  0
 22 23  1  0  0  0  0
 23 24  1  0  0  0  0
M  END
>  <minimizedAffinity>
-5.89044142

$$$$
