REMARK  Name = 
REMARK  14 active torsions:
REMARK  status: ('A' for Active; 'I' for Inactive)
REMARK    1  A    between atoms: C_1  and  C_2
REMARK    2  A    between atoms: C_2  and  C_3
REMARK    3  A    between atoms: C_2  and  C_4
REMARK    4  A    between atoms: C_4  and  C_5
REMARK    5  A    between atoms: C_5  and  N_6
REMARK    6  A    between atoms: C_9  and  C_10
REMARK    7  A    between atoms: C_17  and  N_18
REMARK    8  A    between atoms: N_18  and  S_19
REMARK    9  A    between atoms: S_19  and  N_22
REMARK   10  A    between atoms: C_23  and  O_25
REMARK   11  A    between atoms: O_25  and  C_26
REMARK   12  A    between atoms: C_26  and  C_27
REMARK   13  A    between atoms: C_27  and  C_28
REMARK   14  A    between atoms: C_34  and  O_35
REMARK                            x       y       z     vdW  Elec       q    Type
REMARK                         _______ _______ _______ _____ _____    ______ ____
ROOT
ATOM      1  C   UNL     1      -4.335  -6.444  -4.899  0.00  0.00    +0.308 C 
ATOM      2  N   UNL     1      -4.313  -7.347  -3.933  0.00  0.00    -0.131 N 
ATOM      3  S   UNL     1      -4.180  -6.875  -2.355  0.00  0.00    +0.141 S 
ATOM      4  O   UNL     1      -5.443  -6.983  -1.667  0.00  0.00    -0.129 OA
ATOM      5  O   UNL     1      -2.988  -7.482  -1.802  0.00  0.00    -0.129 OA
ATOM      6  C   UNL     1      -3.776  -5.154  -2.528  0.00  0.00    +0.176 A 
ATOM      7  C   UNL     1      -4.600  -3.845  -1.574  0.00  0.00    +0.059 A 
ATOM      8  C   UNL     1      -4.434  -2.128  -2.109  0.00  0.00    +0.051 A 
ATOM      9  C   UNL     1      -3.470  -1.707  -3.608  0.00  0.00    +0.028 A 
ATOM     10  C   UNL     1      -2.778  -3.032  -4.628  0.00  0.00    +0.053 A 
ATOM     11  C   UNL     1      -2.938  -4.752  -4.091  0.00  0.00    +0.148 A 
ATOM     12  N   UNL     1      -3.058  -5.805  -5.081  0.00  0.00    -0.200 N 
ATOM     13  H   UNL     1      -3.620  -8.068  -4.069  0.00  0.00    +0.339 HD
ATOM     14  H   UNL     1      -2.840  -5.449  -6.015  0.00  0.00    +0.298 HD
ENDROOT
BRANCH   1  18
ATOM     15  N   UNL     1      -4.551  -3.545  -3.647  0.00  0.00    -0.292 N 
ATOM     16  C   UNL     1      -5.653  -4.603  -3.804  0.00  0.00    +0.271 A 
ATOM     17  O   UNL     1      -6.622  -4.791  -3.085  0.00  0.00    -0.267 OA
ATOM     18  C   UNL     1      -5.429  -5.412  -5.052  0.00  0.00    +0.170 A 
ATOM     19  C   UNL     1      -5.516  -4.606  -6.130  0.00  0.00    +0.148 A 
ATOM     20  C   UNL     1      -5.820  -3.183  -5.916  0.00  0.00    +0.060 A 
ATOM     21  C   UNL     1      -6.541  -2.430  -6.843  0.00  0.00    +0.016 A 
ATOM     22  C   UNL     1      -6.875  -1.117  -6.537  0.00  0.00    +0.021 A 
ATOM     23  C   UNL     1      -6.493  -0.612  -5.308  0.00  0.00    +0.113 A 
ATOM     24  N   UNL     1      -5.783  -1.312  -4.394  0.00  0.00    -0.237 NA
ATOM     25  C   UNL     1      -5.372  -2.566  -4.716  0.00  0.00    +0.147 A 
BRANCH  19  26
ATOM     26  O   UNL     1      -5.109  -4.951  -7.399  0.00  0.00    -0.505 OA
ATOM     27  H   UNL     1      -5.367  -5.874  -7.576  0.00  0.00    +0.292 HD
ENDBRANCH  19  26
BRANCH  15  28
ATOM     28  C   UNL     1      -2.772  -3.317  -2.541  0.00  0.00    +0.127 C 
BRANCH  28  29
ATOM     29  C   UNL     1      -1.105  -3.807  -2.836  0.00  0.00    +0.025 C 
BRANCH  29  31
ATOM     30  C   UNL     1      -0.417  -3.613  -0.354  0.00  0.00    +0.007 C 
ATOM     31  C   UNL     1      -0.126  -3.188  -1.795  0.00  0.00    -0.016 C 
ATOM     32  C   UNL     1       1.313  -3.572  -2.155  0.00  0.00    +0.007 C 
ENDBRANCH  29  31
ENDBRANCH  28  29
ENDBRANCH  15  28
ENDBRANCH   1  18
BRANCH   8  33
ATOM     33  N   UNL     1      -5.239  -1.174  -1.414  0.00  0.00    -0.204 N 
ATOM     34  H   UNL     1      -6.168  -1.141  -1.848  0.00  0.00    +0.175 HD
BRANCH  33  35
ATOM     35  S   UNL     1      -4.723   0.415  -1.247  0.00  0.00    +0.129 S 
ATOM     36  O   UNL     1      -4.577   1.009  -2.551  0.00  0.00    -0.135 OA
ATOM     37  O   UNL     1      -5.596   1.007  -0.261  0.00  0.00    -0.135 OA
BRANCH  35  38
ATOM     38  N   UNL     1      -3.275   0.191  -0.510  0.00  0.00    -0.138 N 
ATOM     39  C   UNL     1      -2.007   0.421  -1.014  0.00  0.00    +0.421 C 
ATOM     40  O   UNL     1      -1.024   0.184  -0.331  0.00  0.00    -0.225 OA
ATOM     41  H   UNL     1      -3.341  -0.048   0.472  0.00  0.00    +0.181 HD
BRANCH  39  42
ATOM     42  O   UNL     1      -1.954   0.854  -2.292  0.00  0.00    -0.448 OA
BRANCH  42  43
ATOM     43  C   UNL     1      -0.651   0.999  -2.871  0.00  0.00    +0.248 C 
BRANCH  43  44
ATOM     44  C   UNL     1      -0.803   1.723  -4.204  0.00  0.00    +0.159 C 
BRANCH  44  45
ATOM     45  C   UNL     1      -0.775   3.226  -3.981  0.00  0.00    +0.066 C 
ATOM     46  N   UNL     1      -0.751   4.473  -3.796  0.00  0.00    -0.196 NA
ENDBRANCH  44  45
ENDBRANCH  43  44
ENDBRANCH  42  43
ENDBRANCH  39  42
ENDBRANCH  35  38
ENDBRANCH  33  35
ENDBRANCH   8  33
TORSDOF 12
