REMARK  Name = 
REMARK  9 active torsions:
REMARK  status: ('A' for Active; 'I' for Inactive)
REMARK    1  A    between atoms: C_1  and  N_2
REMARK    2  A    between atoms: C_6  and  C_7
REMARK    3  A    between atoms: C_7  and  N_8
REMARK    4  A    between atoms: N_8  and  C_9
REMARK    5  A    between atoms: C_10  and  C_12
REMARK    6  A    between atoms: C_12  and  N_13
REMARK    7  A    between atoms: C_14  and  C_15
REMARK    8  A    between atoms: C_21  and  C_22
REMARK    9  A    between atoms: C_31  and  C_32
REMARK                            x       y       z     vdW  Elec       q    Type
REMARK                         _______ _______ _______ _____ _____    ______ ____
ROOT
ATOM      1  N   UNL     1      -1.271   5.121   1.995  0.00  0.00    -0.331 N 
ATOM      2  C   UNL     1      -1.227   4.149   2.979  0.00  0.00    +0.054 A 
ATOM      3  C   UNL     1      -0.904   4.787   4.181  0.00  0.00    -0.011 A 
ATOM      4  C   UNL     1      -0.675   6.171   3.884  0.00  0.00    +0.004 A 
ATOM      5  C   UNL     1      -0.298   7.297   4.650  0.00  0.00    +0.011 A 
ATOM      6  C   UNL     1      -0.137   8.547   4.038  0.00  0.00    +0.010 A 
ATOM      7  C   UNL     1      -0.354   8.715   2.669  0.00  0.00    -0.001 A 
ATOM      8  C   UNL     1      -0.763   7.608   1.910  0.00  0.00    +0.036 A 
ATOM      9  C   UNL     1      -0.908   6.349   2.523  0.00  0.00    +0.051 A 
ENDROOT
BRANCH   2  10
ATOM     10  C   UNL     1      -1.490   2.721   2.778  0.00  0.00    -0.001 A 
ATOM     11  C   UNL     1      -2.775   2.257   2.491  0.00  0.00    +0.010 A 
ATOM     12  C   UNL     1      -3.040   0.885   2.476  0.00  0.00    +0.001 A 
ATOM     13  C   UNL     1      -2.026  -0.031   2.759  0.00  0.00    +0.000 A 
ATOM     14  C   UNL     1      -0.735   0.421   3.026  0.00  0.00    +0.001 A 
ATOM     15  C   UNL     1      -0.468   1.791   3.024  0.00  0.00    +0.010 A 
ENDBRANCH   2  10
BRANCH   3  16
ATOM     16  C   UNL     1      -0.824   4.133   5.548  0.00  0.00    +0.022 C 
ATOM     17  C   UNL     1       0.593   4.175   6.142  0.00  0.00    +0.008 C 
ATOM     18  C   UNL     1       0.651   3.486   7.505  0.00  0.00    +0.001 C 
ATOM     19  C   UNL     1      -0.382   4.058   8.471  0.00  0.00    +0.000 C 
ATOM     20  C   UNL     1      -1.790   4.001   7.887  0.00  0.00    +0.001 C 
ATOM     21  C   UNL     1      -1.865   4.698   6.530  0.00  0.00    +0.008 C 
ENDBRANCH   3  16
BRANCH   7  22
ATOM     22  C   UNL     1      -0.145  10.060   1.998  0.00  0.00    +0.072 C 
ATOM     23  O   UNL     1      -0.292  10.095   0.734  0.00  0.00    -0.545 OA
ATOM     24  O   UNL     1       0.175  11.037   2.742  0.00  0.00    -0.545 OA
ENDBRANCH   7  22
BRANCH   1  25
ATOM     25  C   UNL     1      -1.714   4.965   0.612  0.00  0.00    +0.218 C 
BRANCH  25  28
ATOM     26  N   UNL     1       0.362   3.864  -0.345  0.00  0.00    -0.303 N 
ATOM     27  C   UNL     1       1.264   4.775   0.357  0.00  0.00    +0.132 C 
ATOM     28  C   UNL     1      -1.024   3.917  -0.237  0.00  0.00    +0.235 C 
ATOM     29  O   UNL     1      -1.720   3.143  -0.912  0.00  0.00    -0.274 OA
BRANCH  26  30
ATOM     30  C   UNL     1       0.972   2.887  -1.247  0.00  0.00    +0.116 C 
BRANCH  30  36
ATOM     31  C   UNL     1      -1.490  -1.430  -0.615  0.00  0.00    +0.190 C 
ATOM     32  N   UNL     1      -0.163  -0.738  -0.453  0.00  0.00    +0.233 N 
ATOM     33  C   UNL     1       0.928  -1.463  -1.182  0.00  0.00    +0.131 C 
ATOM     34  C   UNL     1       2.251  -0.762  -0.932  0.00  0.00    +0.051 C 
ATOM     35  C   UNL     1       2.190   0.694  -1.373  0.00  0.00    +0.015 C 
ATOM     36  C   UNL     1       1.055   1.457  -0.669  0.00  0.00    +0.052 C 
ATOM     37  C   UNL     1      -0.281   0.722  -0.836  0.00  0.00    +0.136 C 
ATOM     38  H   UNL     1       0.051  -0.745   0.553  0.00  0.00    +0.203 HD
ENDBRANCH  30  36
ENDBRANCH  26  30
ENDBRANCH  25  28
ENDBRANCH   1  25
TORSDOF 7
