REMARK  Name = 
REMARK  6 active torsions:
REMARK  status: ('A' for Active; 'I' for Inactive)
REMARK    1  A    between atoms: C_1  and  C_2
REMARK    2  A    between atoms: C_2  and  C_3
REMARK    3  A    between atoms: C_3  and  C_4
REMARK    4  A    between atoms: C_4  and  N_5
REMARK    5  A    between atoms: C_8  and  C_9
REMARK    6  A    between atoms: C_21  and  O_22
REMARK                            x       y       z     vdW  Elec       q    Type
REMARK                         _______ _______ _______ _____ _____    ______ ____
ROOT
ATOM      1  N   UNL     1      -0.532  -3.272  -2.177  0.00  0.00    -0.307 N 
ATOM      2  C   UNL     1      -0.269  -2.565  -1.013  0.00  0.00    +0.270 A 
ATOM      3  O   UNL     1       0.662  -1.760  -0.903  0.00  0.00    -0.267 OA
ATOM      4  C   UNL     1      -1.169  -2.742   0.170  0.00  0.00    +0.169 A 
ATOM      5  C   UNL     1      -2.183  -3.620   0.084  0.00  0.00    +0.146 A 
ATOM      6  C   UNL     1      -2.379  -4.466  -1.107  0.00  0.00    +0.041 A 
ATOM      7  C   UNL     1      -3.332  -5.504  -1.131  0.00  0.00    +0.013 A 
ATOM      8  C   UNL     1      -3.531  -6.274  -2.276  0.00  0.00    +0.001 A 
ATOM      9  C   UNL     1      -2.771  -6.029  -3.408  0.00  0.00    +0.002 A 
ATOM     10  C   UNL     1      -1.795  -5.031  -3.388  0.00  0.00    +0.026 A 
ATOM     11  C   UNL     1      -1.574  -4.249  -2.241  0.00  0.00    +0.056 A 
ENDROOT
BRANCH   4  12
ATOM     12  C   UNL     1      -0.888  -1.887   1.388  0.00  0.00    +0.308 C 
ATOM     13  N   UNL     1       0.108  -1.036   1.386  0.00  0.00    -0.131 N 
ATOM     14  S   UNL     1       0.533  -0.056   2.581  0.00  0.00    +0.141 S 
ATOM     15  O   UNL     1       1.849  -0.432   3.060  0.00  0.00    -0.129 OA
ATOM     16  O   UNL     1       0.282   1.316   2.182  0.00  0.00    -0.129 OA
ATOM     17  C   UNL     1      -0.570  -0.372   3.917  0.00  0.00    +0.175 A 
ATOM     18  C   UNL     1      -0.419   0.334   5.117  0.00  0.00    +0.035 A 
ATOM     19  C   UNL     1      -1.294   0.079   6.168  0.00  0.00    +0.002 A 
ATOM     20  C   UNL     1      -2.305  -0.869   6.012  0.00  0.00    +0.004 A 
ATOM     21  C   UNL     1      -2.440  -1.565   4.806  0.00  0.00    +0.051 A 
ATOM     22  C   UNL     1      -1.568  -1.321   3.741  0.00  0.00    +0.147 A 
ATOM     23  N   UNL     1      -1.696  -2.008   2.541  0.00  0.00    -0.200 N 
ATOM     24  H   UNL     1       0.678  -0.981   0.547  0.00  0.00    +0.339 HD
ATOM     25  H   UNL     1      -2.440  -2.705   2.464  0.00  0.00    +0.298 HD
ENDBRANCH   4  12
BRANCH   5  26
ATOM     26  O   UNL     1      -3.111  -3.732   1.111  0.00  0.00    -0.505 OA
ATOM     27  H   UNL     1      -3.973  -3.970   0.721  0.00  0.00    +0.292 HD
ENDBRANCH   5  26
BRANCH   1  28
ATOM     28  C   UNL     1       0.326  -3.014  -3.342  0.00  0.00    +0.125 C 
BRANCH  28  29
ATOM     29  C   UNL     1      -0.331  -2.115  -4.400  0.00  0.00    +0.021 C 
BRANCH  29  31
ATOM     30  C   UNL     1       0.712   0.139  -3.814  0.00  0.00    +0.004 C 
ATOM     31  C   UNL     1      -0.570  -0.667  -3.963  0.00  0.00    -0.002 C 
ENDBRANCH  29  31
ENDBRANCH  28  29
ENDBRANCH   1  28
TORSDOF 5
