MODEL 1
REMARK VINA RESULT:      -8.7      0.000      0.000
REMARK  Name = 319853
REMARK  6 active torsions:
REMARK  status: ('A' for Active; 'I' for Inactive)
REMARK    1  A    between atoms: C_3  and  O_5
REMARK    2  A    between atoms: O_5  and  C_8
REMARK    3  A    between atoms: C_14  and  C_15
REMARK    4  A    between atoms: CA_16  and  N_17
REMARK    5  A    between atoms: CA_16  and  C_18
REMARK    6  A    between atoms: C_19  and  C_23
REMARK                            x       y       z     vdW  Elec       q    Type
REMARK                         _______ _______ _______ _____ _____    ______ ____
ROOT
ATOM      1  C   UNL     1      -9.062  55.330  47.452  0.00  0.00    +0.000 C 
ATOM      2  CA  UNL     1      -8.002  54.759  48.045  0.00  0.00    +0.000 C 
ENDROOT
BRANCH   1   8
ATOM      3  C   UNL     1     -12.902  56.663  48.665  0.00  0.00    +0.000 A 
ATOM      4  C   UNL     1     -11.800  56.942  49.472  0.00  0.00    +0.000 A 
ATOM      5  C   UNL     1     -12.786  55.741  47.621  0.00  0.00    +0.000 A 
ATOM      6  C   UNL     1     -10.545  56.421  49.136  0.00  0.00    +0.000 A 
ATOM      7  C   UNL     1     -11.530  55.240  47.273  0.00  0.00    +0.000 A 
ATOM      8  C   UNL     1     -10.395  55.616  48.002  0.00  0.00    +0.000 A 
BRANCH   3   9
ATOM      9  O   UNL     1     -14.073  57.348  48.920  0.00  0.00    +0.000 OA
BRANCH   9  12
ATOM     10 BR   UNL     1     -13.604  60.282  49.780  0.00  0.00    +0.000 Br
ATOM     11  C   UNL     1     -14.235  58.818  50.810  0.00  0.00    +0.000 A 
ATOM     12  C   UNL     1     -14.424  57.550  50.247  0.00  0.00    +0.000 A 
ATOM     13  C   UNL     1     -14.511  59.039  52.165  0.00  0.00    +0.000 A 
ATOM     14  C   UNL     1     -14.982  56.535  51.041  0.00  0.00    +0.000 A 
ATOM     15  C   UNL     1     -14.994  57.999  52.961  0.00  0.00    +0.000 A 
ATOM     16  C   UNL     1     -15.242  56.751  52.395  0.00  0.00    +0.000 A 
ENDBRANCH   9  12
ENDBRANCH   3   9
ENDBRANCH   1   8
BRANCH   2  17
ATOM     17  N   UNL     1      -7.885  54.457  49.395  0.00  0.00    +0.000 N 
ATOM     18  C   UNL     1      -7.306  55.352  50.281  0.00  0.00    +0.000 C 
ATOM     19  O   UNL     1      -6.772  56.400  49.924  0.00  0.00    +0.000 OA
ATOM     20  H   UNL     1      -8.218  53.592  49.729  0.00  0.00    +0.000 HD
BRANCH  18  21
ATOM     21  C   UNL     1      -7.198  54.933  51.702  0.00  0.00    +0.000 A 
ATOM     22  C   UNL     1      -6.490  53.755  51.978  0.00  0.00    +0.000 A 
ATOM     23  C   UNL     1      -7.708  55.700  52.754  0.00  0.00    +0.000 A 
ATOM     24  C   UNL     1      -6.275  53.354  53.296  0.00  0.00    +0.000 A 
ATOM     25  C   UNL     1      -7.487  55.293  54.074  0.00  0.00    +0.000 A 
ATOM     26  C   UNL     1      -6.768  54.125  54.342  0.00  0.00    +0.000 A 
ENDBRANCH  18  21
ENDBRANCH   2  17
BRANCH   2  27
ATOM     27  C   UNL     1      -6.849  54.437  47.141  0.00  0.00    +0.000 C 
ATOM     28  O   UNL     1      -5.716  54.171  47.507  0.00  0.00    +0.000 OA
ATOM     29  OXT UNL     1      -7.220  54.484  45.841  0.00  0.00    +0.000 OA
ENDBRANCH   2  27
TORSDOF 6
ENDMDL
MODEL 2
REMARK VINA RESULT:      -8.5      2.362      4.975
REMARK  Name = 319853
REMARK  6 active torsions:
REMARK  status: ('A' for Active; 'I' for Inactive)
REMARK    1  A    between atoms: C_3  and  O_5
REMARK    2  A    between atoms: O_5  and  C_8
REMARK    3  A    between atoms: C_14  and  C_15
REMARK    4  A    between atoms: CA_16  and  N_17
REMARK    5  A    between atoms: CA_16  and  C_18
REMARK    6  A    between atoms: C_19  and  C_23
REMARK                            x       y       z     vdW  Elec       q    Type
REMARK                         _______ _______ _______ _____ _____    ______ ____
ROOT
ATOM      1  C   UNL     1      -8.794  55.355  48.892  0.00  0.00    +0.000 C 
ATOM      2  CA  UNL     1      -8.059  54.652  48.015  0.00  0.00    +0.000 C 
ENDROOT
BRANCH   1   8
ATOM      3  C   UNL     1     -12.878  56.492  49.053  0.00  0.00    +0.000 A 
ATOM      4  C   UNL     1     -12.223  56.141  50.233  0.00  0.00    +0.000 A 
ATOM      5  C   UNL     1     -12.281  56.222  47.818  0.00  0.00    +0.000 A 
ATOM      6  C   UNL     1     -10.907  55.666  50.181  0.00  0.00    +0.000 A 
ATOM      7  C   UNL     1     -10.961  55.769  47.768  0.00  0.00    +0.000 A 
ATOM      8  C   UNL     1     -10.252  55.535  48.952  0.00  0.00    +0.000 A 
BRANCH   3   9
ATOM      9  O   UNL     1     -14.095  57.134  49.162  0.00  0.00    +0.000 OA
BRANCH   9  12
ATOM     10 BR   UNL     1     -13.514  60.114  49.750  0.00  0.00    +0.000 Br
ATOM     11  C   UNL     1     -14.297  58.801  50.875  0.00  0.00    +0.000 A 
ATOM     12  C   UNL     1     -14.521  57.492  50.432  0.00  0.00    +0.000 A 
ATOM     13  C   UNL     1     -14.649  59.178  52.178  0.00  0.00    +0.000 A 
ATOM     14  C   UNL     1     -15.189  56.597  51.283  0.00  0.00    +0.000 A 
ATOM     15  C   UNL     1     -15.245  58.254  53.038  0.00  0.00    +0.000 A 
ATOM     16  C   UNL     1     -15.526  56.968  52.586  0.00  0.00    +0.000 A 
ENDBRANCH   9  12
ENDBRANCH   3   9
ENDBRANCH   1   8
BRANCH   2  17
ATOM     17  N   UNL     1      -8.548  53.786  47.047  0.00  0.00    +0.000 N 
ATOM     18  C   UNL     1      -8.590  54.156  45.712  0.00  0.00    +0.000 C 
ATOM     19  O   UNL     1      -8.306  55.285  45.318  0.00  0.00    +0.000 OA
ATOM     20  H   UNL     1      -8.871  52.895  47.313  0.00  0.00    +0.000 HD
BRANCH  18  21
ATOM     21  C   UNL     1      -9.155  53.176  44.749  0.00  0.00    +0.000 A 
ATOM     22  C   UNL     1     -10.348  52.531  45.106  0.00  0.00    +0.000 A 
ATOM     23  C   UNL     1      -8.583  52.936  43.496  0.00  0.00    +0.000 A 
ATOM     24  C   UNL     1     -10.977  51.668  44.210  0.00  0.00    +0.000 A 
ATOM     25  C   UNL     1      -9.222  52.071  42.601  0.00  0.00    +0.000 A 
ATOM     26  C   UNL     1     -10.418  51.442  42.958  0.00  0.00    +0.000 A 
ENDBRANCH  18  21
ENDBRANCH   2  17
BRANCH   2  27
ATOM     27  C   UNL     1      -6.573  54.834  48.122  0.00  0.00    +0.000 C 
ATOM     28  O   UNL     1      -5.736  54.172  47.534  0.00  0.00    +0.000 OA
ATOM     29  OXT UNL     1      -6.265  55.840  48.974  0.00  0.00    +0.000 OA
ENDBRANCH   2  27
TORSDOF 6
ENDMDL
MODEL 3
REMARK VINA RESULT:      -8.5      1.386      1.537
REMARK  Name = 319853
REMARK  6 active torsions:
REMARK  status: ('A' for Active; 'I' for Inactive)
REMARK    1  A    between atoms: C_3  and  O_5
REMARK    2  A    between atoms: O_5  and  C_8
REMARK    3  A    between atoms: C_14  and  C_15
REMARK    4  A    between atoms: CA_16  and  N_17
REMARK    5  A    between atoms: CA_16  and  C_18
REMARK    6  A    between atoms: C_19  and  C_23
REMARK                            x       y       z     vdW  Elec       q    Type
REMARK                         _______ _______ _______ _____ _____    ______ ____
ROOT
ATOM      1  C   UNL     1      -8.998  55.703  48.194  0.00  0.00    +0.000 C 
ATOM      2  CA  UNL     1      -8.080  54.898  48.754  0.00  0.00    +0.000 C 
ENDROOT
BRANCH   1   8
ATOM      3  C   UNL     1     -13.087  56.620  48.853  0.00  0.00    +0.000 A 
ATOM      4  C   UNL     1     -12.222  56.548  49.945  0.00  0.00    +0.000 A 
ATOM      5  C   UNL     1     -12.676  56.143  47.605  0.00  0.00    +0.000 A 
ATOM      6  C   UNL     1     -10.895  56.146  49.752  0.00  0.00    +0.000 A 
ATOM      7  C   UNL     1     -11.346  55.764  47.410  0.00  0.00    +0.000 A 
ATOM      8  C   UNL     1     -10.438  55.809  48.474  0.00  0.00    +0.000 A 
BRANCH   3   9
ATOM      9  O   UNL     1     -14.323  57.202  49.053  0.00  0.00    +0.000 OA
BRANCH   9  12
ATOM     10 BR   UNL     1     -13.841  60.194  49.666  0.00  0.00    +0.000 Br
ATOM     11  C   UNL     1     -14.490  58.826  50.810  0.00  0.00    +0.000 A 
ATOM     12  C   UNL     1     -14.683  57.517  50.354  0.00  0.00    +0.000 A 
ATOM     13  C   UNL     1     -14.775  59.162  52.140  0.00  0.00    +0.000 A 
ATOM     14  C   UNL     1     -15.255  56.575  51.226  0.00  0.00    +0.000 A 
ATOM     15  C   UNL     1     -15.272  58.195  53.016  0.00  0.00    +0.000 A 
ATOM     16  C   UNL     1     -15.523  56.906  52.556  0.00  0.00    +0.000 A 
ENDBRANCH   9  12
ENDBRANCH   3   9
ENDBRANCH   1   8
BRANCH   2  17
ATOM     17  N   UNL     1      -8.271  54.089  49.865  0.00  0.00    +0.000 N 
ATOM     18  C   UNL     1      -8.054  54.570  51.146  0.00  0.00    +0.000 C 
ATOM     19  O   UNL     1      -7.584  55.683  51.376  0.00  0.00    +0.000 OA
ATOM     20  H   UNL     1      -8.566  53.157  49.740  0.00  0.00    +0.000 HD
BRANCH  18  21
ATOM     21  C   UNL     1      -8.256  53.625  52.274  0.00  0.00    +0.000 A 
ATOM     22  C   UNL     1      -9.520  53.032  52.404  0.00  0.00    +0.000 A 
ATOM     23  C   UNL     1      -7.226  53.264  53.148  0.00  0.00    +0.000 A 
ATOM     24  C   UNL     1      -9.749  52.070  53.387  0.00  0.00    +0.000 A 
ATOM     25  C   UNL     1      -7.462  52.295  54.130  0.00  0.00    +0.000 A 
ATOM     26  C   UNL     1      -8.721  51.699  54.245  0.00  0.00    +0.000 A 
ENDBRANCH  18  21
ENDBRANCH   2  17
BRANCH   2  27
ATOM     27  C   UNL     1      -6.729  54.905  48.100  0.00  0.00    +0.000 C 
ATOM     28  O   UNL     1      -5.688  55.250  48.633  0.00  0.00    +0.000 OA
ATOM     29  OXT UNL     1      -6.804  54.478  46.819  0.00  0.00    +0.000 OA
ENDBRANCH   2  27
TORSDOF 6
ENDMDL
MODEL 4
REMARK VINA RESULT:      -8.4      3.108      7.953
REMARK  Name = 319853
REMARK  6 active torsions:
REMARK  status: ('A' for Active; 'I' for Inactive)
REMARK    1  A    between atoms: C_3  and  O_5
REMARK    2  A    between atoms: O_5  and  C_8
REMARK    3  A    between atoms: C_14  and  C_15
REMARK    4  A    between atoms: CA_16  and  N_17
REMARK    5  A    between atoms: CA_16  and  C_18
REMARK    6  A    between atoms: C_19  and  C_23
REMARK                            x       y       z     vdW  Elec       q    Type
REMARK                         _______ _______ _______ _____ _____    ______ ____
ROOT
ATOM      1  C   UNL     1     -10.655  55.699  48.524  0.00  0.00    +0.000 C 
ATOM      2  CA  UNL     1     -11.824  56.316  48.281  0.00  0.00    +0.000 C 
ENDROOT
BRANCH   1   8
ATOM      3  C   UNL     1      -7.678  55.694  51.546  0.00  0.00    +0.000 A 
ATOM      4  C   UNL     1      -8.719  54.769  51.616  0.00  0.00    +0.000 A 
ATOM      5  C   UNL     1      -7.757  56.766  50.652  0.00  0.00    +0.000 A 
ATOM      6  C   UNL     1      -9.762  54.827  50.683  0.00  0.00    +0.000 A 
ATOM      7  C   UNL     1      -8.786  56.809  49.708  0.00  0.00    +0.000 A 
ATOM      8  C   UNL     1      -9.767  55.812  49.690  0.00  0.00    +0.000 A 
BRANCH   3   9
ATOM      9  O   UNL     1      -6.580  55.486  52.356  0.00  0.00    +0.000 OA
BRANCH   9  12
ATOM     10 BR   UNL     1      -6.193  53.522  54.713  0.00  0.00    +0.000 Br
ATOM     11  C   UNL     1      -5.401  53.495  52.988  0.00  0.00    +0.000 A 
ATOM     12  C   UNL     1      -5.719  54.454  52.019  0.00  0.00    +0.000 A 
ATOM     13  C   UNL     1      -4.480  52.479  52.704  0.00  0.00    +0.000 A 
ATOM     14  C   UNL     1      -5.170  54.321  50.733  0.00  0.00    +0.000 A 
ATOM     15  C   UNL     1      -3.884  52.405  51.444  0.00  0.00    +0.000 A 
ATOM     16  C   UNL     1      -4.238  53.318  50.455  0.00  0.00    +0.000 A 
ENDBRANCH   9  12
ENDBRANCH   3   9
ENDBRANCH   1   8
BRANCH   2  17
ATOM     17  N   UNL     1     -12.542  57.089  49.183  0.00  0.00    +0.000 N 
ATOM     18  C   UNL     1     -13.351  56.502  50.143  0.00  0.00    +0.000 C 
ATOM     19  O   UNL     1     -13.567  55.292  50.191  0.00  0.00    +0.000 OA
ATOM     20  H   UNL     1     -12.477  58.071  49.139  0.00  0.00    +0.000 HD
BRANCH  18  21
ATOM     21  C   UNL     1     -14.105  57.407  51.048  0.00  0.00    +0.000 A 
ATOM     22  C   UNL     1     -14.229  57.024  52.391  0.00  0.00    +0.000 A 
ATOM     23  C   UNL     1     -14.623  58.635  50.624  0.00  0.00    +0.000 A 
ATOM     24  C   UNL     1     -14.847  57.871  53.310  0.00  0.00    +0.000 A 
ATOM     25  C   UNL     1     -15.239  59.481  51.553  0.00  0.00    +0.000 A 
ATOM     26  C   UNL     1     -15.347  59.099  52.893  0.00  0.00    +0.000 A 
ENDBRANCH  18  21
ENDBRANCH   2  17
BRANCH   2  27
ATOM     27  C   UNL     1     -12.383  56.125  46.902  0.00  0.00    +0.000 C 
ATOM     28  O   UNL     1     -11.974  55.325  46.079  0.00  0.00    +0.000 OA
ATOM     29  OXT UNL     1     -13.414  56.970  46.672  0.00  0.00    +0.000 OA
ENDBRANCH   2  27
TORSDOF 6
ENDMDL
MODEL 5
REMARK VINA RESULT:      -8.3      3.377      7.620
REMARK  Name = 319853
REMARK  6 active torsions:
REMARK  status: ('A' for Active; 'I' for Inactive)
REMARK    1  A    between atoms: C_3  and  O_5
REMARK    2  A    between atoms: O_5  and  C_8
REMARK    3  A    between atoms: C_14  and  C_15
REMARK    4  A    between atoms: CA_16  and  N_17
REMARK    5  A    between atoms: CA_16  and  C_18
REMARK    6  A    between atoms: C_19  and  C_23
REMARK                            x       y       z     vdW  Elec       q    Type
REMARK                         _______ _______ _______ _____ _____    ______ ____
ROOT
ATOM      1  C   UNL     1     -12.212  56.736  49.313  0.00  0.00    +0.000 C 
ATOM      2  CA  UNL     1     -12.524  56.578  48.017  0.00  0.00    +0.000 C 
ENDROOT
BRANCH   1   8
ATOM      3  C   UNL     1      -8.980  54.629  51.078  0.00  0.00    +0.000 A 
ATOM      4  C   UNL     1     -10.269  54.438  51.576  0.00  0.00    +0.000 A 
ATOM      5  C   UNL     1      -8.722  55.685  50.199  0.00  0.00    +0.000 A 
ATOM      6  C   UNL     1     -11.328  55.203  51.071  0.00  0.00    +0.000 A 
ATOM      7  C   UNL     1      -9.782  56.432  49.680  0.00  0.00    +0.000 A 
ATOM      8  C   UNL     1     -11.096  56.162  50.079  0.00  0.00    +0.000 A 
BRANCH   3   9
ATOM      9  O   UNL     1      -8.006  53.729  51.460  0.00  0.00    +0.000 OA
BRANCH   9  12
ATOM     10 BR   UNL     1      -5.155  54.054  50.306  0.00  0.00    +0.000 Br
ATOM     11  C   UNL     1      -5.759  54.286  52.090  0.00  0.00    +0.000 A 
ATOM     12  C   UNL     1      -7.106  54.131  52.436  0.00  0.00    +0.000 A 
ATOM     13  C   UNL     1      -4.812  54.620  53.066  0.00  0.00    +0.000 A 
ATOM     14  C   UNL     1      -7.501  54.409  53.755  0.00  0.00    +0.000 A 
ATOM     15  C   UNL     1      -5.208  54.819  54.389  0.00  0.00    +0.000 A 
ATOM     16  C   UNL     1      -6.554  54.726  54.730  0.00  0.00    +0.000 A 
ENDBRANCH   9  12
ENDBRANCH   3   9
ENDBRANCH   1   8
BRANCH   2  17
ATOM     17  N   UNL     1     -11.741  55.951  47.058  0.00  0.00    +0.000 N 
ATOM     18  C   UNL     1     -11.716  54.570  46.947  0.00  0.00    +0.000 C 
ATOM     19  O   UNL     1     -12.284  53.821  47.740  0.00  0.00    +0.000 OA
ATOM     20  H   UNL     1     -11.195  56.496  46.445  0.00  0.00    +0.000 HD
BRANCH  18  21
ATOM     21  C   UNL     1     -10.828  53.983  45.911  0.00  0.00    +0.000 A 
ATOM     22  C   UNL     1     -11.428  53.215  44.903  0.00  0.00    +0.000 A 
ATOM     23  C   UNL     1      -9.452  54.228  45.872  0.00  0.00    +0.000 A 
ATOM     24  C   UNL     1     -10.663  52.711  43.852  0.00  0.00    +0.000 A 
ATOM     25  C   UNL     1      -8.691  53.721  44.812  0.00  0.00    +0.000 A 
ATOM     26  C   UNL     1      -9.298  52.968  43.804  0.00  0.00    +0.000 A 
ENDBRANCH  18  21
ENDBRANCH   2  17
BRANCH   2  27
ATOM     27  C   UNL     1     -13.845  57.152  47.594  0.00  0.00    +0.000 C 
ATOM     28  O   UNL     1     -14.023  57.883  46.635  0.00  0.00    +0.000 OA
ATOM     29  OXT UNL     1     -14.837  56.759  48.426  0.00  0.00    +0.000 OA
ENDBRANCH   2  27
TORSDOF 6
ENDMDL
MODEL 6
REMARK VINA RESULT:      -8.3      2.135      4.788
REMARK  Name = 319853
REMARK  6 active torsions:
REMARK  status: ('A' for Active; 'I' for Inactive)
REMARK    1  A    between atoms: C_3  and  O_5
REMARK    2  A    between atoms: O_5  and  C_8
REMARK    3  A    between atoms: C_14  and  C_15
REMARK    4  A    between atoms: CA_16  and  N_17
REMARK    5  A    between atoms: CA_16  and  C_18
REMARK    6  A    between atoms: C_19  and  C_23
REMARK                            x       y       z     vdW  Elec       q    Type
REMARK                         _______ _______ _______ _____ _____    ______ ____
ROOT
ATOM      1  C   UNL     1      -7.601  55.092  49.993  0.00  0.00    +0.000 C 
ATOM      2  CA  UNL     1      -7.113  54.439  48.925  0.00  0.00    +0.000 C 
ENDROOT
BRANCH   1   8
ATOM      3  C   UNL     1     -11.763  55.790  50.430  0.00  0.00    +0.000 A 
ATOM      4  C   UNL     1     -11.014  56.635  49.611  0.00  0.00    +0.000 A 
ATOM      5  C   UNL     1     -11.115  54.900  51.291  0.00  0.00    +0.000 A 
ATOM      6  C   UNL     1      -9.624  56.479  49.539  0.00  0.00    +0.000 A 
ATOM      7  C   UNL     1      -9.731  54.730  51.202  0.00  0.00    +0.000 A 
ATOM      8  C   UNL     1      -8.986  55.486  50.290  0.00  0.00    +0.000 A 
BRANCH   3   9
ATOM      9  O   UNL     1     -13.137  55.850  50.325  0.00  0.00    +0.000 OA
BRANCH   9  12
ATOM     10 BR   UNL     1     -14.082  57.987  48.299  0.00  0.00    +0.000 Br
ATOM     11  C   UNL     1     -14.242  57.976  50.190  0.00  0.00    +0.000 A 
ATOM     12  C   UNL     1     -13.785  56.899  50.960  0.00  0.00    +0.000 A 
ATOM     13  C   UNL     1     -14.836  59.085  50.806  0.00  0.00    +0.000 A 
ATOM     14  C   UNL     1     -14.020  56.912  52.345  0.00  0.00    +0.000 A 
ATOM     15  C   UNL     1     -14.994  59.116  52.192  0.00  0.00    +0.000 A 
ATOM     16  C   UNL     1     -14.597  58.025  52.960  0.00  0.00    +0.000 A 
ENDBRANCH   9  12
ENDBRANCH   3   9
ENDBRANCH   1   8
BRANCH   2  17
ATOM     17  N   UNL     1      -7.861  53.836  47.923  0.00  0.00    +0.000 N 
ATOM     18  C   UNL     1      -8.215  54.531  46.778  0.00  0.00    +0.000 C 
ATOM     19  O   UNL     1      -7.991  55.731  46.623  0.00  0.00    +0.000 OA
ATOM     20  H   UNL     1      -8.145  52.899  48.028  0.00  0.00    +0.000 HD
BRANCH  18  21
ATOM     21  C   UNL     1      -9.040  53.816  45.771  0.00  0.00    +0.000 A 
ATOM     22  C   UNL     1     -10.431  53.975  45.842  0.00  0.00    +0.000 A 
ATOM     23  C   UNL     1      -8.479  53.061  44.737  0.00  0.00    +0.000 A 
ATOM     24  C   UNL     1     -11.256  53.403  44.875  0.00  0.00    +0.000 A 
ATOM     25  C   UNL     1      -9.313  52.492  43.767  0.00  0.00    +0.000 A 
ATOM     26  C   UNL     1     -10.698  52.667  43.837  0.00  0.00    +0.000 A 
ENDBRANCH  18  21
ENDBRANCH   2  17
BRANCH   2  27
ATOM     27  C   UNL     1      -5.617  54.364  48.840  0.00  0.00    +0.000 C 
ATOM     28  O   UNL     1      -4.965  53.338  48.754  0.00  0.00    +0.000 OA
ATOM     29  OXT UNL     1      -5.063  55.598  48.877  0.00  0.00    +0.000 OA
ENDBRANCH   2  27
TORSDOF 6
ENDMDL
MODEL 7
REMARK VINA RESULT:      -8.2      3.550      7.007
REMARK  Name = 319853
REMARK  6 active torsions:
REMARK  status: ('A' for Active; 'I' for Inactive)
REMARK    1  A    between atoms: C_3  and  O_5
REMARK    2  A    between atoms: O_5  and  C_8
REMARK    3  A    between atoms: C_14  and  C_15
REMARK    4  A    between atoms: CA_16  and  N_17
REMARK    5  A    between atoms: CA_16  and  C_18
REMARK    6  A    between atoms: C_19  and  C_23
REMARK                            x       y       z     vdW  Elec       q    Type
REMARK                         _______ _______ _______ _____ _____    ______ ____
ROOT
ATOM      1  C   UNL     1     -13.426  55.404  49.764  0.00  0.00    +0.000 C 
ATOM      2  CA  UNL     1     -13.002  55.902  50.937  0.00  0.00    +0.000 C 
ENDROOT
BRANCH   1   8
ATOM      3  C   UNL     1     -10.673  54.494  46.667  0.00  0.00    +0.000 A 
ATOM      4  C   UNL     1     -11.457  55.643  46.563  0.00  0.00    +0.000 A 
ATOM      5  C   UNL     1     -10.974  53.529  47.633  0.00  0.00    +0.000 A 
ATOM      6  C   UNL     1     -12.440  55.900  47.526  0.00  0.00    +0.000 A 
ATOM      7  C   UNL     1     -11.939  53.798  48.606  0.00  0.00    +0.000 A 
ATOM      8  C   UNL     1     -12.644  55.007  48.584  0.00  0.00    +0.000 A 
BRANCH   3   9
ATOM      9  O   UNL     1      -9.594  54.376  45.815  0.00  0.00    +0.000 OA
BRANCH   9  12
ATOM     10 BR   UNL     1      -7.184  52.637  46.669  0.00  0.00    +0.000 Br
ATOM     11  C   UNL     1      -8.440  52.342  45.278  0.00  0.00    +0.000 A 
ATOM     12  C   UNL     1      -9.503  53.224  45.048  0.00  0.00    +0.000 A 
ATOM     13  C   UNL     1      -8.277  51.206  44.475  0.00  0.00    +0.000 A 
ATOM     14  C   UNL     1     -10.451  52.897  44.064  0.00  0.00    +0.000 A 
ATOM     15  C   UNL     1      -9.186  50.935  43.451  0.00  0.00    +0.000 A 
ATOM     16  C   UNL     1     -10.279  51.773  43.254  0.00  0.00    +0.000 A 
ENDBRANCH   9  12
ENDBRANCH   3   9
ENDBRANCH   1   8
BRANCH   2  17
ATOM     17  N   UNL     1     -11.682  55.995  51.356  0.00  0.00    +0.000 N 
ATOM     18  C   UNL     1     -11.062  54.941  52.008  0.00  0.00    +0.000 C 
ATOM     19  O   UNL     1     -11.655  53.920  52.349  0.00  0.00    +0.000 OA
ATOM     20  H   UNL     1     -11.178  56.824  51.187  0.00  0.00    +0.000 HD
BRANCH  18  21
ATOM     21  C   UNL     1      -9.657  55.140  52.445  0.00  0.00    +0.000 A 
ATOM     22  C   UNL     1      -8.734  55.575  51.483  0.00  0.00    +0.000 A 
ATOM     23  C   UNL     1      -9.251  54.977  53.773  0.00  0.00    +0.000 A 
ATOM     24  C   UNL     1      -7.420  55.866  51.848  0.00  0.00    +0.000 A 
ATOM     25  C   UNL     1      -7.931  55.274  54.133  0.00  0.00    +0.000 A 
ATOM     26  C   UNL     1      -7.021  55.720  53.171  0.00  0.00    +0.000 A 
ENDBRANCH  18  21
ENDBRANCH   2  17
BRANCH   2  27
ATOM     27  C   UNL     1     -14.079  56.385  51.862  0.00  0.00    +0.000 C 
ATOM     28  O   UNL     1     -15.257  56.079  51.796  0.00  0.00    +0.000 OA
ATOM     29  OXT UNL     1     -13.579  57.225  52.798  0.00  0.00    +0.000 OA
ENDBRANCH   2  27
TORSDOF 6
ENDMDL
MODEL 8
REMARK VINA RESULT:      -8.1      3.132      6.717
REMARK  Name = 319853
REMARK  6 active torsions:
REMARK  status: ('A' for Active; 'I' for Inactive)
REMARK    1  A    between atoms: C_3  and  O_5
REMARK    2  A    between atoms: O_5  and  C_8
REMARK    3  A    between atoms: C_14  and  C_15
REMARK    4  A    between atoms: CA_16  and  N_17
REMARK    5  A    between atoms: CA_16  and  C_18
REMARK    6  A    between atoms: C_19  and  C_23
REMARK                            x       y       z     vdW  Elec       q    Type
REMARK                         _______ _______ _______ _____ _____    ______ ____
ROOT
ATOM      1  C   UNL     1     -13.456  55.503  49.772  0.00  0.00    +0.000 C 
ATOM      2  CA  UNL     1     -13.015  56.020  50.930  0.00  0.00    +0.000 C 
ENDROOT
BRANCH   1   8
ATOM      3  C   UNL     1     -10.731  54.340  46.736  0.00  0.00    +0.000 A 
ATOM      4  C   UNL     1     -11.354  55.584  46.650  0.00  0.00    +0.000 A 
ATOM      5  C   UNL     1     -11.192  53.392  47.655  0.00  0.00    +0.000 A 
ATOM      6  C   UNL     1     -12.331  55.938  47.588  0.00  0.00    +0.000 A 
ATOM      7  C   UNL     1     -12.150  53.754  48.604  0.00  0.00    +0.000 A 
ATOM      8  C   UNL     1     -12.689  55.045  48.604  0.00  0.00    +0.000 A 
BRANCH   3   9
ATOM      9  O   UNL     1      -9.645  54.108  45.916  0.00  0.00    +0.000 OA
BRANCH   9  12
ATOM     10 BR   UNL     1      -8.367  51.443  45.008  0.00  0.00    +0.000 Br
ATOM     11  C   UNL     1      -7.716  52.722  46.250  0.00  0.00    +0.000 A 
ATOM     12  C   UNL     1      -8.415  53.904  46.521  0.00  0.00    +0.000 A 
ATOM     13  C   UNL     1      -6.505  52.450  46.899  0.00  0.00    +0.000 A 
ATOM     14  C   UNL     1      -7.832  54.851  47.380  0.00  0.00    +0.000 A 
ATOM     15  C   UNL     1      -5.975  53.368  47.808  0.00  0.00    +0.000 A 
ATOM     16  C   UNL     1      -6.632  54.573  48.038  0.00  0.00    +0.000 A 
ENDBRANCH   9  12
ENDBRANCH   3   9
ENDBRANCH   1   8
BRANCH   2  17
ATOM     17  N   UNL     1     -11.692  56.081  51.347  0.00  0.00    +0.000 N 
ATOM     18  C   UNL     1     -11.096  55.009  51.992  0.00  0.00    +0.000 C 
ATOM     19  O   UNL     1     -11.712  53.999  52.328  0.00  0.00    +0.000 OA
ATOM     20  H   UNL     1     -11.169  56.899  51.182  0.00  0.00    +0.000 HD
BRANCH  18  21
ATOM     21  C   UNL     1      -9.685  55.172  52.427  0.00  0.00    +0.000 A 
ATOM     22  C   UNL     1      -8.760  55.620  51.473  0.00  0.00    +0.000 A 
ATOM     23  C   UNL     1      -9.276  54.965  53.748  0.00  0.00    +0.000 A 
ATOM     24  C   UNL     1      -7.440  55.879  51.839  0.00  0.00    +0.000 A 
ATOM     25  C   UNL     1      -7.950  55.230  54.109  0.00  0.00    +0.000 A 
ATOM     26  C   UNL     1      -7.037  55.689  53.156  0.00  0.00    +0.000 A 
ENDBRANCH  18  21
ENDBRANCH   2  17
BRANCH   2  27
ATOM     27  C   UNL     1     -14.075  56.567  51.841  0.00  0.00    +0.000 C 
ATOM     28  O   UNL     1     -15.041  55.948  52.252  0.00  0.00    +0.000 OA
ATOM     29  OXT UNL     1     -13.829  57.860  52.154  0.00  0.00    +0.000 OA
ENDBRANCH   2  27
TORSDOF 6
ENDMDL
MODEL 9
REMARK VINA RESULT:      -8.0      1.342      2.062
REMARK  Name = 319853
REMARK  6 active torsions:
REMARK  status: ('A' for Active; 'I' for Inactive)
REMARK    1  A    between atoms: C_3  and  O_5
REMARK    2  A    between atoms: O_5  and  C_8
REMARK    3  A    between atoms: C_14  and  C_15
REMARK    4  A    between atoms: CA_16  and  N_17
REMARK    5  A    between atoms: CA_16  and  C_18
REMARK    6  A    between atoms: C_19  and  C_23
REMARK                            x       y       z     vdW  Elec       q    Type
REMARK                         _______ _______ _______ _____ _____    ______ ____
ROOT
ATOM      1  C   UNL     1      -8.862  54.920  47.917  0.00  0.00    +0.000 C 
ATOM      2  CA  UNL     1      -7.655  54.569  48.391  0.00  0.00    +0.000 C 
ENDROOT
BRANCH   1   8
ATOM      3  C   UNL     1     -12.727  55.573  49.538  0.00  0.00    +0.000 A 
ATOM      4  C   UNL     1     -11.618  56.113  50.188  0.00  0.00    +0.000 A 
ATOM      5  C   UNL     1     -12.550  54.620  48.530  0.00  0.00    +0.000 A 
ATOM      6  C   UNL     1     -10.331  55.819  49.722  0.00  0.00    +0.000 A 
ATOM      7  C   UNL     1     -11.267  54.346  48.052  0.00  0.00    +0.000 A 
ATOM      8  C   UNL     1     -10.154  54.982  48.615  0.00  0.00    +0.000 A 
BRANCH   3   9
ATOM      9  O   UNL     1     -13.974  56.037  49.906  0.00  0.00    +0.000 OA
BRANCH   9  12
ATOM     10 BR   UNL     1     -15.262  57.038  52.533  0.00  0.00    +0.000 Br
ATOM     11  C   UNL     1     -14.798  58.019  50.976  0.00  0.00    +0.000 A 
ATOM     12  C   UNL     1     -14.183  57.407  49.878  0.00  0.00    +0.000 A 
ATOM     13  C   UNL     1     -15.090  59.389  50.952  0.00  0.00    +0.000 A 
ATOM     14  C   UNL     1     -13.781  58.209  48.796  0.00  0.00    +0.000 A 
ATOM     15  C   UNL     1     -14.752  60.158  49.838  0.00  0.00    +0.000 A 
ATOM     16  C   UNL     1     -14.087  59.571  48.766  0.00  0.00    +0.000 A 
ENDBRANCH   9  12
ENDBRANCH   3   9
ENDBRANCH   1   8
BRANCH   2  17
ATOM     17  N   UNL     1      -7.334  54.341  49.722  0.00  0.00    +0.000 N 
ATOM     18  C   UNL     1      -7.029  55.390  50.574  0.00  0.00    +0.000 C 
ATOM     19  O   UNL     1      -6.918  56.554  50.194  0.00  0.00    +0.000 OA
ATOM     20  H   UNL     1      -7.322  53.418  50.066  0.00  0.00    +0.000 HD
BRANCH  18  21
ATOM     21  C   UNL     1      -6.670  55.051  51.975  0.00  0.00    +0.000 A 
ATOM     22  C   UNL     1      -7.444  55.617  52.997  0.00  0.00    +0.000 A 
ATOM     23  C   UNL     1      -5.650  54.149  52.293  0.00  0.00    +0.000 A 
ATOM     24  C   UNL     1      -7.217  55.269  54.328  0.00  0.00    +0.000 A 
ATOM     25  C   UNL     1      -5.428  53.803  53.631  0.00  0.00    +0.000 A 
ATOM     26  C   UNL     1      -6.214  54.360  54.644  0.00  0.00    +0.000 A 
ENDBRANCH  18  21
ENDBRANCH   2  17
BRANCH   2  27
ATOM     27  C   UNL     1      -6.572  54.426  47.362  0.00  0.00    +0.000 C 
ATOM     28  O   UNL     1      -6.736  54.462  46.154  0.00  0.00    +0.000 OA
ATOM     29  OXT UNL     1      -5.365  54.242  47.945  0.00  0.00    +0.000 OA
ENDBRANCH   2  27
TORSDOF 6
ENDMDL
