MODEL 1
REMARK VINA RESULT:      -8.7      0.000      0.000
REMARK  Name = 319853
REMARK  6 active torsions:
REMARK  status: ('A' for Active; 'I' for Inactive)
REMARK    1  A    between atoms: C_3  and  O_5
REMARK    2  A    between atoms: O_5  and  C_8
REMARK    3  A    between atoms: C_14  and  C_15
REMARK    4  A    between atoms: CA_16  and  N_17
REMARK    5  A    between atoms: CA_16  and  C_18
REMARK    6  A    between atoms: C_19  and  C_23
REMARK                            x       y       z     vdW  Elec       q    Type
REMARK                         _______ _______ _______ _____ _____    ______ ____
ROOT
ATOM      1  C   UNL     1      -9.051  55.299  47.501  0.00  0.00    +0.000 C 
ATOM      2  CA  UNL     1      -7.976  54.761  48.103  0.00  0.00    +0.000 C 
ENDROOT
BRANCH   1   8
ATOM      3  C   UNL     1     -12.888  56.648  48.710  0.00  0.00    +0.000 A 
ATOM      4  C   UNL     1     -11.776  56.974  49.486  0.00  0.00    +0.000 A 
ATOM      5  C   UNL     1     -12.776  55.678  47.708  0.00  0.00    +0.000 A 
ATOM      6  C   UNL     1     -10.521  56.451  49.157  0.00  0.00    +0.000 A 
ATOM      7  C   UNL     1     -11.520  55.174  47.367  0.00  0.00    +0.000 A 
ATOM      8  C   UNL     1     -10.379  55.596  48.059  0.00  0.00    +0.000 A 
BRANCH   3   9
ATOM      9  O   UNL     1     -14.063  57.329  48.951  0.00  0.00    +0.000 OA
BRANCH   9  12
ATOM     10 BR   UNL     1     -13.632  60.275  49.785  0.00  0.00    +0.000 Br
ATOM     11  C   UNL     1     -14.257  58.816  50.823  0.00  0.00    +0.000 A 
ATOM     12  C   UNL     1     -14.427  57.539  50.272  0.00  0.00    +0.000 A 
ATOM     13  C   UNL     1     -14.551  59.048  52.173  0.00  0.00    +0.000 A 
ATOM     14  C   UNL     1     -14.984  56.528  51.072  0.00  0.00    +0.000 A 
ATOM     15  C   UNL     1     -15.032  58.012  52.976  0.00  0.00    +0.000 A 
ATOM     16  C   UNL     1     -15.261  56.756  52.421  0.00  0.00    +0.000 A 
ENDBRANCH   9  12
ENDBRANCH   3   9
ENDBRANCH   1   8
BRANCH   2  17
ATOM     17  N   UNL     1      -7.845  54.518  49.461  0.00  0.00    +0.000 N 
ATOM     18  C   UNL     1      -7.304  55.468  50.312  0.00  0.00    +0.000 C 
ATOM     19  O   UNL     1      -6.814  56.522  49.918  0.00  0.00    +0.000 OA
ATOM     20  H   UNL     1      -8.141  53.654  49.827  0.00  0.00    +0.000 HD
BRANCH  18  21
ATOM     21  C   UNL     1      -7.185  55.116  51.752  0.00  0.00    +0.000 A 
ATOM     22  C   UNL     1      -5.995  54.498  52.167  0.00  0.00    +0.000 A 
ATOM     23  C   UNL     1      -8.166  55.439  52.691  0.00  0.00    +0.000 A 
ATOM     24  C   UNL     1      -5.773  54.230  53.517  0.00  0.00    +0.000 A 
ATOM     25  C   UNL     1      -7.936  55.172  54.046  0.00  0.00    +0.000 A 
ATOM     26  C   UNL     1      -6.741  54.576  54.457  0.00  0.00    +0.000 A 
ENDBRANCH  18  21
ENDBRANCH   2  17
BRANCH   2  27
ATOM     27  C   UNL     1      -6.830  54.417  47.199  0.00  0.00    +0.000 C 
ATOM     28  O   UNL     1      -5.701  54.137  47.566  0.00  0.00    +0.000 OA
ATOM     29  OXT UNL     1      -7.201  54.462  45.898  0.00  0.00    +0.000 OA
ENDBRANCH   2  27
TORSDOF 6
ENDMDL
MODEL 2
REMARK VINA RESULT:      -8.5      2.421      5.079
REMARK  Name = 319853
REMARK  6 active torsions:
REMARK  status: ('A' for Active; 'I' for Inactive)
REMARK    1  A    between atoms: C_3  and  O_5
REMARK    2  A    between atoms: O_5  and  C_8
REMARK    3  A    between atoms: C_14  and  C_15
REMARK    4  A    between atoms: CA_16  and  N_17
REMARK    5  A    between atoms: CA_16  and  C_18
REMARK    6  A    between atoms: C_19  and  C_23
REMARK                            x       y       z     vdW  Elec       q    Type
REMARK                         _______ _______ _______ _____ _____    ______ ____
ROOT
ATOM      1  C   UNL     1      -8.725  55.317  48.839  0.00  0.00    +0.000 C 
ATOM      2  CA  UNL     1      -8.010  54.615  47.943  0.00  0.00    +0.000 C 
ENDROOT
BRANCH   1   8
ATOM      3  C   UNL     1     -12.792  56.511  49.022  0.00  0.00    +0.000 A 
ATOM      4  C   UNL     1     -12.118  56.211  50.204  0.00  0.00    +0.000 A 
ATOM      5  C   UNL     1     -12.223  56.171  47.790  0.00  0.00    +0.000 A 
ATOM      6  C   UNL     1     -10.809  55.717  50.152  0.00  0.00    +0.000 A 
ATOM      7  C   UNL     1     -10.910  55.699  47.739  0.00  0.00    +0.000 A 
ATOM      8  C   UNL     1     -10.179  55.516  48.919  0.00  0.00    +0.000 A 
BRANCH   3   9
ATOM      9  O   UNL     1     -14.000  57.169  49.120  0.00  0.00    +0.000 OA
BRANCH   9  12
ATOM     10 BR   UNL     1     -13.483  60.148  49.765  0.00  0.00    +0.000 Br
ATOM     11  C   UNL     1     -14.261  58.805  50.854  0.00  0.00    +0.000 A 
ATOM     12  C   UNL     1     -14.454  57.499  50.388  0.00  0.00    +0.000 A 
ATOM     13  C   UNL     1     -14.646  59.155  52.155  0.00  0.00    +0.000 A 
ATOM     14  C   UNL     1     -15.122  56.579  51.212  0.00  0.00    +0.000 A 
ATOM     15  C   UNL     1     -15.241  58.208  52.991  0.00  0.00    +0.000 A 
ATOM     16  C   UNL     1     -15.490  56.924  52.514  0.00  0.00    +0.000 A 
ENDBRANCH   9  12
ENDBRANCH   3   9
ENDBRANCH   1   8
BRANCH   2  17
ATOM     17  N   UNL     1      -8.530  53.775  46.971  0.00  0.00    +0.000 N 
ATOM     18  C   UNL     1      -8.443  54.094  45.624  0.00  0.00    +0.000 C 
ATOM     19  O   UNL     1      -8.008  55.166  45.215  0.00  0.00    +0.000 OA
ATOM     20  H   UNL     1      -8.970  52.938  47.241  0.00  0.00    +0.000 HD
BRANCH  18  21
ATOM     21  C   UNL     1      -9.043  53.145  44.651  0.00  0.00    +0.000 A 
ATOM     22  C   UNL     1     -10.119  52.361  45.096  0.00  0.00    +0.000 A 
ATOM     23  C   UNL     1      -8.626  53.064  43.321  0.00  0.00    +0.000 A 
ATOM     24  C   UNL     1     -10.793  51.521  44.211  0.00  0.00    +0.000 A 
ATOM     25  C   UNL     1      -9.310  52.223  42.435  0.00  0.00    +0.000 A 
ATOM     26  C   UNL     1     -10.394  51.461  42.878  0.00  0.00    +0.000 A 
ENDBRANCH  18  21
ENDBRANCH   2  17
BRANCH   2  27
ATOM     27  C   UNL     1      -6.521  54.767  48.037  0.00  0.00    +0.000 C 
ATOM     28  O   UNL     1      -5.703  54.093  47.434  0.00  0.00    +0.000 OA
ATOM     29  OXT UNL     1      -6.183  55.759  48.894  0.00  0.00    +0.000 OA
ENDBRANCH   2  27
TORSDOF 6
ENDMDL
MODEL 3
REMARK VINA RESULT:      -8.3      3.023      7.644
REMARK  Name = 319853
REMARK  6 active torsions:
REMARK  status: ('A' for Active; 'I' for Inactive)
REMARK    1  A    between atoms: C_3  and  O_5
REMARK    2  A    between atoms: O_5  and  C_8
REMARK    3  A    between atoms: C_14  and  C_15
REMARK    4  A    between atoms: CA_16  and  N_17
REMARK    5  A    between atoms: CA_16  and  C_18
REMARK    6  A    between atoms: C_19  and  C_23
REMARK                            x       y       z     vdW  Elec       q    Type
REMARK                         _______ _______ _______ _____ _____    ______ ____
ROOT
ATOM      1  C   UNL     1     -10.430  55.578  48.717  0.00  0.00    +0.000 C 
ATOM      2  CA  UNL     1     -11.604  56.140  48.384  0.00  0.00    +0.000 C 
ENDROOT
BRANCH   1   8
ATOM      3  C   UNL     1      -7.607  55.827  51.874  0.00  0.00    +0.000 A 
ATOM      4  C   UNL     1      -8.695  54.965  52.002  0.00  0.00    +0.000 A 
ATOM      5  C   UNL     1      -7.590  56.780  50.851  0.00  0.00    +0.000 A 
ATOM      6  C   UNL     1      -9.687  54.949  51.015  0.00  0.00    +0.000 A 
ATOM      7  C   UNL     1      -8.568  56.748  49.856  0.00  0.00    +0.000 A 
ATOM      8  C   UNL     1      -9.596  55.799  49.908  0.00  0.00    +0.000 A 
BRANCH   3   9
ATOM      9  O   UNL     1      -6.562  55.679  52.763  0.00  0.00    +0.000 OA
BRANCH   9  12
ATOM     10 BR   UNL     1      -4.803  54.164  50.722  0.00  0.00    +0.000 Br
ATOM     11  C   UNL     1      -5.507  53.560  52.376  0.00  0.00    +0.000 A 
ATOM     12  C   UNL     1      -6.266  54.398  53.203  0.00  0.00    +0.000 A 
ATOM     13  C   UNL     1      -5.247  52.238  52.759  0.00  0.00    +0.000 A 
ATOM     14  C   UNL     1      -6.677  53.918  54.457  0.00  0.00    +0.000 A 
ATOM     15  C   UNL     1      -5.727  51.751  53.976  0.00  0.00    +0.000 A 
ATOM     16  C   UNL     1      -6.430  52.595  54.830  0.00  0.00    +0.000 A 
ENDBRANCH   9  12
ENDBRANCH   3   9
ENDBRANCH   1   8
BRANCH   2  17
ATOM     17  N   UNL     1     -12.374  56.952  49.202  0.00  0.00    +0.000 N 
ATOM     18  C   UNL     1     -13.166  56.417  50.206  0.00  0.00    +0.000 C 
ATOM     19  O   UNL     1     -13.322  55.210  50.366  0.00  0.00    +0.000 OA
ATOM     20  H   UNL     1     -12.359  57.927  49.067  0.00  0.00    +0.000 HD
BRANCH  18  21
ATOM     21  C   UNL     1     -13.973  57.359  51.024  0.00  0.00    +0.000 A 
ATOM     22  C   UNL     1     -14.207  57.011  52.364  0.00  0.00    +0.000 A 
ATOM     23  C   UNL     1     -14.431  58.583  50.534  0.00  0.00    +0.000 A 
ATOM     24  C   UNL     1     -14.871  57.892  53.216  0.00  0.00    +0.000 A 
ATOM     25  C   UNL     1     -15.093  59.467  51.395  0.00  0.00    +0.000 A 
ATOM     26  C   UNL     1     -15.304  59.124  52.733  0.00  0.00    +0.000 A 
ENDBRANCH  18  21
ENDBRANCH   2  17
BRANCH   2  27
ATOM     27  C   UNL     1     -12.104  55.834  47.004  0.00  0.00    +0.000 C 
ATOM     28  O   UNL     1     -11.674  54.955  46.276  0.00  0.00    +0.000 OA
ATOM     29  OXT UNL     1     -13.107  56.670  46.649  0.00  0.00    +0.000 OA
ENDBRANCH   2  27
TORSDOF 6
ENDMDL
MODEL 4
REMARK VINA RESULT:      -8.3      1.962      2.080
REMARK  Name = 319853
REMARK  6 active torsions:
REMARK  status: ('A' for Active; 'I' for Inactive)
REMARK    1  A    between atoms: C_3  and  O_5
REMARK    2  A    between atoms: O_5  and  C_8
REMARK    3  A    between atoms: C_14  and  C_15
REMARK    4  A    between atoms: CA_16  and  N_17
REMARK    5  A    between atoms: CA_16  and  C_18
REMARK    6  A    between atoms: C_19  and  C_23
REMARK                            x       y       z     vdW  Elec       q    Type
REMARK                         _______ _______ _______ _____ _____    ______ ____
ROOT
ATOM      1  C   UNL     1      -9.002  55.566  48.186  0.00  0.00    +0.000 C 
ATOM      2  CA  UNL     1      -8.076  54.877  48.873  0.00  0.00    +0.000 C 
ENDROOT
BRANCH   1   8
ATOM      3  C   UNL     1     -13.045  56.676  48.839  0.00  0.00    +0.000 A 
ATOM      4  C   UNL     1     -12.177  56.597  49.928  0.00  0.00    +0.000 A 
ATOM      5  C   UNL     1     -12.662  56.146  47.603  0.00  0.00    +0.000 A 
ATOM      6  C   UNL     1     -10.870  56.133  49.741  0.00  0.00    +0.000 A 
ATOM      7  C   UNL     1     -11.351  55.704  47.414  0.00  0.00    +0.000 A 
ATOM      8  C   UNL     1     -10.434  55.741  48.471  0.00  0.00    +0.000 A 
BRANCH   3   9
ATOM      9  O   UNL     1     -14.255  57.313  49.027  0.00  0.00    +0.000 OA
BRANCH   9  12
ATOM     10 BR   UNL     1     -13.678  60.253  49.787  0.00  0.00    +0.000 Br
ATOM     11  C   UNL     1     -14.418  58.865  50.847  0.00  0.00    +0.000 A 
ATOM     12  C   UNL     1     -14.646  57.584  50.329  0.00  0.00    +0.000 A 
ATOM     13  C   UNL     1     -14.738  59.156  52.180  0.00  0.00    +0.000 A 
ATOM     14  C   UNL     1     -15.284  56.631  51.139  0.00  0.00    +0.000 A 
ATOM     15  C   UNL     1     -15.303  58.174  52.997  0.00  0.00    +0.000 A 
ATOM     16  C   UNL     1     -15.587  56.917  52.472  0.00  0.00    +0.000 A 
ENDBRANCH   9  12
ENDBRANCH   3   9
ENDBRANCH   1   8
BRANCH   2  17
ATOM     17  N   UNL     1      -8.254  54.304  50.123  0.00  0.00    +0.000 N 
ATOM     18  C   UNL     1      -8.755  53.018  50.258  0.00  0.00    +0.000 C 
ATOM     19  O   UNL     1      -9.168  52.356  49.312  0.00  0.00    +0.000 OA
ATOM     20  H   UNL     1      -8.022  54.819  50.928  0.00  0.00    +0.000 HD
BRANCH  18  21
ATOM     21  C   UNL     1      -8.931  52.488  51.636  0.00  0.00    +0.000 A 
ATOM     22  C   UNL     1      -7.918  51.658  52.140  0.00  0.00    +0.000 A 
ATOM     23  C   UNL     1     -10.010  52.842  52.448  0.00  0.00    +0.000 A 
ATOM     24  C   UNL     1      -7.968  51.205  53.457  0.00  0.00    +0.000 A 
ATOM     25  C   UNL     1     -10.053  52.388  53.772  0.00  0.00    +0.000 A 
ATOM     26  C   UNL     1      -9.031  51.579  54.276  0.00  0.00    +0.000 A 
ENDBRANCH  18  21
ENDBRANCH   2  17
BRANCH   2  27
ATOM     27  C   UNL     1      -6.738  54.744  48.208  0.00  0.00    +0.000 C 
ATOM     28  O   UNL     1      -6.474  53.974  47.301  0.00  0.00    +0.000 OA
ATOM     29  OXT UNL     1      -5.835  55.595  48.750  0.00  0.00    +0.000 OA
ENDBRANCH   2  27
TORSDOF 6
ENDMDL
MODEL 5
REMARK VINA RESULT:      -8.2      3.380      7.712
REMARK  Name = 319853
REMARK  6 active torsions:
REMARK  status: ('A' for Active; 'I' for Inactive)
REMARK    1  A    between atoms: C_3  and  O_5
REMARK    2  A    between atoms: O_5  and  C_8
REMARK    3  A    between atoms: C_14  and  C_15
REMARK    4  A    between atoms: CA_16  and  N_17
REMARK    5  A    between atoms: CA_16  and  C_18
REMARK    6  A    between atoms: C_19  and  C_23
REMARK                            x       y       z     vdW  Elec       q    Type
REMARK                         _______ _______ _______ _____ _____    ______ ____
ROOT
ATOM      1  C   UNL     1     -12.279  56.536  49.441  0.00  0.00    +0.000 C 
ATOM      2  CA  UNL     1     -12.588  56.408  48.140  0.00  0.00    +0.000 C 
ENDROOT
BRANCH   1   8
ATOM      3  C   UNL     1      -8.912  54.554  51.095  0.00  0.00    +0.000 A 
ATOM      4  C   UNL     1     -10.191  54.167  51.492  0.00  0.00    +0.000 A 
ATOM      5  C   UNL     1      -8.735  55.740  50.375  0.00  0.00    +0.000 A 
ATOM      6  C   UNL     1     -11.306  54.879  51.034  0.00  0.00    +0.000 A 
ATOM      7  C   UNL     1      -9.848  56.437  49.902  0.00  0.00    +0.000 A 
ATOM      8  C   UNL     1     -11.141  55.981  50.188  0.00  0.00    +0.000 A 
BRANCH   3   9
ATOM      9  O   UNL     1      -7.861  53.718  51.411  0.00  0.00    +0.000 OA
BRANCH   9  12
ATOM     10 BR   UNL     1      -4.975  54.052  50.354  0.00  0.00    +0.000 Br
ATOM     11  C   UNL     1      -5.639  54.282  52.116  0.00  0.00    +0.000 A 
ATOM     12  C   UNL     1      -6.997  54.121  52.418  0.00  0.00    +0.000 A 
ATOM     13  C   UNL     1      -4.726  54.622  53.124  0.00  0.00    +0.000 A 
ATOM     14  C   UNL     1      -7.436  54.399  53.723  0.00  0.00    +0.000 A 
ATOM     15  C   UNL     1      -5.167  54.821  54.433  0.00  0.00    +0.000 A 
ATOM     16  C   UNL     1      -6.524  54.722  54.729  0.00  0.00    +0.000 A 
ENDBRANCH   9  12
ENDBRANCH   3   9
ENDBRANCH   1   8
BRANCH   2  17
ATOM     17  N   UNL     1     -11.779  55.838  47.168  0.00  0.00    +0.000 N 
ATOM     18  C   UNL     1     -11.715  54.463  47.003  0.00  0.00    +0.000 C 
ATOM     19  O   UNL     1     -12.270  53.670  47.757  0.00  0.00    +0.000 OA
ATOM     20  H   UNL     1     -11.240  56.420  46.586  0.00  0.00    +0.000 HD
BRANCH  18  21
ATOM     21  C   UNL     1     -10.809  53.937  45.949  0.00  0.00    +0.000 A 
ATOM     22  C   UNL     1     -11.389  53.176  44.922  0.00  0.00    +0.000 A 
ATOM     23  C   UNL     1      -9.445  54.231  45.911  0.00  0.00    +0.000 A 
ATOM     24  C   UNL     1     -10.617  52.734  43.849  0.00  0.00    +0.000 A 
ATOM     25  C   UNL     1      -8.675  53.789  44.828  0.00  0.00    +0.000 A 
ATOM     26  C   UNL     1      -9.262  53.050  43.798  0.00  0.00    +0.000 A 
ENDBRANCH  18  21
ENDBRANCH   2  17
BRANCH   2  27
ATOM     27  C   UNL     1     -13.926  56.948  47.732  0.00  0.00    +0.000 C 
ATOM     28  O   UNL     1     -14.171  57.500  46.673  0.00  0.00    +0.000 OA
ATOM     29  OXT UNL     1     -14.849  56.753  48.703  0.00  0.00    +0.000 OA
ENDBRANCH   2  27
TORSDOF 6
ENDMDL
MODEL 6
REMARK VINA RESULT:      -8.2      2.139      4.850
REMARK  Name = 319853
REMARK  6 active torsions:
REMARK  status: ('A' for Active; 'I' for Inactive)
REMARK    1  A    between atoms: C_3  and  O_5
REMARK    2  A    between atoms: O_5  and  C_8
REMARK    3  A    between atoms: C_14  and  C_15
REMARK    4  A    between atoms: CA_16  and  N_17
REMARK    5  A    between atoms: CA_16  and  C_18
REMARK    6  A    between atoms: C_19  and  C_23
REMARK                            x       y       z     vdW  Elec       q    Type
REMARK                         _______ _______ _______ _____ _____    ______ ____
ROOT
ATOM      1  C   UNL     1      -7.599  55.069  49.957  0.00  0.00    +0.000 C 
ATOM      2  CA  UNL     1      -7.114  54.428  48.880  0.00  0.00    +0.000 C 
ENDROOT
BRANCH   1   8
ATOM      3  C   UNL     1     -11.762  55.759  50.404  0.00  0.00    +0.000 A 
ATOM      4  C   UNL     1     -11.006  56.639  49.631  0.00  0.00    +0.000 A 
ATOM      5  C   UNL     1     -11.120  54.827  51.227  0.00  0.00    +0.000 A 
ATOM      6  C   UNL     1      -9.617  56.483  49.559  0.00  0.00    +0.000 A 
ATOM      7  C   UNL     1      -9.737  54.659  51.138  0.00  0.00    +0.000 A 
ATOM      8  C   UNL     1      -8.984  55.454  50.265  0.00  0.00    +0.000 A 
BRANCH   3   9
ATOM      9  O   UNL     1     -13.136  55.827  50.299  0.00  0.00    +0.000 OA
BRANCH   9  12
ATOM     10 BR   UNL     1     -14.114  57.958  48.284  0.00  0.00    +0.000 Br
ATOM     11  C   UNL     1     -14.252  57.947  50.176  0.00  0.00    +0.000 A 
ATOM     12  C   UNL     1     -13.780  56.873  50.942  0.00  0.00    +0.000 A 
ATOM     13  C   UNL     1     -14.848  59.052  50.798  0.00  0.00    +0.000 A 
ATOM     14  C   UNL     1     -13.999  56.886  52.329  0.00  0.00    +0.000 A 
ATOM     15  C   UNL     1     -14.990  59.083  52.186  0.00  0.00    +0.000 A 
ATOM     16  C   UNL     1     -14.578  57.995  52.950  0.00  0.00    +0.000 A 
ENDBRANCH   9  12
ENDBRANCH   3   9
ENDBRANCH   1   8
BRANCH   2  17
ATOM     17  N   UNL     1      -7.870  53.836  47.880  0.00  0.00    +0.000 N 
ATOM     18  C   UNL     1      -8.236  54.542  46.744  0.00  0.00    +0.000 C 
ATOM     19  O   UNL     1      -8.016  55.740  46.598  0.00  0.00    +0.000 OA
ATOM     20  H   UNL     1      -8.154  52.899  47.979  0.00  0.00    +0.000 HD
BRANCH  18  21
ATOM     21  C   UNL     1      -9.063  53.835  45.731  0.00  0.00    +0.000 A 
ATOM     22  C   UNL     1     -10.457  53.909  45.873  0.00  0.00    +0.000 A 
ATOM     23  C   UNL     1      -8.509  53.178  44.630  0.00  0.00    +0.000 A 
ATOM     24  C   UNL     1     -11.295  53.354  44.906  0.00  0.00    +0.000 A 
ATOM     25  C   UNL     1      -9.355  52.627  43.660  0.00  0.00    +0.000 A 
ATOM     26  C   UNL     1     -10.742  52.722  43.795  0.00  0.00    +0.000 A 
ENDBRANCH  18  21
ENDBRANCH   2  17
BRANCH   2  27
ATOM     27  C   UNL     1      -5.619  54.353  48.787  0.00  0.00    +0.000 C 
ATOM     28  O   UNL     1      -4.970  53.328  48.664  0.00  0.00    +0.000 OA
ATOM     29  OXT UNL     1      -5.061  55.584  48.863  0.00  0.00    +0.000 OA
ENDBRANCH   2  27
TORSDOF 6
ENDMDL
MODEL 7
REMARK VINA RESULT:      -8.1      3.512      6.995
REMARK  Name = 319853
REMARK  6 active torsions:
REMARK  status: ('A' for Active; 'I' for Inactive)
REMARK    1  A    between atoms: C_3  and  O_5
REMARK    2  A    between atoms: O_5  and  C_8
REMARK    3  A    between atoms: C_14  and  C_15
REMARK    4  A    between atoms: CA_16  and  N_17
REMARK    5  A    between atoms: CA_16  and  C_18
REMARK    6  A    between atoms: C_19  and  C_23
REMARK                            x       y       z     vdW  Elec       q    Type
REMARK                         _______ _______ _______ _____ _____    ______ ____
ROOT
ATOM      1  C   UNL     1     -13.444  55.437  49.790  0.00  0.00    +0.000 C 
ATOM      2  CA  UNL     1     -13.019  55.931  50.965  0.00  0.00    +0.000 C 
ENDROOT
BRANCH   1   8
ATOM      3  C   UNL     1     -10.692  54.526  46.693  0.00  0.00    +0.000 A 
ATOM      4  C   UNL     1     -11.489  55.664  46.581  0.00  0.00    +0.000 A 
ATOM      5  C   UNL     1     -10.980  53.567  47.669  0.00  0.00    +0.000 A 
ATOM      6  C   UNL     1     -12.472  55.921  47.544  0.00  0.00    +0.000 A 
ATOM      7  C   UNL     1     -11.946  53.835  48.641  0.00  0.00    +0.000 A 
ATOM      8  C   UNL     1     -12.663  55.037  48.610  0.00  0.00    +0.000 A 
BRANCH   3   9
ATOM      9  O   UNL     1      -9.616  54.408  45.837  0.00  0.00    +0.000 OA
BRANCH   9  12
ATOM     10 BR   UNL     1      -7.179  52.694  46.663  0.00  0.00    +0.000 Br
ATOM     11  C   UNL     1      -8.451  52.384  45.290  0.00  0.00    +0.000 A 
ATOM     12  C   UNL     1      -9.525  53.256  45.071  0.00  0.00    +0.000 A 
ATOM     13  C   UNL     1      -8.290  51.246  44.488  0.00  0.00    +0.000 A 
ATOM     14  C   UNL     1     -10.482  52.917  44.101  0.00  0.00    +0.000 A 
ATOM     15  C   UNL     1      -9.209  50.963  43.477  0.00  0.00    +0.000 A 
ATOM     16  C   UNL     1     -10.312  51.791  43.292  0.00  0.00    +0.000 A 
ENDBRANCH   9  12
ENDBRANCH   3   9
ENDBRANCH   1   8
BRANCH   2  17
ATOM     17  N   UNL     1     -11.698  56.018  51.377  0.00  0.00    +0.000 N 
ATOM     18  C   UNL     1     -11.078  54.962  52.026  0.00  0.00    +0.000 C 
ATOM     19  O   UNL     1     -11.670  53.945  52.372  0.00  0.00    +0.000 OA
ATOM     20  H   UNL     1     -11.192  56.844  51.205  0.00  0.00    +0.000 HD
BRANCH  18  21
ATOM     21  C   UNL     1      -9.664  55.147  52.449  0.00  0.00    +0.000 A 
ATOM     22  C   UNL     1      -8.759  55.610  51.481  0.00  0.00    +0.000 A 
ATOM     23  C   UNL     1      -9.237  54.949  53.763  0.00  0.00    +0.000 A 
ATOM     24  C   UNL     1      -7.441  55.901  51.830  0.00  0.00    +0.000 A 
ATOM     25  C   UNL     1      -7.913  55.246  54.109  0.00  0.00    +0.000 A 
ATOM     26  C   UNL     1      -7.022  55.728  53.147  0.00  0.00    +0.000 A 
ENDBRANCH  18  21
ENDBRANCH   2  17
BRANCH   2  27
ATOM     27  C   UNL     1     -14.092  56.414  51.895  0.00  0.00    +0.000 C 
ATOM     28  O   UNL     1     -15.268  56.095  51.841  0.00  0.00    +0.000 OA
ATOM     29  OXT UNL     1     -13.593  57.270  52.817  0.00  0.00    +0.000 OA
ENDBRANCH   2  27
TORSDOF 6
ENDMDL
MODEL 8
REMARK VINA RESULT:      -8.0      3.117      8.022
REMARK  Name = 319853
REMARK  6 active torsions:
REMARK  status: ('A' for Active; 'I' for Inactive)
REMARK    1  A    between atoms: C_3  and  O_5
REMARK    2  A    between atoms: O_5  and  C_8
REMARK    3  A    between atoms: C_14  and  C_15
REMARK    4  A    between atoms: CA_16  and  N_17
REMARK    5  A    between atoms: CA_16  and  C_18
REMARK    6  A    between atoms: C_19  and  C_23
REMARK                            x       y       z     vdW  Elec       q    Type
REMARK                         _______ _______ _______ _____ _____    ______ ____
ROOT
ATOM      1  C   UNL     1     -10.533  55.533  48.522  0.00  0.00    +0.000 C 
ATOM      2  CA  UNL     1     -11.674  56.209  48.305  0.00  0.00    +0.000 C 
ENDROOT
BRANCH   1   8
ATOM      3  C   UNL     1      -7.486  55.394  51.471  0.00  0.00    +0.000 A 
ATOM      4  C   UNL     1      -8.524  54.465  51.522  0.00  0.00    +0.000 A 
ATOM      5  C   UNL     1      -7.589  56.507  50.630  0.00  0.00    +0.000 A 
ATOM      6  C   UNL     1      -9.589  54.562  50.618  0.00  0.00    +0.000 A 
ATOM      7  C   UNL     1      -8.640  56.591  49.715  0.00  0.00    +0.000 A 
ATOM      8  C   UNL     1      -9.620  55.592  49.672  0.00  0.00    +0.000 A 
BRANCH   3   9
ATOM      9  O   UNL     1      -6.370  55.154  52.246  0.00  0.00    +0.000 OA
BRANCH   9  12
ATOM     10 BR   UNL     1      -6.230  53.068  54.524  0.00  0.00    +0.000 Br
ATOM     11  C   UNL     1      -5.360  53.061  52.839  0.00  0.00    +0.000 A 
ATOM     12  C   UNL     1      -5.564  54.081  51.900  0.00  0.00    +0.000 A 
ATOM     13  C   UNL     1      -4.498  51.995  52.549  0.00  0.00    +0.000 A 
ATOM     14  C   UNL     1      -4.963  53.965  50.636  0.00  0.00    +0.000 A 
ATOM     15  C   UNL     1      -3.848  51.933  51.315  0.00  0.00    +0.000 A 
ATOM     16  C   UNL     1      -4.091  52.911  50.354  0.00  0.00    +0.000 A 
ENDBRANCH   9  12
ENDBRANCH   3   9
ENDBRANCH   1   8
BRANCH   2  17
ATOM     17  N   UNL     1     -12.328  57.011  49.228  0.00  0.00    +0.000 N 
ATOM     18  C   UNL     1     -13.233  56.475  50.131  0.00  0.00    +0.000 C 
ATOM     19  O   UNL     1     -13.593  55.302  50.106  0.00  0.00    +0.000 OA
ATOM     20  H   UNL     1     -12.148  57.978  49.241  0.00  0.00    +0.000 HD
BRANCH  18  21
ATOM     21  C   UNL     1     -13.902  57.410  51.073  0.00  0.00    +0.000 A 
ATOM     22  C   UNL     1     -14.384  58.619  50.547  0.00  0.00    +0.000 A 
ATOM     23  C   UNL     1     -14.124  57.098  52.416  0.00  0.00    +0.000 A 
ATOM     24  C   UNL     1     -15.108  59.499  51.350  0.00  0.00    +0.000 A 
ATOM     25  C   UNL     1     -14.855  57.983  53.217  0.00  0.00    +0.000 A 
ATOM     26  C   UNL     1     -15.351  59.175  52.683  0.00  0.00    +0.000 A 
ENDBRANCH  18  21
ENDBRANCH   2  17
BRANCH   2  27
ATOM     27  C   UNL     1     -12.273  56.053  46.939  0.00  0.00    +0.000 C 
ATOM     28  O   UNL     1     -12.000  55.168  46.146  0.00  0.00    +0.000 OA
ATOM     29  OXT UNL     1     -13.168  57.036  46.681  0.00  0.00    +0.000 OA
ENDBRANCH   2  27
TORSDOF 6
ENDMDL
MODEL 9
REMARK VINA RESULT:      -7.7      3.468      8.115
REMARK  Name = 319853
REMARK  6 active torsions:
REMARK  status: ('A' for Active; 'I' for Inactive)
REMARK    1  A    between atoms: C_3  and  O_5
REMARK    2  A    between atoms: O_5  and  C_8
REMARK    3  A    between atoms: C_14  and  C_15
REMARK    4  A    between atoms: CA_16  and  N_17
REMARK    5  A    between atoms: CA_16  and  C_18
REMARK    6  A    between atoms: C_19  and  C_23
REMARK                            x       y       z     vdW  Elec       q    Type
REMARK                         _______ _______ _______ _____ _____    ______ ____
ROOT
ATOM      1  C   UNL     1     -11.809  56.757  49.220  0.00  0.00    +0.000 C 
ATOM      2  CA  UNL     1     -12.658  56.118  48.398  0.00  0.00    +0.000 C 
ENDROOT
BRANCH   1   8
ATOM      3  C   UNL     1      -8.260  55.836  51.355  0.00  0.00    +0.000 A 
ATOM      4  C   UNL     1      -8.178  56.626  50.209  0.00  0.00    +0.000 A 
ATOM      5  C   UNL     1      -9.442  55.146  51.642  0.00  0.00    +0.000 A 
ATOM      6  C   UNL     1      -9.325  56.852  49.438  0.00  0.00    +0.000 A 
ATOM      7  C   UNL     1     -10.589  55.389  50.886  0.00  0.00    +0.000 A 
ATOM      8  C   UNL     1     -10.548  56.282  49.808  0.00  0.00    +0.000 A 
BRANCH   3   9
ATOM      9  O   UNL     1      -7.159  55.793  52.186  0.00  0.00    +0.000 OA
BRANCH   9  12
ATOM     10 BR   UNL     1      -6.192  54.382  54.761  0.00  0.00    +0.000 Br
ATOM     11  C   UNL     1      -5.602  54.148  52.974  0.00  0.00    +0.000 A 
ATOM     12  C   UNL     1      -6.179  54.853  51.909  0.00  0.00    +0.000 A 
ATOM     13  C   UNL     1      -4.561  53.240  52.738  0.00  0.00    +0.000 A 
ATOM     14  C   UNL     1      -5.760  54.563  50.601  0.00  0.00    +0.000 A 
ATOM     15  C   UNL     1      -4.103  53.018  51.439  0.00  0.00    +0.000 A 
ATOM     16  C   UNL     1      -4.711  53.669  50.370  0.00  0.00    +0.000 A 
ENDBRANCH   9  12
ENDBRANCH   3   9
ENDBRANCH   1   8
BRANCH   2  17
ATOM     17  N   UNL     1     -12.428  54.895  47.787  0.00  0.00    +0.000 N 
ATOM     18  C   UNL     1     -11.831  54.817  46.539  0.00  0.00    +0.000 C 
ATOM     19  O   UNL     1     -11.570  55.803  45.856  0.00  0.00    +0.000 OA
ATOM     20  H   UNL     1     -12.695  54.068  48.247  0.00  0.00    +0.000 HD
BRANCH  18  21
ATOM     21  C   UNL     1     -11.638  53.466  45.950  0.00  0.00    +0.000 A 
ATOM     22  C   UNL     1     -12.194  52.378  46.641  0.00  0.00    +0.000 A 
ATOM     23  C   UNL     1     -10.999  53.260  44.726  0.00  0.00    +0.000 A 
ATOM     24  C   UNL     1     -12.138  51.095  46.098  0.00  0.00    +0.000 A 
ATOM     25  C   UNL     1     -10.950  51.970  44.183  0.00  0.00    +0.000 A 
ATOM     26  C   UNL     1     -11.524  50.894  44.864  0.00  0.00    +0.000 A 
ENDBRANCH  18  21
ENDBRANCH   2  17
BRANCH   2  27
ATOM     27  C   UNL     1     -13.955  56.821  48.128  0.00  0.00    +0.000 C 
ATOM     28  O   UNL     1     -14.297  57.284  47.054  0.00  0.00    +0.000 OA
ATOM     29  OXT UNL     1     -14.717  56.889  49.246  0.00  0.00    +0.000 OA
ENDBRANCH   2  27
TORSDOF 6
ENDMDL
