MODEL 1
REMARK VINA RESULT:      -8.7      0.000      0.000
REMARK  Name = 319853
REMARK  6 active torsions:
REMARK  status: ('A' for Active; 'I' for Inactive)
REMARK    1  A    between atoms: C_3  and  O_5
REMARK    2  A    between atoms: O_5  and  C_8
REMARK    3  A    between atoms: C_14  and  C_15
REMARK    4  A    between atoms: CA_16  and  N_17
REMARK    5  A    between atoms: CA_16  and  C_18
REMARK    6  A    between atoms: C_19  and  C_23
REMARK                            x       y       z     vdW  Elec       q    Type
REMARK                         _______ _______ _______ _____ _____    ______ ____
ROOT
ATOM      1  C   UNL     1      -9.062  55.300  47.486  0.00  0.00    +0.000 C 
ATOM      2  CA  UNL     1      -7.984  54.765  48.089  0.00  0.00    +0.000 C 
ENDROOT
BRANCH   1   8
ATOM      3  C   UNL     1     -12.901  56.655  48.686  0.00  0.00    +0.000 A 
ATOM      4  C   UNL     1     -11.795  56.954  49.481  0.00  0.00    +0.000 A 
ATOM      5  C   UNL     1     -12.787  55.710  47.661  0.00  0.00    +0.000 A 
ATOM      6  C   UNL     1     -10.540  56.428  49.153  0.00  0.00    +0.000 A 
ATOM      7  C   UNL     1     -11.528  55.203  47.321  0.00  0.00    +0.000 A 
ATOM      8  C   UNL     1     -10.391  55.596  48.037  0.00  0.00    +0.000 A 
BRANCH   3   9
ATOM      9  O   UNL     1     -14.072  57.341  48.932  0.00  0.00    +0.000 OA
BRANCH   9  12
ATOM     10 BR   UNL     1     -13.627  60.282  49.777  0.00  0.00    +0.000 Br
ATOM     11  C   UNL     1     -14.254  58.821  50.812  0.00  0.00    +0.000 A 
ATOM     12  C   UNL     1     -14.433  57.548  50.254  0.00  0.00    +0.000 A 
ATOM     13  C   UNL     1     -14.539  59.047  52.164  0.00  0.00    +0.000 A 
ATOM     14  C   UNL     1     -14.994  56.535  51.050  0.00  0.00    +0.000 A 
ATOM     15  C   UNL     1     -15.023  58.008  52.963  0.00  0.00    +0.000 A 
ATOM     16  C   UNL     1     -15.262  56.758  52.402  0.00  0.00    +0.000 A 
ENDBRANCH   9  12
ENDBRANCH   3   9
ENDBRANCH   1   8
BRANCH   2  17
ATOM     17  N   UNL     1      -7.847  54.523  49.448  0.00  0.00    +0.000 N 
ATOM     18  C   UNL     1      -7.319  55.474  50.301  0.00  0.00    +0.000 C 
ATOM     19  O   UNL     1      -6.838  56.535  49.915  0.00  0.00    +0.000 OA
ATOM     20  H   UNL     1      -8.134  53.654  49.813  0.00  0.00    +0.000 HD
BRANCH  18  21
ATOM     21  C   UNL     1      -7.207  55.120  51.736  0.00  0.00    +0.000 A 
ATOM     22  C   UNL     1      -6.042  54.459  52.154  0.00  0.00    +0.000 A 
ATOM     23  C   UNL     1      -8.179  55.475  52.680  0.00  0.00    +0.000 A 
ATOM     24  C   UNL     1      -5.832  54.179  53.502  0.00  0.00    +0.000 A 
ATOM     25  C   UNL     1      -7.961  55.196  54.032  0.00  0.00    +0.000 A 
ATOM     26  C   UNL     1      -6.787  54.558  54.443  0.00  0.00    +0.000 A 
ENDBRANCH  18  21
ENDBRANCH   2  17
BRANCH   2  27
ATOM     27  C   UNL     1      -6.845  54.409  47.181  0.00  0.00    +0.000 C 
ATOM     28  O   UNL     1      -5.701  54.183  47.536  0.00  0.00    +0.000 OA
ATOM     29  OXT UNL     1      -7.244  54.377  45.887  0.00  0.00    +0.000 OA
ENDBRANCH   2  27
TORSDOF 6
ENDMDL
MODEL 2
REMARK VINA RESULT:      -8.5      1.518      1.843
REMARK  Name = 319853
REMARK  6 active torsions:
REMARK  status: ('A' for Active; 'I' for Inactive)
REMARK    1  A    between atoms: C_3  and  O_5
REMARK    2  A    between atoms: O_5  and  C_8
REMARK    3  A    between atoms: C_14  and  C_15
REMARK    4  A    between atoms: CA_16  and  N_17
REMARK    5  A    between atoms: CA_16  and  C_18
REMARK    6  A    between atoms: C_19  and  C_23
REMARK                            x       y       z     vdW  Elec       q    Type
REMARK                         _______ _______ _______ _____ _____    ______ ____
ROOT
ATOM      1  C   UNL     1      -9.071  55.557  47.999  0.00  0.00    +0.000 C 
ATOM      2  CA  UNL     1      -8.175  54.703  48.530  0.00  0.00    +0.000 C 
ENDROOT
BRANCH   1   8
ATOM      3  C   UNL     1     -13.088  56.695  48.756  0.00  0.00    +0.000 A 
ATOM      4  C   UNL     1     -12.193  56.612  49.822  0.00  0.00    +0.000 A 
ATOM      5  C   UNL     1     -12.740  56.162  47.511  0.00  0.00    +0.000 A 
ATOM      6  C   UNL     1     -10.893  56.139  49.603  0.00  0.00    +0.000 A 
ATOM      7  C   UNL     1     -11.435  55.712  47.288  0.00  0.00    +0.000 A 
ATOM      8  C   UNL     1     -10.491  55.742  48.322  0.00  0.00    +0.000 A 
BRANCH   3   9
ATOM      9  O   UNL     1     -14.289  57.339  48.975  0.00  0.00    +0.000 OA
BRANCH   9  12
ATOM     10 BR   UNL     1     -13.646  60.257  49.772  0.00  0.00    +0.000 Br
ATOM     11  C   UNL     1     -14.390  58.865  50.824  0.00  0.00    +0.000 A 
ATOM     12  C   UNL     1     -14.652  57.598  50.287  0.00  0.00    +0.000 A 
ATOM     13  C   UNL     1     -14.677  59.138  52.167  0.00  0.00    +0.000 A 
ATOM     14  C   UNL     1     -15.294  56.644  51.094  0.00  0.00    +0.000 A 
ATOM     15  C   UNL     1     -15.244  58.153  52.978  0.00  0.00    +0.000 A 
ATOM     16  C   UNL     1     -15.564  56.912  52.437  0.00  0.00    +0.000 A 
ENDBRANCH   9  12
ENDBRANCH   3   9
ENDBRANCH   1   8
BRANCH   2  17
ATOM     17  N   UNL     1      -8.373  53.904  49.646  0.00  0.00    +0.000 N 
ATOM     18  C   UNL     1      -8.196  54.395  50.926  0.00  0.00    +0.000 C 
ATOM     19  O   UNL     1      -7.750  55.514  51.165  0.00  0.00    +0.000 OA
ATOM     20  H   UNL     1      -8.648  52.967  49.524  0.00  0.00    +0.000 HD
BRANCH  18  21
ATOM     21  C   UNL     1      -8.426  53.463  52.055  0.00  0.00    +0.000 A 
ATOM     22  C   UNL     1      -9.647  53.557  52.739  0.00  0.00    +0.000 A 
ATOM     23  C   UNL     1      -7.506  52.468  52.412  0.00  0.00    +0.000 A 
ATOM     24  C   UNL     1      -9.964  52.652  53.749  0.00  0.00    +0.000 A 
ATOM     25  C   UNL     1      -7.832  51.559  53.424  0.00  0.00    +0.000 A 
ATOM     26  C   UNL     1      -9.060  51.646  54.084  0.00  0.00    +0.000 A 
ENDBRANCH  18  21
ENDBRANCH   2  17
BRANCH   2  27
ATOM     27  C   UNL     1      -6.852  54.634  47.827  0.00  0.00    +0.000 C 
ATOM     28  O   UNL     1      -6.620  53.990  46.818  0.00  0.00    +0.000 OA
ATOM     29  OXT UNL     1      -5.920  55.381  48.465  0.00  0.00    +0.000 OA
ENDBRANCH   2  27
TORSDOF 6
ENDMDL
MODEL 3
REMARK VINA RESULT:      -8.4      2.547      5.147
REMARK  Name = 319853
REMARK  6 active torsions:
REMARK  status: ('A' for Active; 'I' for Inactive)
REMARK    1  A    between atoms: C_3  and  O_5
REMARK    2  A    between atoms: O_5  and  C_8
REMARK    3  A    between atoms: C_14  and  C_15
REMARK    4  A    between atoms: CA_16  and  N_17
REMARK    5  A    between atoms: CA_16  and  C_18
REMARK    6  A    between atoms: C_19  and  C_23
REMARK                            x       y       z     vdW  Elec       q    Type
REMARK                         _______ _______ _______ _____ _____    ______ ____
ROOT
ATOM      1  C   UNL     1      -8.763  55.181  48.682  0.00  0.00    +0.000 C 
ATOM      2  CA  UNL     1      -8.069  54.482  47.764  0.00  0.00    +0.000 C 
ENDROOT
BRANCH   1   8
ATOM      3  C   UNL     1     -12.773  56.553  48.886  0.00  0.00    +0.000 A 
ATOM      4  C   UNL     1     -12.120  56.183  50.061  0.00  0.00    +0.000 A 
ATOM      5  C   UNL     1     -12.212  56.230  47.647  0.00  0.00    +0.000 A 
ATOM      6  C   UNL     1     -10.835  55.633  50.000  0.00  0.00    +0.000 A 
ATOM      7  C   UNL     1     -10.919  55.700  47.587  0.00  0.00    +0.000 A 
ATOM      8  C   UNL     1     -10.205  55.443  48.763  0.00  0.00    +0.000 A 
BRANCH   3   9
ATOM      9  O   UNL     1     -13.952  57.261  49.001  0.00  0.00    +0.000 OA
BRANCH   9  12
ATOM     10 BR   UNL     1     -13.479  60.210  49.803  0.00  0.00    +0.000 Br
ATOM     11  C   UNL     1     -14.252  58.804  50.815  0.00  0.00    +0.000 A 
ATOM     12  C   UNL     1     -14.425  57.521  50.278  0.00  0.00    +0.000 A 
ATOM     13  C   UNL     1     -14.652  59.081  52.128  0.00  0.00    +0.000 A 
ATOM     14  C   UNL     1     -15.094  56.553  51.046  0.00  0.00    +0.000 A 
ATOM     15  C   UNL     1     -15.245  58.085  52.906  0.00  0.00    +0.000 A 
ATOM     16  C   UNL     1     -15.477  56.827  52.360  0.00  0.00    +0.000 A 
ENDBRANCH   9  12
ENDBRANCH   3   9
ENDBRANCH   1   8
BRANCH   2  17
ATOM     17  N   UNL     1      -8.611  53.699  46.756  0.00  0.00    +0.000 N 
ATOM     18  C   UNL     1      -8.440  54.021  45.422  0.00  0.00    +0.000 C 
ATOM     19  O   UNL     1      -7.908  55.059  45.040  0.00  0.00    +0.000 OA
ATOM     20  H   UNL     1      -9.127  52.896  46.995  0.00  0.00    +0.000 HD
BRANCH  18  21
ATOM     21  C   UNL     1      -9.063  53.126  44.417  0.00  0.00    +0.000 A 
ATOM     22  C   UNL     1      -8.541  53.149  43.115  0.00  0.00    +0.000 A 
ATOM     23  C   UNL     1     -10.092  52.232  44.737  0.00  0.00    +0.000 A 
ATOM     24  C   UNL     1      -9.019  52.268  42.147  0.00  0.00    +0.000 A 
ATOM     25  C   UNL     1     -10.564  51.347  43.762  0.00  0.00    +0.000 A 
ATOM     26  C   UNL     1     -10.023  51.360  42.473  0.00  0.00    +0.000 A 
ENDBRANCH  18  21
ENDBRANCH   2  17
BRANCH   2  27
ATOM     27  C   UNL     1      -6.576  54.581  47.869  0.00  0.00    +0.000 C 
ATOM     28  O   UNL     1      -5.778  53.831  47.333  0.00  0.00    +0.000 OA
ATOM     29  OXT UNL     1      -6.209  55.621  48.656  0.00  0.00    +0.000 OA
ENDBRANCH   2  27
TORSDOF 6
ENDMDL
MODEL 4
REMARK VINA RESULT:      -8.4      3.365      7.659
REMARK  Name = 319853
REMARK  6 active torsions:
REMARK  status: ('A' for Active; 'I' for Inactive)
REMARK    1  A    between atoms: C_3  and  O_5
REMARK    2  A    between atoms: O_5  and  C_8
REMARK    3  A    between atoms: C_14  and  C_15
REMARK    4  A    between atoms: CA_16  and  N_17
REMARK    5  A    between atoms: CA_16  and  C_18
REMARK    6  A    between atoms: C_19  and  C_23
REMARK                            x       y       z     vdW  Elec       q    Type
REMARK                         _______ _______ _______ _____ _____    ______ ____
ROOT
ATOM      1  C   UNL     1     -12.243  56.672  49.337  0.00  0.00    +0.000 C 
ATOM      2  CA  UNL     1     -12.597  56.521  48.047  0.00  0.00    +0.000 C 
ENDROOT
BRANCH   1   8
ATOM      3  C   UNL     1      -8.863  54.688  50.966  0.00  0.00    +0.000 A 
ATOM      4  C   UNL     1     -10.117  54.476  51.538  0.00  0.00    +0.000 A 
ATOM      5  C   UNL     1      -8.683  55.729  50.050  0.00  0.00    +0.000 A 
ATOM      6  C   UNL     1     -11.223  55.201  51.078  0.00  0.00    +0.000 A 
ATOM      7  C   UNL     1      -9.792  56.437  49.575  0.00  0.00    +0.000 A 
ATOM      8  C   UNL     1     -11.074  56.144  50.054  0.00  0.00    +0.000 A 
BRANCH   3   9
ATOM      9  O   UNL     1      -7.844  53.825  51.314  0.00  0.00    +0.000 OA
BRANCH   9  12
ATOM     10 BR   UNL     1      -4.913  54.093  50.366  0.00  0.00    +0.000 Br
ATOM     11  C   UNL     1      -5.635  54.327  52.105  0.00  0.00    +0.000 A 
ATOM     12  C   UNL     1      -7.008  54.202  52.354  0.00  0.00    +0.000 A 
ATOM     13  C   UNL     1      -4.752  54.634  53.148  0.00  0.00    +0.000 A 
ATOM     14  C   UNL     1      -7.488  54.485  53.643  0.00  0.00    +0.000 A 
ATOM     15  C   UNL     1      -5.237  54.836  54.441  0.00  0.00    +0.000 A 
ATOM     16  C   UNL     1      -6.605  54.774  54.685  0.00  0.00    +0.000 A 
ENDBRANCH   9  12
ENDBRANCH   3   9
ENDBRANCH   1   8
BRANCH   2  17
ATOM     17  N   UNL     1     -11.821  55.950  47.051  0.00  0.00    +0.000 N 
ATOM     18  C   UNL     1     -11.734  54.579  46.899  0.00  0.00    +0.000 C 
ATOM     19  O   UNL     1     -12.234  53.779  47.685  0.00  0.00    +0.000 OA
ATOM     20  H   UNL     1     -11.321  56.535  46.436  0.00  0.00    +0.000 HD
BRANCH  18  21
ATOM     21  C   UNL     1     -10.873  54.063  45.808  0.00  0.00    +0.000 A 
ATOM     22  C   UNL     1      -9.495  54.312  45.894  0.00  0.00    +0.000 A 
ATOM     23  C   UNL     1     -11.376  53.295  44.749  0.00  0.00    +0.000 A 
ATOM     24  C   UNL     1      -8.620  53.777  44.951  0.00  0.00    +0.000 A 
ATOM     25  C   UNL     1     -10.492  52.758  43.808  0.00  0.00    +0.000 A 
ATOM     26  C   UNL     1      -9.118  52.991  43.914  0.00  0.00    +0.000 A 
ENDBRANCH  18  21
ENDBRANCH   2  17
BRANCH   2  27
ATOM     27  C   UNL     1     -13.963  57.026  47.689  0.00  0.00    +0.000 C 
ATOM     28  O   UNL     1     -14.260  57.588  46.648  0.00  0.00    +0.000 OA
ATOM     29  OXT UNL     1     -14.849  56.790  48.687  0.00  0.00    +0.000 OA
ENDBRANCH   2  27
TORSDOF 6
ENDMDL
MODEL 5
REMARK VINA RESULT:      -8.3      3.094      7.974
REMARK  Name = 319853
REMARK  6 active torsions:
REMARK  status: ('A' for Active; 'I' for Inactive)
REMARK    1  A    between atoms: C_3  and  O_5
REMARK    2  A    between atoms: O_5  and  C_8
REMARK    3  A    between atoms: C_14  and  C_15
REMARK    4  A    between atoms: CA_16  and  N_17
REMARK    5  A    between atoms: CA_16  and  C_18
REMARK    6  A    between atoms: C_19  and  C_23
REMARK                            x       y       z     vdW  Elec       q    Type
REMARK                         _______ _______ _______ _____ _____    ______ ____
ROOT
ATOM      1  C   UNL     1     -10.573  55.663  48.583  0.00  0.00    +0.000 C 
ATOM      2  CA  UNL     1     -11.744  56.287  48.356  0.00  0.00    +0.000 C 
ENDROOT
BRANCH   1   8
ATOM      3  C   UNL     1      -7.542  55.627  51.553  0.00  0.00    +0.000 A 
ATOM      4  C   UNL     1      -8.623  54.755  51.674  0.00  0.00    +0.000 A 
ATOM      5  C   UNL     1      -7.588  56.668  50.620  0.00  0.00    +0.000 A 
ATOM      6  C   UNL     1      -9.680  54.826  50.759  0.00  0.00    +0.000 A 
ATOM      7  C   UNL     1      -8.633  56.724  49.693  0.00  0.00    +0.000 A 
ATOM      8  C   UNL     1      -9.662  55.775  49.729  0.00  0.00    +0.000 A 
BRANCH   3   9
ATOM      9  O   UNL     1      -6.441  55.400  52.353  0.00  0.00    +0.000 OA
BRANCH   9  12
ATOM     10 BR   UNL     1      -6.257  53.412  54.714  0.00  0.00    +0.000 Br
ATOM     11  C   UNL     1      -5.405  53.341  53.021  0.00  0.00    +0.000 A 
ATOM     12  C   UNL     1      -5.631  54.318  52.043  0.00  0.00    +0.000 A 
ATOM     13  C   UNL     1      -4.535  52.274  52.767  0.00  0.00    +0.000 A 
ATOM     14  C   UNL     1      -5.046  54.153  50.776  0.00  0.00    +0.000 A 
ATOM     15  C   UNL     1      -3.899  52.166  51.528  0.00  0.00    +0.000 A 
ATOM     16  C   UNL     1      -4.166  53.098  50.530  0.00  0.00    +0.000 A 
ENDBRANCH   9  12
ENDBRANCH   3   9
ENDBRANCH   1   8
BRANCH   2  17
ATOM     17  N   UNL     1     -12.440  57.070  49.264  0.00  0.00    +0.000 N 
ATOM     18  C   UNL     1     -13.233  56.504  50.246  0.00  0.00    +0.000 C 
ATOM     19  O   UNL     1     -13.466  55.301  50.316  0.00  0.00    +0.000 OA
ATOM     20  H   UNL     1     -12.367  58.050  49.210  0.00  0.00    +0.000 HD
BRANCH  18  21
ATOM     21  C   UNL     1     -13.943  57.424  51.167  0.00  0.00    +0.000 A 
ATOM     22  C   UNL     1     -14.417  58.634  50.640  0.00  0.00    +0.000 A 
ATOM     23  C   UNL     1     -14.205  57.099  52.504  0.00  0.00    +0.000 A 
ATOM     24  C   UNL     1     -15.171  59.501  51.427  0.00  0.00    +0.000 A 
ATOM     25  C   UNL     1     -14.967  57.971  53.288  0.00  0.00    +0.000 A 
ATOM     26  C   UNL     1     -15.455  59.164  52.749  0.00  0.00    +0.000 A 
ENDBRANCH  18  21
ENDBRANCH   2  17
BRANCH   2  27
ATOM     27  C   UNL     1     -12.322  56.097  46.985  0.00  0.00    +0.000 C 
ATOM     28  O   UNL     1     -11.889  55.340  46.133  0.00  0.00    +0.000 OA
ATOM     29  OXT UNL     1     -13.402  56.893  46.795  0.00  0.00    +0.000 OA
ENDBRANCH   2  27
TORSDOF 6
ENDMDL
MODEL 6
REMARK VINA RESULT:      -8.2      2.130      4.862
REMARK  Name = 319853
REMARK  6 active torsions:
REMARK  status: ('A' for Active; 'I' for Inactive)
REMARK    1  A    between atoms: C_3  and  O_5
REMARK    2  A    between atoms: O_5  and  C_8
REMARK    3  A    between atoms: C_14  and  C_15
REMARK    4  A    between atoms: CA_16  and  N_17
REMARK    5  A    between atoms: CA_16  and  C_18
REMARK    6  A    between atoms: C_19  and  C_23
REMARK                            x       y       z     vdW  Elec       q    Type
REMARK                         _______ _______ _______ _____ _____    ______ ____
ROOT
ATOM      1  C   UNL     1      -7.628  55.155  49.884  0.00  0.00    +0.000 C 
ATOM      2  CA  UNL     1      -7.155  54.490  48.814  0.00  0.00    +0.000 C 
ENDROOT
BRANCH   1   8
ATOM      3  C   UNL     1     -11.780  55.856  50.410  0.00  0.00    +0.000 A 
ATOM      4  C   UNL     1     -11.062  56.657  49.523  0.00  0.00    +0.000 A 
ATOM      5  C   UNL     1     -11.099  55.018  51.299  0.00  0.00    +0.000 A 
ATOM      6  C   UNL     1      -9.675  56.506  49.415  0.00  0.00    +0.000 A 
ATOM      7  C   UNL     1      -9.716  54.851  51.175  0.00  0.00    +0.000 A 
ATOM      8  C   UNL     1      -9.003  55.561  50.200  0.00  0.00    +0.000 A 
BRANCH   3   9
ATOM      9  O   UNL     1     -13.158  55.904  50.348  0.00  0.00    +0.000 OA
BRANCH   9  12
ATOM     10 BR   UNL     1     -14.093  58.093  48.375  0.00  0.00    +0.000 Br
ATOM     11  C   UNL     1     -14.247  58.040  50.264  0.00  0.00    +0.000 A 
ATOM     12  C   UNL     1     -13.797  56.942  51.008  0.00  0.00    +0.000 A 
ATOM     13  C   UNL     1     -14.831  59.138  50.907  0.00  0.00    +0.000 A 
ATOM     14  C   UNL     1     -14.030  56.924  52.394  0.00  0.00    +0.000 A 
ATOM     15  C   UNL     1     -14.985  59.139  52.295  0.00  0.00    +0.000 A 
ATOM     16  C   UNL     1     -14.597  58.026  53.035  0.00  0.00    +0.000 A 
ENDBRANCH   9  12
ENDBRANCH   3   9
ENDBRANCH   1   8
BRANCH   2  17
ATOM     17  N   UNL     1      -7.919  53.884  47.829  0.00  0.00    +0.000 N 
ATOM     18  C   UNL     1      -8.263  54.552  46.668  0.00  0.00    +0.000 C 
ATOM     19  O   UNL     1      -8.020  55.740  46.475  0.00  0.00    +0.000 OA
ATOM     20  H   UNL     1      -8.224  52.956  47.958  0.00  0.00    +0.000 HD
BRANCH  18  21
ATOM     21  C   UNL     1      -9.088  53.822  45.676  0.00  0.00    +0.000 A 
ATOM     22  C   UNL     1     -10.482  53.884  45.819  0.00  0.00    +0.000 A 
ATOM     23  C   UNL     1      -8.532  53.140  44.586  0.00  0.00    +0.000 A 
ATOM     24  C   UNL     1     -11.317  53.298  44.870  0.00  0.00    +0.000 A 
ATOM     25  C   UNL     1      -9.375  52.558  43.635  0.00  0.00    +0.000 A 
ATOM     26  C   UNL     1     -10.763  52.643  43.772  0.00  0.00    +0.000 A 
ENDBRANCH  18  21
ENDBRANCH   2  17
BRANCH   2  27
ATOM     27  C   UNL     1      -5.661  54.417  48.706  0.00  0.00    +0.000 C 
ATOM     28  O   UNL     1      -5.019  53.415  48.438  0.00  0.00    +0.000 OA
ATOM     29  OXT UNL     1      -5.093  55.621  48.958  0.00  0.00    +0.000 OA
ENDBRANCH   2  27
TORSDOF 6
ENDMDL
MODEL 7
REMARK VINA RESULT:      -8.1      1.405      2.020
REMARK  Name = 319853
REMARK  6 active torsions:
REMARK  status: ('A' for Active; 'I' for Inactive)
REMARK    1  A    between atoms: C_3  and  O_5
REMARK    2  A    between atoms: O_5  and  C_8
REMARK    3  A    between atoms: C_14  and  C_15
REMARK    4  A    between atoms: CA_16  and  N_17
REMARK    5  A    between atoms: CA_16  and  C_18
REMARK    6  A    between atoms: C_19  and  C_23
REMARK                            x       y       z     vdW  Elec       q    Type
REMARK                         _______ _______ _______ _____ _____    ______ ____
ROOT
ATOM      1  C   UNL     1      -8.344  54.785  46.989  0.00  0.00    +0.000 C 
ATOM      2  CA  UNL     1      -7.397  54.157  47.711  0.00  0.00    +0.000 C 
ENDROOT
BRANCH   1   8
ATOM      3  C   UNL     1     -12.050  56.079  48.602  0.00  0.00    +0.000 A 
ATOM      4  C   UNL     1     -12.012  55.575  47.303  0.00  0.00    +0.000 A 
ATOM      5  C   UNL     1     -10.857  56.396  49.260  0.00  0.00    +0.000 A 
ATOM      6  C   UNL     1     -10.784  55.240  46.721  0.00  0.00    +0.000 A 
ATOM      7  C   UNL     1      -9.632  56.041  48.687  0.00  0.00    +0.000 A 
ATOM      8  C   UNL     1      -9.592  55.418  47.433  0.00  0.00    +0.000 A 
BRANCH   3   9
ATOM      9  O   UNL     1     -13.284  56.217  49.203  0.00  0.00    +0.000 OA
BRANCH   9  12
ATOM     10 BR   UNL     1     -13.545  56.579  52.263  0.00  0.00    +0.000 Br
ATOM     11  C   UNL     1     -13.914  57.818  50.875  0.00  0.00    +0.000 A 
ATOM     12  C   UNL     1     -13.703  57.498  49.527  0.00  0.00    +0.000 A 
ATOM     13  C   UNL     1     -14.407  59.079  51.233  0.00  0.00    +0.000 A 
ATOM     14  C   UNL     1     -13.903  58.494  48.557  0.00  0.00    +0.000 A 
ATOM     15  C   UNL     1     -14.676  60.033  50.249  0.00  0.00    +0.000 A 
ATOM     16  C   UNL     1     -14.411  59.745  48.915  0.00  0.00    +0.000 A 
ENDBRANCH   9  12
ENDBRANCH   3   9
ENDBRANCH   1   8
BRANCH   2  17
ATOM     17  N   UNL     1      -7.320  54.118  49.094  0.00  0.00    +0.000 N 
ATOM     18  C   UNL     1      -6.602  55.063  49.804  0.00  0.00    +0.000 C 
ATOM     19  O   UNL     1      -5.902  55.919  49.272  0.00  0.00    +0.000 OA
ATOM     20  H   UNL     1      -7.788  53.402  49.583  0.00  0.00    +0.000 HD
BRANCH  18  21
ATOM     21  C   UNL     1      -6.573  54.934  51.281  0.00  0.00    +0.000 A 
ATOM     22  C   UNL     1      -5.792  53.905  51.829  0.00  0.00    +0.000 A 
ATOM     23  C   UNL     1      -7.236  55.829  52.130  0.00  0.00    +0.000 A 
ATOM     24  C   UNL     1      -5.648  53.785  53.209  0.00  0.00    +0.000 A 
ATOM     25  C   UNL     1      -7.084  55.706  53.514  0.00  0.00    +0.000 A 
ATOM     26  C   UNL     1      -6.286  54.693  54.052  0.00  0.00    +0.000 A 
ENDBRANCH  18  21
ENDBRANCH   2  17
BRANCH   2  27
ATOM     27  C   UNL     1      -6.344  53.444  46.915  0.00  0.00    +0.000 C 
ATOM     28  O   UNL     1      -5.157  53.723  46.900  0.00  0.00    +0.000 OA
ATOM     29  OXT UNL     1      -6.881  52.434  46.189  0.00  0.00    +0.000 OA
ENDBRANCH   2  27
TORSDOF 6
ENDMDL
MODEL 8
REMARK VINA RESULT:      -8.0      3.487      7.983
REMARK  Name = 319853
REMARK  6 active torsions:
REMARK  status: ('A' for Active; 'I' for Inactive)
REMARK    1  A    between atoms: C_3  and  O_5
REMARK    2  A    between atoms: O_5  and  C_8
REMARK    3  A    between atoms: C_14  and  C_15
REMARK    4  A    between atoms: CA_16  and  N_17
REMARK    5  A    between atoms: CA_16  and  C_18
REMARK    6  A    between atoms: C_19  and  C_23
REMARK                            x       y       z     vdW  Elec       q    Type
REMARK                         _______ _______ _______ _____ _____    ______ ____
ROOT
ATOM      1  C   UNL     1     -11.921  56.642  49.329  0.00  0.00    +0.000 C 
ATOM      2  CA  UNL     1     -12.428  56.413  48.102  0.00  0.00    +0.000 C 
ENDROOT
BRANCH   1   8
ATOM      3  C   UNL     1      -8.321  55.835  51.426  0.00  0.00    +0.000 A 
ATOM      4  C   UNL     1      -8.265  56.538  50.224  0.00  0.00    +0.000 A 
ATOM      5  C   UNL     1      -9.502  55.184  51.797  0.00  0.00    +0.000 A 
ATOM      6  C   UNL     1      -9.430  56.723  49.470  0.00  0.00    +0.000 A 
ATOM      7  C   UNL     1     -10.670  55.387  51.055  0.00  0.00    +0.000 A 
ATOM      8  C   UNL     1     -10.649  56.197  49.913  0.00  0.00    +0.000 A 
BRANCH   3   9
ATOM      9  O   UNL     1      -7.197  55.839  52.227  0.00  0.00    +0.000 OA
BRANCH   9  12
ATOM     10 BR   UNL     1      -6.200  54.384  54.766  0.00  0.00    +0.000 Br
ATOM     11  C   UNL     1      -5.596  54.216  52.976  0.00  0.00    +0.000 A 
ATOM     12  C   UNL     1      -6.191  54.932  51.929  0.00  0.00    +0.000 A 
ATOM     13  C   UNL     1      -4.528  53.347  52.720  0.00  0.00    +0.000 A 
ATOM     14  C   UNL     1      -5.761  54.688  50.614  0.00  0.00    +0.000 A 
ATOM     15  C   UNL     1      -4.061  53.173  51.416  0.00  0.00    +0.000 A 
ATOM     16  C   UNL     1      -4.686  53.834  50.363  0.00  0.00    +0.000 A 
ENDBRANCH   9  12
ENDBRANCH   3   9
ENDBRANCH   1   8
BRANCH   2  17
ATOM     17  N   UNL     1     -11.757  55.825  47.041  0.00  0.00    +0.000 N 
ATOM     18  C   UNL     1     -11.663  54.451  46.920  0.00  0.00    +0.000 C 
ATOM     19  O   UNL     1     -12.056  53.668  47.779  0.00  0.00    +0.000 OA
ATOM     20  H   UNL     1     -11.340  56.398  46.358  0.00  0.00    +0.000 HD
BRANCH  18  21
ATOM     21  C   UNL     1     -10.920  53.916  45.753  0.00  0.00    +0.000 A 
ATOM     22  C   UNL     1      -9.549  54.201  45.668  0.00  0.00    +0.000 A 
ATOM     23  C   UNL     1     -11.520  53.097  44.788  0.00  0.00    +0.000 A 
ATOM     24  C   UNL     1      -8.775  53.653  44.648  0.00  0.00    +0.000 A 
ATOM     25  C   UNL     1     -10.736  52.546  43.769  0.00  0.00    +0.000 A 
ATOM     26  C   UNL     1      -9.367  52.817  43.704  0.00  0.00    +0.000 A 
ENDBRANCH  18  21
ENDBRANCH   2  17
BRANCH   2  27
ATOM     27  C   UNL     1     -13.849  56.846  47.899  0.00  0.00    +0.000 C 
ATOM     28  O   UNL     1     -14.753  56.709  48.706  0.00  0.00    +0.000 OA
ATOM     29  OXT UNL     1     -14.018  57.412  46.680  0.00  0.00    +0.000 OA
ENDBRANCH   2  27
TORSDOF 6
ENDMDL
MODEL 9
REMARK VINA RESULT:      -8.0      3.626      7.998
REMARK  Name = 319853
REMARK  6 active torsions:
REMARK  status: ('A' for Active; 'I' for Inactive)
REMARK    1  A    between atoms: C_3  and  O_5
REMARK    2  A    between atoms: O_5  and  C_8
REMARK    3  A    between atoms: C_14  and  C_15
REMARK    4  A    between atoms: CA_16  and  N_17
REMARK    5  A    between atoms: CA_16  and  C_18
REMARK    6  A    between atoms: C_19  and  C_23
REMARK                            x       y       z     vdW  Elec       q    Type
REMARK                         _______ _______ _______ _____ _____    ______ ____
ROOT
ATOM      1  C   UNL     1     -12.177  56.568  49.282  0.00  0.00    +0.000 C 
ATOM      2  CA  UNL     1     -12.564  56.431  48.000  0.00  0.00    +0.000 C 
ENDROOT
BRANCH   1   8
ATOM      3  C   UNL     1      -8.684  54.646  50.737  0.00  0.00    +0.000 A 
ATOM      4  C   UNL     1      -9.934  54.214  51.181  0.00  0.00    +0.000 A 
ATOM      5  C   UNL     1      -8.573  55.852  50.036  0.00  0.00    +0.000 A 
ATOM      6  C   UNL     1     -11.087  54.903  50.790  0.00  0.00    +0.000 A 
ATOM      7  C   UNL     1      -9.728  56.527  49.628  0.00  0.00    +0.000 A 
ATOM      8  C   UNL     1     -10.993  56.029  49.964  0.00  0.00    +0.000 A 
BRANCH   3   9
ATOM      9  O   UNL     1      -7.597  53.834  50.987  0.00  0.00    +0.000 OA
BRANCH   9  12
ATOM     10 BR   UNL     1      -4.584  54.107  51.625  0.00  0.00    +0.000 Br
ATOM     11  C   UNL     1      -5.422  53.558  50.014  0.00  0.00    +0.000 A 
ATOM     12  C   UNL     1      -6.815  53.455  49.908  0.00  0.00    +0.000 A 
ATOM     13  C   UNL     1      -4.604  53.252  48.919  0.00  0.00    +0.000 A 
ATOM     14  C   UNL     1      -7.365  52.948  48.718  0.00  0.00    +0.000 A 
ATOM     15  C   UNL     1      -5.171  52.824  47.717  0.00  0.00    +0.000 A 
ATOM     16  C   UNL     1      -6.550  52.660  47.623  0.00  0.00    +0.000 A 
ENDBRANCH   9  12
ENDBRANCH   3   9
ENDBRANCH   1   8
BRANCH   2  17
ATOM     17  N   UNL     1     -11.815  55.868  46.979  0.00  0.00    +0.000 N 
ATOM     18  C   UNL     1     -11.710  54.497  46.831  0.00  0.00    +0.000 C 
ATOM     19  O   UNL     1     -12.167  53.694  47.640  0.00  0.00    +0.000 OA
ATOM     20  H   UNL     1     -11.348  56.457  46.343  0.00  0.00    +0.000 HD
BRANCH  18  21
ATOM     21  C   UNL     1     -10.881  53.989  45.712  0.00  0.00    +0.000 A 
ATOM     22  C   UNL     1      -9.508  54.274  45.739  0.00  0.00    +0.000 A 
ATOM     23  C   UNL     1     -11.405  53.196  44.684  0.00  0.00    +0.000 A 
ATOM     24  C   UNL     1      -8.658  53.751  44.768  0.00  0.00    +0.000 A 
ATOM     25  C   UNL     1     -10.546  52.669  43.714  0.00  0.00    +0.000 A 
ATOM     26  C   UNL     1      -9.175  52.939  43.761  0.00  0.00    +0.000 A 
ENDBRANCH  18  21
ENDBRANCH   2  17
BRANCH   2  27
ATOM     27  C   UNL     1     -13.937  56.944  47.681  0.00  0.00    +0.000 C 
ATOM     28  O   UNL     1     -14.261  57.504  46.647  0.00  0.00    +0.000 OA
ATOM     29  OXT UNL     1     -14.794  56.717  48.705  0.00  0.00    +0.000 OA
ENDBRANCH   2  27
TORSDOF 6
ENDMDL
