MODEL 1
REMARK VINA RESULT:      -9.1      0.000      0.000
REMARK  Name = 319853
REMARK  6 active torsions:
REMARK  status: ('A' for Active; 'I' for Inactive)
REMARK    1  A    between atoms: C_3  and  O_5
REMARK    2  A    between atoms: O_5  and  C_8
REMARK    3  A    between atoms: C_14  and  C_15
REMARK    4  A    between atoms: CA_16  and  N_17
REMARK    5  A    between atoms: CA_16  and  C_18
REMARK    6  A    between atoms: C_19  and  C_23
REMARK                            x       y       z     vdW  Elec       q    Type
REMARK                         _______ _______ _______ _____ _____    ______ ____
ROOT
ATOM      1  C   UNL     1      -9.510  55.419  47.270  0.00  0.00    +0.000 C 
ATOM      2  CA  UNL     1      -8.456  54.965  47.968  0.00  0.00    +0.000 C 
ENDROOT
BRANCH   1   8
ATOM      3  C   UNL     1     -13.350  56.770  48.465  0.00  0.00    +0.000 A 
ATOM      4  C   UNL     1     -12.382  56.530  49.437  0.00  0.00    +0.000 A 
ATOM      5  C   UNL     1     -13.147  56.326  47.154  0.00  0.00    +0.000 A 
ATOM      6  C   UNL     1     -11.144  55.988  49.067  0.00  0.00    +0.000 A 
ATOM      7  C   UNL     1     -11.906  55.805  46.781  0.00  0.00    +0.000 A 
ATOM      8  C   UNL     1     -10.883  55.680  47.728  0.00  0.00    +0.000 A 
BRANCH   3   9
ATOM      9  O   UNL     1     -14.470  57.486  48.838  0.00  0.00    +0.000 OA
BRANCH   9  12
ATOM     10 BR   UNL     1     -13.570  60.279  49.807  0.00  0.00    +0.000 Br
ATOM     11  C   UNL     1     -14.313  58.848  50.805  0.00  0.00    +0.000 A 
ATOM     12  C   UNL     1     -14.703  57.650  50.194  0.00  0.00    +0.000 A 
ATOM     13  C   UNL     1     -14.467  59.018  52.187  0.00  0.00    +0.000 A 
ATOM     14  C   UNL     1     -15.335  56.667  50.974  0.00  0.00    +0.000 A 
ATOM     15  C   UNL     1     -15.026  58.000  52.961  0.00  0.00    +0.000 A 
ATOM     16  C   UNL     1     -15.471  56.831  52.353  0.00  0.00    +0.000 A 
ENDBRANCH   9  12
ENDBRANCH   3   9
ENDBRANCH   1   8
BRANCH   2  17
ATOM     17  N   UNL     1      -8.402  54.803  49.345  0.00  0.00    +0.000 N 
ATOM     18  C   UNL     1      -8.117  55.871  50.183  0.00  0.00    +0.000 C 
ATOM     19  O   UNL     1      -7.795  56.982  49.775  0.00  0.00    +0.000 OA
ATOM     20  H   UNL     1      -8.569  53.913  49.734  0.00  0.00    +0.000 HD
BRANCH  18  21
ATOM     21  C   UNL     1      -8.056  55.593  51.642  0.00  0.00    +0.000 A 
ATOM     22  C   UNL     1      -6.905  56.004  52.330  0.00  0.00    +0.000 A 
ATOM     23  C   UNL     1      -9.118  55.014  52.345  0.00  0.00    +0.000 A 
ATOM     24  C   UNL     1      -6.817  55.853  53.713  0.00  0.00    +0.000 A 
ATOM     25  C   UNL     1      -9.025  54.868  53.733  0.00  0.00    +0.000 A 
ATOM     26  C   UNL     1      -7.881  55.292  54.413  0.00  0.00    +0.000 A 
ENDBRANCH  18  21
ENDBRANCH   2  17
BRANCH   2  27
ATOM     27  C   UNL     1      -7.240  54.623  47.164  0.00  0.00    +0.000 C 
ATOM     28  O   UNL     1      -6.104  54.548  47.596  0.00  0.00    +0.000 OA
ATOM     29  OXT UNL     1      -7.559  54.405  45.867  0.00  0.00    +0.000 OA
ENDBRANCH   2  27
TORSDOF 6
ENDMDL
MODEL 2
REMARK VINA RESULT:      -8.6      3.011      7.395
REMARK  Name = 319853
REMARK  6 active torsions:
REMARK  status: ('A' for Active; 'I' for Inactive)
REMARK    1  A    between atoms: C_3  and  O_5
REMARK    2  A    between atoms: O_5  and  C_8
REMARK    3  A    between atoms: C_14  and  C_15
REMARK    4  A    between atoms: CA_16  and  N_17
REMARK    5  A    between atoms: CA_16  and  C_18
REMARK    6  A    between atoms: C_19  and  C_23
REMARK                            x       y       z     vdW  Elec       q    Type
REMARK                         _______ _______ _______ _____ _____    ______ ____
ROOT
ATOM      1  C   UNL     1     -10.442  55.578  48.733  0.00  0.00    +0.000 C 
ATOM      2  CA  UNL     1     -11.620  56.138  48.409  0.00  0.00    +0.000 C 
ENDROOT
BRANCH   1   8
ATOM      3  C   UNL     1      -7.614  55.843  51.885  0.00  0.00    +0.000 A 
ATOM      4  C   UNL     1      -8.720  55.009  52.034  0.00  0.00    +0.000 A 
ATOM      5  C   UNL     1      -7.574  56.768  50.837  0.00  0.00    +0.000 A 
ATOM      6  C   UNL     1      -9.713  54.989  51.045  0.00  0.00    +0.000 A 
ATOM      7  C   UNL     1      -8.553  56.732  49.841  0.00  0.00    +0.000 A 
ATOM      8  C   UNL     1      -9.601  55.808  49.917  0.00  0.00    +0.000 A 
BRANCH   3   9
ATOM      9  O   UNL     1      -6.569  55.687  52.773  0.00  0.00    +0.000 OA
BRANCH   9  12
ATOM     10 BR   UNL     1      -4.828  54.167  50.721  0.00  0.00    +0.000 Br
ATOM     11  C   UNL     1      -5.536  53.561  52.373  0.00  0.00    +0.000 A 
ATOM     12  C   UNL     1      -6.283  54.402  53.206  0.00  0.00    +0.000 A 
ATOM     13  C   UNL     1      -5.292  52.233  52.747  0.00  0.00    +0.000 A 
ATOM     14  C   UNL     1      -6.697  53.921  54.459  0.00  0.00    +0.000 A 
ATOM     15  C   UNL     1      -5.776  51.746  53.962  0.00  0.00    +0.000 A 
ATOM     16  C   UNL     1      -6.467  52.592  54.823  0.00  0.00    +0.000 A 
ENDBRANCH   9  12
ENDBRANCH   3   9
ENDBRANCH   1   8
BRANCH   2  17
ATOM     17  N   UNL     1     -12.388  56.948  49.232  0.00  0.00    +0.000 N 
ATOM     18  C   UNL     1     -13.172  56.409  50.241  0.00  0.00    +0.000 C 
ATOM     19  O   UNL     1     -13.324  55.203  50.407  0.00  0.00    +0.000 OA
ATOM     20  H   UNL     1     -12.376  57.924  49.097  0.00  0.00    +0.000 HD
BRANCH  18  21
ATOM     21  C   UNL     1     -13.980  57.356  51.054  0.00  0.00    +0.000 A 
ATOM     22  C   UNL     1     -14.238  57.005  52.387  0.00  0.00    +0.000 A 
ATOM     23  C   UNL     1     -14.418  58.590  50.562  0.00  0.00    +0.000 A 
ATOM     24  C   UNL     1     -14.915  57.884  53.230  0.00  0.00    +0.000 A 
ATOM     25  C   UNL     1     -15.094  59.470  51.414  0.00  0.00    +0.000 A 
ATOM     26  C   UNL     1     -15.335  59.119  52.745  0.00  0.00    +0.000 A 
ENDBRANCH  18  21
ENDBRANCH   2  17
BRANCH   2  27
ATOM     27  C   UNL     1     -12.130  55.832  47.035  0.00  0.00    +0.000 C 
ATOM     28  O   UNL     1     -11.727  54.937  46.314  0.00  0.00    +0.000 OA
ATOM     29  OXT UNL     1     -13.113  56.691  46.678  0.00  0.00    +0.000 OA
ENDBRANCH   2  27
TORSDOF 6
ENDMDL
MODEL 3
REMARK VINA RESULT:      -8.6      2.503      5.043
REMARK  Name = 319853
REMARK  6 active torsions:
REMARK  status: ('A' for Active; 'I' for Inactive)
REMARK    1  A    between atoms: C_3  and  O_5
REMARK    2  A    between atoms: O_5  and  C_8
REMARK    3  A    between atoms: C_14  and  C_15
REMARK    4  A    between atoms: CA_16  and  N_17
REMARK    5  A    between atoms: CA_16  and  C_18
REMARK    6  A    between atoms: C_19  and  C_23
REMARK                            x       y       z     vdW  Elec       q    Type
REMARK                         _______ _______ _______ _____ _____    ______ ____
ROOT
ATOM      1  C   UNL     1      -9.156  55.000  48.952  0.00  0.00    +0.000 C 
ATOM      2  CA  UNL     1      -8.397  54.317  48.079  0.00  0.00    +0.000 C 
ENDROOT
BRANCH   1   8
ATOM      3  C   UNL     1     -13.181  56.337  49.008  0.00  0.00    +0.000 A 
ATOM      4  C   UNL     1     -12.677  55.656  50.114  0.00  0.00    +0.000 A 
ATOM      5  C   UNL     1     -12.463  56.347  47.808  0.00  0.00    +0.000 A 
ATOM      6  C   UNL     1     -11.383  55.121  50.070  0.00  0.00    +0.000 A 
ATOM      7  C   UNL     1     -11.165  55.832  47.771  0.00  0.00    +0.000 A 
ATOM      8  C   UNL     1     -10.603  55.260  48.918  0.00  0.00    +0.000 A 
BRANCH   3   9
ATOM      9  O   UNL     1     -14.373  57.018  49.162  0.00  0.00    +0.000 OA
BRANCH   9  12
ATOM     10 BR   UNL     1     -13.553  59.956  49.661  0.00  0.00    +0.000 Br
ATOM     11  C   UNL     1     -14.375  58.725  50.846  0.00  0.00    +0.000 A 
ATOM     12  C   UNL     1     -14.715  57.428  50.441  0.00  0.00    +0.000 A 
ATOM     13  C   UNL     1     -14.640  59.147  52.155  0.00  0.00    +0.000 A 
ATOM     14  C   UNL     1     -15.408  56.599  51.338  0.00  0.00    +0.000 A 
ATOM     15  C   UNL     1     -15.261  58.284  53.060  0.00  0.00    +0.000 A 
ATOM     16  C   UNL     1     -15.655  57.015  52.648  0.00  0.00    +0.000 A 
ENDBRANCH   9  12
ENDBRANCH   3   9
ENDBRANCH   1   8
BRANCH   2  17
ATOM     17  N   UNL     1      -8.865  53.553  47.020  0.00  0.00    +0.000 N 
ATOM     18  C   UNL     1      -8.655  53.943  45.706  0.00  0.00    +0.000 C 
ATOM     19  O   UNL     1      -8.148  55.016  45.392  0.00  0.00    +0.000 OA
ATOM     20  H   UNL     1      -9.355  52.718  47.204  0.00  0.00    +0.000 HD
BRANCH  18  21
ATOM     21  C   UNL     1      -9.216  53.072  44.639  0.00  0.00    +0.000 A 
ATOM     22  C   UNL     1      -8.661  53.183  43.356  0.00  0.00    +0.000 A 
ATOM     23  C   UNL     1     -10.208  52.117  44.889  0.00  0.00    +0.000 A 
ATOM     24  C   UNL     1      -9.080  52.338  42.330  0.00  0.00    +0.000 A 
ATOM     25  C   UNL     1     -10.621  51.269  43.856  0.00  0.00    +0.000 A 
ATOM     26  C   UNL     1     -10.054  51.376  42.584  0.00  0.00    +0.000 A 
ENDBRANCH  18  21
ENDBRANCH   2  17
BRANCH   2  27
ATOM     27  C   UNL     1      -6.918  54.396  48.299  0.00  0.00    +0.000 C 
ATOM     28  O   UNL     1      -6.286  55.419  48.495  0.00  0.00    +0.000 OA
ATOM     29  OXT UNL     1      -6.351  53.168  48.250  0.00  0.00    +0.000 OA
ENDBRANCH   2  27
TORSDOF 6
ENDMDL
MODEL 4
REMARK VINA RESULT:      -8.5      1.649      2.426
REMARK  Name = 319853
REMARK  6 active torsions:
REMARK  status: ('A' for Active; 'I' for Inactive)
REMARK    1  A    between atoms: C_3  and  O_5
REMARK    2  A    between atoms: O_5  and  C_8
REMARK    3  A    between atoms: C_14  and  C_15
REMARK    4  A    between atoms: CA_16  and  N_17
REMARK    5  A    between atoms: CA_16  and  C_18
REMARK    6  A    between atoms: C_19  and  C_23
REMARK                            x       y       z     vdW  Elec       q    Type
REMARK                         _______ _______ _______ _____ _____    ______ ____
ROOT
ATOM      1  C   UNL     1      -8.323  54.762  46.957  0.00  0.00    +0.000 C 
ATOM      2  CA  UNL     1      -7.366  54.162  47.686  0.00  0.00    +0.000 C 
ENDROOT
BRANCH   1   8
ATOM      3  C   UNL     1     -12.027  56.084  48.547  0.00  0.00    +0.000 A 
ATOM      4  C   UNL     1     -11.973  55.646  47.226  0.00  0.00    +0.000 A 
ATOM      5  C   UNL     1     -10.843  56.330  49.249  0.00  0.00    +0.000 A 
ATOM      6  C   UNL     1     -10.740  55.303  46.657  0.00  0.00    +0.000 A 
ATOM      7  C   UNL     1      -9.615  55.968  48.690  0.00  0.00    +0.000 A 
ATOM      8  C   UNL     1      -9.564  55.407  47.408  0.00  0.00    +0.000 A 
BRANCH   3   9
ATOM      9  O   UNL     1     -13.272  56.218  49.129  0.00  0.00    +0.000 OA
BRANCH   9  12
ATOM     10 BR   UNL     1     -13.465  56.550  52.196  0.00  0.00    +0.000 Br
ATOM     11  C   UNL     1     -13.863  57.803  50.828  0.00  0.00    +0.000 A 
ATOM     12  C   UNL     1     -13.683  57.496  49.474  0.00  0.00    +0.000 A 
ATOM     13  C   UNL     1     -14.348  59.061  51.208  0.00  0.00    +0.000 A 
ATOM     14  C   UNL     1     -13.905  58.500  48.517  0.00  0.00    +0.000 A 
ATOM     15  C   UNL     1     -14.638  60.023  50.240  0.00  0.00    +0.000 A 
ATOM     16  C   UNL     1     -14.405  59.747  48.896  0.00  0.00    +0.000 A 
ENDBRANCH   9  12
ENDBRANCH   3   9
ENDBRANCH   1   8
BRANCH   2  17
ATOM     17  N   UNL     1      -7.270  54.177  49.070  0.00  0.00    +0.000 N 
ATOM     18  C   UNL     1      -6.468  55.100  49.724  0.00  0.00    +0.000 C 
ATOM     19  O   UNL     1      -5.722  55.880  49.141  0.00  0.00    +0.000 OA
ATOM     20  H   UNL     1      -7.781  53.520  49.598  0.00  0.00    +0.000 HD
BRANCH  18  21
ATOM     21  C   UNL     1      -6.410  55.020  51.208  0.00  0.00    +0.000 A 
ATOM     22  C   UNL     1      -7.409  55.689  51.930  0.00  0.00    +0.000 A 
ATOM     23  C   UNL     1      -5.454  54.257  51.886  0.00  0.00    +0.000 A 
ATOM     24  C   UNL     1      -7.466  55.586  53.318  0.00  0.00    +0.000 A 
ATOM     25  C   UNL     1      -5.518  54.155  53.280  0.00  0.00    +0.000 A 
ATOM     26  C   UNL     1      -6.524  54.812  53.991  0.00  0.00    +0.000 A 
ENDBRANCH  18  21
ENDBRANCH   2  17
BRANCH   2  27
ATOM     27  C   UNL     1      -6.317  53.431  46.909  0.00  0.00    +0.000 C 
ATOM     28  O   UNL     1      -5.151  53.766  46.804  0.00  0.00    +0.000 OA
ATOM     29  OXT UNL     1      -6.830  52.326  46.317  0.00  0.00    +0.000 OA
ENDBRANCH   2  27
TORSDOF 6
ENDMDL
MODEL 5
REMARK VINA RESULT:      -8.5      3.008      6.583
REMARK  Name = 319853
REMARK  6 active torsions:
REMARK  status: ('A' for Active; 'I' for Inactive)
REMARK    1  A    between atoms: C_3  and  O_5
REMARK    2  A    between atoms: O_5  and  C_8
REMARK    3  A    between atoms: C_14  and  C_15
REMARK    4  A    between atoms: CA_16  and  N_17
REMARK    5  A    between atoms: CA_16  and  C_18
REMARK    6  A    between atoms: C_19  and  C_23
REMARK                            x       y       z     vdW  Elec       q    Type
REMARK                         _______ _______ _______ _____ _____    ______ ____
ROOT
ATOM      1  C   UNL     1     -13.585  55.561  49.882  0.00  0.00    +0.000 C 
ATOM      2  CA  UNL     1     -13.112  56.047  51.042  0.00  0.00    +0.000 C 
ENDROOT
BRANCH   1   8
ATOM      3  C   UNL     1     -10.935  54.482  46.750  0.00  0.00    +0.000 A 
ATOM      4  C   UNL     1     -11.591  55.710  46.691  0.00  0.00    +0.000 A 
ATOM      5  C   UNL     1     -11.338  53.519  47.680  0.00  0.00    +0.000 A 
ATOM      6  C   UNL     1     -12.544  56.035  47.664  0.00  0.00    +0.000 A 
ATOM      7  C   UNL     1     -12.274  53.852  48.663  0.00  0.00    +0.000 A 
ATOM      8  C   UNL     1     -12.844  55.130  48.687  0.00  0.00    +0.000 A 
BRANCH   3   9
ATOM      9  O   UNL     1      -9.868  54.284  45.897  0.00  0.00    +0.000 OA
BRANCH   9  12
ATOM     10 BR   UNL     1      -8.575  51.672  44.865  0.00  0.00    +0.000 Br
ATOM     11  C   UNL     1      -7.915  52.912  46.139  0.00  0.00    +0.000 A 
ATOM     12  C   UNL     1      -8.622  54.076  46.468  0.00  0.00    +0.000 A 
ATOM     13  C   UNL     1      -6.688  52.635  46.754  0.00  0.00    +0.000 A 
ATOM     14  C   UNL     1      -8.033  55.000  47.347  0.00  0.00    +0.000 A 
ATOM     15  C   UNL     1      -6.151  53.526  47.684  0.00  0.00    +0.000 A 
ATOM     16  C   UNL     1      -6.817  54.713  47.971  0.00  0.00    +0.000 A 
ENDBRANCH   9  12
ENDBRANCH   3   9
ENDBRANCH   1   8
BRANCH   2  17
ATOM     17  N   UNL     1     -11.779  56.085  51.424  0.00  0.00    +0.000 N 
ATOM     18  C   UNL     1     -11.177  54.998  52.041  0.00  0.00    +0.000 C 
ATOM     19  O   UNL     1     -11.790  53.992  52.382  0.00  0.00    +0.000 OA
ATOM     20  H   UNL     1     -11.249  56.899  51.254  0.00  0.00    +0.000 HD
BRANCH  18  21
ATOM     21  C   UNL     1      -9.752  55.143  52.436  0.00  0.00    +0.000 A 
ATOM     22  C   UNL     1      -8.849  55.572  51.452  0.00  0.00    +0.000 A 
ATOM     23  C   UNL     1      -9.307  54.940  53.748  0.00  0.00    +0.000 A 
ATOM     24  C   UNL     1      -7.514  55.810  51.774  0.00  0.00    +0.000 A 
ATOM     25  C   UNL     1      -7.967  55.185  54.065  0.00  0.00    +0.000 A 
ATOM     26  C   UNL     1      -7.077  55.625  53.083  0.00  0.00    +0.000 A 
ENDBRANCH  18  21
ENDBRANCH   2  17
BRANCH   2  27
ATOM     27  C   UNL     1     -14.139  56.577  51.994  0.00  0.00    +0.000 C 
ATOM     28  O   UNL     1     -15.190  56.031  52.276  0.00  0.00    +0.000 OA
ATOM     29  OXT UNL     1     -13.755  57.767  52.513  0.00  0.00    +0.000 OA
ENDBRANCH   2  27
TORSDOF 6
ENDMDL
MODEL 6
REMARK VINA RESULT:      -8.3      2.822      5.399
REMARK  Name = 319853
REMARK  6 active torsions:
REMARK  status: ('A' for Active; 'I' for Inactive)
REMARK    1  A    between atoms: C_3  and  O_5
REMARK    2  A    between atoms: O_5  and  C_8
REMARK    3  A    between atoms: C_14  and  C_15
REMARK    4  A    between atoms: CA_16  and  N_17
REMARK    5  A    between atoms: CA_16  and  C_18
REMARK    6  A    between atoms: C_19  and  C_23
REMARK                            x       y       z     vdW  Elec       q    Type
REMARK                         _______ _______ _______ _____ _____    ______ ____
ROOT
ATOM      1  C   UNL     1      -8.475  54.939  48.528  0.00  0.00    +0.000 C 
ATOM      2  CA  UNL     1      -7.628  54.244  47.750  0.00  0.00    +0.000 C 
ENDROOT
BRANCH   1   8
ATOM      3  C   UNL     1     -12.626  55.810  48.456  0.00  0.00    +0.000 A 
ATOM      4  C   UNL     1     -12.080  55.202  49.584  0.00  0.00    +0.000 A 
ATOM      5  C   UNL     1     -11.879  55.890  47.276  0.00  0.00    +0.000 A 
ATOM      6  C   UNL     1     -10.733  54.817  49.582  0.00  0.00    +0.000 A 
ATOM      7  C   UNL     1     -10.530  55.526  47.281  0.00  0.00    +0.000 A 
ATOM      8  C   UNL     1      -9.940  55.032  48.450  0.00  0.00    +0.000 A 
BRANCH   3   9
ATOM      9  O   UNL     1     -13.890  56.352  48.568  0.00  0.00    +0.000 OA
BRANCH   9  12
ATOM     10 BR   UNL     1     -16.196  56.134  50.616  0.00  0.00    +0.000 Br
ATOM     11  C   UNL     1     -15.052  57.603  50.252  0.00  0.00    +0.000 A 
ATOM     12  C   UNL     1     -14.024  57.518  49.305  0.00  0.00    +0.000 A 
ATOM     13  C   UNL     1     -15.261  58.793  50.961  0.00  0.00    +0.000 A 
ATOM     14  C   UNL     1     -13.153  58.610  49.152  0.00  0.00    +0.000 A 
ATOM     15  C   UNL     1     -14.435  59.896  50.742  0.00  0.00    +0.000 A 
ATOM     16  C   UNL     1     -13.374  59.800  49.848  0.00  0.00    +0.000 A 
ENDBRANCH   9  12
ENDBRANCH   3   9
ENDBRANCH   1   8
BRANCH   2  17
ATOM     17  N   UNL     1      -7.987  53.314  46.786  0.00  0.00    +0.000 N 
ATOM     18  C   UNL     1      -8.062  53.661  45.446  0.00  0.00    +0.000 C 
ATOM     19  O   UNL     1      -7.923  54.809  45.036  0.00  0.00    +0.000 OA
ATOM     20  H   UNL     1      -8.194  52.390  47.059  0.00  0.00    +0.000 HD
BRANCH  18  21
ATOM     21  C   UNL     1      -8.481  52.601  44.491  0.00  0.00    +0.000 A 
ATOM     22  C   UNL     1      -8.298  51.267  44.885  0.00  0.00    +0.000 A 
ATOM     23  C   UNL     1      -9.103  52.887  43.271  0.00  0.00    +0.000 A 
ATOM     24  C   UNL     1      -8.746  50.224  44.077  0.00  0.00    +0.000 A 
ATOM     25  C   UNL     1      -9.554  51.835  42.466  0.00  0.00    +0.000 A 
ATOM     26  C   UNL     1      -9.381  50.510  42.872  0.00  0.00    +0.000 A 
ENDBRANCH  18  21
ENDBRANCH   2  17
BRANCH   2  27
ATOM     27  C   UNL     1      -6.171  54.512  47.972  0.00  0.00    +0.000 C 
ATOM     28  O   UNL     1      -5.253  53.856  47.513  0.00  0.00    +0.000 OA
ATOM     29  OXT UNL     1      -5.989  55.593  48.766  0.00  0.00    +0.000 OA
ENDBRANCH   2  27
TORSDOF 6
ENDMDL
MODEL 7
REMARK VINA RESULT:      -8.3      2.147      4.866
REMARK  Name = 319853
REMARK  6 active torsions:
REMARK  status: ('A' for Active; 'I' for Inactive)
REMARK    1  A    between atoms: C_3  and  O_5
REMARK    2  A    between atoms: O_5  and  C_8
REMARK    3  A    between atoms: C_14  and  C_15
REMARK    4  A    between atoms: CA_16  and  N_17
REMARK    5  A    between atoms: CA_16  and  C_18
REMARK    6  A    between atoms: C_19  and  C_23
REMARK                            x       y       z     vdW  Elec       q    Type
REMARK                         _______ _______ _______ _____ _____    ______ ____
ROOT
ATOM      1  C   UNL     1      -7.634  54.935  50.315  0.00  0.00    +0.000 C 
ATOM      2  CA  UNL     1      -7.156  54.328  49.216  0.00  0.00    +0.000 C 
ENDROOT
BRANCH   1   8
ATOM      3  C   UNL     1     -11.788  55.605  50.854  0.00  0.00    +0.000 A 
ATOM      4  C   UNL     1     -11.091  56.377  49.928  0.00  0.00    +0.000 A 
ATOM      5  C   UNL     1     -11.089  54.813  51.770  0.00  0.00    +0.000 A 
ATOM      6  C   UNL     1      -9.702  56.237  49.812  0.00  0.00    +0.000 A 
ATOM      7  C   UNL     1      -9.706  54.658  51.640  0.00  0.00    +0.000 A 
ATOM      8  C   UNL     1      -9.015  55.333  50.628  0.00  0.00    +0.000 A 
BRANCH   3   9
ATOM      9  O   UNL     1     -13.168  55.626  50.798  0.00  0.00    +0.000 OA
BRANCH   9  12
ATOM     10 BR   UNL     1     -14.220  57.227  48.373  0.00  0.00    +0.000 Br
ATOM     11  C   UNL     1     -14.308  57.654  50.219  0.00  0.00    +0.000 A 
ATOM     12  C   UNL     1     -13.807  56.788  51.199  0.00  0.00    +0.000 A 
ATOM     13  C   UNL     1     -14.894  58.872  50.586  0.00  0.00    +0.000 A 
ATOM     14  C   UNL     1     -13.990  57.119  52.552  0.00  0.00    +0.000 A 
ATOM     15  C   UNL     1     -14.999  59.222  51.933  0.00  0.00    +0.000 A 
ATOM     16  C   UNL     1     -14.559  58.341  52.915  0.00  0.00    +0.000 A 
ENDBRANCH   9  12
ENDBRANCH   3   9
ENDBRANCH   1   8
BRANCH   2  17
ATOM     17  N   UNL     1      -7.917  53.785  48.192  0.00  0.00    +0.000 N 
ATOM     18  C   UNL     1      -8.210  54.517  47.050  0.00  0.00    +0.000 C 
ATOM     19  O   UNL     1      -7.916  55.700  46.912  0.00  0.00    +0.000 OA
ATOM     20  H   UNL     1      -8.257  52.864  48.276  0.00  0.00    +0.000 HD
BRANCH  18  21
ATOM     21  C   UNL     1      -9.054  53.859  46.018  0.00  0.00    +0.000 A 
ATOM     22  C   UNL     1     -10.440  54.061  46.092  0.00  0.00    +0.000 A 
ATOM     23  C   UNL     1      -8.514  53.121  44.958  0.00  0.00    +0.000 A 
ATOM     24  C   UNL     1     -11.283  53.545  45.110  0.00  0.00    +0.000 A 
ATOM     25  C   UNL     1      -9.365  52.609  43.973  0.00  0.00    +0.000 A 
ATOM     26  C   UNL     1     -10.743  52.827  44.047  0.00  0.00    +0.000 A 
ENDBRANCH  18  21
ENDBRANCH   2  17
BRANCH   2  27
ATOM     27  C   UNL     1      -5.665  54.233  49.121  0.00  0.00    +0.000 C 
ATOM     28  O   UNL     1      -4.910  55.160  48.888  0.00  0.00    +0.000 OA
ATOM     29  OXT UNL     1      -5.243  52.963  49.324  0.00  0.00    +0.000 OA
ENDBRANCH   2  27
TORSDOF 6
ENDMDL
MODEL 8
REMARK VINA RESULT:      -8.1      1.771      2.240
REMARK  Name = 319853
REMARK  6 active torsions:
REMARK  status: ('A' for Active; 'I' for Inactive)
REMARK    1  A    between atoms: C_3  and  O_5
REMARK    2  A    between atoms: O_5  and  C_8
REMARK    3  A    between atoms: C_14  and  C_15
REMARK    4  A    between atoms: CA_16  and  N_17
REMARK    5  A    between atoms: CA_16  and  C_18
REMARK    6  A    between atoms: C_19  and  C_23
REMARK                            x       y       z     vdW  Elec       q    Type
REMARK                         _______ _______ _______ _____ _____    ______ ____
ROOT
ATOM      1  C   UNL     1     -10.863  53.997  46.919  0.00  0.00    +0.000 C 
ATOM      2  CA  UNL     1      -9.663  53.515  47.284  0.00  0.00    +0.000 C 
ENDROOT
BRANCH   1   8
ATOM      3  C   UNL     1     -13.769  56.538  48.677  0.00  0.00    +0.000 A 
ATOM      4  C   UNL     1     -13.238  56.873  47.434  0.00  0.00    +0.000 A 
ATOM      5  C   UNL     1     -13.171  55.534  49.444  0.00  0.00    +0.000 A 
ATOM      6  C   UNL     1     -12.206  56.099  46.888  0.00  0.00    +0.000 A 
ATOM      7  C   UNL     1     -12.156  54.749  48.891  0.00  0.00    +0.000 A 
ATOM      8  C   UNL     1     -11.703  54.999  47.591  0.00  0.00    +0.000 A 
BRANCH   3   9
ATOM      9  O   UNL     1     -14.911  57.198  49.085  0.00  0.00    +0.000 OA
BRANCH   9  12
ATOM     10 BR   UNL     1     -13.858  60.040  49.691  0.00  0.00    +0.000 Br
ATOM     11  C   UNL     1     -14.555  58.742  50.885  0.00  0.00    +0.000 A 
ATOM     12  C   UNL     1     -15.027  57.504  50.432  0.00  0.00    +0.000 A 
ATOM     13  C   UNL     1     -14.589  59.054  52.250  0.00  0.00    +0.000 A 
ATOM     14  C   UNL     1     -15.618  56.626  51.356  0.00  0.00    +0.000 A 
ATOM     15  C   UNL     1     -15.109  58.139  53.167  0.00  0.00    +0.000 A 
ATOM     16  C   UNL     1     -15.635  56.931  52.718  0.00  0.00    +0.000 A 
ENDBRANCH   9  12
ENDBRANCH   3   9
ENDBRANCH   1   8
BRANCH   2  17
ATOM     17  N   UNL     1      -8.871  54.003  48.312  0.00  0.00    +0.000 N 
ATOM     18  C   UNL     1      -8.854  53.392  49.557  0.00  0.00    +0.000 C 
ATOM     19  O   UNL     1      -9.598  52.466  49.865  0.00  0.00    +0.000 OA
ATOM     20  H   UNL     1      -8.310  54.798  48.156  0.00  0.00    +0.000 HD
BRANCH  18  21
ATOM     21  C   UNL     1      -7.993  54.002  50.604  0.00  0.00    +0.000 A 
ATOM     22  C   UNL     1      -8.573  54.975  51.432  0.00  0.00    +0.000 A 
ATOM     23  C   UNL     1      -6.674  53.593  50.829  0.00  0.00    +0.000 A 
ATOM     24  C   UNL     1      -7.850  55.526  52.487  0.00  0.00    +0.000 A 
ATOM     25  C   UNL     1      -5.954  54.148  51.893  0.00  0.00    +0.000 A 
ATOM     26  C   UNL     1      -6.543  55.106  52.721  0.00  0.00    +0.000 A 
ENDBRANCH  18  21
ENDBRANCH   2  17
BRANCH   2  27
ATOM     27  C   UNL     1      -9.155  52.356  46.483  0.00  0.00    +0.000 C 
ATOM     28  O   UNL     1      -9.374  51.182  46.721  0.00  0.00    +0.000 OA
ATOM     29  OXT UNL     1      -8.401  52.777  45.440  0.00  0.00    +0.000 OA
ENDBRANCH   2  27
TORSDOF 6
ENDMDL
MODEL 9
REMARK VINA RESULT:      -7.9      3.406      6.569
REMARK  Name = 319853
REMARK  6 active torsions:
REMARK  status: ('A' for Active; 'I' for Inactive)
REMARK    1  A    between atoms: C_3  and  O_5
REMARK    2  A    between atoms: O_5  and  C_8
REMARK    3  A    between atoms: C_14  and  C_15
REMARK    4  A    between atoms: CA_16  and  N_17
REMARK    5  A    between atoms: CA_16  and  C_18
REMARK    6  A    between atoms: C_19  and  C_23
REMARK                            x       y       z     vdW  Elec       q    Type
REMARK                         _______ _______ _______ _____ _____    ______ ____
ROOT
ATOM      1  C   UNL     1     -12.986  56.517  50.056  0.00  0.00    +0.000 C 
ATOM      2  CA  UNL     1     -12.783  56.283  51.364  0.00  0.00    +0.000 C 
ENDROOT
BRANCH   1   8
ATOM      3  C   UNL     1     -10.424  55.343  46.886  0.00  0.00    +0.000 A 
ATOM      4  C   UNL     1      -9.868  55.688  48.116  0.00  0.00    +0.000 A 
ATOM      5  C   UNL     1     -11.767  55.629  46.623  0.00  0.00    +0.000 A 
ATOM      6  C   UNL     1     -10.692  56.174  49.139  0.00  0.00    +0.000 A 
ATOM      7  C   UNL     1     -12.592  56.093  47.650  0.00  0.00    +0.000 A 
ATOM      8  C   UNL     1     -12.066  56.322  48.926  0.00  0.00    +0.000 A 
BRANCH   3   9
ATOM      9  O   UNL     1      -9.617  54.684  45.979  0.00  0.00    +0.000 OA
BRANCH   9  12
ATOM     10 BR   UNL     1      -7.900  52.617  47.506  0.00  0.00    +0.000 Br
ATOM     11  C   UNL     1      -9.253  52.326  46.209  0.00  0.00    +0.000 A 
ATOM     12  C   UNL     1      -9.965  53.387  45.637  0.00  0.00    +0.000 A 
ATOM     13  C   UNL     1      -9.528  51.006  45.830  0.00  0.00    +0.000 A 
ATOM     14  C   UNL     1     -11.018  53.097  44.755  0.00  0.00    +0.000 A 
ATOM     15  C   UNL     1     -10.528  50.739  44.893  0.00  0.00    +0.000 A 
ATOM     16  C   UNL     1     -11.280  51.783  44.365  0.00  0.00    +0.000 A 
ENDBRANCH   9  12
ENDBRANCH   3   9
ENDBRANCH   1   8
BRANCH   2  17
ATOM     17  N   UNL     1     -11.687  55.633  51.913  0.00  0.00    +0.000 N 
ATOM     18  C   UNL     1     -11.656  54.251  52.028  0.00  0.00    +0.000 C 
ATOM     19  O   UNL     1     -12.611  53.530  51.759  0.00  0.00    +0.000 OA
ATOM     20  H   UNL     1     -10.918  56.163  52.227  0.00  0.00    +0.000 HD
BRANCH  18  21
ATOM     21  C   UNL     1     -10.449  53.648  52.652  0.00  0.00    +0.000 A 
ATOM     22  C   UNL     1      -9.266  54.400  52.630  0.00  0.00    +0.000 A 
ATOM     23  C   UNL     1     -10.477  52.414  53.311  0.00  0.00    +0.000 A 
ATOM     24  C   UNL     1      -8.120  53.933  53.271  0.00  0.00    +0.000 A 
ATOM     25  C   UNL     1      -9.325  51.952  53.955  0.00  0.00    +0.000 A 
ATOM     26  C   UNL     1      -8.153  52.713  53.940  0.00  0.00    +0.000 A 
ENDBRANCH  18  21
ENDBRANCH   2  17
BRANCH   2  27
ATOM     27  C   UNL     1     -13.857  56.768  52.287  0.00  0.00    +0.000 C 
ATOM     28  O   UNL     1     -13.762  57.714  53.049  0.00  0.00    +0.000 OA
ATOM     29  OXT UNL     1     -14.974  56.011  52.176  0.00  0.00    +0.000 OA
ENDBRANCH   2  27
TORSDOF 6
ENDMDL
