MODEL 1
REMARK VINA RESULT:      -8.7      0.000      0.000
REMARK  Name = 319853
REMARK  6 active torsions:
REMARK  status: ('A' for Active; 'I' for Inactive)
REMARK    1  A    between atoms: C_3  and  O_5
REMARK    2  A    between atoms: O_5  and  C_8
REMARK    3  A    between atoms: C_14  and  C_15
REMARK    4  A    between atoms: CA_16  and  N_17
REMARK    5  A    between atoms: CA_16  and  C_18
REMARK    6  A    between atoms: C_19  and  C_23
REMARK                            x       y       z     vdW  Elec       q    Type
REMARK                         _______ _______ _______ _____ _____    ______ ____
ROOT
ATOM      1  C   UNL     1      -9.061  55.312  47.507  0.00  0.00    +0.000 C 
ATOM      2  CA  UNL     1      -7.981  54.789  48.112  0.00  0.00    +0.000 C 
ENDROOT
BRANCH   1   8
ATOM      3  C   UNL     1     -12.902  56.650  48.710  0.00  0.00    +0.000 A 
ATOM      4  C   UNL     1     -11.795  56.970  49.494  0.00  0.00    +0.000 A 
ATOM      5  C   UNL     1     -12.787  55.693  47.699  0.00  0.00    +0.000 A 
ATOM      6  C   UNL     1     -10.537  56.449  49.166  0.00  0.00    +0.000 A 
ATOM      7  C   UNL     1     -11.528  55.191  47.359  0.00  0.00    +0.000 A 
ATOM      8  C   UNL     1     -10.390  55.604  48.061  0.00  0.00    +0.000 A 
BRANCH   3   9
ATOM      9  O   UNL     1     -14.079  57.330  48.954  0.00  0.00    +0.000 OA
BRANCH   9  12
ATOM     10 BR   UNL     1     -13.635  60.274  49.771  0.00  0.00    +0.000 Br
ATOM     11  C   UNL     1     -14.258  58.822  50.820  0.00  0.00    +0.000 A 
ATOM     12  C   UNL     1     -14.435  57.544  50.276  0.00  0.00    +0.000 A 
ATOM     13  C   UNL     1     -14.538  59.060  52.170  0.00  0.00    +0.000 A 
ATOM     14  C   UNL     1     -14.990  56.537  51.081  0.00  0.00    +0.000 A 
ATOM     15  C   UNL     1     -15.019  58.028  52.980  0.00  0.00    +0.000 A 
ATOM     16  C   UNL     1     -15.257  56.771  52.432  0.00  0.00    +0.000 A 
ENDBRANCH   9  12
ENDBRANCH   3   9
ENDBRANCH   1   8
BRANCH   2  17
ATOM     17  N   UNL     1      -7.837  54.555  49.471  0.00  0.00    +0.000 N 
ATOM     18  C   UNL     1      -7.318  55.520  50.319  0.00  0.00    +0.000 C 
ATOM     19  O   UNL     1      -6.858  56.585  49.923  0.00  0.00    +0.000 OA
ATOM     20  H   UNL     1      -8.109  53.684  49.841  0.00  0.00    +0.000 HD
BRANCH  18  21
ATOM     21  C   UNL     1      -7.186  55.163  51.754  0.00  0.00    +0.000 A 
ATOM     22  C   UNL     1      -6.016  54.498  52.151  0.00  0.00    +0.000 A 
ATOM     23  C   UNL     1      -8.138  55.527  52.712  0.00  0.00    +0.000 A 
ATOM     24  C   UNL     1      -5.786  54.218  53.496  0.00  0.00    +0.000 A 
ATOM     25  C   UNL     1      -7.899  55.246  54.063  0.00  0.00    +0.000 A 
ATOM     26  C   UNL     1      -6.724  54.601  54.452  0.00  0.00    +0.000 A 
ENDBRANCH  18  21
ENDBRANCH   2  17
BRANCH   2  27
ATOM     27  C   UNL     1      -6.835  54.442  47.209  0.00  0.00    +0.000 C 
ATOM     28  O   UNL     1      -5.706  54.167  47.573  0.00  0.00    +0.000 OA
ATOM     29  OXT UNL     1      -7.210  54.477  45.907  0.00  0.00    +0.000 OA
ENDBRANCH   2  27
TORSDOF 6
ENDMDL
MODEL 2
REMARK VINA RESULT:      -8.5      1.518      1.838
REMARK  Name = 319853
REMARK  6 active torsions:
REMARK  status: ('A' for Active; 'I' for Inactive)
REMARK    1  A    between atoms: C_3  and  O_5
REMARK    2  A    between atoms: O_5  and  C_8
REMARK    3  A    between atoms: C_14  and  C_15
REMARK    4  A    between atoms: CA_16  and  N_17
REMARK    5  A    between atoms: CA_16  and  C_18
REMARK    6  A    between atoms: C_19  and  C_23
REMARK                            x       y       z     vdW  Elec       q    Type
REMARK                         _______ _______ _______ _____ _____    ______ ____
ROOT
ATOM      1  C   UNL     1      -8.836  55.680  48.322  0.00  0.00    +0.000 C 
ATOM      2  CA  UNL     1      -7.930  54.861  48.884  0.00  0.00    +0.000 C 
ENDROOT
BRANCH   1   8
ATOM      3  C   UNL     1     -12.931  56.623  48.901  0.00  0.00    +0.000 A 
ATOM      4  C   UNL     1     -12.076  56.605  50.002  0.00  0.00    +0.000 A 
ATOM      5  C   UNL     1     -12.509  56.089  47.682  0.00  0.00    +0.000 A 
ATOM      6  C   UNL     1     -10.746  56.195  49.843  0.00  0.00    +0.000 A 
ATOM      7  C   UNL     1     -11.176  55.701  47.518  0.00  0.00    +0.000 A 
ATOM      8  C   UNL     1     -10.276  55.798  48.586  0.00  0.00    +0.000 A 
BRANCH   3   9
ATOM      9  O   UNL     1     -14.171  57.209  49.062  0.00  0.00    +0.000 OA
BRANCH   9  12
ATOM     10 BR   UNL     1     -13.641  60.176  49.731  0.00  0.00    +0.000 Br
ATOM     11  C   UNL     1     -14.369  58.813  50.830  0.00  0.00    +0.000 A 
ATOM     12  C   UNL     1     -14.575  57.513  50.352  0.00  0.00    +0.000 A 
ATOM     13  C   UNL     1     -14.697  59.141  52.151  0.00  0.00    +0.000 A 
ATOM     14  C   UNL     1     -15.207  56.578  51.187  0.00  0.00    +0.000 A 
ATOM     15  C   UNL     1     -15.256  58.177  52.994  0.00  0.00    +0.000 A 
ATOM     16  C   UNL     1     -15.522  56.901  52.508  0.00  0.00    +0.000 A 
ENDBRANCH   9  12
ENDBRANCH   3   9
ENDBRANCH   1   8
BRANCH   2  17
ATOM     17  N   UNL     1      -8.139  54.038  49.980  0.00  0.00    +0.000 N 
ATOM     18  C   UNL     1      -7.997  54.510  51.275  0.00  0.00    +0.000 C 
ATOM     19  O   UNL     1      -7.579  55.631  51.540  0.00  0.00    +0.000 OA
ATOM     20  H   UNL     1      -8.394  53.098  49.835  0.00  0.00    +0.000 HD
BRANCH  18  21
ATOM     21  C   UNL     1      -8.223  53.543  52.379  0.00  0.00    +0.000 A 
ATOM     22  C   UNL     1      -9.505  52.989  52.503  0.00  0.00    +0.000 A 
ATOM     23  C   UNL     1      -7.199  53.125  53.235  0.00  0.00    +0.000 A 
ATOM     24  C   UNL     1      -9.760  52.007  53.459  0.00  0.00    +0.000 A 
ATOM     25  C   UNL     1      -7.460  52.135  54.190  0.00  0.00    +0.000 A 
ATOM     26  C   UNL     1      -8.734  51.574  54.295  0.00  0.00    +0.000 A 
ENDBRANCH  18  21
ENDBRANCH   2  17
BRANCH   2  27
ATOM     27  C   UNL     1      -6.571  54.863  48.250  0.00  0.00    +0.000 C 
ATOM     28  O   UNL     1      -6.241  54.200  47.283  0.00  0.00    +0.000 OA
ATOM     29  OXT UNL     1      -5.730  55.705  48.898  0.00  0.00    +0.000 OA
ENDBRANCH   2  27
TORSDOF 6
ENDMDL
MODEL 3
REMARK VINA RESULT:      -8.4      2.461      5.073
REMARK  Name = 319853
REMARK  6 active torsions:
REMARK  status: ('A' for Active; 'I' for Inactive)
REMARK    1  A    between atoms: C_3  and  O_5
REMARK    2  A    between atoms: O_5  and  C_8
REMARK    3  A    between atoms: C_14  and  C_15
REMARK    4  A    between atoms: CA_16  and  N_17
REMARK    5  A    between atoms: CA_16  and  C_18
REMARK    6  A    between atoms: C_19  and  C_23
REMARK                            x       y       z     vdW  Elec       q    Type
REMARK                         _______ _______ _______ _____ _____    ______ ____
ROOT
ATOM      1  C   UNL     1      -8.823  55.178  48.882  0.00  0.00    +0.000 C 
ATOM      2  CA  UNL     1      -8.122  54.484  47.969  0.00  0.00    +0.000 C 
ENDROOT
BRANCH   1   8
ATOM      3  C   UNL     1     -12.841  56.529  49.048  0.00  0.00    +0.000 A 
ATOM      4  C   UNL     1     -12.194  56.172  50.231  0.00  0.00    +0.000 A 
ATOM      5  C   UNL     1     -12.271  56.200  47.816  0.00  0.00    +0.000 A 
ATOM      6  C   UNL     1     -10.906  55.627  50.182  0.00  0.00    +0.000 A 
ATOM      7  C   UNL     1     -10.975  55.677  47.768  0.00  0.00    +0.000 A 
ATOM      8  C   UNL     1     -10.268  55.433  48.951  0.00  0.00    +0.000 A 
BRANCH   3   9
ATOM      9  O   UNL     1     -14.025  57.232  49.151  0.00  0.00    +0.000 OA
BRANCH   9  12
ATOM     10 BR   UNL     1     -13.497  60.198  49.822  0.00  0.00    +0.000 Br
ATOM     11  C   UNL     1     -14.278  58.848  50.901  0.00  0.00    +0.000 A 
ATOM     12  C   UNL     1     -14.476  57.547  50.423  0.00  0.00    +0.000 A 
ATOM     13  C   UNL     1     -14.654  59.187  52.206  0.00  0.00    +0.000 A 
ATOM     14  C   UNL     1     -15.147  56.622  51.238  0.00  0.00    +0.000 A 
ATOM     15  C   UNL     1     -15.253  58.233  53.033  0.00  0.00    +0.000 A 
ATOM     16  C   UNL     1     -15.510  56.956  52.544  0.00  0.00    +0.000 A 
ENDBRANCH   9  12
ENDBRANCH   3   9
ENDBRANCH   1   8
BRANCH   2  17
ATOM     17  N   UNL     1      -8.651  53.702  46.954  0.00  0.00    +0.000 N 
ATOM     18  C   UNL     1      -8.583  54.097  45.628  0.00  0.00    +0.000 C 
ATOM     19  O   UNL     1      -8.159  55.192  45.274  0.00  0.00    +0.000 OA
ATOM     20  H   UNL     1      -9.084  52.847  47.180  0.00  0.00    +0.000 HD
BRANCH  18  21
ATOM     21  C   UNL     1      -9.197  53.199  44.618  0.00  0.00    +0.000 A 
ATOM     22  C   UNL     1      -8.558  53.088  43.375  0.00  0.00    +0.000 A 
ATOM     23  C   UNL     1     -10.329  52.423  44.889  0.00  0.00    +0.000 A 
ATOM     24  C   UNL     1      -9.028  52.193  42.416  0.00  0.00    +0.000 A 
ATOM     25  C   UNL     1     -10.794  51.522  43.924  0.00  0.00    +0.000 A 
ATOM     26  C   UNL     1     -10.141  51.403  42.696  0.00  0.00    +0.000 A 
ENDBRANCH  18  21
ENDBRANCH   2  17
BRANCH   2  27
ATOM     27  C   UNL     1      -6.630  54.576  48.088  0.00  0.00    +0.000 C 
ATOM     28  O   UNL     1      -5.835  53.763  47.655  0.00  0.00    +0.000 OA
ATOM     29  OXT UNL     1      -6.261  55.695  48.758  0.00  0.00    +0.000 OA
ENDBRANCH   2  27
TORSDOF 6
ENDMDL
MODEL 4
REMARK VINA RESULT:      -8.4      3.376      7.671
REMARK  Name = 319853
REMARK  6 active torsions:
REMARK  status: ('A' for Active; 'I' for Inactive)
REMARK    1  A    between atoms: C_3  and  O_5
REMARK    2  A    between atoms: O_5  and  C_8
REMARK    3  A    between atoms: C_14  and  C_15
REMARK    4  A    between atoms: CA_16  and  N_17
REMARK    5  A    between atoms: CA_16  and  C_18
REMARK    6  A    between atoms: C_19  and  C_23
REMARK                            x       y       z     vdW  Elec       q    Type
REMARK                         _______ _______ _______ _____ _____    ______ ____
ROOT
ATOM      1  C   UNL     1     -12.274  56.610  49.367  0.00  0.00    +0.000 C 
ATOM      2  CA  UNL     1     -12.609  56.481  48.072  0.00  0.00    +0.000 C 
ENDROOT
BRANCH   1   8
ATOM      3  C   UNL     1      -8.870  54.645  50.963  0.00  0.00    +0.000 A 
ATOM      4  C   UNL     1     -10.137  54.295  51.428  0.00  0.00    +0.000 A 
ATOM      5  C   UNL     1      -8.706  55.794  50.186  0.00  0.00    +0.000 A 
ATOM      6  C   UNL     1     -11.260  55.006  50.987  0.00  0.00    +0.000 A 
ATOM      7  C   UNL     1      -9.830  56.489  49.729  0.00  0.00    +0.000 A 
ATOM      8  C   UNL     1     -11.115  56.069  50.089  0.00  0.00    +0.000 A 
BRANCH   3   9
ATOM      9  O   UNL     1      -7.818  53.805  51.272  0.00  0.00    +0.000 OA
BRANCH   9  12
ATOM     10 BR   UNL     1      -4.882  54.026  50.344  0.00  0.00    +0.000 Br
ATOM     11  C   UNL     1      -5.613  54.285  52.075  0.00  0.00    +0.000 A 
ATOM     12  C   UNL     1      -6.987  54.176  52.317  0.00  0.00    +0.000 A 
ATOM     13  C   UNL     1      -4.732  54.587  53.120  0.00  0.00    +0.000 A 
ATOM     14  C   UNL     1      -7.473  54.475  53.600  0.00  0.00    +0.000 A 
ATOM     15  C   UNL     1      -5.224  54.808  54.409  0.00  0.00    +0.000 A 
ATOM     16  C   UNL     1      -6.595  54.764  54.645  0.00  0.00    +0.000 A 
ENDBRANCH   9  12
ENDBRANCH   3   9
ENDBRANCH   1   8
BRANCH   2  17
ATOM     17  N   UNL     1     -11.823  55.924  47.075  0.00  0.00    +0.000 N 
ATOM     18  C   UNL     1     -11.741  54.552  46.901  0.00  0.00    +0.000 C 
ATOM     19  O   UNL     1     -12.259  53.746  47.666  0.00  0.00    +0.000 OA
ATOM     20  H   UNL     1     -11.310  56.516  46.478  0.00  0.00    +0.000 HD
BRANCH  18  21
ATOM     21  C   UNL     1     -10.855  54.055  45.819  0.00  0.00    +0.000 A 
ATOM     22  C   UNL     1      -9.485  54.336  45.923  0.00  0.00    +0.000 A 
ATOM     23  C   UNL     1     -11.325  53.271  44.760  0.00  0.00    +0.000 A 
ATOM     24  C   UNL     1      -8.586  53.821  44.992  0.00  0.00    +0.000 A 
ATOM     25  C   UNL     1     -10.417  52.753  43.830  0.00  0.00    +0.000 A 
ATOM     26  C   UNL     1      -9.052  53.021  43.951  0.00  0.00    +0.000 A 
ENDBRANCH  18  21
ENDBRANCH   2  17
BRANCH   2  27
ATOM     27  C   UNL     1     -13.964  57.003  47.697  0.00  0.00    +0.000 C 
ATOM     28  O   UNL     1     -14.241  57.560  46.650  0.00  0.00    +0.000 OA
ATOM     29  OXT UNL     1     -14.864  56.784  48.685  0.00  0.00    +0.000 OA
ENDBRANCH   2  27
TORSDOF 6
ENDMDL
MODEL 5
REMARK VINA RESULT:      -8.3      3.093      7.941
REMARK  Name = 319853
REMARK  6 active torsions:
REMARK  status: ('A' for Active; 'I' for Inactive)
REMARK    1  A    between atoms: C_3  and  O_5
REMARK    2  A    between atoms: O_5  and  C_8
REMARK    3  A    between atoms: C_14  and  C_15
REMARK    4  A    between atoms: CA_16  and  N_17
REMARK    5  A    between atoms: CA_16  and  C_18
REMARK    6  A    between atoms: C_19  and  C_23
REMARK                            x       y       z     vdW  Elec       q    Type
REMARK                         _______ _______ _______ _____ _____    ______ ____
ROOT
ATOM      1  C   UNL     1     -10.540  55.617  48.533  0.00  0.00    +0.000 C 
ATOM      2  CA  UNL     1     -11.703  56.240  48.278  0.00  0.00    +0.000 C 
ENDROOT
BRANCH   1   8
ATOM      3  C   UNL     1      -7.563  55.663  51.555  0.00  0.00    +0.000 A 
ATOM      4  C   UNL     1      -8.515  54.645  51.554  0.00  0.00    +0.000 A 
ATOM      5  C   UNL     1      -7.742  56.784  50.742  0.00  0.00    +0.000 A 
ATOM      6  C   UNL     1      -9.563  54.673  50.627  0.00  0.00    +0.000 A 
ATOM      7  C   UNL     1      -8.776  56.802  49.801  0.00  0.00    +0.000 A 
ATOM      8  C   UNL     1      -9.663  55.723  49.707  0.00  0.00    +0.000 A 
BRANCH   3   9
ATOM      9  O   UNL     1      -6.448  55.500  52.354  0.00  0.00    +0.000 OA
BRANCH   9  12
ATOM     10 BR   UNL     1      -6.053  53.735  54.856  0.00  0.00    +0.000 Br
ATOM     11  C   UNL     1      -5.302  53.543  53.125  0.00  0.00    +0.000 A 
ATOM     12  C   UNL     1      -5.617  54.424  52.084  0.00  0.00    +0.000 A 
ATOM     13  C   UNL     1      -4.410  52.486  52.911  0.00  0.00    +0.000 A 
ATOM     14  C   UNL     1      -5.104  54.169  50.803  0.00  0.00    +0.000 A 
ATOM     15  C   UNL     1      -3.847  52.289  51.647  0.00  0.00    +0.000 A 
ATOM     16  C   UNL     1      -4.204  53.123  50.591  0.00  0.00    +0.000 A 
ENDBRANCH   9  12
ENDBRANCH   3   9
ENDBRANCH   1   8
BRANCH   2  17
ATOM     17  N   UNL     1     -12.425  57.020  49.168  0.00  0.00    +0.000 N 
ATOM     18  C   UNL     1     -13.304  56.453  50.077  0.00  0.00    +0.000 C 
ATOM     19  O   UNL     1     -13.582  55.259  50.087  0.00  0.00    +0.000 OA
ATOM     20  H   UNL     1     -12.313  57.998  49.153  0.00  0.00    +0.000 HD
BRANCH  18  21
ATOM     21  C   UNL     1     -14.046  57.376  50.972  0.00  0.00    +0.000 A 
ATOM     22  C   UNL     1     -14.121  57.040  52.331  0.00  0.00    +0.000 A 
ATOM     23  C   UNL     1     -14.598  58.580  50.522  0.00  0.00    +0.000 A 
ATOM     24  C   UNL     1     -14.722  57.908  53.241  0.00  0.00    +0.000 A 
ATOM     25  C   UNL     1     -15.197  59.450  51.441  0.00  0.00    +0.000 A 
ATOM     26  C   UNL     1     -15.250  59.117  52.796  0.00  0.00    +0.000 A 
ENDBRANCH  18  21
ENDBRANCH   2  17
BRANCH   2  27
ATOM     27  C   UNL     1     -12.251  56.051  46.895  0.00  0.00    +0.000 C 
ATOM     28  O   UNL     1     -11.818  55.274  46.063  0.00  0.00    +0.000 OA
ATOM     29  OXT UNL     1     -13.306  56.871  46.671  0.00  0.00    +0.000 OA
ENDBRANCH   2  27
TORSDOF 6
ENDMDL
MODEL 6
REMARK VINA RESULT:      -8.3      3.022      7.638
REMARK  Name = 319853
REMARK  6 active torsions:
REMARK  status: ('A' for Active; 'I' for Inactive)
REMARK    1  A    between atoms: C_3  and  O_5
REMARK    2  A    between atoms: O_5  and  C_8
REMARK    3  A    between atoms: C_14  and  C_15
REMARK    4  A    between atoms: CA_16  and  N_17
REMARK    5  A    between atoms: CA_16  and  C_18
REMARK    6  A    between atoms: C_19  and  C_23
REMARK                            x       y       z     vdW  Elec       q    Type
REMARK                         _______ _______ _______ _____ _____    ______ ____
ROOT
ATOM      1  C   UNL     1     -10.444  55.597  48.739  0.00  0.00    +0.000 C 
ATOM      2  CA  UNL     1     -11.630  56.144  48.419  0.00  0.00    +0.000 C 
ENDROOT
BRANCH   1   8
ATOM      3  C   UNL     1      -7.605  55.843  51.882  0.00  0.00    +0.000 A 
ATOM      4  C   UNL     1      -8.726  55.029  52.040  0.00  0.00    +0.000 A 
ATOM      5  C   UNL     1      -7.552  56.757  50.826  0.00  0.00    +0.000 A 
ATOM      6  C   UNL     1      -9.722  55.017  51.056  0.00  0.00    +0.000 A 
ATOM      7  C   UNL     1      -8.536  56.729  49.834  0.00  0.00    +0.000 A 
ATOM      8  C   UNL     1      -9.601  55.825  49.920  0.00  0.00    +0.000 A 
BRANCH   3   9
ATOM      9  O   UNL     1      -6.565  55.685  52.776  0.00  0.00    +0.000 OA
BRANCH   9  12
ATOM     10 BR   UNL     1      -4.823  54.146  50.744  0.00  0.00    +0.000 Br
ATOM     11  C   UNL     1      -5.541  53.553  52.397  0.00  0.00    +0.000 A 
ATOM     12  C   UNL     1      -6.291  54.401  53.220  0.00  0.00    +0.000 A 
ATOM     13  C   UNL     1      -5.304  52.227  52.777  0.00  0.00    +0.000 A 
ATOM     14  C   UNL     1      -6.711  53.929  54.474  0.00  0.00    +0.000 A 
ATOM     15  C   UNL     1      -5.793  51.748  53.995  0.00  0.00    +0.000 A 
ATOM     16  C   UNL     1      -6.485  52.603  54.848  0.00  0.00    +0.000 A 
ENDBRANCH   9  12
ENDBRANCH   3   9
ENDBRANCH   1   8
BRANCH   2  17
ATOM     17  N   UNL     1     -12.408  56.946  49.240  0.00  0.00    +0.000 N 
ATOM     18  C   UNL     1     -13.165  56.408  50.269  0.00  0.00    +0.000 C 
ATOM     19  O   UNL     1     -13.284  55.202  50.455  0.00  0.00    +0.000 OA
ATOM     20  H   UNL     1     -12.425  57.918  49.087  0.00  0.00    +0.000 HD
BRANCH  18  21
ATOM     21  C   UNL     1     -13.981  57.349  51.076  0.00  0.00    +0.000 A 
ATOM     22  C   UNL     1     -14.245  56.999  52.408  0.00  0.00    +0.000 A 
ATOM     23  C   UNL     1     -14.423  58.580  50.580  0.00  0.00    +0.000 A 
ATOM     24  C   UNL     1     -14.925  57.879  53.248  0.00  0.00    +0.000 A 
ATOM     25  C   UNL     1     -15.102  59.462  51.430  0.00  0.00    +0.000 A 
ATOM     26  C   UNL     1     -15.344  59.114  52.760  0.00  0.00    +0.000 A 
ENDBRANCH  18  21
ENDBRANCH   2  17
BRANCH   2  27
ATOM     27  C   UNL     1     -12.137  55.836  47.042  0.00  0.00    +0.000 C 
ATOM     28  O   UNL     1     -11.742  54.931  46.330  0.00  0.00    +0.000 OA
ATOM     29  OXT UNL     1     -13.105  56.709  46.671  0.00  0.00    +0.000 OA
ENDBRANCH   2  27
TORSDOF 6
ENDMDL
MODEL 7
REMARK VINA RESULT:      -8.2      3.112      6.640
REMARK  Name = 319853
REMARK  6 active torsions:
REMARK  status: ('A' for Active; 'I' for Inactive)
REMARK    1  A    between atoms: C_3  and  O_5
REMARK    2  A    between atoms: O_5  and  C_8
REMARK    3  A    between atoms: C_14  and  C_15
REMARK    4  A    between atoms: CA_16  and  N_17
REMARK    5  A    between atoms: CA_16  and  C_18
REMARK    6  A    between atoms: C_19  and  C_23
REMARK                            x       y       z     vdW  Elec       q    Type
REMARK                         _______ _______ _______ _____ _____    ______ ____
ROOT
ATOM      1  C   UNL     1     -13.527  55.624  50.082  0.00  0.00    +0.000 C 
ATOM      2  CA  UNL     1     -12.994  56.087  51.226  0.00  0.00    +0.000 C 
ENDROOT
BRANCH   1   8
ATOM      3  C   UNL     1     -11.046  54.467  46.841  0.00  0.00    +0.000 A 
ATOM      4  C   UNL     1     -11.664  55.716  46.812  0.00  0.00    +0.000 A 
ATOM      5  C   UNL     1     -11.441  53.516  47.785  0.00  0.00    +0.000 A 
ATOM      6  C   UNL     1     -12.566  56.070  47.823  0.00  0.00    +0.000 A 
ATOM      7  C   UNL     1     -12.325  53.877  48.806  0.00  0.00    +0.000 A 
ATOM      8  C   UNL     1     -12.854  55.172  48.857  0.00  0.00    +0.000 A 
BRANCH   3   9
ATOM      9  O   UNL     1     -10.028  54.233  45.937  0.00  0.00    +0.000 OA
BRANCH   9  12
ATOM     10 BR   UNL     1      -8.821  51.592  44.889  0.00  0.00    +0.000 Br
ATOM     11  C   UNL     1      -8.078  52.851  46.097  0.00  0.00    +0.000 A 
ATOM     12  C   UNL     1      -8.755  54.027  46.444  0.00  0.00    +0.000 A 
ATOM     13  C   UNL     1      -6.820  52.572  46.645  0.00  0.00    +0.000 A 
ATOM     14  C   UNL     1      -8.108  54.962  47.267  0.00  0.00    +0.000 A 
ATOM     15  C   UNL     1      -6.221  53.479  47.523  0.00  0.00    +0.000 A 
ATOM     16  C   UNL     1      -6.860  54.678  47.824  0.00  0.00    +0.000 A 
ENDBRANCH   9  12
ENDBRANCH   3   9
ENDBRANCH   1   8
BRANCH   2  17
ATOM     17  N   UNL     1     -11.648  56.087  51.561  0.00  0.00    +0.000 N 
ATOM     18  C   UNL     1     -11.043  54.972  52.118  0.00  0.00    +0.000 C 
ATOM     19  O   UNL     1     -11.661  53.966  52.449  0.00  0.00    +0.000 OA
ATOM     20  H   UNL     1     -11.112  56.896  51.400  0.00  0.00    +0.000 HD
BRANCH  18  21
ATOM     21  C   UNL     1      -9.602  55.080  52.461  0.00  0.00    +0.000 A 
ATOM     22  C   UNL     1      -8.706  55.345  51.415  0.00  0.00    +0.000 A 
ATOM     23  C   UNL     1      -9.132  55.000  53.775  0.00  0.00    +0.000 A 
ATOM     24  C   UNL     1      -7.353  55.551  51.680  0.00  0.00    +0.000 A 
ATOM     25  C   UNL     1      -7.773  55.212  54.036  0.00  0.00    +0.000 A 
ATOM     26  C   UNL     1      -6.890  55.494  52.992  0.00  0.00    +0.000 A 
ENDBRANCH  18  21
ENDBRANCH   2  17
BRANCH   2  27
ATOM     27  C   UNL     1     -13.970  56.644  52.218  0.00  0.00    +0.000 C 
ATOM     28  O   UNL     1     -13.730  57.517  53.033  0.00  0.00    +0.000 OA
ATOM     29  OXT UNL     1     -15.180  56.044  52.105  0.00  0.00    +0.000 OA
ENDBRANCH   2  27
TORSDOF 6
ENDMDL
MODEL 8
REMARK VINA RESULT:      -8.1      3.533      6.975
REMARK  Name = 319853
REMARK  6 active torsions:
REMARK  status: ('A' for Active; 'I' for Inactive)
REMARK    1  A    between atoms: C_3  and  O_5
REMARK    2  A    between atoms: O_5  and  C_8
REMARK    3  A    between atoms: C_14  and  C_15
REMARK    4  A    between atoms: CA_16  and  N_17
REMARK    5  A    between atoms: CA_16  and  C_18
REMARK    6  A    between atoms: C_19  and  C_23
REMARK                            x       y       z     vdW  Elec       q    Type
REMARK                         _______ _______ _______ _____ _____    ______ ____
ROOT
ATOM      1  C   UNL     1     -13.356  55.446  49.777  0.00  0.00    +0.000 C 
ATOM      2  CA  UNL     1     -12.909  55.935  50.947  0.00  0.00    +0.000 C 
ENDROOT
BRANCH   1   8
ATOM      3  C   UNL     1     -10.661  54.480  46.647  0.00  0.00    +0.000 A 
ATOM      4  C   UNL     1     -11.467  55.611  46.525  0.00  0.00    +0.000 A 
ATOM      5  C   UNL     1     -10.921  53.544  47.651  0.00  0.00    +0.000 A 
ATOM      6  C   UNL     1     -12.433  55.884  47.501  0.00  0.00    +0.000 A 
ATOM      7  C   UNL     1     -11.870  53.829  48.637  0.00  0.00    +0.000 A 
ATOM      8  C   UNL     1     -12.597  55.024  48.592  0.00  0.00    +0.000 A 
BRANCH   3   9
ATOM      9  O   UNL     1      -9.602  54.349  45.771  0.00  0.00    +0.000 OA
BRANCH   9  12
ATOM     10 BR   UNL     1      -7.212  52.602  46.649  0.00  0.00    +0.000 Br
ATOM     11  C   UNL     1      -8.475  52.295  45.268  0.00  0.00    +0.000 A 
ATOM     12  C   UNL     1      -9.528  53.184  45.023  0.00  0.00    +0.000 A 
ATOM     13  C   UNL     1      -8.325  51.144  44.486  0.00  0.00    +0.000 A 
ATOM     14  C   UNL     1     -10.484  52.850  44.050  0.00  0.00    +0.000 A 
ATOM     15  C   UNL     1      -9.242  50.862  43.470  0.00  0.00    +0.000 A 
ATOM     16  C   UNL     1     -10.328  51.709  43.261  0.00  0.00    +0.000 A 
ENDBRANCH   9  12
ENDBRANCH   3   9
ENDBRANCH   1   8
BRANCH   2  17
ATOM     17  N   UNL     1     -11.586  55.999  51.355  0.00  0.00    +0.000 N 
ATOM     18  C   UNL     1     -11.000  54.967  52.070  0.00  0.00    +0.000 C 
ATOM     19  O   UNL     1     -11.624  53.994  52.479  0.00  0.00    +0.000 OA
ATOM     20  H   UNL     1     -11.050  56.794  51.132  0.00  0.00    +0.000 HD
BRANCH  18  21
ATOM     21  C   UNL     1      -9.583  55.140  52.479  0.00  0.00    +0.000 A 
ATOM     22  C   UNL     1      -8.670  55.546  51.494  0.00  0.00    +0.000 A 
ATOM     23  C   UNL     1      -9.156  54.985  53.801  0.00  0.00    +0.000 A 
ATOM     24  C   UNL     1      -7.345  55.818  51.829  0.00  0.00    +0.000 A 
ATOM     25  C   UNL     1      -7.825  55.263  54.133  0.00  0.00    +0.000 A 
ATOM     26  C   UNL     1      -6.926  55.686  53.151  0.00  0.00    +0.000 A 
ENDBRANCH  18  21
ENDBRANCH   2  17
BRANCH   2  27
ATOM     27  C   UNL     1     -13.963  56.448  51.882  0.00  0.00    +0.000 C 
ATOM     28  O   UNL     1     -13.782  57.250  52.780  0.00  0.00    +0.000 OA
ATOM     29  OXT UNL     1     -15.170  55.896  51.608  0.00  0.00    +0.000 OA
ENDBRANCH   2  27
TORSDOF 6
ENDMDL
MODEL 9
REMARK VINA RESULT:      -7.9      3.458      7.702
REMARK  Name = 319853
REMARK  6 active torsions:
REMARK  status: ('A' for Active; 'I' for Inactive)
REMARK    1  A    between atoms: C_3  and  O_5
REMARK    2  A    between atoms: O_5  and  C_8
REMARK    3  A    between atoms: C_14  and  C_15
REMARK    4  A    between atoms: CA_16  and  N_17
REMARK    5  A    between atoms: CA_16  and  C_18
REMARK    6  A    between atoms: C_19  and  C_23
REMARK                            x       y       z     vdW  Elec       q    Type
REMARK                         _______ _______ _______ _____ _____    ______ ____
ROOT
ATOM      1  C   UNL     1     -12.156  56.848  49.465  0.00  0.00    +0.000 C 
ATOM      2  CA  UNL     1     -12.786  56.483  48.335  0.00  0.00    +0.000 C 
ENDROOT
BRANCH   1   8
ATOM      3  C   UNL     1      -9.738  55.042  52.446  0.00  0.00    +0.000 A 
ATOM      4  C   UNL     1      -9.162  55.397  51.227  0.00  0.00    +0.000 A 
ATOM      5  C   UNL     1     -11.127  55.039  52.586  0.00  0.00    +0.000 A 
ATOM      6  C   UNL     1      -9.968  55.897  50.197  0.00  0.00    +0.000 A 
ATOM      7  C   UNL     1     -11.929  55.560  51.566  0.00  0.00    +0.000 A 
ATOM      8  C   UNL     1     -11.348  56.036  50.385  0.00  0.00    +0.000 A 
BRANCH   3   9
ATOM      9  O   UNL     1      -8.889  54.734  53.491  0.00  0.00    +0.000 OA
BRANCH   9  12
ATOM     10 BR   UNL     1      -5.903  55.352  53.973  0.00  0.00    +0.000 Br
ATOM     11  C   UNL     1      -6.726  53.703  53.523  0.00  0.00    +0.000 A 
ATOM     12  C   UNL     1      -8.114  53.591  53.372  0.00  0.00    +0.000 A 
ATOM     13  C   UNL     1      -5.902  52.587  53.339  0.00  0.00    +0.000 A 
ATOM     14  C   UNL     1      -8.667  52.323  53.133  0.00  0.00    +0.000 A 
ATOM     15  C   UNL     1      -6.463  51.346  53.027  0.00  0.00    +0.000 A 
ATOM     16  C   UNL     1      -7.845  51.212  52.937  0.00  0.00    +0.000 A 
ENDBRANCH   9  12
ENDBRANCH   3   9
ENDBRANCH   1   8
BRANCH   2  17
ATOM     17  N   UNL     1     -12.671  55.261  47.692  0.00  0.00    +0.000 N 
ATOM     18  C   UNL     1     -11.589  54.973  46.875  0.00  0.00    +0.000 C 
ATOM     19  O   UNL     1     -10.731  55.799  46.581  0.00  0.00    +0.000 OA
ATOM     20  H   UNL     1     -13.373  54.582  47.817  0.00  0.00    +0.000 HD
BRANCH  18  21
ATOM     21  C   UNL     1     -11.569  53.644  46.215  0.00  0.00    +0.000 A 
ATOM     22  C   UNL     1     -12.226  52.588  46.864  0.00  0.00    +0.000 A 
ATOM     23  C   UNL     1     -10.990  53.435  44.959  0.00  0.00    +0.000 A 
ATOM     24  C   UNL     1     -12.325  51.338  46.257  0.00  0.00    +0.000 A 
ATOM     25  C   UNL     1     -11.097  52.178  44.351  0.00  0.00    +0.000 A 
ATOM     26  C   UNL     1     -11.769  51.138  44.996  0.00  0.00    +0.000 A 
ENDBRANCH  18  21
ENDBRANCH   2  17
BRANCH   2  27
ATOM     27  C   UNL     1     -13.687  57.519  47.731  0.00  0.00    +0.000 C 
ATOM     28  O   UNL     1     -14.317  57.391  46.697  0.00  0.00    +0.000 OA
ATOM     29  OXT UNL     1     -13.713  58.644  48.485  0.00  0.00    +0.000 OA
ENDBRANCH   2  27
TORSDOF 6
ENDMDL
