MODEL 1
REMARK VINA RESULT:      -9.0      0.000      0.000
REMARK  Name = 338168
REMARK  5 active torsions:
REMARK  status: ('A' for Active; 'I' for Inactive)
REMARK    1  A    between atoms: C_6  and  C_10
REMARK    2  A    between atoms: C_14  and  O_18
REMARK    3  A    between atoms: N_17  and  C_21
REMARK    4  A    between atoms: C_21  and  C_24
REMARK    5  A    between atoms: C_24  and  C_27
REMARK                            x       y       z     vdW  Elec       q    Type
REMARK                         _______ _______ _______ _____ _____    ______ ____
ROOT
ATOM      1  C   UNL     1       9.177  -8.734 -13.027  0.00  0.00    +0.000 A 
ATOM      2  C   UNL     1      10.147  -9.057 -11.950  0.00  0.00    +0.000 A 
ATOM      3  C   UNL     1       7.861  -8.710 -12.762  0.00  0.00    +0.000 A 
ATOM      4  O   UNL     1      11.321  -9.241 -12.279  0.00  0.00    +0.000 OA
ATOM      5  N   UNL     1       9.700  -9.102 -10.628  0.00  0.00    +0.000 N 
ATOM      6  C   UNL     1       7.372  -8.940 -11.399  0.00  0.00    +0.000 A 
ATOM      7  C   UNL     1       8.288  -9.110 -10.341  0.00  0.00    +0.000 A 
ATOM      8  C   UNL     1       5.988  -8.945 -11.143  0.00  0.00    +0.000 A 
ATOM      9  C   UNL     1       7.774  -9.285  -9.043  0.00  0.00    +0.000 A 
ATOM     10  C   UNL     1       5.515  -9.095  -9.850  0.00  0.00    +0.000 A 
ATOM     11  C   UNL     1       6.395  -9.261  -8.797  0.00  0.00    +0.000 A 
ATOM     12  F   UNL     1       4.197  -9.069  -9.617  0.00  0.00    +0.000 F 
ENDROOT
BRANCH   1  18
ATOM     13  S   UNL     1      11.448  -7.117 -15.877  0.00  0.00    +0.000 S 
ATOM     14  O   UNL     1      12.655  -7.889 -15.676  0.00  0.00    +0.000 OA
ATOM     15  O   UNL     1      11.481  -5.697 -16.144  0.00  0.00    +0.000 OA
ATOM     16  N   UNL     1      10.475  -7.332 -14.561  0.00  0.00    +0.000 N 
ATOM     17  C   UNL     1      10.520  -7.886 -17.132  0.00  0.00    +0.000 A 
ATOM     18  C   UNL     1       9.639  -8.432 -14.417  0.00  0.00    +0.000 C 
ATOM     19  C   UNL     1       9.547  -8.800 -16.745  0.00  0.00    +0.000 A 
ATOM     20  C   UNL     1      10.746  -7.555 -18.472  0.00  0.00    +0.000 A 
ATOM     21  N   UNL     1       9.257  -9.163 -15.419  0.00  0.00    +0.000 N 
ATOM     22  C   UNL     1       8.769  -9.384 -17.751  0.00  0.00    +0.000 A 
ATOM     23  C   UNL     1       9.969  -8.157 -19.458  0.00  0.00    +0.000 A 
ATOM     24  C   UNL     1       8.975  -9.066 -19.097  0.00  0.00    +0.000 A 
ATOM     25  H   UNL     1      10.486  -6.652 -13.849  0.00  0.00    +0.000 HD
ATOM     26  H   UNL     1       8.754  -9.991 -15.246  0.00  0.00    +0.000 HD
ENDBRANCH   1  18
BRANCH   3  27
ATOM     27  O   UNL     1       6.872  -8.453 -13.699  0.00  0.00    +0.000 OA
ATOM     28  H   UNL     1       5.981  -8.357 -13.425  0.00  0.00    +0.000 HD
ENDBRANCH   3  27
BRANCH   5  29
ATOM     29  C   UNL     1      10.681  -9.361  -9.548  0.00  0.00    +0.000 C 
BRANCH  29  30
ATOM     30  C   UNL     1      11.037  -8.167  -8.642  0.00  0.00    +0.000 C 
BRANCH  30  31
ATOM     31  C   UNL     1      11.818  -7.096  -9.353  0.00  0.00    +0.000 C 
ATOM     32  C   UNL     1      12.189  -5.783  -8.716  0.00  0.00    +0.000 C 
ATOM     33  C   UNL     1      11.100  -5.831  -9.751  0.00  0.00    +0.000 C 
ENDBRANCH  30  31
ENDBRANCH  29  30
ENDBRANCH   5  29
TORSDOF 5
ENDMDL
MODEL 2
REMARK VINA RESULT:      -8.6      2.130      4.107
REMARK  Name = 338168
REMARK  5 active torsions:
REMARK  status: ('A' for Active; 'I' for Inactive)
REMARK    1  A    between atoms: C_6  and  C_10
REMARK    2  A    between atoms: C_14  and  O_18
REMARK    3  A    between atoms: N_17  and  C_21
REMARK    4  A    between atoms: C_21  and  C_24
REMARK    5  A    between atoms: C_24  and  C_27
REMARK                            x       y       z     vdW  Elec       q    Type
REMARK                         _______ _______ _______ _____ _____    ______ ____
ROOT
ATOM      1  C   UNL     1      10.167  -7.964 -13.212  0.00  0.00    +0.000 A 
ATOM      2  C   UNL     1       9.183  -8.797 -12.475  0.00  0.00    +0.000 A 
ATOM      3  C   UNL     1      11.109  -7.282 -12.540  0.00  0.00    +0.000 A 
ATOM      4  O   UNL     1       8.235  -9.257 -13.116  0.00  0.00    +0.000 OA
ATOM      5  N   UNL     1       9.391  -9.049 -11.118  0.00  0.00    +0.000 N 
ATOM      6  C   UNL     1      11.216  -7.402 -11.082  0.00  0.00    +0.000 A 
ATOM      7  C   UNL     1      10.378  -8.296 -10.385  0.00  0.00    +0.000 A 
ATOM      8  C   UNL     1      12.186  -6.656 -10.387  0.00  0.00    +0.000 A 
ATOM      9  C   UNL     1      10.545  -8.410  -8.992  0.00  0.00    +0.000 A 
ATOM     10  C   UNL     1      12.342  -6.810  -9.020  0.00  0.00    +0.000 A 
ATOM     11  C   UNL     1      11.532  -7.683  -8.316  0.00  0.00    +0.000 A 
ATOM     12  F   UNL     1      13.288  -6.116  -8.376  0.00  0.00    +0.000 F 
ENDROOT
BRANCH   1  18
ATOM     13  S   UNL     1      10.642  -6.286 -16.797  0.00  0.00    +0.000 S 
ATOM     14  O   UNL     1      12.087  -6.288 -16.863  0.00  0.00    +0.000 OA
ATOM     15  O   UNL     1       9.855  -5.161 -17.248  0.00  0.00    +0.000 OA
ATOM     16  N   UNL     1      10.198  -6.581 -15.235  0.00  0.00    +0.000 N 
ATOM     17  C   UNL     1      10.065  -7.714 -17.605  0.00  0.00    +0.000 A 
ATOM     18  C   UNL     1      10.131  -7.864 -14.703  0.00  0.00    +0.000 C 
ATOM     19  C   UNL     1       9.828  -8.842 -16.829  0.00  0.00    +0.000 A 
ATOM     20  C   UNL     1       9.827  -7.690 -18.983  0.00  0.00    +0.000 A 
ATOM     21  N   UNL     1      10.028  -8.927 -15.440  0.00  0.00    +0.000 N 
ATOM     22  C   UNL     1       9.319  -9.977 -17.470  0.00  0.00    +0.000 A 
ATOM     23  C   UNL     1       9.332  -8.834 -19.604  0.00  0.00    +0.000 A 
ATOM     24  C   UNL     1       9.072  -9.975 -18.847  0.00  0.00    +0.000 A 
ATOM     25  H   UNL     1       9.971  -5.819 -14.656  0.00  0.00    +0.000 HD
ATOM     26  H   UNL     1      10.091  -9.813 -15.017  0.00  0.00    +0.000 HD
ENDBRANCH   1  18
BRANCH   3  27
ATOM     27  O   UNL     1      12.052  -6.452 -13.125  0.00  0.00    +0.000 OA
ATOM     28  H   UNL     1      12.939  -6.464 -12.823  0.00  0.00    +0.000 HD
ENDBRANCH   3  27
BRANCH   5  29
ATOM     29  C   UNL     1       8.444  -9.933 -10.399  0.00  0.00    +0.000 C 
BRANCH  29  30
ATOM     30  C   UNL     1       7.262  -9.245  -9.692  0.00  0.00    +0.000 C 
BRANCH  30  31
ATOM     31  C   UNL     1       5.921  -9.744 -10.158  0.00  0.00    +0.000 C 
ATOM     32  C   UNL     1       5.218  -9.209 -11.377  0.00  0.00    +0.000 C 
ATOM     33  C   UNL     1       4.727  -8.836 -10.007  0.00  0.00    +0.000 C 
ENDBRANCH  30  31
ENDBRANCH  29  30
ENDBRANCH   5  29
TORSDOF 5
ENDMDL
MODEL 3
REMARK VINA RESULT:      -8.4      1.112      1.561
REMARK  Name = 338168
REMARK  5 active torsions:
REMARK  status: ('A' for Active; 'I' for Inactive)
REMARK    1  A    between atoms: C_6  and  C_10
REMARK    2  A    between atoms: C_14  and  O_18
REMARK    3  A    between atoms: N_17  and  C_21
REMARK    4  A    between atoms: C_21  and  C_24
REMARK    5  A    between atoms: C_24  and  C_27
REMARK                            x       y       z     vdW  Elec       q    Type
REMARK                         _______ _______ _______ _____ _____    ______ ____
ROOT
ATOM      1  C   UNL     1       9.390  -8.621 -13.255  0.00  0.00    +0.000 A 
ATOM      2  C   UNL     1      10.418  -8.818 -12.202  0.00  0.00    +0.000 A 
ATOM      3  C   UNL     1       8.086  -8.714 -12.948  0.00  0.00    +0.000 A 
ATOM      4  O   UNL     1      11.595  -8.899 -12.564  0.00  0.00    +0.000 OA
ATOM      5  N   UNL     1      10.017  -8.866 -10.865  0.00  0.00    +0.000 N 
ATOM      6  C   UNL     1       7.662  -8.950 -11.564  0.00  0.00    +0.000 A 
ATOM      7  C   UNL     1       8.622  -9.000 -10.532  0.00  0.00    +0.000 A 
ATOM      8  C   UNL     1       6.293  -9.079 -11.263  0.00  0.00    +0.000 A 
ATOM      9  C   UNL     1       8.166  -9.184  -9.213  0.00  0.00    +0.000 A 
ATOM     10  C   UNL     1       5.876  -9.235  -9.952  0.00  0.00    +0.000 A 
ATOM     11  C   UNL     1       6.799  -9.285  -8.924  0.00  0.00    +0.000 A 
ATOM     12  F   UNL     1       4.570  -9.327  -9.676  0.00  0.00    +0.000 F 
ENDROOT
BRANCH   1  18
ATOM     13  S   UNL     1      11.475  -6.957 -16.218  0.00  0.00    +0.000 S 
ATOM     14  O   UNL     1      12.715  -7.686 -16.064  0.00  0.00    +0.000 OA
ATOM     15  O   UNL     1      11.447  -5.540 -16.499  0.00  0.00    +0.000 OA
ATOM     16  N   UNL     1      10.569  -7.191 -14.858  0.00  0.00    +0.000 N 
ATOM     17  C   UNL     1      10.519  -7.771 -17.423  0.00  0.00    +0.000 A 
ATOM     18  C   UNL     1       9.779  -8.318 -14.666  0.00  0.00    +0.000 C 
ATOM     19  C   UNL     1       9.597  -8.713 -16.985  0.00  0.00    +0.000 A 
ATOM     20  C   UNL     1      10.674  -7.446 -18.775  0.00  0.00    +0.000 A 
ATOM     21  N   UNL     1       9.379  -9.072 -15.644  0.00  0.00    +0.000 N 
ATOM     22  C   UNL     1       8.795  -9.333 -17.950  0.00  0.00    +0.000 A 
ATOM     23  C   UNL     1       9.875  -8.084 -19.719  0.00  0.00    +0.000 A 
ATOM     24  C   UNL     1       8.930  -9.023 -19.306  0.00  0.00    +0.000 A 
ATOM     25  H   UNL     1      10.589  -6.504 -14.153  0.00  0.00    +0.000 HD
ATOM     26  H   UNL     1       8.912  -9.915 -15.442  0.00  0.00    +0.000 HD
ENDBRANCH   1  18
BRANCH   3  27
ATOM     27  O   UNL     1       7.049  -8.581 -13.859  0.00  0.00    +0.000 OA
ATOM     28  H   UNL     1       6.292  -9.129 -13.789  0.00  0.00    +0.000 HD
ENDBRANCH   3  27
BRANCH   5  29
ATOM     29  C   UNL     1      11.050  -8.998  -9.811  0.00  0.00    +0.000 C 
BRANCH  29  30
ATOM     30  C   UNL     1      11.647 -10.402  -9.604  0.00  0.00    +0.000 C 
BRANCH  30  31
ATOM     31  C   UNL     1      13.143 -10.392  -9.441  0.00  0.00    +0.000 C 
ATOM     32  C   UNL     1      14.031  -9.326 -10.029  0.00  0.00    +0.000 C 
ATOM     33  C   UNL     1      13.997 -10.696 -10.646  0.00  0.00    +0.000 C 
ENDBRANCH  30  31
ENDBRANCH  29  30
ENDBRANCH   5  29
TORSDOF 5
ENDMDL
MODEL 4
REMARK VINA RESULT:      -8.3      1.625      2.031
REMARK  Name = 338168
REMARK  5 active torsions:
REMARK  status: ('A' for Active; 'I' for Inactive)
REMARK    1  A    between atoms: C_6  and  C_10
REMARK    2  A    between atoms: C_14  and  O_18
REMARK    3  A    between atoms: N_17  and  C_21
REMARK    4  A    between atoms: C_21  and  C_24
REMARK    5  A    between atoms: C_24  and  C_27
REMARK                            x       y       z     vdW  Elec       q    Type
REMARK                         _______ _______ _______ _____ _____    ______ ____
ROOT
ATOM      1  C   UNL     1      10.064  -7.995 -13.448  0.00  0.00    +0.000 A 
ATOM      2  C   UNL     1      11.228  -7.566 -12.631  0.00  0.00    +0.000 A 
ATOM      3  C   UNL     1       8.992  -8.545 -12.855  0.00  0.00    +0.000 A 
ATOM      4  O   UNL     1      12.252  -7.234 -13.232  0.00  0.00    +0.000 OA
ATOM      5  N   UNL     1      11.101  -7.525 -11.241  0.00  0.00    +0.000 N 
ATOM      6  C   UNL     1       8.932  -8.672 -11.395  0.00  0.00    +0.000 A 
ATOM      7  C   UNL     1       9.969  -8.144 -10.599  0.00  0.00    +0.000 A 
ATOM      8  C   UNL     1       7.817  -9.282 -10.790  0.00  0.00    +0.000 A 
ATOM      9  C   UNL     1       9.848  -8.250  -9.201  0.00  0.00    +0.000 A 
ATOM     10  C   UNL     1       7.718  -9.348  -9.411  0.00  0.00    +0.000 A 
ATOM     11  C   UNL     1       8.721  -8.834  -8.610  0.00  0.00    +0.000 A 
ATOM     12  F   UNL     1       6.638  -9.904  -8.848  0.00  0.00    +0.000 F 
ENDROOT
BRANCH   1  18
ATOM     13  S   UNL     1      10.647  -6.167 -16.942  0.00  0.00    +0.000 S 
ATOM     14  O   UNL     1      12.092  -6.198 -16.980  0.00  0.00    +0.000 OA
ATOM     15  O   UNL     1       9.892  -5.006 -17.357  0.00  0.00    +0.000 OA
ATOM     16  N   UNL     1      10.165  -6.523 -15.404  0.00  0.00    +0.000 N 
ATOM     17  C   UNL     1      10.055  -7.544 -17.826  0.00  0.00    +0.000 A 
ATOM     18  C   UNL     1      10.060  -7.826 -14.933  0.00  0.00    +0.000 C 
ATOM     19  C   UNL     1       9.779  -8.700 -17.107  0.00  0.00    +0.000 A 
ATOM     20  C   UNL     1       9.846  -7.452 -19.206  0.00  0.00    +0.000 A 
ATOM     21  N   UNL     1       9.949  -8.853 -15.720  0.00  0.00    +0.000 N 
ATOM     22  C   UNL     1       9.260  -9.793 -17.809  0.00  0.00    +0.000 A 
ATOM     23  C   UNL     1       9.340  -8.555 -19.888  0.00  0.00    +0.000 A 
ATOM     24  C   UNL     1       9.040  -9.724 -19.188  0.00  0.00    +0.000 A 
ATOM     25  H   UNL     1       9.942  -5.783 -14.795  0.00  0.00    +0.000 HD
ATOM     26  H   UNL     1       9.986  -9.759 -15.337  0.00  0.00    +0.000 HD
ENDBRANCH   1  18
BRANCH   3  27
ATOM     27  O   UNL     1       7.870  -9.008 -13.525  0.00  0.00    +0.000 OA
ATOM     28  H   UNL     1       7.391  -8.432 -14.087  0.00  0.00    +0.000 HD
ENDBRANCH   3  27
BRANCH   5  29
ATOM     29  C   UNL     1      12.241  -7.036 -10.431  0.00  0.00    +0.000 C 
BRANCH  29  30
ATOM     30  C   UNL     1      13.356  -8.054 -10.127  0.00  0.00    +0.000 C 
BRANCH  30  31
ATOM     31  C   UNL     1      13.989  -7.854  -8.777  0.00  0.00    +0.000 C 
ATOM     32  C   UNL     1      14.662  -6.572  -8.362  0.00  0.00    +0.000 C 
ATOM     33  C   UNL     1      15.493  -7.779  -8.695  0.00  0.00    +0.000 C 
ENDBRANCH  30  31
ENDBRANCH  29  30
ENDBRANCH   5  29
TORSDOF 5
ENDMDL
MODEL 5
REMARK VINA RESULT:      -8.3      1.714      2.124
REMARK  Name = 338168
REMARK  5 active torsions:
REMARK  status: ('A' for Active; 'I' for Inactive)
REMARK    1  A    between atoms: C_6  and  C_10
REMARK    2  A    between atoms: C_14  and  O_18
REMARK    3  A    between atoms: N_17  and  C_21
REMARK    4  A    between atoms: C_21  and  C_24
REMARK    5  A    between atoms: C_24  and  C_27
REMARK                            x       y       z     vdW  Elec       q    Type
REMARK                         _______ _______ _______ _____ _____    ______ ____
ROOT
ATOM      1  C   UNL     1       8.863  -9.367 -12.946  0.00  0.00    +0.000 A 
ATOM      2  C   UNL     1       9.908  -9.687 -11.941  0.00  0.00    +0.000 A 
ATOM      3  C   UNL     1       7.603  -9.119 -12.552  0.00  0.00    +0.000 A 
ATOM      4  O   UNL     1      10.999 -10.079 -12.361  0.00  0.00    +0.000 OA
ATOM      5  N   UNL     1       9.625  -9.497 -10.587  0.00  0.00    +0.000 N 
ATOM      6  C   UNL     1       7.260  -9.099 -11.126  0.00  0.00    +0.000 A 
ATOM      7  C   UNL     1       8.270  -9.264 -10.156  0.00  0.00    +0.000 A 
ATOM      8  C   UNL     1       5.929  -8.871 -10.729  0.00  0.00    +0.000 A 
ATOM      9  C   UNL     1       7.901  -9.194  -8.800  0.00  0.00    +0.000 A 
ATOM     10  C   UNL     1       5.604  -8.784  -9.386  0.00  0.00    +0.000 A 
ATOM     11  C   UNL     1       6.578  -8.940  -8.418  0.00  0.00    +0.000 A 
ATOM     12  F   UNL     1       4.339  -8.537  -9.023  0.00  0.00    +0.000 F 
ENDROOT
BRANCH   1  18
ATOM     13  S   UNL     1       9.469 -10.770 -16.629  0.00  0.00    +0.000 S 
ATOM     14  O   UNL     1       8.107 -11.112 -16.972  0.00  0.00    +0.000 OA
ATOM     15  O   UNL     1      10.585 -11.624 -16.970  0.00  0.00    +0.000 OA
ATOM     16  N   UNL     1       9.542 -10.522 -14.998  0.00  0.00    +0.000 N 
ATOM     17  C   UNL     1       9.796  -9.175 -17.243  0.00  0.00    +0.000 A 
ATOM     18  C   UNL     1       9.185  -9.317 -14.405  0.00  0.00    +0.000 C 
ATOM     19  C   UNL     1       9.597  -8.101 -16.385  0.00  0.00    +0.000 A 
ATOM     20  C   UNL     1      10.270  -9.013 -18.549  0.00  0.00    +0.000 A 
ATOM     21  N   UNL     1       9.141  -8.196 -15.059  0.00  0.00    +0.000 N 
ATOM     22  C   UNL     1       9.903  -6.822 -16.864  0.00  0.00    +0.000 A 
ATOM     23  C   UNL     1      10.558  -7.731 -19.009  0.00  0.00    +0.000 A 
ATOM     24  C   UNL     1      10.381  -6.636 -18.165  0.00  0.00    +0.000 A 
ATOM     25  H   UNL     1       9.851 -11.257 -14.421  0.00  0.00    +0.000 HD
ATOM     26  H   UNL     1       8.780  -7.395 -14.616  0.00  0.00    +0.000 HD
ENDBRANCH   1  18
BRANCH   3  27
ATOM     27  O   UNL     1       6.547  -8.844 -13.408  0.00  0.00    +0.000 OA
ATOM     28  H   UNL     1       6.620  -9.046 -14.320  0.00  0.00    +0.000 HD
ENDBRANCH   3  27
BRANCH   5  29
ATOM     29  C   UNL     1      10.690  -9.754  -9.589  0.00  0.00    +0.000 C 
BRANCH  29  30
ATOM     30  C   UNL     1      11.691  -8.610  -9.341  0.00  0.00    +0.000 C 
BRANCH  30  31
ATOM     31  C   UNL     1      11.025  -7.286  -9.083  0.00  0.00    +0.000 C 
ATOM     32  C   UNL     1      10.783  -6.260 -10.159  0.00  0.00    +0.000 C 
ATOM     33  C   UNL     1      11.868  -6.037  -9.143  0.00  0.00    +0.000 C 
ENDBRANCH  30  31
ENDBRANCH  29  30
ENDBRANCH   5  29
TORSDOF 5
ENDMDL
MODEL 6
REMARK VINA RESULT:      -8.0      2.922      4.946
REMARK  Name = 338168
REMARK  5 active torsions:
REMARK  status: ('A' for Active; 'I' for Inactive)
REMARK    1  A    between atoms: C_6  and  C_10
REMARK    2  A    between atoms: C_14  and  O_18
REMARK    3  A    between atoms: N_17  and  C_21
REMARK    4  A    between atoms: C_21  and  C_24
REMARK    5  A    between atoms: C_24  and  C_27
REMARK                            x       y       z     vdW  Elec       q    Type
REMARK                         _______ _______ _______ _____ _____    ______ ____
ROOT
ATOM      1  C   UNL     1      11.643  -7.279 -12.738  0.00  0.00    +0.000 A 
ATOM      2  C   UNL     1      10.661  -7.432 -11.635  0.00  0.00    +0.000 A 
ATOM      3  C   UNL     1      12.931  -7.016 -12.461  0.00  0.00    +0.000 A 
ATOM      4  O   UNL     1       9.468  -7.495 -11.941  0.00  0.00    +0.000 OA
ATOM      5  N   UNL     1      11.127  -7.533 -10.322  0.00  0.00    +0.000 N 
ATOM      6  C   UNL     1      13.392  -6.939 -11.071  0.00  0.00    +0.000 A 
ATOM      7  C   UNL     1      12.499  -7.219 -10.016  0.00  0.00    +0.000 A 
ATOM      8  C   UNL     1      14.737  -6.629 -10.796  0.00  0.00    +0.000 A 
ATOM      9  C   UNL     1      12.997  -7.174  -8.700  0.00  0.00    +0.000 A 
ATOM     10  C   UNL     1      15.200  -6.618  -9.491  0.00  0.00    +0.000 A 
ATOM     11  C   UNL     1      14.344  -6.891  -8.441  0.00  0.00    +0.000 A 
ATOM     12  F   UNL     1      16.489  -6.350  -9.245  0.00  0.00    +0.000 F 
ENDROOT
BRANCH   1  18
ATOM     13  S   UNL     1      11.414  -6.335 -16.605  0.00  0.00    +0.000 S 
ATOM     14  O   UNL     1      12.767  -6.660 -17.001  0.00  0.00    +0.000 OA
ATOM     15  O   UNL     1      10.735  -5.154 -17.085  0.00  0.00    +0.000 OA
ATOM     16  N   UNL     1      11.362  -6.276 -14.955  0.00  0.00    +0.000 N 
ATOM     17  C   UNL     1      10.409  -7.715 -16.940  0.00  0.00    +0.000 A 
ATOM     18  C   UNL     1      11.225  -7.412 -14.167  0.00  0.00    +0.000 C 
ATOM     19  C   UNL     1      10.203  -8.627 -15.913  0.00  0.00    +0.000 A 
ATOM     20  C   UNL     1       9.818  -7.860 -18.199  0.00  0.00    +0.000 A 
ATOM     21  N   UNL     1      10.751  -8.532 -14.622  0.00  0.00    +0.000 N 
ATOM     22  C   UNL     1       9.358  -9.713 -16.167  0.00  0.00    +0.000 A 
ATOM     23  C   UNL     1       8.990  -8.954 -18.436  0.00  0.00    +0.000 A 
ATOM     24  C   UNL     1       8.754  -9.877 -17.418  0.00  0.00    +0.000 A 
ATOM     25  H   UNL     1      11.430  -5.400 -14.512  0.00  0.00    +0.000 HD
ATOM     26  H   UNL     1      10.776  -9.332 -14.050  0.00  0.00    +0.000 HD
ENDBRANCH   1  18
BRANCH   3  27
ATOM     27  O   UNL     1      13.919  -6.823 -13.413  0.00  0.00    +0.000 OA
ATOM     28  H   UNL     1      13.839  -7.219 -14.258  0.00  0.00    +0.000 HD
ENDBRANCH   3  27
BRANCH   5  29
ATOM     29  C   UNL     1      10.151  -7.750  -9.229  0.00  0.00    +0.000 C 
BRANCH  29  30
ATOM     30  C   UNL     1       9.357  -9.069  -9.268  0.00  0.00    +0.000 C 
BRANCH  30  31
ATOM     31  C   UNL     1       7.867  -8.865  -9.240  0.00  0.00    +0.000 C 
ATOM     32  C   UNL     1       6.998  -9.279  -8.082  0.00  0.00    +0.000 C 
ATOM     33  C   UNL     1       6.976 -10.075  -9.356  0.00  0.00    +0.000 C 
ENDBRANCH  30  31
ENDBRANCH  29  30
ENDBRANCH   5  29
TORSDOF 5
ENDMDL
MODEL 7
REMARK VINA RESULT:      -7.9      3.361      7.367
REMARK  Name = 338168
REMARK  5 active torsions:
REMARK  status: ('A' for Active; 'I' for Inactive)
REMARK    1  A    between atoms: C_6  and  C_10
REMARK    2  A    between atoms: C_14  and  O_18
REMARK    3  A    between atoms: N_17  and  C_21
REMARK    4  A    between atoms: C_21  and  C_24
REMARK    5  A    between atoms: C_24  and  C_27
REMARK                            x       y       z     vdW  Elec       q    Type
REMARK                         _______ _______ _______ _____ _____    ______ ____
ROOT
ATOM      1  C   UNL     1       9.989  -7.795 -14.212  0.00  0.00    +0.000 A 
ATOM      2  C   UNL     1      11.010  -6.782 -14.582  0.00  0.00    +0.000 A 
ATOM      3  C   UNL     1       9.370  -8.507 -15.169  0.00  0.00    +0.000 A 
ATOM      4  O   UNL     1      11.418  -6.035 -13.689  0.00  0.00    +0.000 OA
ATOM      5  N   UNL     1      11.481  -6.744 -15.896  0.00  0.00    +0.000 N 
ATOM      6  C   UNL     1       9.737  -8.336 -16.578  0.00  0.00    +0.000 A 
ATOM      7  C   UNL     1      10.800  -7.479 -16.931  0.00  0.00    +0.000 A 
ATOM      8  C   UNL     1       9.056  -9.063 -17.572  0.00  0.00    +0.000 A 
ATOM      9  C   UNL     1      11.145  -7.379 -18.292  0.00  0.00    +0.000 A 
ATOM     10  C   UNL     1       9.437  -8.961 -18.900  0.00  0.00    +0.000 A 
ATOM     11  C   UNL     1      10.477  -8.129 -19.268  0.00  0.00    +0.000 A 
ATOM     12  F   UNL     1       8.800  -9.681 -19.832  0.00  0.00    +0.000 F 
ENDROOT
BRANCH   1  18
ATOM     13  S   UNL     1      10.522  -7.973 -10.265  0.00  0.00    +0.000 S 
ATOM     14  O   UNL     1      10.571  -6.557  -9.976  0.00  0.00    +0.000 OA
ATOM     15  O   UNL     1      11.417  -8.917  -9.636  0.00  0.00    +0.000 OA
ATOM     16  N   UNL     1      10.693  -8.171 -11.896  0.00  0.00    +0.000 N 
ATOM     17  C   UNL     1       8.889  -8.518 -10.012  0.00  0.00    +0.000 A 
ATOM     18  C   UNL     1       9.630  -8.044 -12.782  0.00  0.00    +0.000 C 
ATOM     19  C   UNL     1       8.040  -8.539 -11.112  0.00  0.00    +0.000 A 
ATOM     20  C   UNL     1       8.482  -8.942  -8.743  0.00  0.00    +0.000 A 
ATOM     21  N   UNL     1       8.390  -8.145 -12.414  0.00  0.00    +0.000 N 
ATOM     22  C   UNL     1       6.740  -9.021 -10.919  0.00  0.00    +0.000 A 
ATOM     23  C   UNL     1       7.182  -9.407  -8.570  0.00  0.00    +0.000 A 
ATOM     24  C   UNL     1       6.312  -9.453  -9.659  0.00  0.00    +0.000 A 
ATOM     25  H   UNL     1      11.583  -8.388 -12.255  0.00  0.00    +0.000 HD
ATOM     26  H   UNL     1       7.678  -7.941 -13.063  0.00  0.00    +0.000 HD
ENDBRANCH   1  18
BRANCH   3  27
ATOM     27  O   UNL     1       8.382  -9.451 -14.935  0.00  0.00    +0.000 OA
ATOM     28  H   UNL     1       7.704  -9.585 -15.569  0.00  0.00    +0.000 HD
ENDBRANCH   3  27
BRANCH   5  29
ATOM     29  C   UNL     1      12.546  -5.776 -16.248  0.00  0.00    +0.000 C 
BRANCH  29  30
ATOM     30  C   UNL     1      13.994  -6.299 -16.201  0.00  0.00    +0.000 C 
BRANCH  30  31
ATOM     31  C   UNL     1      15.017  -5.200 -16.107  0.00  0.00    +0.000 C 
ATOM     32  C   UNL     1      15.231  -4.175 -17.190  0.00  0.00    +0.000 C 
ATOM     33  C   UNL     1      16.234  -5.277 -16.994  0.00  0.00    +0.000 C 
ENDBRANCH  30  31
ENDBRANCH  29  30
ENDBRANCH   5  29
TORSDOF 5
ENDMDL
MODEL 8
REMARK VINA RESULT:      -7.8      3.389      7.517
REMARK  Name = 338168
REMARK  5 active torsions:
REMARK  status: ('A' for Active; 'I' for Inactive)
REMARK    1  A    between atoms: C_6  and  C_10
REMARK    2  A    between atoms: C_14  and  O_18
REMARK    3  A    between atoms: N_17  and  C_21
REMARK    4  A    between atoms: C_21  and  C_24
REMARK    5  A    between atoms: C_24  and  C_27
REMARK                            x       y       z     vdW  Elec       q    Type
REMARK                         _______ _______ _______ _____ _____    ______ ____
ROOT
ATOM      1  C   UNL     1       9.495 -10.059 -14.251  0.00  0.00    +0.000 A 
ATOM      2  C   UNL     1       9.236  -9.054 -15.313  0.00  0.00    +0.000 A 
ATOM      3  C   UNL     1      10.046 -11.243 -14.565  0.00  0.00    +0.000 A 
ATOM      4  O   UNL     1       8.571  -8.062 -15.007  0.00  0.00    +0.000 OA
ATOM      5  N   UNL     1       9.780  -9.257 -16.584  0.00  0.00    +0.000 N 
ATOM      6  C   UNL     1      10.454 -11.532 -15.943  0.00  0.00    +0.000 A 
ATOM      7  C   UNL     1      10.341 -10.536 -16.935  0.00  0.00    +0.000 A 
ATOM      8  C   UNL     1      10.998 -12.790 -16.263  0.00  0.00    +0.000 A 
ATOM      9  C   UNL     1      10.786 -10.844 -18.235  0.00  0.00    +0.000 A 
ATOM     10  C   UNL     1      11.448 -13.053 -17.546  0.00  0.00    +0.000 A 
ATOM     11  C   UNL     1      11.350 -12.090 -18.534  0.00  0.00    +0.000 A 
ATOM     12  F   UNL     1      11.991 -14.243 -17.830  0.00  0.00    +0.000 F 
ENDROOT
BRANCH   1  18
ATOM     13  S   UNL     1      10.147  -9.357 -10.381  0.00  0.00    +0.000 S 
ATOM     14  O   UNL     1      10.697  -8.023 -10.479  0.00  0.00    +0.000 OA
ATOM     15  O   UNL     1      10.694 -10.349  -9.484  0.00  0.00    +0.000 OA
ATOM     16  N   UNL     1      10.150 -10.026 -11.891  0.00  0.00    +0.000 N 
ATOM     17  C   UNL     1       8.443  -9.214 -10.062  0.00  0.00    +0.000 A 
ATOM     18  C   UNL     1       9.151  -9.779 -12.823  0.00  0.00    +0.000 C 
ATOM     19  C   UNL     1       7.580  -9.231 -11.151  0.00  0.00    +0.000 A 
ATOM     20  C   UNL     1       7.984  -9.119  -8.744  0.00  0.00    +0.000 A 
ATOM     21  N   UNL     1       7.973  -9.343 -12.495  0.00  0.00    +0.000 N 
ATOM     22  C   UNL     1       6.206  -9.163 -10.892  0.00  0.00    +0.000 A 
ATOM     23  C   UNL     1       6.614  -9.040  -8.509  0.00  0.00    +0.000 A 
ATOM     24  C   UNL     1       5.725  -9.069  -9.582  0.00  0.00    +0.000 A 
ATOM     25  H   UNL     1      10.890 -10.625 -12.140  0.00  0.00    +0.000 HD
ATOM     26  H   UNL     1       7.341  -9.084 -13.204  0.00  0.00    +0.000 HD
ENDBRANCH   1  18
BRANCH   3  27
ATOM     27  O   UNL     1      10.298 -12.261 -13.658  0.00  0.00    +0.000 OA
ATOM     28  H   UNL     1      10.839 -12.098 -12.910  0.00  0.00    +0.000 HD
ENDBRANCH   3  27
BRANCH   5  29
ATOM     29  C   UNL     1       9.576  -8.222 -17.625  0.00  0.00    +0.000 C 
BRANCH  29  30
ATOM     30  C   UNL     1      10.695  -7.177 -17.784  0.00  0.00    +0.000 C 
BRANCH  30  31
ATOM     31  C   UNL     1      11.644  -7.142 -16.618  0.00  0.00    +0.000 C 
ATOM     32  C   UNL     1      11.518  -6.163 -15.480  0.00  0.00    +0.000 C 
ATOM     33  C   UNL     1      12.600  -5.981 -16.507  0.00  0.00    +0.000 C 
ENDBRANCH  30  31
ENDBRANCH  29  30
ENDBRANCH   5  29
TORSDOF 5
ENDMDL
MODEL 9
REMARK VINA RESULT:      -7.6      2.553      4.522
REMARK  Name = 338168
REMARK  5 active torsions:
REMARK  status: ('A' for Active; 'I' for Inactive)
REMARK    1  A    between atoms: C_6  and  C_10
REMARK    2  A    between atoms: C_14  and  O_18
REMARK    3  A    between atoms: N_17  and  C_21
REMARK    4  A    between atoms: C_21  and  C_24
REMARK    5  A    between atoms: C_24  and  C_27
REMARK                            x       y       z     vdW  Elec       q    Type
REMARK                         _______ _______ _______ _____ _____    ______ ____
ROOT
ATOM      1  C   UNL     1      10.338  -8.834 -13.111  0.00  0.00    +0.000 A 
ATOM      2  C   UNL     1       9.321  -9.394 -12.185  0.00  0.00    +0.000 A 
ATOM      3  C   UNL     1      11.340  -8.077 -12.633  0.00  0.00    +0.000 A 
ATOM      4  O   UNL     1       8.330  -9.929 -12.687  0.00  0.00    +0.000 OA
ATOM      5  N   UNL     1       9.546  -9.322 -10.809  0.00  0.00    +0.000 N 
ATOM      6  C   UNL     1      11.474  -7.846 -11.190  0.00  0.00    +0.000 A 
ATOM      7  C   UNL     1      10.597  -8.485 -10.290  0.00  0.00    +0.000 A 
ATOM      8  C   UNL     1      12.508  -7.023 -10.707  0.00  0.00    +0.000 A 
ATOM      9  C   UNL     1      10.792  -8.268  -8.913  0.00  0.00    +0.000 A 
ATOM     10  C   UNL     1      12.687  -6.850  -9.345  0.00  0.00    +0.000 A 
ATOM     11  C   UNL     1      11.841  -7.468  -8.443  0.00  0.00    +0.000 A 
ATOM     12  F   UNL     1      13.693  -6.088  -8.897  0.00  0.00    +0.000 F 
ENDROOT
BRANCH   1  18
ATOM     13  S   UNL     1      10.194 -10.997 -16.456  0.00  0.00    +0.000 S 
ATOM     14  O   UNL     1       8.852 -11.524 -16.332  0.00  0.00    +0.000 OA
ATOM     15  O   UNL     1      11.298 -11.809 -16.915  0.00  0.00    +0.000 OA
ATOM     16  N   UNL     1      10.638 -10.372 -14.994  0.00  0.00    +0.000 N 
ATOM     17  C   UNL     1      10.121  -9.568 -17.445  0.00  0.00    +0.000 A 
ATOM     18  C   UNL     1      10.272  -9.097 -14.581  0.00  0.00    +0.000 C 
ATOM     19  C   UNL     1       9.991  -8.344 -16.799  0.00  0.00    +0.000 A 
ATOM     20  C   UNL     1      10.222  -9.673 -18.836  0.00  0.00    +0.000 A 
ATOM     21  N   UNL     1       9.903  -8.167 -15.408  0.00  0.00    +0.000 N 
ATOM     22  C   UNL     1       9.979  -7.190 -17.591  0.00  0.00    +0.000 A 
ATOM     23  C   UNL     1      10.196  -8.514 -19.606  0.00  0.00    +0.000 A 
ATOM     24  C   UNL     1      10.081  -7.272 -18.983  0.00  0.00    +0.000 A 
ATOM     25  H   UNL     1      11.185 -10.924 -14.391  0.00  0.00    +0.000 HD
ATOM     26  H   UNL     1       9.553  -7.318 -15.053  0.00  0.00    +0.000 HD
ENDBRANCH   1  18
BRANCH   3  27
ATOM     27  O   UNL     1      12.319  -7.480 -13.411  0.00  0.00    +0.000 OA
ATOM     28  H   UNL     1      13.069  -7.975 -13.679  0.00  0.00    +0.000 HD
ENDBRANCH   3  27
BRANCH   5  29
ATOM     29  C   UNL     1       8.562  -9.938  -9.888  0.00  0.00    +0.000 C 
BRANCH  29  30
ATOM     30  C   UNL     1       7.337  -9.081  -9.517  0.00  0.00    +0.000 C 
BRANCH  30  31
ATOM     31  C   UNL     1       6.037  -9.667  -9.996  0.00  0.00    +0.000 C 
ATOM     32  C   UNL     1       5.329  -9.200 -11.240  0.00  0.00    +0.000 C 
ATOM     33  C   UNL     1       4.790  -8.826  -9.888  0.00  0.00    +0.000 C 
ENDBRANCH  30  31
ENDBRANCH  29  30
ENDBRANCH   5  29
TORSDOF 5
ENDMDL
