REMARK  Name = 
REMARK  8 active torsions:
REMARK  status: ('A' for Active; 'I' for Inactive)
REMARK    1  A    between atoms: C_2  and  O_20
REMARK    2  A    between atoms: N_3  and  C_4
REMARK    3  A    between atoms: C_8  and  C_9
REMARK    4  A    between atoms: C_11  and  O_12
REMARK    5  A    between atoms: C_13  and  O_14
REMARK    6  A    between atoms: C_15  and  C_16
REMARK    7  A    between atoms: O_20  and  C_21
REMARK    8  A    between atoms: C_21  and  C_22
REMARK                            x       y       z     vdW  Elec       q    Type
REMARK                         _______ _______ _______ _____ _____    ______ ____
ROOT
ATOM      1  C   UNK A   0       5.161   1.534   1.640  0.00  0.00    +0.054 A 
ATOM      2  C   UNK A   0       6.174   1.601   0.627  0.00  0.00    +0.032 A 
ATOM      3  C   UNK A   0       7.269   2.343   1.003  0.00  0.00    +0.048 A 
ATOM      4  S   UNK A   0       7.100   2.965   2.574  0.00  0.00    -0.092 S 
ATOM      5  C   UNK A   0       5.547   2.241   2.782  0.00  0.00    +0.078 A 
ENDROOT
BRANCH   5   6
ATOM      6  C   UNK A   0       4.829   2.435   4.054  0.00  0.00    +0.173 A 
ATOM      7  N   UNK A   1       5.411   3.166   5.019  0.00  0.00    -0.190 NA
ATOM      8  C   UNK A   1       4.686   3.297   6.134  0.00  0.00    +0.259 A 
ATOM      9  C   UNK A   1       3.437   2.752   6.339  0.00  0.00    +0.206 A 
ATOM     10  C   UNK A   1       2.912   2.014   5.293  0.00  0.00    +0.135 A 
ATOM     11  N   UNK A   1       3.618   1.850   4.134  0.00  0.00    -0.222 NA
BRANCH  10  12
ATOM     12  C   UNK A   1       1.531   1.391   5.452  0.00  0.00    +0.094 C 
ATOM     13  O   UNK A   1       0.960   1.604   6.579  0.00  0.00    -0.543 OA
ATOM     14  O   UNK A   1       1.054   0.724   4.485  0.00  0.00    -0.543 OA
ENDBRANCH  10  12
BRANCH   8  15
ATOM     15  O   UNK A   1       5.255   4.040   7.140  0.00  0.00    -0.490 OA
ATOM     16  H   UNK A   1       4.576   4.008   7.841  0.00  0.00    +0.294 HD
ENDBRANCH   8  15
BRANCH   9  17
ATOM     17  O   UNK A   1       2.809   2.972   7.537  0.00  0.00    -0.501 OA
ATOM     18  H   UNK A   1       1.932   2.492   7.462  0.00  0.00    +0.292 HD
ENDBRANCH   9  17
ENDBRANCH   5   6
BRANCH   1  21
ATOM     19  O   UNK A   0       2.320  -0.450   0.643  0.00  0.00    -0.226 OA
ATOM     20  C   UNK A   0       3.371   0.170   0.530  0.00  0.00    +0.405 C 
ATOM     21  N   UNK A   0       3.939   0.856   1.571  0.00  0.00    -0.250 N 
ATOM     22  H   UNK A   0       3.364   0.868   2.421  0.00  0.00    +0.158 HD
BRANCH  20  23
ATOM     23  O   UNK A   0       4.049   0.251  -0.645  0.00  0.00    -0.445 OA
BRANCH  23  24
ATOM     24  C   UNK A   0       3.428  -0.443  -1.725  0.00  0.00    +0.270 C 
BRANCH  24  25
ATOM     25  C   UNK A   0       4.171  -0.087  -2.989  0.00  0.00    +0.008 A 
ATOM     26  C   UNK A   0       3.683   0.962  -3.790  0.00  0.00    +0.008 A 
ATOM     27  C   UNK A   0       4.349   1.346  -4.955  0.00  0.00    +0.000 A 
ATOM     28  C   UNK A   0       5.519   0.695  -5.334  0.00  0.00    +0.001 A 
ATOM     29  C   UNK A   0       6.025  -0.337  -4.544  0.00  0.00    +0.020 A 
ATOM     30  C   UNK A   0       5.360  -0.724  -3.375  0.00  0.00    +0.047 A 
ATOM     31 CL   UNK A   0       6.063  -1.995  -2.441  0.00  0.00    -0.083 Cl
ENDBRANCH  24  25
ENDBRANCH  23  24
ENDBRANCH  20  23
ENDBRANCH   1  21
TORSDOF 8
