
 OpenBabel09122221233D

 31 33  0  0  0  0  0  0  0  0999 V2000
    8.2980   -2.5670    4.4000 C   0  0  0  0  0  0  0  0  0  0  0  0
    8.4460   -2.7550    5.8140 C   0  0  0  0  0  3  0  0  0  0  0  0
    9.4550   -1.9960    6.3590 C   0  0  0  0  0  3  0  0  0  0  0  0
   10.2330   -1.0460    5.1870 S   0  0  0  0  0  0  0  0  0  0  0  0
    9.2210   -1.6350    3.9190 C   0  0  0  0  0  0  0  0  0  0  0  0
    9.4250   -1.1360    2.5470 C   0  0  0  0  0  0  0  0  0  0  0  0
    9.2910    0.1790    2.3120 N   0  0  0  0  0  0  0  0  0  0  0  0
    9.5010    0.5440    1.0440 C   0  0  0  0  0  0  0  0  0  0  0  0
    9.8320   -0.3110    0.0150 C   0  0  0  0  0  0  0  0  0  0  0  0
    9.9500   -1.6500    0.3460 C   0  0  0  0  0  0  0  0  0  0  0  0
    9.7410   -2.0700    1.6290 N   0  0  0  0  0  0  0  0  0  0  0  0
   10.3210   -2.6470   -0.7440 C   0  0  0  0  0  0  0  0  0  0  0  0
   11.1860   -2.2340   -1.5940 O   0  0  0  0  0  0  0  0  0  0  0  0
    9.7660   -3.7870   -0.7350 O   0  0  0  0  0  1  0  0  0  0  0  0
    9.3720    1.8840    0.7720 O   0  0  0  0  0  0  0  0  0  0  0  0
    9.5620    1.9290   -0.1850 H   0  0  0  0  0  0  0  0  0  0  0  0
   10.0200    0.2070   -1.2400 O   0  0  0  0  0  0  0  0  0  0  0  0
   10.2490   -0.5820   -1.8140 H   0  0  0  0  0  0  0  0  0  0  0  0
    5.4530   -4.2920    3.0100 O   0  0  0  0  0  0  0  0  0  0  0  0
    6.2240   -3.8750    3.8660 C   0  0  0  0  0  0  0  0  0  0  0  0
    7.3650   -3.1820    3.5580 N   0  0  0  0  0  0  0  0  0  0  0  0
    7.5510   -3.1190    2.5510 H   0  0  0  0  0  0  0  0  0  0  0  0
    6.0260   -4.0880    5.1940 O   0  0  0  0  0  0  0  0  0  0  0  0
    4.6830   -4.4260    5.5360 C   0  0  0  0  0  2  0  0  0  0  0  0
    4.0320   -3.1940    6.1150 C   0  0  0  0  0  0  0  0  0  0  0  0
    4.7580   -2.4090    7.0300 C   0  0  0  0  0  3  0  0  0  0  0  0
    4.2080   -1.2470    7.5740 C   0  0  0  0  0  3  0  0  0  0  0  0
    2.9280   -0.8440    7.2050 C   0  0  0  0  0  3  0  0  0  0  0  0
    2.2000   -1.6020    6.2890 C   0  0  0  0  0  3  0  0  0  0  0  0
    2.7480   -2.7680    5.7410 C   0  0  0  0  0  0  0  0  0  0  0  0
    1.7920   -3.6380    4.5960 Cl  0  0  0  0  0  0  0  0  0  0  0  0
  1  2  1  0  0  0  0
  2  3  2  0  0  0  0
  4  3  1  0  0  0  0
  5  1  2  0  0  0  0
  5  4  1  0  0  0  0
  6  5  1  0  0  0  0
  7  6  1  0  0  0  0
  8  7  2  0  0  0  0
  9 10  2  0  0  0  0
  9  8  1  0  0  0  0
 10 11  1  0  0  0  0
 11  6  2  0  0  0  0
 12 14  1  0  0  0  0
 12 10  1  0  0  0  0
 13 12  2  0  0  0  0
 15  8  1  0  0  0  0
 16 15  1  0  0  0  0
 17  9  1  0  0  0  0
 18 17  1  0  0  0  0
 19 20  2  0  0  0  0
 20 23  1  0  0  0  0
 21 20  1  0  0  0  0
 21  1  1  0  0  0  0
 22 21  1  0  0  0  0
 23 24  1  0  0  0  0
 24 25  1  0  0  0  0
 25 26  1  0  0  0  0
 26 27  2  0  0  0  0
 28 27  1  0  0  0  0
 29 28  2  0  0  0  0
 30 25  2  0  0  0  0
 30 29  1  0  0  0  0
 31 30  1  0  0  0  0
M  END
>  <minimizedAffinity>
-7.73509073

$$$$

 OpenBabel09122221233D

 31 33  0  0  0  0  0  0  0  0999 V2000
    7.3300   -3.0780    4.6190 C   0  0  0  0  0  0  0  0  0  0  0  0
    7.7200   -2.5220    5.8820 C   0  0  0  0  0  3  0  0  0  0  0  0
    9.0570   -2.2050    5.9460 C   0  0  0  0  0  3  0  0  0  0  0  0
    9.8600   -2.5660    4.4940 S   0  0  0  0  0  0  0  0  0  0  0  0
    8.4190   -3.1520    3.7460 C   0  0  0  0  0  0  0  0  0  0  0  0
    8.4790   -3.6450    2.3590 C   0  0  0  0  0  0  0  0  0  0  0  0
    7.6700   -4.6550    1.9970 N   0  0  0  0  0  0  0  0  0  0  0  0
    7.7850   -5.0320    0.7210 C   0  0  0  0  0  0  0  0  0  0  0  0
    8.6440   -4.4720   -0.2000 C   0  0  0  0  0  0  0  0  0  0  0  0
    9.4410   -3.4380    0.2570 C   0  0  0  0  0  0  0  0  0  0  0  0
    9.3610   -3.0190    1.5560 N   0  0  0  0  0  0  0  0  0  0  0  0
   10.4080   -2.7690   -0.7120 C   0  0  0  0  0  0  0  0  0  0  0  0
   11.0770   -3.5680   -1.4580 O   0  0  0  0  0  0  0  0  0  0  0  0
   10.4810   -1.5030   -0.7160 O   0  0  0  0  0  1  0  0  0  0  0  0
    6.9700   -6.0630    0.3200 O   0  0  0  0  0  0  0  0  0  0  0  0
    7.2100   -6.1740   -0.6200 H   0  0  0  0  0  0  0  0  0  0  0  0
    8.6520   -4.9620   -1.4790 O   0  0  0  0  0  0  0  0  0  0  0  0
    9.3390   -4.4140   -1.9630 H   0  0  0  0  0  0  0  0  0  0  0  0
    3.9610   -4.3580    4.5120 O   0  0  0  0  0  0  0  0  0  0  0  0
    5.0770   -4.1280    4.9620 C   0  0  0  0  0  0  0  0  0  0  0  0
    6.0490   -3.4920    4.2360 N   0  0  0  0  0  0  0  0  0  0  0  0
    5.7820   -3.3030    3.2640 H   0  0  0  0  0  0  0  0  0  0  0  0
    5.4540   -4.5090    6.2110 O   0  0  0  0  0  0  0  0  0  0  0  0
    4.4270   -4.3840    7.1930 C   0  0  0  0  0  2  0  0  0  0  0  0
    4.6010   -3.0490    7.8740 C   0  0  0  0  0  0  0  0  0  0  0  0
    5.6550   -2.8880    8.7920 C   0  0  0  0  0  3  0  0  0  0  0  0
    5.8730   -1.6650    9.4280 C   0  0  0  0  0  3  0  0  0  0  0  0
    5.0480   -0.5790    9.1500 C   0  0  0  0  0  3  0  0  0  0  0  0
    4.0080   -0.7170    8.2310 C   0  0  0  0  0  3  0  0  0  0  0  0
    3.7870   -1.9410    7.5910 C   0  0  0  0  0  0  0  0  0  0  0  0
    2.4930   -2.0230    6.4500 Cl  0  0  0  0  0  0  0  0  0  0  0  0
  1  2  1  0  0  0  0
  2  3  2  0  0  0  0
  4  3  1  0  0  0  0
  5  4  1  0  0  0  0
  5  1  2  0  0  0  0
  6  5  1  0  0  0  0
  7  6  1  0  0  0  0
  8  7  2  0  0  0  0
  9 10  2  0  0  0  0
  9  8  1  0  0  0  0
 10 11  1  0  0  0  0
 11  6  2  0  0  0  0
 12 10  1  0  0  0  0
 13 12  2  0  0  0  0
 14 12  1  0  0  0  0
 15  8  1  0  0  0  0
 16 15  1  0  0  0  0
 17  9  1  0  0  0  0
 18 17  1  0  0  0  0
 19 20  2  0  0  0  0
 20 23  1  0  0  0  0
 21  1  1  0  0  0  0
 21 20  1  0  0  0  0
 22 21  1  0  0  0  0
 23 24  1  0  0  0  0
 24 25  1  0  0  0  0
 25 26  1  0  0  0  0
 26 27  2  0  0  0  0
 28 27  1  0  0  0  0
 29 28  2  0  0  0  0
 30 25  2  0  0  0  0
 30 29  1  0  0  0  0
 31 30  1  0  0  0  0
M  END
>  <minimizedAffinity>
-7.57886887

$$$$

 OpenBabel09122221233D

 31 33  0  0  0  0  0  0  0  0999 V2000
    7.7890   -2.8870    4.2410 C   0  0  0  0  0  0  0  0  0  0  0  0
    7.7710   -3.0870    5.6610 C   0  0  0  0  0  3  0  0  0  0  0  0
    8.7410   -2.3710    6.3230 C   0  0  0  0  0  3  0  0  0  0  0  0
    9.6830   -1.4480    5.2530 S   0  0  0  0  0  0  0  0  0  0  0  0
    8.7970   -1.9910    3.8750 C   0  0  0  0  0  0  0  0  0  0  0  0
    9.1730   -1.4950    2.5390 C   0  0  0  0  0  0  0  0  0  0  0  0
    9.1330   -0.1720    2.3070 N   0  0  0  0  0  0  0  0  0  0  0  0
    9.4980    0.1890    1.0730 C   0  0  0  0  0  0  0  0  0  0  0  0
    9.8940   -0.6760    0.0750 C   0  0  0  0  0  0  0  0  0  0  0  0
    9.9070   -2.0200    0.4010 C   0  0  0  0  0  0  0  0  0  0  0  0
    9.5390   -2.4380    1.6490 N   0  0  0  0  0  0  0  0  0  0  0  0
   10.3420   -3.0290   -0.6550 C   0  0  0  0  0  0  0  0  0  0  0  0
   11.4230   -2.7370   -1.2780 O   0  0  0  0  0  0  0  0  0  0  0  0
    9.6270   -4.0590   -0.8380 O   0  0  0  0  0  1  0  0  0  0  0  0
    9.4670    1.5360    0.8040 O   0  0  0  0  0  0  0  0  0  0  0  0
    9.7610    1.5770   -0.1260 H   0  0  0  0  0  0  0  0  0  0  0  0
   10.2430   -0.1600   -1.1460 O   0  0  0  0  0  0  0  0  0  0  0  0
   10.4920   -0.9560   -1.7020 H   0  0  0  0  0  0  0  0  0  0  0  0
    5.1080   -4.5930    2.5380 O   0  0  0  0  0  0  0  0  0  0  0  0
    5.8110   -4.2250    3.4720 C   0  0  0  0  0  0  0  0  0  0  0  0
    6.9340   -3.4600    3.2940 N   0  0  0  0  0  0  0  0  0  0  0  0
    7.1710   -3.2980    2.3090 H   0  0  0  0  0  0  0  0  0  0  0  0
    5.5500   -4.5650    4.7620 O   0  0  0  0  0  0  0  0  0  0  0  0
    4.1900   -4.9160    5.0080 C   0  0  0  0  0  2  0  0  0  0  0  0
    3.4820   -3.6850    5.5190 C   0  0  0  0  0  0  0  0  0  0  0  0
    2.4690   -3.1090    4.7300 C   0  0  0  0  0  3  0  0  0  0  0  0
    1.7670   -1.9860    5.1700 C   0  0  0  0  0  3  0  0  0  0  0  0
    2.0590   -1.4250    6.4090 C   0  0  0  0  0  3  0  0  0  0  0  0
    3.0500   -1.9910    7.2100 C   0  0  0  0  0  3  0  0  0  0  0  0
    3.7550   -3.1180    6.7730 C   0  0  0  0  0  0  0  0  0  0  0  0
    4.9510   -3.7730    7.8330 Cl  0  0  0  0  0  0  0  0  0  0  0  0
  1  2  1  0  0  0  0
  2  3  2  0  0  0  0
  4  3  1  0  0  0  0
  5  1  2  0  0  0  0
  5  4  1  0  0  0  0
  6  5  1  0  0  0  0
  7  6  1  0  0  0  0
  8  7  2  0  0  0  0
  9 10  2  0  0  0  0
  9  8  1  0  0  0  0
 10 11  1  0  0  0  0
 11  6  2  0  0  0  0
 12 10  1  0  0  0  0
 13 12  2  0  0  0  0
 14 12  1  0  0  0  0
 15  8  1  0  0  0  0
 16 15  1  0  0  0  0
 17  9  1  0  0  0  0
 18 17  1  0  0  0  0
 19 20  2  0  0  0  0
 20 23  1  0  0  0  0
 21 20  1  0  0  0  0
 21  1  1  0  0  0  0
 22 21  1  0  0  0  0
 23 24  1  0  0  0  0
 24 25  1  0  0  0  0
 25 30  1  0  0  0  0
 26 27  1  0  0  0  0
 26 25  2  0  0  0  0
 27 28  2  0  0  0  0
 28 29  1  0  0  0  0
 30 29  2  0  0  0  0
 30 31  1  0  0  0  0
M  END
>  <minimizedAffinity>
-7.51663399

$$$$

 OpenBabel09122221233D

 31 33  0  0  0  0  0  0  0  0999 V2000
    8.6760   -2.3200    5.1730 C   0  0  0  0  0  0  0  0  0  0  0  0
    8.9450   -2.3270    6.5810 C   0  0  0  0  0  3  0  0  0  0  0  0
    9.8660   -1.3800    6.9620 C   0  0  0  0  0  3  0  0  0  0  0  0
   10.4170   -0.4690    5.6390 S   0  0  0  0  0  0  0  0  0  0  0  0
    9.4190   -1.3300    4.5250 C   0  0  0  0  0  0  0  0  0  0  0  0
    9.4550   -0.9640    3.0980 C   0  0  0  0  0  0  0  0  0  0  0  0
    9.3030    0.3260    2.7580 N   0  0  0  0  0  0  0  0  0  0  0  0
    9.3570    0.5680    1.4450 C   0  0  0  0  0  0  0  0  0  0  0  0
    9.5520   -0.3850    0.4690 C   0  0  0  0  0  0  0  0  0  0  0  0
    9.7000   -1.6890    0.9070 C   0  0  0  0  0  0  0  0  0  0  0  0
    9.6480   -1.9850    2.2410 N   0  0  0  0  0  0  0  0  0  0  0  0
    9.9260   -2.7900   -0.1210 C   0  0  0  0  0  0  0  0  0  0  0  0
    9.4200   -3.9290    0.1750 O   0  0  0  0  0  1  0  0  0  0  0  0
   10.5810   -2.5110   -1.1710 O   0  0  0  0  0  0  0  0  0  0  0  0
    9.2050    1.8790    1.0660 O   0  0  0  0  0  0  0  0  0  0  0  0
    9.2760    1.8310    0.0930 H   0  0  0  0  0  0  0  0  0  0  0  0
    9.5870    0.0110   -0.8430 O   0  0  0  0  0  0  0  0  0  0  0  0
    9.7370   -0.8320   -1.3640 H   0  0  0  0  0  0  0  0  0  0  0  0
    5.8020   -4.1580    4.0040 O   0  0  0  0  0  0  0  0  0  0  0  0
    6.4880   -3.4780    4.7580 C   0  0  0  0  0  0  0  0  0  0  0  0
    7.7880   -3.1490    4.4770 N   0  0  0  0  0  0  0  0  0  0  0  0
    8.1520   -3.5900    3.6250 H   0  0  0  0  0  0  0  0  0  0  0  0
    6.0260   -3.0140    5.9480 O   0  0  0  0  0  0  0  0  0  0  0  0
    4.9070   -3.7350    6.4600 C   0  0  0  0  0  2  0  0  0  0  0  0
    3.9400   -2.7330    7.0410 C   0  0  0  0  0  0  0  0  0  0  0  0
    2.9860   -2.1410    6.1940 C   0  0  0  0  0  3  0  0  0  0  0  0
    2.0530   -1.2280    6.6890 C   0  0  0  0  0  3  0  0  0  0  0  0
    2.0520   -0.9000    8.0410 C   0  0  0  0  0  3  0  0  0  0  0  0
    2.9810   -1.4890    8.8990 C   0  0  0  0  0  3  0  0  0  0  0  0
    3.9170   -2.4050    8.4050 C   0  0  0  0  0  0  0  0  0  0  0  0
    5.0180   -3.1070    9.5350 Cl  0  0  0  0  0  0  0  0  0  0  0  0
  1  2  1  0  0  0  0
  2  3  2  0  0  0  0
  4  3  1  0  0  0  0
  5  1  2  0  0  0  0
  5  4  1  0  0  0  0
  6  5  1  0  0  0  0
  7  6  1  0  0  0  0
  8  7  2  0  0  0  0
  9 10  2  0  0  0  0
  9  8  1  0  0  0  0
 10 11  1  0  0  0  0
 11  6  2  0  0  0  0
 12 13  1  0  0  0  0
 12 10  1  0  0  0  0
 14 12  2  0  0  0  0
 15  8  1  0  0  0  0
 16 15  1  0  0  0  0
 17  9  1  0  0  0  0
 18 17  1  0  0  0  0
 19 20  2  0  0  0  0
 20 23  1  0  0  0  0
 21 20  1  0  0  0  0
 21  1  1  0  0  0  0
 22 21  1  0  0  0  0
 23 24  1  0  0  0  0
 24 25  1  0  0  0  0
 25 30  1  0  0  0  0
 26 27  1  0  0  0  0
 26 25  2  0  0  0  0
 27 28  2  0  0  0  0
 28 29  1  0  0  0  0
 30 29  2  0  0  0  0
 30 31  1  0  0  0  0
M  END
>  <minimizedAffinity>
-7.34621763

$$$$

 OpenBabel09122221233D

 31 33  0  0  0  0  0  0  0  0999 V2000
    7.5520   -4.5950    1.9700 C   0  0  0  0  0  0  0  0  0  0  0  0
    7.8990   -5.3210    0.7820 C   0  0  0  0  0  3  0  0  0  0  0  0
    6.8220   -5.9360    0.1890 C   0  0  0  0  0  3  0  0  0  0  0  0
    5.3820   -5.6500    1.0420 S   0  0  0  0  0  0  0  0  0  0  0  0
    6.1820   -4.6840    2.2290 C   0  0  0  0  0  0  0  0  0  0  0  0
    5.3930   -4.0970    3.3270 C   0  0  0  0  0  0  0  0  0  0  0  0
    4.1530   -3.6540    3.0660 N   0  0  0  0  0  0  0  0  0  0  0  0
    3.5080   -3.1460    4.1200 C   0  0  0  0  0  0  0  0  0  0  0  0
    4.0180   -3.0560    5.3970 C   0  0  0  0  0  0  0  0  0  0  0  0
    5.3030   -3.5370    5.5770 C   0  0  0  0  0  0  0  0  0  0  0  0
    6.0030   -4.0630    4.5280 N   0  0  0  0  0  0  0  0  0  0  0  0
    5.9240   -3.4750    6.9670 C   0  0  0  0  0  0  0  0  0  0  0  0
    6.2960   -4.6010    7.4520 O   0  0  0  0  0  0  0  0  0  0  0  0
    6.0280   -2.3450    7.5330 O   0  0  0  0  0  1  0  0  0  0  0  0
    2.2360   -2.6830    3.8840 O   0  0  0  0  0  0  0  0  0  0  0  0
    1.9560   -2.3640    4.7640 H   0  0  0  0  0  0  0  0  0  0  0  0
    3.2390   -2.5110    6.3830 O   0  0  0  0  0  0  0  0  0  0  0  0
    3.8030   -2.5490    7.2110 H   0  0  0  0  0  0  0  0  0  0  0  0
    9.5410   -2.0250    3.5330 O   0  0  0  0  0  0  0  0  0  0  0  0
    8.8460   -2.5660    2.6800 C   0  0  0  0  0  0  0  0  0  0  0  0
    8.4120   -3.8600    2.7940 N   0  0  0  0  0  0  0  0  0  0  0  0
    8.7880   -4.3520    3.6120 H   0  0  0  0  0  0  0  0  0  0  0  0
    8.4680   -1.9350    1.5370 O   0  0  0  0  0  0  0  0  0  0  0  0
    9.4890   -1.8710    0.5430 C   0  0  0  0  0  2  0  0  0  0  0  0
    9.8170   -0.4160    0.3130 C   0  0  0  0  0  0  0  0  0  0  0  0
    9.4690    0.5220    1.3020 C   0  0  0  0  0  3  0  0  0  0  0  0
    9.7740    1.8750    1.1470 C   0  0  0  0  0  3  0  0  0  0  0  0
   10.4410    2.3120    0.0070 C   0  0  0  0  0  3  0  0  0  0  0  0
   10.8060    1.3930   -0.9770 C   0  0  0  0  0  3  0  0  0  0  0  0
   10.5030    0.0360   -0.8250 C   0  0  0  0  0  0  0  0  0  0  0  0
   11.0090   -1.0400   -2.0770 Cl  0  0  0  0  0  0  0  0  0  0  0  0
  1  5  2  0  0  0  0
  1 21  1  0  0  0  0
  2  1  1  0  0  0  0
  3  2  2  0  0  0  0
  3  4  1  0  0  0  0
  4  5  1  0  0  0  0
  5  6  1  0  0  0  0
  6 11  2  0  0  0  0
  7  6  1  0  0  0  0
  7  8  2  0  0  0  0
  8  9  1  0  0  0  0
  9 10  2  0  0  0  0
  9 17  1  0  0  0  0
 10 12  1  0  0  0  0
 11 10  1  0  0  0  0
 12 13  2  0  0  0  0
 12 14  1  0  0  0  0
 15  8  1  0  0  0  0
 15 16  1  0  0  0  0
 17 18  1  0  0  0  0
 20 21  1  0  0  0  0
 20 19  2  0  0  0  0
 21 22  1  0  0  0  0
 23 20  1  0  0  0  0
 24 23  1  0  0  0  0
 25 24  1  0  0  0  0
 25 26  1  0  0  0  0
 27 26  2  0  0  0  0
 28 27  1  0  0  0  0
 29 30  1  0  0  0  0
 29 28  2  0  0  0  0
 30 25  2  0  0  0  0
 31 30  1  0  0  0  0
M  END
>  <minimizedAffinity>
-7.30667114

$$$$

 OpenBabel09122221233D

 31 33  0  0  0  0  0  0  0  0999 V2000
    6.2260   -3.7640    6.8360 C   0  0  0  0  0  0  0  0  0  0  0  0
    5.9750   -4.0820    8.2120 C   0  0  0  0  0  3  0  0  0  0  0  0
    6.9940   -3.7000    9.0520 C   0  0  0  0  0  3  0  0  0  0  0  0
    8.2620   -2.9520    8.2060 S   0  0  0  0  0  0  0  0  0  0  0  0
    7.4590   -3.1230    6.6870 C   0  0  0  0  0  0  0  0  0  0  0  0
    8.1140   -2.6180    5.4680 C   0  0  0  0  0  0  0  0  0  0  0  0
    8.8110   -1.4720    5.5370 N   0  0  0  0  0  0  0  0  0  0  0  0
    9.3780   -1.0940    4.3870 C   0  0  0  0  0  0  0  0  0  0  0  0
    9.2920   -1.7790    3.1950 C   0  0  0  0  0  0  0  0  0  0  0  0
    8.5550   -2.9500    3.2130 C   0  0  0  0  0  0  0  0  0  0  0  0
    7.9540   -3.3750    4.3650 N   0  0  0  0  0  0  0  0  0  0  0  0
    8.4270   -3.7600    1.9300 C   0  0  0  0  0  0  0  0  0  0  0  0
    7.5960   -4.7340    1.9760 O   0  0  0  0  0  1  0  0  0  0  0  0
    9.1310   -3.4230    0.9300 O   0  0  0  0  0  0  0  0  0  0  0  0
   10.0990    0.0750    4.4260 O   0  0  0  0  0  0  0  0  0  0  0  0
   10.4170    0.1620    3.5070 H   0  0  0  0  0  0  0  0  0  0  0  0
    9.9290   -1.2700    2.0930 O   0  0  0  0  0  0  0  0  0  0  0  0
    9.7340   -1.9220    1.3570 H   0  0  0  0  0  0  0  0  0  0  0  0
    3.7510   -3.5770    4.2200 O   0  0  0  0  0  0  0  0  0  0  0  0
    4.3490   -3.2710    5.2450 C   0  0  0  0  0  0  0  0  0  0  0  0
    5.3880   -4.0120    5.7440 N   0  0  0  0  0  0  0  0  0  0  0  0
    5.5610   -4.8820    5.2270 H   0  0  0  0  0  0  0  0  0  0  0  0
    4.0140   -2.1840    5.9890 O   0  0  0  0  0  0  0  0  0  0  0  0
    2.7550   -2.2950    6.6500 C   0  0  0  0  0  2  0  0  0  0  0  0
    2.9570   -1.9060    8.0940 C   0  0  0  0  0  0  0  0  0  0  0  0
    3.4130   -0.6070    8.3880 C   0  0  0  0  0  3  0  0  0  0  0  0
    3.5900   -0.1910    9.7090 C   0  0  0  0  0  3  0  0  0  0  0  0
    3.3060   -1.0610   10.7570 C   0  0  0  0  0  3  0  0  0  0  0  0
    2.8400   -2.3470   10.4830 C   0  0  0  0  0  3  0  0  0  0  0  0
    2.6600   -2.7670    9.1610 C   0  0  0  0  0  0  0  0  0  0  0  0
    2.0580   -4.3660    8.9070 Cl  0  0  0  0  0  0  0  0  0  0  0  0
  1  2  1  0  0  0  0
  2  3  2  0  0  0  0
  4  3  1  0  0  0  0
  5  1  2  0  0  0  0
  5  4  1  0  0  0  0
  6  7  1  0  0  0  0
  6  5  1  0  0  0  0
  8 15  1  0  0  0  0
  8  7  2  0  0  0  0
  9 10  2  0  0  0  0
  9  8  1  0  0  0  0
 10 11  1  0  0  0  0
 11  6  2  0  0  0  0
 12 13  1  0  0  0  0
 12 10  1  0  0  0  0
 14 12  2  0  0  0  0
 16 15  1  0  0  0  0
 17  9  1  0  0  0  0
 18 17  1  0  0  0  0
 19 20  2  0  0  0  0
 20 21  1  0  0  0  0
 20 23  1  0  0  0  0
 21  1  1  0  0  0  0
 22 21  1  0  0  0  0
 23 24  1  0  0  0  0
 24 25  1  0  0  0  0
 25 26  2  0  0  0  0
 25 30  1  0  0  0  0
 26 27  1  0  0  0  0
 27 28  2  0  0  0  0
 29 28  1  0  0  0  0
 30 29  2  0  0  0  0
 31 30  1  0  0  0  0
M  END
>  <minimizedAffinity>
-7.16892147

$$$$

 OpenBabel09122221233D

 31 33  0  0  0  0  0  0  0  0999 V2000
    4.9860   -0.3600    9.0740 C   0  0  0  0  0  0  0  0  0  0  0  0
    4.9080   -0.0070   10.4620 C   0  0  0  0  0  3  0  0  0  0  0  0
    3.7640   -0.4640   11.0740 C   0  0  0  0  0  3  0  0  0  0  0  0
    2.7720   -1.3220    9.9960 S   0  0  0  0  0  0  0  0  0  0  0  0
    3.8680   -1.1010    8.6810 C   0  0  0  0  0  0  0  0  0  0  0  0
    3.5340   -1.6710    7.3640 C   0  0  0  0  0  0  0  0  0  0  0  0
    2.3800   -1.3110    6.7790 N   0  0  0  0  0  0  0  0  0  0  0  0
    2.1620   -1.8690    5.5840 C   0  0  0  0  0  0  0  0  0  0  0  0
    3.0130   -2.7480    4.9500 C   0  0  0  0  0  0  0  0  0  0  0  0
    4.1790   -3.0650    5.6240 C   0  0  0  0  0  0  0  0  0  0  0  0
    4.4440   -2.5210    6.8500 N   0  0  0  0  0  0  0  0  0  0  0  0
    5.1670   -4.0250    4.9740 C   0  0  0  0  0  0  0  0  0  0  0  0
    4.6610   -5.1150    4.5310 O   0  0  0  0  0  0  0  0  0  0  0  0
    6.3880   -3.6890    4.9170 O   0  0  0  0  0  1  0  0  0  0  0  0
    0.9890   -1.5190    4.9600 O   0  0  0  0  0  0  0  0  0  0  0  0
    1.0310   -2.0260    4.1260 H   0  0  0  0  0  0  0  0  0  0  0  0
    2.6580   -3.2400    3.7210 O   0  0  0  0  0  0  0  0  0  0  0  0
    3.4120   -3.8470    3.4580 H   0  0  0  0  0  0  0  0  0  0  0  0
    8.0320   -0.3030    7.1460 O   0  0  0  0  0  0  0  0  0  0  0  0
    7.2560   -0.6250    8.0370 C   0  0  0  0  0  0  0  0  0  0  0  0
    6.0180   -0.0550    8.1800 N   0  0  0  0  0  0  0  0  0  0  0  0
    5.8400    0.7160    7.5260 H   0  0  0  0  0  0  0  0  0  0  0  0
    7.5670   -1.5570    8.9760 O   0  0  0  0  0  0  0  0  0  0  0  0
    7.7480   -2.8720    8.4540 C   0  0  0  0  0  2  0  0  0  0  0  0
    8.0740   -3.7850    9.6090 C   0  0  0  0  0  0  0  0  0  0  0  0
    9.4240   -4.0560    9.9000 C   0  0  0  0  0  3  0  0  0  0  0  0
    9.7770   -4.8740   10.9740 C   0  0  0  0  0  3  0  0  0  0  0  0
    8.7890   -5.4270   11.7820 C   0  0  0  0  0  3  0  0  0  0  0  0
    7.4460   -5.1580   11.5180 C   0  0  0  0  0  3  0  0  0  0  0  0
    7.0880   -4.3370   10.4420 C   0  0  0  0  0  0  0  0  0  0  0  0
    5.4060   -4.0340   10.1950 Cl  0  0  0  0  0  0  0  0  0  0  0  0
  1  2  1  0  0  0  0
  2  3  2  0  0  0  0
  4  3  1  0  0  0  0
  5  1  2  0  0  0  0
  5  4  1  0  0  0  0
  6  5  1  0  0  0  0
  7  6  1  0  0  0  0
  8  7  2  0  0  0  0
  9  8  1  0  0  0  0
  9 10  2  0  0  0  0
 10 11  1  0  0  0  0
 11  6  2  0  0  0  0
 12 10  1  0  0  0  0
 13 12  2  0  0  0  0
 14 12  1  0  0  0  0
 15  8  1  0  0  0  0
 16 15  1  0  0  0  0
 17  9  1  0  0  0  0
 18 17  1  0  0  0  0
 19 20  2  0  0  0  0
 20 21  1  0  0  0  0
 20 23  1  0  0  0  0
 21  1  1  0  0  0  0
 22 21  1  0  0  0  0
 24 23  1  0  0  0  0
 24 25  1  0  0  0  0
 25 26  2  0  0  0  0
 25 30  1  0  0  0  0
 26 27  1  0  0  0  0
 27 28  2  0  0  0  0
 29 28  1  0  0  0  0
 30 29  2  0  0  0  0
 31 30  1  0  0  0  0
M  END
>  <minimizedAffinity>
-7.11229515

$$$$

 OpenBabel09122221233D

 31 33  0  0  0  0  0  0  0  0999 V2000
    7.7810   -4.5920    1.7290 C   0  0  0  0  0  0  0  0  0  0  0  0
    7.9740   -5.2220    0.4550 C   0  0  0  0  0  3  0  0  0  0  0  0
    6.8240   -5.7730   -0.0570 C   0  0  0  0  0  3  0  0  0  0  0  0
    5.4980   -5.5420    0.9780 S   0  0  0  0  0  0  0  0  0  0  0  0
    6.4480   -4.6860    2.1370 C   0  0  0  0  0  0  0  0  0  0  0  0
    5.8040   -4.1830    3.3630 C   0  0  0  0  0  0  0  0  0  0  0  0
    6.5760   -3.8640    4.4150 N   0  0  0  0  0  0  0  0  0  0  0  0
    5.9090   -3.4080    5.4790 C   0  0  0  0  0  0  0  0  0  0  0  0
    4.5420   -3.2530    5.5550 C   0  0  0  0  0  0  0  0  0  0  0  0
    3.8230   -3.6040    4.4260 C   0  0  0  0  0  0  0  0  0  0  0  0
    4.4610   -4.0790    3.3140 N   0  0  0  0  0  0  0  0  0  0  0  0
    2.3080   -3.4490    4.4400 C   0  0  0  0  0  0  0  0  0  0  0  0
    1.8760   -2.2600    4.2360 O   0  0  0  0  0  0  0  0  0  0  0  0
    1.5970   -4.4780    4.6470 O   0  0  0  0  0  1  0  0  0  0  0  0
    6.6720   -3.0740    6.5720 O   0  0  0  0  0  0  0  0  0  0  0  0
    6.0040   -2.7740    7.2170 H   0  0  0  0  0  0  0  0  0  0  0  0
    3.9950   -2.7710    6.7150 O   0  0  0  0  0  0  0  0  0  0  0  0
    3.0070   -2.7410    6.5430 H   0  0  0  0  0  0  0  0  0  0  0  0
   10.1660   -2.2590    3.0970 O   0  0  0  0  0  0  0  0  0  0  0  0
    9.3980   -2.7540    2.2800 C   0  0  0  0  0  0  0  0  0  0  0  0
    8.7450   -3.9370    2.5040 N   0  0  0  0  0  0  0  0  0  0  0  0
    9.0210   -4.4030    3.3760 H   0  0  0  0  0  0  0  0  0  0  0  0
    9.1500   -2.1840    1.0710 O   0  0  0  0  0  0  0  0  0  0  0  0
    9.1750   -0.7590    1.0830 C   0  0  0  0  0  2  0  0  0  0  0  0
    9.9780   -0.3020   -0.1100 C   0  0  0  0  0  0  0  0  0  0  0  0
   10.2930   -1.2370   -1.1130 C   0  0  0  0  0  3  0  0  0  0  0  0
   11.0110   -0.8580   -2.2480 C   0  0  0  0  0  3  0  0  0  0  0  0
   11.4180    0.4640   -2.4050 C   0  0  0  0  0  3  0  0  0  0  0  0
   11.1010    1.4070   -1.4280 C   0  0  0  0  0  3  0  0  0  0  0  0
   10.3800    1.0300   -0.2890 C   0  0  0  0  0  0  0  0  0  0  0  0
   10.0090    2.2620    0.8630 Cl  0  0  0  0  0  0  0  0  0  0  0  0
  1  5  2  0  0  0  0
  1 21  1  0  0  0  0
  2  1  1  0  0  0  0
  3  2  2  0  0  0  0
  3  4  1  0  0  0  0
  4  5  1  0  0  0  0
  5  6  1  0  0  0  0
  6  7  1  0  0  0  0
  7  8  2  0  0  0  0
  8  9  1  0  0  0  0
  8 15  1  0  0  0  0
  9 17  1  0  0  0  0
 10 12  1  0  0  0  0
 10  9  2  0  0  0  0
 11  6  2  0  0  0  0
 11 10  1  0  0  0  0
 12 14  1  0  0  0  0
 13 12  2  0  0  0  0
 15 16  1  0  0  0  0
 18 17  1  0  0  0  0
 20 21  1  0  0  0  0
 20 19  2  0  0  0  0
 21 22  1  0  0  0  0
 23 24  1  0  0  0  0
 23 20  1  0  0  0  0
 25 24  1  0  0  0  0
 26 25  2  0  0  0  0
 27 26  1  0  0  0  0
 28 27  2  0  0  0  0
 28 29  1  0  0  0  0
 29 30  2  0  0  0  0
 30 25  1  0  0  0  0
 30 31  1  0  0  0  0
M  END
>  <minimizedAffinity>
-7.10285378

$$$$

 OpenBabel09122221233D

 31 33  0  0  0  0  0  0  0  0999 V2000
    6.1180   -3.5660    5.7370 C   0  0  0  0  0  0  0  0  0  0  0  0
    4.7280   -3.8290    5.9730 C   0  0  0  0  0  3  0  0  0  0  0  0
    4.0170   -4.0640    4.8200 C   0  0  0  0  0  3  0  0  0  0  0  0
    5.0040   -3.9770    3.4410 S   0  0  0  0  0  0  0  0  0  0  0  0
    6.4140   -3.6260    4.3720 C   0  0  0  0  0  0  0  0  0  0  0  0
    7.7000   -3.4290    3.6810 C   0  0  0  0  0  0  0  0  0  0  0  0
    8.7280   -2.9030    4.3670 N   0  0  0  0  0  0  0  0  0  0  0  0
    9.8570   -2.7680    3.6640 C   0  0  0  0  0  0  0  0  0  0  0  0
   10.0180   -3.1210    2.3420 C   0  0  0  0  0  0  0  0  0  0  0  0
    8.9080   -3.6550    1.7120 C   0  0  0  0  0  0  0  0  0  0  0  0
    7.7310   -3.8100    2.3890 N   0  0  0  0  0  0  0  0  0  0  0  0
    9.0210   -4.0740    0.2510 C   0  0  0  0  0  0  0  0  0  0  0  0
    8.6020   -5.2550   -0.0140 O   0  0  0  0  0  1  0  0  0  0  0  0
    9.5080   -3.2480   -0.5780 O   0  0  0  0  0  0  0  0  0  0  0  0
   10.9280   -2.2320    4.3390 O   0  0  0  0  0  0  0  0  0  0  0  0
   11.6280   -2.2220    3.6580 H   0  0  0  0  0  0  0  0  0  0  0  0
   11.2380   -2.9250    1.7500 O   0  0  0  0  0  0  0  0  0  0  0  0
   11.1240   -3.2490    0.8080 H   0  0  0  0  0  0  0  0  0  0  0  0
    8.1960   -2.1030    8.2950 O   0  0  0  0  0  0  0  0  0  0  0  0
    7.3360   -2.1640    7.4240 C   0  0  0  0  0  0  0  0  0  0  0  0
    7.1040   -3.2990    6.6940 N   0  0  0  0  0  0  0  0  0  0  0  0
    7.7670   -4.0580    6.8870 H   0  0  0  0  0  0  0  0  0  0  0  0
    6.5570   -1.1010    7.0910 O   0  0  0  0  0  0  0  0  0  0  0  0
    5.9650   -0.4410    8.2080 C   0  0  0  0  0  2  0  0  0  0  0  0
    4.5980   -1.0410    8.4270 C   0  0  0  0  0  0  0  0  0  0  0  0
    3.5540   -0.6860    7.5520 C   0  0  0  0  0  3  0  0  0  0  0  0
    2.2780   -1.2340    7.6970 C   0  0  0  0  0  3  0  0  0  0  0  0
    2.0270   -2.1530    8.7120 C   0  0  0  0  0  3  0  0  0  0  0  0
    3.0540   -2.5270    9.5780 C   0  0  0  0  0  3  0  0  0  0  0  0
    4.3340   -1.9800    9.4350 C   0  0  0  0  0  0  0  0  0  0  0  0
    5.5560   -2.5110   10.5340 Cl  0  0  0  0  0  0  0  0  0  0  0  0
  1  2  1  0  0  0  0
  1 21  1  0  0  0  0
  3  2  2  0  0  0  0
  4  5  1  0  0  0  0
  4  3  1  0  0  0  0
  5  1  2  0  0  0  0
  6  7  1  0  0  0  0
  6  5  1  0  0  0  0
  8 15  1  0  0  0  0
  8  7  2  0  0  0  0
  9  8  1  0  0  0  0
 10  9  2  0  0  0  0
 10 11  1  0  0  0  0
 11  6  2  0  0  0  0
 12 10  1  0  0  0  0
 13 12  1  0  0  0  0
 14 12  2  0  0  0  0
 16 15  1  0  0  0  0
 17  9  1  0  0  0  0
 18 17  1  0  0  0  0
 20 19  2  0  0  0  0
 21 22  1  0  0  0  0
 21 20  1  0  0  0  0
 23 20  1  0  0  0  0
 23 24  1  0  0  0  0
 24 25  1  0  0  0  0
 25 30  1  0  0  0  0
 26 27  1  0  0  0  0
 26 25  2  0  0  0  0
 27 28  2  0  0  0  0
 28 29  1  0  0  0  0
 30 29  2  0  0  0  0
 30 31  1  0  0  0  0
M  END
>  <minimizedAffinity>
-7.05131769

$$$$

 OpenBabel09122221233D

 31 33  0  0  0  0  0  0  0  0999 V2000
    9.2390   -2.6290    4.4400 C   0  0  0  0  0  0  0  0  0  0  0  0
   10.4230   -1.8210    4.4880 C   0  0  0  0  0  3  0  0  0  0  0  0
   10.5020   -1.0410    5.6180 C   0  0  0  0  0  3  0  0  0  0  0  0
    9.1630   -1.2700    6.6370 S   0  0  0  0  0  0  0  0  0  0  0  0
    8.4500   -2.4300    5.5760 C   0  0  0  0  0  0  0  0  0  0  0  0
    7.1640   -3.0470    5.9460 C   0  0  0  0  0  0  0  0  0  0  0  0
    6.7340   -2.9320    7.2140 N   0  0  0  0  0  0  0  0  0  0  0  0
    5.5560   -3.5130    7.4580 C   0  0  0  0  0  0  0  0  0  0  0  0
    4.7950   -4.1900    6.5300 C   0  0  0  0  0  0  0  0  0  0  0  0
    5.3130   -4.2600    5.2480 C   0  0  0  0  0  0  0  0  0  0  0  0
    6.5160   -3.6830    4.9510 N   0  0  0  0  0  0  0  0  0  0  0  0
    4.5170   -4.9870    4.1720 C   0  0  0  0  0  0  0  0  0  0  0  0
    5.0210   -6.0960    3.7730 O   0  0  0  0  0  1  0  0  0  0  0  0
    3.4410   -4.4610    3.7570 O   0  0  0  0  0  0  0  0  0  0  0  0
    5.0890   -3.4130    8.7470 O   0  0  0  0  0  0  0  0  0  0  0  0
    4.2400   -3.8930    8.7050 H   0  0  0  0  0  0  0  0  0  0  0  0
    3.6020   -4.7360    6.9250 O   0  0  0  0  0  0  0  0  0  0  0  0
    3.2290   -5.1680    6.1010 H   0  0  0  0  0  0  0  0  0  0  0  0
    8.3790   -4.2190    1.3200 O   0  0  0  0  0  0  0  0  0  0  0  0
    8.6150   -3.3090    2.1060 C   0  0  0  0  0  0  0  0  0  0  0  0
    8.8700   -3.5290    3.4340 N   0  0  0  0  0  0  0  0  0  0  0  0
    8.7640   -4.5090    3.7190 H   0  0  0  0  0  0  0  0  0  0  0  0
    8.6180   -2.0020    1.7330 O   0  0  0  0  0  0  0  0  0  0  0  0
    9.4320   -1.7230    0.5960 C   0  0  0  0  0  2  0  0  0  0  0  0
    9.6950   -0.2380    0.5710 C   0  0  0  0  0  0  0  0  0  0  0  0
    9.3190    0.5360    1.6850 C   0  0  0  0  0  3  0  0  0  0  0  0
    9.5640    1.9100    1.7210 C   0  0  0  0  0  3  0  0  0  0  0  0
   10.1990    2.5310    0.6500 C   0  0  0  0  0  3  0  0  0  0  0  0
   10.5930    1.7770   -0.4550 C   0  0  0  0  0  3  0  0  0  0  0  0
   10.3490    0.3990   -0.4940 C   0  0  0  0  0  0  0  0  0  0  0  0
   10.8870   -0.4670   -1.8880 Cl  0  0  0  0  0  0  0  0  0  0  0  0
  1  2  1  0  0  0  0
  1  5  2  0  0  0  0
  2  3  2  0  0  0  0
  3  4  1  0  0  0  0
  5  6  1  0  0  0  0
  5  4  1  0  0  0  0
  6  7  1  0  0  0  0
  7  8  2  0  0  0  0
  8 15  1  0  0  0  0
  9 17  1  0  0  0  0
  9  8  1  0  0  0  0
 10  9  2  0  0  0  0
 11 10  1  0  0  0  0
 11  6  2  0  0  0  0
 12 10  1  0  0  0  0
 13 12  1  0  0  0  0
 14 12  2  0  0  0  0
 16 15  1  0  0  0  0
 18 17  1  0  0  0  0
 19 20  2  0  0  0  0
 20 21  1  0  0  0  0
 21 22  1  0  0  0  0
 21  1  1  0  0  0  0
 23 20  1  0  0  0  0
 24 23  1  0  0  0  0
 25 24  1  0  0  0  0
 25 26  1  0  0  0  0
 26 27  2  0  0  0  0
 28 27  1  0  0  0  0
 29 28  2  0  0  0  0
 30 29  1  0  0  0  0
 30 25  2  0  0  0  0
 31 30  1  0  0  0  0
M  END
>  <minimizedAffinity>
-7.03776598

$$$$
