
 OpenBabel09122222393D

 31 33  0  0  0  0  0  0  0  0999 V2000
    6.2260   -3.7640    6.8360 C   0  0  0  0  0  0  0  0  0  0  0  0
    5.9750   -4.0820    8.2120 C   0  0  0  0  0  3  0  0  0  0  0  0
    6.9940   -3.7000    9.0520 C   0  0  0  0  0  3  0  0  0  0  0  0
    8.2620   -2.9520    8.2060 S   0  0  0  0  0  0  0  0  0  0  0  0
    7.4590   -3.1230    6.6870 C   0  0  0  0  0  0  0  0  0  0  0  0
    8.1140   -2.6180    5.4680 C   0  0  0  0  0  0  0  0  0  0  0  0
    8.8110   -1.4720    5.5370 N   0  0  0  0  0  0  0  0  0  0  0  0
    9.3780   -1.0940    4.3870 C   0  0  0  0  0  0  0  0  0  0  0  0
    9.2920   -1.7790    3.1950 C   0  0  0  0  0  0  0  0  0  0  0  0
    8.5550   -2.9500    3.2130 C   0  0  0  0  0  0  0  0  0  0  0  0
    7.9540   -3.3750    4.3650 N   0  0  0  0  0  0  0  0  0  0  0  0
    8.4270   -3.7600    1.9300 C   0  0  0  0  0  0  0  0  0  0  0  0
    7.5960   -4.7340    1.9760 O   0  0  0  0  0  1  0  0  0  0  0  0
    9.1310   -3.4230    0.9300 O   0  0  0  0  0  0  0  0  0  0  0  0
   10.0990    0.0750    4.4260 O   0  0  0  0  0  0  0  0  0  0  0  0
   10.4170    0.1620    3.5070 H   0  0  0  0  0  0  0  0  0  0  0  0
    9.9290   -1.2700    2.0930 O   0  0  0  0  0  0  0  0  0  0  0  0
    9.7340   -1.9220    1.3570 H   0  0  0  0  0  0  0  0  0  0  0  0
    3.7510   -3.5770    4.2200 O   0  0  0  0  0  0  0  0  0  0  0  0
    4.3490   -3.2710    5.2450 C   0  0  0  0  0  0  0  0  0  0  0  0
    5.3880   -4.0120    5.7440 N   0  0  0  0  0  0  0  0  0  0  0  0
    5.5610   -4.8820    5.2270 H   0  0  0  0  0  0  0  0  0  0  0  0
    4.0140   -2.1840    5.9890 O   0  0  0  0  0  0  0  0  0  0  0  0
    2.7550   -2.2950    6.6500 C   0  0  0  0  0  2  0  0  0  0  0  0
    2.9570   -1.9060    8.0940 C   0  0  0  0  0  0  0  0  0  0  0  0
    3.4130   -0.6070    8.3880 C   0  0  0  0  0  3  0  0  0  0  0  0
    3.5900   -0.1910    9.7090 C   0  0  0  0  0  3  0  0  0  0  0  0
    3.3060   -1.0610   10.7570 C   0  0  0  0  0  3  0  0  0  0  0  0
    2.8400   -2.3470   10.4830 C   0  0  0  0  0  3  0  0  0  0  0  0
    2.6600   -2.7670    9.1610 C   0  0  0  0  0  0  0  0  0  0  0  0
    2.0580   -4.3660    8.9070 Cl  0  0  0  0  0  0  0  0  0  0  0  0
  1  2  1  0  0  0  0
  2  3  2  0  0  0  0
  4  3  1  0  0  0  0
  5  1  2  0  0  0  0
  5  4  1  0  0  0  0
  6  7  1  0  0  0  0
  6  5  1  0  0  0  0
  8 15  1  0  0  0  0
  8  7  2  0  0  0  0
  9 10  2  0  0  0  0
  9  8  1  0  0  0  0
 10 11  1  0  0  0  0
 11  6  2  0  0  0  0
 12 13  1  0  0  0  0
 12 10  1  0  0  0  0
 14 12  2  0  0  0  0
 16 15  1  0  0  0  0
 17  9  1  0  0  0  0
 18 17  1  0  0  0  0
 19 20  2  0  0  0  0
 20 21  1  0  0  0  0
 20 23  1  0  0  0  0
 21  1  1  0  0  0  0
 22 21  1  0  0  0  0
 23 24  1  0  0  0  0
 24 25  1  0  0  0  0
 25 26  2  0  0  0  0
 25 30  1  0  0  0  0
 26 27  1  0  0  0  0
 27 28  2  0  0  0  0
 29 28  1  0  0  0  0
 30 29  2  0  0  0  0
 31 30  1  0  0  0  0
M  END
>  <minimizedAffinity>
-7.16892147

$$$$
