
 OpenBabel09122222393D

 31 33  0  0  0  0  0  0  0  0999 V2000
    7.3300   -3.0780    4.6190 C   0  0  0  0  0  0  0  0  0  0  0  0
    7.7200   -2.5220    5.8820 C   0  0  0  0  0  3  0  0  0  0  0  0
    9.0570   -2.2050    5.9460 C   0  0  0  0  0  3  0  0  0  0  0  0
    9.8600   -2.5660    4.4940 S   0  0  0  0  0  0  0  0  0  0  0  0
    8.4190   -3.1520    3.7460 C   0  0  0  0  0  0  0  0  0  0  0  0
    8.4790   -3.6450    2.3590 C   0  0  0  0  0  0  0  0  0  0  0  0
    7.6700   -4.6550    1.9970 N   0  0  0  0  0  0  0  0  0  0  0  0
    7.7850   -5.0320    0.7210 C   0  0  0  0  0  0  0  0  0  0  0  0
    8.6440   -4.4720   -0.2000 C   0  0  0  0  0  0  0  0  0  0  0  0
    9.4410   -3.4380    0.2570 C   0  0  0  0  0  0  0  0  0  0  0  0
    9.3610   -3.0190    1.5560 N   0  0  0  0  0  0  0  0  0  0  0  0
   10.4080   -2.7690   -0.7120 C   0  0  0  0  0  0  0  0  0  0  0  0
   11.0770   -3.5680   -1.4580 O   0  0  0  0  0  0  0  0  0  0  0  0
   10.4810   -1.5030   -0.7160 O   0  0  0  0  0  1  0  0  0  0  0  0
    6.9700   -6.0630    0.3200 O   0  0  0  0  0  0  0  0  0  0  0  0
    7.2100   -6.1740   -0.6200 H   0  0  0  0  0  0  0  0  0  0  0  0
    8.6520   -4.9620   -1.4790 O   0  0  0  0  0  0  0  0  0  0  0  0
    9.3390   -4.4140   -1.9630 H   0  0  0  0  0  0  0  0  0  0  0  0
    3.9610   -4.3580    4.5120 O   0  0  0  0  0  0  0  0  0  0  0  0
    5.0770   -4.1280    4.9620 C   0  0  0  0  0  0  0  0  0  0  0  0
    6.0490   -3.4920    4.2360 N   0  0  0  0  0  0  0  0  0  0  0  0
    5.7820   -3.3030    3.2640 H   0  0  0  0  0  0  0  0  0  0  0  0
    5.4540   -4.5090    6.2110 O   0  0  0  0  0  0  0  0  0  0  0  0
    4.4270   -4.3840    7.1930 C   0  0  0  0  0  2  0  0  0  0  0  0
    4.6010   -3.0490    7.8740 C   0  0  0  0  0  0  0  0  0  0  0  0
    5.6550   -2.8880    8.7920 C   0  0  0  0  0  3  0  0  0  0  0  0
    5.8730   -1.6650    9.4280 C   0  0  0  0  0  3  0  0  0  0  0  0
    5.0480   -0.5790    9.1500 C   0  0  0  0  0  3  0  0  0  0  0  0
    4.0080   -0.7170    8.2310 C   0  0  0  0  0  3  0  0  0  0  0  0
    3.7870   -1.9410    7.5910 C   0  0  0  0  0  0  0  0  0  0  0  0
    2.4930   -2.0230    6.4500 Cl  0  0  0  0  0  0  0  0  0  0  0  0
  1  2  1  0  0  0  0
  2  3  2  0  0  0  0
  4  3  1  0  0  0  0
  5  4  1  0  0  0  0
  5  1  2  0  0  0  0
  6  5  1  0  0  0  0
  7  6  1  0  0  0  0
  8  7  2  0  0  0  0
  9 10  2  0  0  0  0
  9  8  1  0  0  0  0
 10 11  1  0  0  0  0
 11  6  2  0  0  0  0
 12 10  1  0  0  0  0
 13 12  2  0  0  0  0
 14 12  1  0  0  0  0
 15  8  1  0  0  0  0
 16 15  1  0  0  0  0
 17  9  1  0  0  0  0
 18 17  1  0  0  0  0
 19 20  2  0  0  0  0
 20 23  1  0  0  0  0
 21  1  1  0  0  0  0
 21 20  1  0  0  0  0
 22 21  1  0  0  0  0
 23 24  1  0  0  0  0
 24 25  1  0  0  0  0
 25 26  1  0  0  0  0
 26 27  2  0  0  0  0
 28 27  1  0  0  0  0
 29 28  2  0  0  0  0
 30 25  2  0  0  0  0
 30 29  1  0  0  0  0
 31 30  1  0  0  0  0
M  END
>  <minimizedAffinity>
-7.57886887

$$$$
