REMARK  Name = 
REMARK  8 active torsions:
REMARK  status: ('A' for Active; 'I' for Inactive)
REMARK    1  A    between atoms: C_2  and  C_19
REMARK    2  A    between atoms: N_3  and  CA_4
REMARK    3  A    between atoms: CA_4  and  C_5
REMARK    4  A    between atoms: CA_4  and  C_16
REMARK    5  A    between atoms: C_5  and  C_6
REMARK    6  A    between atoms: C_12  and  O_13
REMARK    7  A    between atoms: C_26  and  C_27
REMARK    8  A    between atoms: N_32  and  C_33
REMARK                            x       y       z     vdW  Elec       q    Type
REMARK                         _______ _______ _______ _____ _____    ______ ____
ROOT
ATOM      1  O   UNL     1       1.372   0.070   1.226  0.00  0.00    -0.270 OA
ATOM      2  C   UNL     1       2.598   0.051   1.162  0.00  0.00    +0.245 C 
ATOM      3  N   UNL     1       3.368   1.096   1.576  0.00  0.00    -0.303 N 
ATOM      4  H   UNL     1       2.897   1.869   2.044  0.00  0.00    +0.150 HD
ENDROOT
BRANCH   2   5
ATOM      5  C   UNL     1       3.250  -1.135   0.576  0.00  0.00    +0.039 A 
ATOM      6  C   UNL     1       2.917  -1.495  -0.733  0.00  0.00    +0.015 A 
ATOM      7  C   UNL     1       3.477  -2.628  -1.332  0.00  0.00    +0.029 A 
ATOM      8  C   UNL     1       4.362  -3.396  -0.561  0.00  0.00    +0.069 A 
ATOM      9  C   UNL     1       4.692  -3.049   0.747  0.00  0.00    +0.090 A 
ATOM     10  C   UNL     1       4.126  -1.913   1.341  0.00  0.00    +0.043 A 
ATOM     11  N   UNL     1       5.588  -3.938   1.274  0.00  0.00    -0.227 NA
ATOM     12  C   UNL     1       5.884  -4.785   0.307  0.00  0.00    +0.145 A 
ATOM     13  N   UNL     1       5.063  -4.569  -0.788  0.00  0.00    -0.320 N 
BRANCH  13  14
ATOM     14  C   UNL     1       4.895  -5.457  -1.933  0.00  0.00    +0.089 C 
ATOM     15  C   UNL     1       3.441  -5.912  -2.165  0.00  0.00    +0.025 C 
ATOM     16  C   UNL     1       3.350  -6.891  -3.334  0.00  0.00    +0.002 C 
ATOM     17  C   UNL     1       3.969  -6.309  -4.602  0.00  0.00    +0.000 C 
ATOM     18  C   UNL     1       5.412  -5.866  -4.375  0.00  0.00    +0.002 C 
ATOM     19  C   UNL     1       5.529  -4.886  -3.209  0.00  0.00    +0.025 C 
ENDBRANCH  13  14
BRANCH  12  20
ATOM     20  C   UNL     1       6.983  -5.782   0.488  0.00  0.00    +0.055 A 
ATOM     21  C   UNL     1       7.660  -6.624  -0.429  0.00  0.00    +0.052 A 
ATOM     22  C   UNL     1       8.603  -7.312   0.302  0.00  0.00    +0.195 A 
ATOM     23  O   UNL     1       8.562  -6.938   1.606  0.00  0.00    -0.470 OA
ATOM     24  C   UNL     1       7.590  -5.995   1.708  0.00  0.00    +0.206 A 
ENDBRANCH  12  20
ENDBRANCH   2   5
BRANCH   3  25
ATOM     25  CA  UNL     1       4.823   1.361   1.424  0.00  0.00    +0.123 C 
BRANCH  25  26
ATOM     26  C   UNL     1       5.326   2.542   2.313  0.00  0.00    +0.062 C 
ATOM     27  O   UNL     1       6.579   2.710   2.341  0.00  0.00    -0.548 OA
ATOM     28  OXT UNL     1       4.413   3.146   2.956  0.00  0.00    -0.548 OA
ENDBRANCH  25  26
BRANCH  25  29
ATOM     29  C   UNL     1       5.259   1.612  -0.029  0.00  0.00    +0.065 C 
BRANCH  29  30
ATOM     30  C   UNL     1       4.579   2.758  -0.732  0.00  0.00    -0.020 A 
ATOM     31  C   UNL     1       3.271   2.792  -1.179  0.00  0.00    +0.087 A 
ATOM     32  N   UNL     1       3.038   4.014  -1.742  0.00  0.00    -0.360 N 
ATOM     33  C   UNL     1       4.183   4.774  -1.731  0.00  0.00    +0.047 A 
ATOM     34  C   UNL     1       4.413   6.068  -2.216  0.00  0.00    +0.030 A 
ATOM     35  C   UNL     1       5.691   6.607  -2.046  0.00  0.00    +0.047 A 
ATOM     36  C   UNL     1       6.686   5.872  -1.410  0.00  0.00    +0.118 A 
ATOM     37  C   UNL     1       6.448   4.585  -0.927  0.00  0.00    +0.055 A 
ATOM     38  C   UNL     1       5.167   4.016  -1.092  0.00  0.00    +0.006 A 
ATOM     39  H   UNL     1       2.148   4.322  -2.105  0.00  0.00    +0.165 HD
BRANCH  36  40
ATOM     40  O   UNL     1       7.936   6.397  -1.239  0.00  0.00    -0.507 OA
ATOM     41  H   UNL     1       7.864   7.360  -1.314  0.00  0.00    +0.292 HD
ENDBRANCH  36  40
ENDBRANCH  29  30
ENDBRANCH  25  29
ENDBRANCH   3  25
TORSDOF 8
