
 OpenBabel09122222393D

 41 46  0  0  1  0  0  0  0  0999 V2000
   12.4820   -3.2260    1.3400 O   0  0  0  0  0  0  0  0  0  0  0  0
   11.5210   -2.9440    0.6290 C   0  0  0  0  0  0  0  0  0  0  0  0
   11.6200   -2.0970   -0.4330 N   0  0  0  0  0  0  0  0  0  0  0  0
   12.5520   -1.7750   -0.6900 H   0  0  0  0  0  0  0  0  0  0  0  0
   10.2060   -3.5180    0.9710 C   0  0  0  0  0  0  0  0  0  0  0  0
    9.7200   -4.5720    0.1920 C   0  0  0  0  0  3  0  0  0  0  0  0
    8.4660   -5.1370    0.4460 C   0  0  0  0  0  3  0  0  0  0  0  0
    7.7110   -4.5880    1.4930 C   0  0  0  0  0  0  0  0  0  0  0  0
    8.1840   -3.5320    2.2680 C   0  0  0  0  0  0  0  0  0  0  0  0
    9.4410   -2.9710    2.0070 C   0  0  0  0  0  3  0  0  0  0  0  0
    7.2770   -3.1950    3.2350 N   0  0  0  0  0  0  0  0  0  0  0  0
    6.2860   -4.0610    3.1340 C   0  0  0  0  0  0  0  0  0  0  0  0
    6.4490   -4.8460    2.0030 N   0  0  0  0  0  0  0  0  0  0  0  0
    5.4460   -5.7180    1.4030 C   0  0  0  0  0  3  0  0  0  0  0  0
    5.5830   -5.8730   -0.1240 C   0  0  0  0  0  2  0  0  0  0  0  0
    4.4630   -6.7410   -0.6920 C   0  0  0  0  0  2  0  0  0  0  0  0
    4.3930   -8.0960    0.0080 C   0  0  0  0  0  2  0  0  0  0  0  0
    4.2490   -7.9440    1.5200 C   0  0  0  0  0  2  0  0  0  0  0  0
    5.3590   -7.0770    2.1120 C   0  0  0  0  0  2  0  0  0  0  0  0
    5.2070   -4.0960    4.1670 C   0  0  0  0  0  0  0  0  0  0  0  0
    5.2460   -4.2630    5.5740 C   0  0  0  0  0  3  0  0  0  0  0  0
    3.9410   -4.1820    6.0080 C   0  0  0  0  0  3  0  0  0  0  0  0
    3.1030   -3.9610    4.9640 O   0  0  0  0  0  0  0  0  0  0  0  0
    3.8800   -3.8900    3.8520 C   0  0  0  0  0  3  0  0  0  0  0  0
   10.5770   -1.4830   -1.2960 C   0  0  2  0  0  3  0  0  0  0  0  0
   11.1380   -0.9630   -2.6580 C   0  0  0  0  0  0  0  0  0  0  0  0
   10.2740   -0.5450   -3.4810 O   0  0  0  0  0  0  0  0  0  0  0  0
   12.3940   -1.0920   -2.7960 O   0  0  0  0  0  1  0  0  0  0  0  0
    9.7970   -0.3460   -0.6140 C   0  0  0  0  0  2  0  0  0  0  0  0
   10.5660    0.9270   -0.3720 C   0  0  0  0  0  0  0  0  0  0  0  0
   11.4220    1.5550   -1.2580 C   0  0  0  0  0  3  0  0  0  0  0  0
   11.9010    2.6890   -0.6670 N   0  0  0  0  0  0  0  0  0  0  0  0
   11.4250    2.7980    0.6170 C   0  0  0  0  0  0  0  0  0  0  0  0
   11.6670    3.7770    1.5900 C   0  0  0  0  0  3  0  0  0  0  0  0
   11.0210    3.6420    2.8210 C   0  0  0  0  0  3  0  0  0  0  0  0
   10.1660    2.5690    3.0540 C   0  0  0  0  0  0  0  0  0  0  0  0
    9.9280    1.6000    2.0790 C   0  0  0  0  0  3  0  0  0  0  0  0
   10.5740    1.7110    0.8290 C   0  0  0  0  0  0  0  0  0  0  0  0
   12.5090    3.3590   -1.1140 H   0  0  0  0  0  0  0  0  0  0  0  0
    9.5300    2.4350    4.2560 O   0  0  0  0  0  0  0  0  0  0  0  0
    9.5250    3.3040    4.6850 H   0  0  0  0  0  0  0  0  0  0  0  0
  2  5  1  0  0  0  0
  2  1  2  0  0  0  0
  3  2  1  0  0  0  0
  4  3  1  0  0  0  0
  5 10  1  0  0  0  0
  6  7  1  0  0  0  0
  6  5  2  0  0  0  0
  7  8  2  0  0  0  0
  8 13  1  0  0  0  0
  8  9  1  0  0  0  0
  9 11  1  0  0  0  0
 10  9  2  0  0  0  0
 12 11  2  0  0  0  0
 12 20  1  0  0  0  0
 13 12  1  0  0  0  0
 14 13  1  0  0  0  0
 14 19  1  0  0  0  0
 15 14  1  0  0  0  0
 16 15  1  0  0  0  0
 16 17  1  0  0  0  0
 17 18  1  0  0  0  0
 18 19  1  0  0  0  0
 20 21  1  0  0  0  0
 21 22  2  0  0  0  0
 23 22  1  0  0  0  0
 24 20  2  0  0  0  0
 24 23  1  0  0  0  0
 25 29  1  1  0  0  0
 25  3  1  0  0  0  0
 26 25  1  0  0  0  0
 27 26  2  0  0  0  0
 28 26  1  0  0  0  0
 29 30  1  0  0  0  0
 30 38  1  0  0  0  0
 31 32  1  0  0  0  0
 31 30  2  0  0  0  0
 32 33  1  0  0  0  0
 33 38  2  0  0  0  0
 33 34  1  0  0  0  0
 34 35  2  0  0  0  0
 35 36  1  0  0  0  0
 36 40  1  0  0  0  0
 37 36  2  0  0  0  0
 38 37  1  0  0  0  0
 39 32  1  0  0  0  0
 40 41  1  0  0  0  0
M  END
>  <minimizedAffinity>
-7.37744999

$$$$
