
 OpenBabel09122222393D

 41 46  0  0  1  0  0  0  0  0999 V2000
    4.7830   -7.5900   -1.1340 O   0  0  0  0  0  0  0  0  0  0  0  0
    5.1870   -7.4810    0.0200 C   0  0  0  0  0  0  0  0  0  0  0  0
    4.6660   -8.2070    1.0490 N   0  0  0  0  0  0  0  0  0  0  0  0
    3.9890   -8.9320    0.8150 H   0  0  0  0  0  0  0  0  0  0  0  0
    6.2470   -6.4950    0.3000 C   0  0  0  0  0  0  0  0  0  0  0  0
    6.4490   -6.0980    1.6250 C   0  0  0  0  0  3  0  0  0  0  0  0
    7.4180   -5.1420    1.9500 C   0  0  0  0  0  3  0  0  0  0  0  0
    8.1550   -4.5850    0.8950 C   0  0  0  0  0  0  0  0  0  0  0  0
    7.9530   -4.9690   -0.4290 C   0  0  0  0  0  0  0  0  0  0  0  0
    6.9810   -5.9260   -0.7470 C   0  0  0  0  0  3  0  0  0  0  0  0
    8.8080   -4.3020   -1.2640 N   0  0  0  0  0  0  0  0  0  0  0  0
    9.5880   -3.5710   -0.4910 C   0  0  0  0  0  0  0  0  0  0  0  0
    9.1410   -3.6150    0.8200 N   0  0  0  0  0  0  0  0  0  0  0  0
    9.5620   -2.7390    1.9080 C   0  0  0  0  0  3  0  0  0  0  0  0
    8.8250   -1.3870    1.9460 C   0  0  0  0  0  2  0  0  0  0  0  0
    9.3630   -0.4960    3.0640 C   0  0  0  0  0  2  0  0  0  0  0  0
    9.3140   -1.2040    4.4160 C   0  0  0  0  0  2  0  0  0  0  0  0
   10.0520   -2.5400    4.3820 C   0  0  0  0  0  2  0  0  0  0  0  0
    9.5310   -3.4480    3.2690 C   0  0  0  0  0  2  0  0  0  0  0  0
   10.7660   -2.8550   -1.0690 C   0  0  0  0  0  0  0  0  0  0  0  0
   11.9670   -3.3260   -1.6550 C   0  0  0  0  0  3  0  0  0  0  0  0
   12.6750   -2.2080   -2.0360 C   0  0  0  0  0  3  0  0  0  0  0  0
   11.9810   -1.0800   -1.7390 O   0  0  0  0  0  0  0  0  0  0  0  0
   10.8150   -1.4810   -1.1700 C   0  0  0  0  0  3  0  0  0  0  0  0
    4.8670   -8.1070    2.5180 C   0  0  2  0  0  3  0  0  0  0  0  0
    5.8120   -9.2140    3.0840 C   0  0  0  0  0  0  0  0  0  0  0  0
    5.2360  -10.2420    3.5440 O   0  0  0  0  0  1  0  0  0  0  0  0
    7.0450   -8.9130    3.0740 O   0  0  0  0  0  0  0  0  0  0  0  0
    3.5580   -8.1110    3.3250 C   0  0  0  0  0  2  0  0  0  0  0  0
    3.5340   -7.2290    4.5460 C   0  0  0  0  0  0  0  0  0  0  0  0
    3.4030   -7.6420    5.8590 C   0  0  0  0  0  3  0  0  0  0  0  0
    3.4480   -6.5410    6.6650 N   0  0  0  0  0  0  0  0  0  0  0  0
    3.5490   -5.3970    5.9110 C   0  0  0  0  0  0  0  0  0  0  0  0
    3.6040   -4.0550    6.3080 C   0  0  0  0  0  3  0  0  0  0  0  0
    3.7300   -3.0870    5.3080 C   0  0  0  0  0  3  0  0  0  0  0  0
    3.8020   -3.4620    3.9700 C   0  0  0  0  0  0  0  0  0  0  0  0
    3.7500   -4.8010    3.5830 C   0  0  0  0  0  3  0  0  0  0  0  0
    3.6170   -5.7980    4.5740 C   0  0  0  0  0  0  0  0  0  0  0  0
    3.4230   -6.5630    7.6740 H   0  0  0  0  0  0  0  0  0  0  0  0
    3.9290   -2.5190    2.9900 O   0  0  0  0  0  0  0  0  0  0  0  0
    4.2710   -1.7110    3.4000 H   0  0  0  0  0  0  0  0  0  0  0  0
  1  2  2  0  0  0  0
  2  5  1  0  0  0  0
  2  3  1  0  0  0  0
  3 25  1  0  0  0  0
  4  3  1  0  0  0  0
  5  6  1  0  0  0  0
  6  7  2  0  0  0  0
  8  7  1  0  0  0  0
  9  8  2  0  0  0  0
 10  9  1  0  0  0  0
 10  5  2  0  0  0  0
 11 12  2  0  0  0  0
 11  9  1  0  0  0  0
 12 13  1  0  0  0  0
 13  8  1  0  0  0  0
 13 14  1  0  0  0  0
 14 15  1  0  0  0  0
 14 19  1  0  0  0  0
 15 16  1  0  0  0  0
 16 17  1  0  0  0  0
 18 17  1  0  0  0  0
 19 18  1  0  0  0  0
 20 12  1  0  0  0  0
 21 20  1  0  0  0  0
 22 23  1  0  0  0  0
 22 21  2  0  0  0  0
 23 24  1  0  0  0  0
 24 20  2  0  0  0  0
 25 26  1  0  0  0  0
 25 29  1  1  0  0  0
 26 27  1  0  0  0  0
 28 26  2  0  0  0  0
 29 30  1  0  0  0  0
 30 38  1  0  0  0  0
 30 31  2  0  0  0  0
 31 32  1  0  0  0  0
 32 39  1  0  0  0  0
 33 34  1  0  0  0  0
 33 32  1  0  0  0  0
 35 34  2  0  0  0  0
 36 35  1  0  0  0  0
 37 36  2  0  0  0  0
 37 38  1  0  0  0  0
 38 33  2  0  0  0  0
 40 41  1  0  0  0  0
 40 36  1  0  0  0  0
M  END
>  <minimizedAffinity>
-9.51195431

$$$$
