
 OpenBabel09122222393D

 41 46  0  0  1  0  0  0  0  0999 V2000
    9.3190   -4.8360   -1.2780 O   0  0  0  0  0  0  0  0  0  0  0  0
    8.9020   -4.3450   -0.2330 C   0  0  0  0  0  0  0  0  0  0  0  0
    9.3180   -3.1290    0.2210 N   0  0  0  0  0  0  0  0  0  0  0  0
    9.9190   -2.5800   -0.3930 H   0  0  0  0  0  0  0  0  0  0  0  0
    7.9470   -5.1260    0.5760 C   0  0  0  0  0  0  0  0  0  0  0  0
    8.0680   -6.5190    0.5810 C   0  0  0  0  0  3  0  0  0  0  0  0
    7.1730   -7.3150    1.3020 C   0  0  0  0  0  3  0  0  0  0  0  0
    6.1410   -6.6640    1.9950 C   0  0  0  0  0  0  0  0  0  0  0  0
    6.0090   -5.2780    1.9870 C   0  0  0  0  0  0  0  0  0  0  0  0
    6.9090   -4.4860    1.2620 C   0  0  0  0  0  3  0  0  0  0  0  0
    4.9450   -4.8870    2.7530 N   0  0  0  0  0  0  0  0  0  0  0  0
    4.4580   -5.9840    3.2990 C   0  0  0  0  0  0  0  0  0  0  0  0
    5.0750   -7.1030    2.7630 N   0  0  0  0  0  0  0  0  0  0  0  0
    4.6350   -8.4860    2.9040 C   0  0  0  0  0  3  0  0  0  0  0  0
    4.1710   -9.1330    1.5840 C   0  0  0  0  0  2  0  0  0  0  0  0
    3.6610  -10.5540    1.8170 C   0  0  0  0  0  2  0  0  0  0  0  0
    4.7000  -11.4130    2.5330 C   0  0  0  0  0  2  0  0  0  0  0  0
    5.1530  -10.7760    3.8440 C   0  0  0  0  0  2  0  0  0  0  0  0
    5.6680   -9.3530    3.6370 C   0  0  0  0  0  2  0  0  0  0  0  0
    3.3970   -5.8970    4.3500 C   0  0  0  0  0  0  0  0  0  0  0  0
    3.0880   -6.7260    5.4560 C   0  0  0  0  0  3  0  0  0  0  0  0
    2.0200   -6.1360    6.0940 C   0  0  0  0  0  3  0  0  0  0  0  0
    1.6600   -4.9900    5.4630 O   0  0  0  0  0  0  0  0  0  0  0  0
    2.5130   -4.8400    4.4170 C   0  0  0  0  0  3  0  0  0  0  0  0
    9.0950   -2.4390    1.5190 C   0  0  2  0  0  3  0  0  0  0  0  0
    9.0800   -0.8830    1.3900 C   0  0  0  0  0  0  0  0  0  0  0  0
    8.4280   -0.2670    2.2810 O   0  0  0  0  0  1  0  0  0  0  0  0
    9.6710   -0.4320    0.3610 O   0  0  0  0  0  0  0  0  0  0  0  0
   10.0980   -2.8380    2.6130 C   0  0  0  0  0  2  0  0  0  0  0  0
    9.8760   -2.2170    3.9680 C   0  0  0  0  0  0  0  0  0  0  0  0
   10.7300   -1.3540    4.6290 C   0  0  0  0  0  3  0  0  0  0  0  0
   10.1560   -1.0030    5.8170 N   0  0  0  0  0  0  0  0  0  0  0  0
    8.9620   -1.6620    5.9870 C   0  0  0  0  0  0  0  0  0  0  0  0
    8.0530   -1.6250    7.0520 C   0  0  0  0  0  3  0  0  0  0  0  0
    6.8920   -2.3940    6.9410 C   0  0  0  0  0  3  0  0  0  0  0  0
    6.6600   -3.1590    5.8030 C   0  0  0  0  0  0  0  0  0  0  0  0
    7.5690   -3.1880    4.7450 C   0  0  0  0  0  3  0  0  0  0  0  0
    8.7530   -2.4240    4.8350 C   0  0  0  0  0  0  0  0  0  0  0  0
   10.5470   -0.3430    6.4740 H   0  0  0  0  0  0  0  0  0  0  0  0
    5.5240   -3.9100    5.6890 O   0  0  0  0  0  0  0  0  0  0  0  0
    4.8710   -3.5510    6.3080 H   0  0  0  0  0  0  0  0  0  0  0  0
  1  2  2  0  0  0  0
  2  3  1  0  0  0  0
  2  5  1  0  0  0  0
  3 25  1  0  0  0  0
  4  3  1  0  0  0  0
  5  6  2  0  0  0  0
  5 10  1  0  0  0  0
  6  7  1  0  0  0  0
  7  8  2  0  0  0  0
  8 13  1  0  0  0  0
  9  8  1  0  0  0  0
  9 11  1  0  0  0  0
 10  9  2  0  0  0  0
 11 12  2  0  0  0  0
 12 20  1  0  0  0  0
 13 14  1  0  0  0  0
 13 12  1  0  0  0  0
 14 19  1  0  0  0  0
 15 16  1  0  0  0  0
 15 14  1  0  0  0  0
 16 17  1  0  0  0  0
 17 18  1  0  0  0  0
 19 18  1  0  0  0  0
 20 24  2  0  0  0  0
 20 21  1  0  0  0  0
 21 22  2  0  0  0  0
 23 22  1  0  0  0  0
 24 23  1  0  0  0  0
 25 29  1  1  0  0  0
 26 25  1  0  0  0  0
 26 27  1  0  0  0  0
 28 26  2  0  0  0  0
 29 30  1  0  0  0  0
 30 31  2  0  0  0  0
 30 38  1  0  0  0  0
 31 32  1  0  0  0  0
 32 33  1  0  0  0  0
 32 39  1  0  0  0  0
 33 34  1  0  0  0  0
 35 34  2  0  0  0  0
 36 35  1  0  0  0  0
 37 38  1  0  0  0  0
 37 36  2  0  0  0  0
 38 33  2  0  0  0  0
 40 36  1  0  0  0  0
 40 41  1  0  0  0  0
M  END
>  <minimizedAffinity>
-7.67758751

$$$$
