
 OpenBabel09122222393D

 41 46  0  0  1  0  0  0  0  0999 V2000
    4.8500   -7.3240   -1.2420 O   0  0  0  0  0  0  0  0  0  0  0  0
    5.2910   -7.2010   -0.1030 C   0  0  0  0  0  0  0  0  0  0  0  0
    4.8510   -7.9630    0.9380 N   0  0  0  0  0  0  0  0  0  0  0  0
    4.2060   -8.7220    0.7240 H   0  0  0  0  0  0  0  0  0  0  0  0
    6.3070   -6.1610    0.1470 C   0  0  0  0  0  0  0  0  0  0  0  0
    7.1210   -5.7620   -0.9170 C   0  0  0  0  0  3  0  0  0  0  0  0
    8.1230   -4.8040   -0.7360 C   0  0  0  0  0  3  0  0  0  0  0  0
    8.2920   -4.2810    0.5550 C   0  0  0  0  0  0  0  0  0  0  0  0
    7.4910   -4.6810    1.6220 C   0  0  0  0  0  0  0  0  0  0  0  0
    6.4890   -5.6420    1.4330 C   0  0  0  0  0  3  0  0  0  0  0  0
    7.8350   -4.0120    2.7650 N   0  0  0  0  0  0  0  0  0  0  0  0
    8.7760   -3.1530    2.4240 C   0  0  0  0  0  0  0  0  0  0  0  0
    9.1750   -3.3730    1.1150 N   0  0  0  0  0  0  0  0  0  0  0  0
   10.3600   -2.8220    0.4670 C   0  0  0  0  0  3  0  0  0  0  0  0
   11.3360   -3.8890   -0.0660 C   0  0  0  0  0  2  0  0  0  0  0  0
   12.5820   -3.2430   -0.6680 C   0  0  0  0  0  2  0  0  0  0  0  0
   12.2200   -2.2220   -1.7440 C   0  0  0  0  0  2  0  0  0  0  0  0
   11.2600   -1.1600   -1.2150 C   0  0  0  0  0  2  0  0  0  0  0  0
   10.0050   -1.7820   -0.6050 C   0  0  0  0  0  2  0  0  0  0  0  0
    9.2500   -2.1260    3.4010 C   0  0  0  0  0  0  0  0  0  0  0  0
    9.7770   -2.2360    4.7120 C   0  0  0  0  0  3  0  0  0  0  0  0
   10.0680   -0.9530    5.1200 C   0  0  0  0  0  3  0  0  0  0  0  0
    9.7690   -0.0610    4.1410 O   0  0  0  0  0  0  0  0  0  0  0  0
    9.2910   -0.7820    3.0940 C   0  0  0  0  0  3  0  0  0  0  0  0
    5.1020   -7.8630    2.4000 C   0  0  2  0  0  3  0  0  0  0  0  0
    6.2280   -8.8250    2.8950 C   0  0  0  0  0  0  0  0  0  0  0  0
    7.4000   -8.5330    2.5210 O   0  0  0  0  0  0  0  0  0  0  0  0
    5.8140   -9.8270    3.5560 O   0  0  0  0  0  1  0  0  0  0  0  0
    3.8470   -8.0810    3.2610 C   0  0  0  0  0  2  0  0  0  0  0  0
    3.7160   -7.1920    4.4710 C   0  0  0  0  0  0  0  0  0  0  0  0
    3.5140   -7.6010    5.7760 C   0  0  0  0  0  3  0  0  0  0  0  0
    3.4710   -6.4930    6.5740 N   0  0  0  0  0  0  0  0  0  0  0  0
    3.5820   -5.3520    5.8170 C   0  0  0  0  0  0  0  0  0  0  0  0
    3.5670   -4.0060    6.2050 C   0  0  0  0  0  3  0  0  0  0  0  0
    3.7250   -3.0410    5.2070 C   0  0  0  0  0  3  0  0  0  0  0  0
    3.8960   -3.4220    3.8800 C   0  0  0  0  0  0  0  0  0  0  0  0
    3.9130   -4.7650    3.5020 C   0  0  0  0  0  3  0  0  0  0  0  0
    3.7490   -5.7580    4.4910 C   0  0  0  0  0  0  0  0  0  0  0  0
    3.3820   -6.5090    7.5790 H   0  0  0  0  0  0  0  0  0  0  0  0
    4.0540   -2.4810    2.9010 O   0  0  0  0  0  0  0  0  0  0  0  0
    4.3430   -1.6600    3.3260 H   0  0  0  0  0  0  0  0  0  0  0  0
  1  2  2  0  0  0  0
  2  5  1  0  0  0  0
  2  3  1  0  0  0  0
  3 25  1  0  0  0  0
  4  3  1  0  0  0  0
  5 10  1  0  0  0  0
  6  7  1  0  0  0  0
  6  5  2  0  0  0  0
  7  8  2  0  0  0  0
  8 13  1  0  0  0  0
  8  9  1  0  0  0  0
  9 11  1  0  0  0  0
 10  9  2  0  0  0  0
 12 11  2  0  0  0  0
 12 20  1  0  0  0  0
 13 12  1  0  0  0  0
 14 13  1  0  0  0  0
 15 14  1  0  0  0  0
 16 15  1  0  0  0  0
 17 18  1  0  0  0  0
 17 16  1  0  0  0  0
 18 19  1  0  0  0  0
 19 14  1  0  0  0  0
 20 21  1  0  0  0  0
 21 22  2  0  0  0  0
 23 22  1  0  0  0  0
 24 20  2  0  0  0  0
 24 23  1  0  0  0  0
 25 26  1  0  0  0  0
 25 29  1  1  0  0  0
 26 28  1  0  0  0  0
 27 26  2  0  0  0  0
 29 30  1  0  0  0  0
 30 38  1  0  0  0  0
 30 31  2  0  0  0  0
 31 32  1  0  0  0  0
 32 39  1  0  0  0  0
 33 34  1  0  0  0  0
 33 32  1  0  0  0  0
 35 34  2  0  0  0  0
 36 35  1  0  0  0  0
 37 36  2  0  0  0  0
 37 38  1  0  0  0  0
 38 33  2  0  0  0  0
 40 41  1  0  0  0  0
 40 36  1  0  0  0  0
M  END
>  <minimizedAffinity>
-10.0736237

$$$$
