
 OpenBabel09122222393D

 41 46  0  0  1  0  0  0  0  0999 V2000
    9.9660   -1.6190    3.3560 O   0  0  0  0  0  0  0  0  0  0  0  0
    9.7870   -2.3740    2.4050 C   0  0  0  0  0  0  0  0  0  0  0  0
   10.6090   -2.3890    1.3180 N   0  0  0  0  0  0  0  0  0  0  0  0
   11.4520   -1.8180    1.3600 H   0  0  0  0  0  0  0  0  0  0  0  0
    8.6130   -3.2660    2.4300 C   0  0  0  0  0  0  0  0  0  0  0  0
    8.5330   -4.2840    1.4750 C   0  0  0  0  0  3  0  0  0  0  0  0
    7.4290   -5.1410    1.4280 C   0  0  0  0  0  3  0  0  0  0  0  0
    6.4010   -4.9220    2.3570 C   0  0  0  0  0  0  0  0  0  0  0  0
    6.4690   -3.9050    3.3060 C   0  0  0  0  0  0  0  0  0  0  0  0
    7.5780   -3.0490    3.3470 C   0  0  0  0  0  3  0  0  0  0  0  0
    5.3610   -3.9140    4.1080 N   0  0  0  0  0  0  0  0  0  0  0  0
    4.6400   -4.9540    3.7350 C   0  0  0  0  0  0  0  0  0  0  0  0
    5.1730   -5.5200    2.5880 N   0  0  0  0  0  0  0  0  0  0  0  0
    4.5250   -6.5010    1.7250 C   0  0  0  0  0  3  0  0  0  0  0  0
    4.8050   -6.2980    0.2240 C   0  0  0  0  0  2  0  0  0  0  0  0
    4.0420   -7.3160   -0.6220 C   0  0  0  0  0  2  0  0  0  0  0  0
    4.3390   -8.7470   -0.1800 C   0  0  0  0  0  2  0  0  0  0  0  0
    4.0520   -8.9510    1.3050 C   0  0  0  0  0  2  0  0  0  0  0  0
    4.8050   -7.9430    2.1720 C   0  0  0  0  0  2  0  0  0  0  0  0
    3.4460   -5.3690    4.5330 C   0  0  0  0  0  0  0  0  0  0  0  0
    3.1590   -6.5470    5.2660 C   0  0  0  0  0  3  0  0  0  0  0  0
    1.9130   -6.3610    5.8230 C   0  0  0  0  0  3  0  0  0  0  0  0
    1.4200   -5.1400    5.4930 O   0  0  0  0  0  0  0  0  0  0  0  0
    2.3650   -4.5360    4.7270 C   0  0  0  0  0  3  0  0  0  0  0  0
   10.4820   -3.0700    0.0030 C   0  0  2  0  0  3  0  0  0  0  0  0
   11.8260   -3.6830   -0.5020 C   0  0  0  0  0  0  0  0  0  0  0  0
   11.8830   -3.9300   -1.7410 O   0  0  0  0  0  0  0  0  0  0  0  0
   12.6740   -3.9240    0.4120 O   0  0  0  0  0  1  0  0  0  0  0  0
    9.8970   -2.1760   -1.1030 C   0  0  0  0  0  2  0  0  0  0  0  0
   10.5490   -0.8290   -1.2750 C   0  0  0  0  0  0  0  0  0  0  0  0
   11.4530   -0.4690   -2.2570 C   0  0  0  0  0  3  0  0  0  0  0  0
   11.7890    0.8430   -2.0760 N   0  0  0  0  0  0  0  0  0  0  0  0
   11.1700    1.3470   -0.9580 C   0  0  0  0  0  0  0  0  0  0  0  0
   11.2390    2.6240   -0.3850 C   0  0  0  0  0  3  0  0  0  0  0  0
   10.4720    2.8640    0.7580 C   0  0  0  0  0  3  0  0  0  0  0  0
    9.6700    1.8610    1.2920 C   0  0  0  0  0  0  0  0  0  0  0  0
    9.6040    0.5930    0.7140 C   0  0  0  0  0  3  0  0  0  0  0  0
   10.3740    0.3230   -0.4380 C   0  0  0  0  0  0  0  0  0  0  0  0
   12.3960    1.3720   -2.6840 H   0  0  0  0  0  0  0  0  0  0  0  0
    8.9170    2.0940    2.4080 O   0  0  0  0  0  0  0  0  0  0  0  0
    8.8070    3.0520    2.4950 H   0  0  0  0  0  0  0  0  0  0  0  0
  2  5  1  0  0  0  0
  2  1  2  0  0  0  0
  3  4  1  0  0  0  0
  3  2  1  0  0  0  0
  5 10  1  0  0  0  0
  6  5  2  0  0  0  0
  7  6  1  0  0  0  0
  7  8  2  0  0  0  0
  8 13  1  0  0  0  0
  8  9  1  0  0  0  0
  9 10  2  0  0  0  0
  9 11  1  0  0  0  0
 12 11  2  0  0  0  0
 12 20  1  0  0  0  0
 13 12  1  0  0  0  0
 14 19  1  0  0  0  0
 14 13  1  0  0  0  0
 15 14  1  0  0  0  0
 16 17  1  0  0  0  0
 16 15  1  0  0  0  0
 17 18  1  0  0  0  0
 18 19  1  0  0  0  0
 20 24  2  0  0  0  0
 20 21  1  0  0  0  0
 21 22  2  0  0  0  0
 23 22  1  0  0  0  0
 24 23  1  0  0  0  0
 25 29  1  6  0  0  0
 25  3  1  0  0  0  0
 26 25  1  0  0  0  0
 26 28  1  0  0  0  0
 27 26  2  0  0  0  0
 30 29  1  0  0  0  0
 30 38  1  0  0  0  0
 31 32  1  0  0  0  0
 31 30  2  0  0  0  0
 32 33  1  0  0  0  0
 33 38  2  0  0  0  0
 33 34  1  0  0  0  0
 34 35  2  0  0  0  0
 35 36  1  0  0  0  0
 36 40  1  0  0  0  0
 37 36  2  0  0  0  0
 38 37  1  0  0  0  0
 39 32  1  0  0  0  0
 40 41  1  0  0  0  0
M  END
>  <minimizedAffinity>
-7.26338243

$$$$
