REMARK  Name = 
REMARK  12 active torsions:
REMARK  status: ('A' for Active; 'I' for Inactive)
REMARK    1  A    between atoms: C_1  and  C_2
REMARK    2  A    between atoms: C_2  and  C_3
REMARK    3  A    between atoms: C_2  and  C_4
REMARK    4  A    between atoms: C_4  and  C_5
REMARK    5  A    between atoms: C_5  and  N_6
REMARK    6  A    between atoms: C_9  and  C_10
REMARK    7  A    between atoms: C_17  and  N_18
REMARK    8  A    between atoms: N_18  and  S_19
REMARK    9  A    between atoms: S_19  and  N_22
REMARK   10  A    between atoms: N_22  and  C_23
REMARK   11  A    between atoms: C_26  and  C_27
REMARK   12  A    between atoms: C_36  and  O_37
REMARK                            x       y       z     vdW  Elec       q    Type
REMARK                         _______ _______ _______ _____ _____    ______ ____
ROOT
ATOM      1  C   UNL     1      -2.983  -4.126   2.818  0.00  0.00    +0.308 C 
ATOM      2  N   UNL     1      -4.085  -3.413   2.886  0.00  0.00    -0.131 N 
ATOM      3  S   UNL     1      -5.163  -3.357   1.699  0.00  0.00    +0.141 S 
ATOM      4  O   UNL     1      -5.977  -4.553   1.653  0.00  0.00    -0.129 OA
ATOM      5  O   UNL     1      -5.789  -2.050   1.702  0.00  0.00    -0.129 OA
ATOM      6  C   UNL     1      -4.095  -3.406   0.293  0.00  0.00    +0.176 A 
ATOM      7  C   UNL     1      -4.165  -2.416  -0.683  0.00  0.00    +0.059 A 
ATOM      8  C   UNL     1      -3.114  -2.313  -1.586  0.00  0.00    +0.051 A 
ATOM      9  C   UNL     1      -2.114  -3.290  -1.621  0.00  0.00    +0.028 A 
ATOM     10  C   UNL     1      -2.062  -4.285  -0.639  0.00  0.00    +0.053 A 
ATOM     11  C   UNL     1      -3.009  -4.284   0.385  0.00  0.00    +0.148 A 
ATOM     12  N   UNL     1      -2.712  -4.880   1.634  0.00  0.00    -0.200 N 
ATOM     13  H   UNL     1      -4.186  -2.738   3.637  0.00  0.00    +0.339 HD
ATOM     14  H   UNL     1      -1.867  -5.453   1.644  0.00  0.00    +0.298 HD
ENDROOT
BRANCH   1  18
ATOM     15  N   UNL     1      -0.559  -1.954   4.475  0.00  0.00    -0.292 N 
ATOM     16  C   UNL     1      -1.812  -2.486   4.301  0.00  0.00    +0.271 A 
ATOM     17  O   UNL     1      -2.859  -1.835   4.347  0.00  0.00    -0.267 OA
ATOM     18  C   UNL     1      -1.882  -3.901   3.808  0.00  0.00    +0.170 A 
ATOM     19  C   UNL     1      -0.801  -4.687   3.946  0.00  0.00    +0.148 A 
ATOM     20  C   UNL     1       0.439  -4.157   4.525  0.00  0.00    +0.060 A 
ATOM     21  C   UNL     1       1.559  -4.953   4.785  0.00  0.00    +0.016 A 
ATOM     22  C   UNL     1       2.749  -4.359   5.198  0.00  0.00    +0.021 A 
ATOM     23  C   UNL     1       2.786  -2.983   5.322  0.00  0.00    +0.113 A 
ATOM     24  N   UNL     1       1.721  -2.188   5.088  0.00  0.00    -0.237 NA
ATOM     25  C   UNL     1       0.567  -2.778   4.706  0.00  0.00    +0.147 A 
BRANCH  19  26
ATOM     26  O   UNL     1      -0.734  -5.974   3.446  0.00  0.00    -0.505 OA
ATOM     27  H   UNL     1      -1.552  -6.449   3.692  0.00  0.00    +0.292 HD
ENDBRANCH  19  26
BRANCH  15  28
ATOM     28  C   UNL     1      -0.334  -0.513   4.241  0.00  0.00    +0.127 C 
BRANCH  28  29
ATOM     29  C   UNL     1       0.129  -0.279   2.544  0.00  0.00    +0.025 C 
BRANCH  29  31
ATOM     30  C   UNL     1       1.605   1.454  -0.231  0.00  0.00    +0.007 C 
ATOM     31  C   UNL     1       0.869   1.421   1.362  0.00  0.00    -0.016 C 
ATOM     32  C   UNL     1       0.133   2.996   1.076  0.00  0.00    +0.007 C 
ENDBRANCH  29  31
ENDBRANCH  28  29
ENDBRANCH  15  28
ENDBRANCH   1  18
BRANCH   8  33
ATOM     33  N   UNL     1      -2.954  -1.084  -2.291  0.00  0.00    -0.204 N 
ATOM     34  H   UNL     1      -3.792  -0.530  -2.465  0.00  0.00    +0.175 HD
BRANCH  33  35
ATOM     35  S   UNL     1      -1.668  -0.087  -1.811  0.00  0.00    +0.124 S 
ATOM     36  O   UNL     1      -0.436  -0.768  -2.116  0.00  0.00    -0.135 OA
ATOM     37  O   UNL     1      -1.977   1.226  -2.322  0.00  0.00    -0.135 OA
BRANCH  35  38
ATOM     38  N   UNL     1      -1.933  -0.008  -0.134  0.00  0.00    -0.204 N 
ATOM     39  H   UNL     1      -2.677   0.676   0.010  0.00  0.00    +0.175 HD
BRANCH  38  40
ATOM     40  C   UNL     1      -0.804   0.293   0.712  0.00  0.00    +0.049 A 
ATOM     41  C   UNL     1      -1.099   1.321   2.164  0.00  0.00    +0.025 A 
ATOM     42  C   UNL     1       0.244   1.628   3.353  0.00  0.00    +0.015 A 
ATOM     43  C   UNL     1       1.824   0.766   3.186  0.00  0.00    +0.037 A 
ATOM     44  C   UNL     1       2.093  -0.290   1.764  0.00  0.00    +0.015 A 
ATOM     45  C   UNL     1       0.753  -0.586   0.579  0.00  0.00    +0.025 A 
BRANCH  43  46
ATOM     46  C   UNL     1       2.949   0.934   4.124  0.00  0.00    +0.242 C 
ATOM     47  N   UNL     1       2.784   1.820   5.145  0.00  0.00    -0.325 N 
ATOM     48  O   UNL     1       3.988   0.307   3.974  0.00  0.00    -0.270 OA
ATOM     49  H   UNL     1       3.563   1.931   5.782  0.00  0.00    +0.145 HD
ATOM     50  H   UNL     1       1.962   2.379   5.299  0.00  0.00    +0.145 HD
ENDBRANCH  43  46
ENDBRANCH  38  40
ENDBRANCH  35  38
ENDBRANCH  33  35
ENDBRANCH   8  33
TORSDOF 10
