
 OpenBabel09122217593D

 50 53  0  0  1  0  0  0  0  0999 V2000
    4.8800   -3.4300    6.1380 C   0  0  1  0  0  3  0  0  0  0  0  0
    3.8550   -2.7200    6.5530 N   0  0  0  0  0  0  0  0  0  0  0  0
    3.4820   -2.5480    8.1040 S   0  0  0  0  0  0  0  0  0  0  0  0
    4.3610   -1.6100    8.7690 O   0  0  0  0  0  0  0  0  0  0  0  0
    2.0450   -2.4090    8.2230 O   0  0  0  0  0  0  0  0  0  0  0  0
    3.8890   -4.1560    8.7120 C   0  0  0  0  0  0  0  0  0  0  0  0
    2.9450   -4.9120    9.4000 C   0  0  0  0  0  3  0  0  0  0  0  0
    3.1940   -6.2680    9.5740 C   0  0  0  0  0  0  0  0  0  0  0  0
    4.4360   -6.8080    9.2290 C   0  0  0  0  0  3  0  0  0  0  0  0
    5.3800   -6.0330    8.5460 C   0  0  0  0  0  3  0  0  0  0  0  0
    5.0630   -4.7200    8.1990 C   0  0  0  0  0  0  0  0  0  0  0  0
    5.7010   -4.0970    7.1000 N   0  0  0  0  0  0  0  0  0  0  0  0
    3.1690   -2.4060    5.8730 H   0  0  0  0  0  0  0  0  0  0  0  0
    6.5110   -4.6000    6.7340 H   0  0  0  0  0  0  0  0  0  0  0  0
    4.1630   -5.6670    3.3420 N   0  0  0  0  0  0  0  0  0  0  0  0
    3.8540   -4.6500    4.2090 C   0  0  0  0  0  0  0  0  0  0  0  0
    2.7540   -4.5010    4.7460 O   0  0  0  0  0  0  0  0  0  0  0  0
    4.9960   -3.8060    4.6930 C   0  0  2  0  0  3  0  0  0  0  0  0
    6.1400   -3.8020    3.9890 C   0  0  2  0  0  3  0  0  0  0  0  0
    6.2860   -4.6430    2.7950 C   0  0  0  0  0  0  0  0  0  0  0  0
    7.4130   -4.6040    1.9680 C   0  0  0  0  0  3  0  0  0  0  0  0
    7.5480   -5.5310    0.9380 C   0  0  0  0  0  3  0  0  0  0  0  0
    6.5570   -6.4810    0.7780 C   0  0  0  0  0  3  0  0  0  0  0  0
    5.4530   -6.5400    1.5520 N   0  0  0  0  0  0  0  0  0  0  0  0
    5.3250   -5.6240    2.5360 C   0  0  0  0  0  0  0  0  0  0  0  0
    7.2770   -3.1300    4.3980 O   0  0  0  0  0  0  0  0  0  0  0  0
    7.0250   -2.2260    4.6710 H   0  0  0  0  0  0  0  0  0  0  0  0
    3.3780   -6.9180    3.3680 C   0  0  0  0  0  2  0  0  0  0  0  0
    4.1970   -8.0800    4.4300 C   0  0  0  0  0  1  0  0  0  0  0  0
    3.8940  -10.1980    7.3120 C   0  0  0  0  0  1  0  0  0  0  0  0
    3.5460   -9.7980    5.6390 C   0  0  0  0  0  2  0  0  0  0  0  0
    1.9530  -10.5390    5.7720 C   0  0  0  0  0  1  0  0  0  0  0  0
    2.0900   -7.1180    9.8760 N   0  0  0  0  0  0  0  0  0  0  0  0
    1.4550   -6.8190   10.6160 H   0  0  0  0  0  0  0  0  0  0  0  0
    1.2210   -7.7420    8.5590 S   0  0  0  0  0  0  0  0  0  0  0  0
    1.8640   -7.3010    7.3490 O   0  0  0  0  0  0  0  0  0  0  0  0
    1.0010   -9.1360    8.8590 O   0  0  0  0  0  0  0  0  0  0  0  0
   -0.2820   -6.9780    8.7760 N   0  0  0  0  0  0  0  0  0  0  0  0
   -0.2930   -6.6280    9.7350 H   0  0  0  0  0  0  0  0  0  0  0  0
   -1.4720   -7.7470    8.5080 C   0  0  0  0  0  0  0  0  0  0  0  0
   -2.2520   -8.5900    9.8980 C   0  0  0  0  0  3  0  0  0  0  0  0
   -3.8320   -9.4630    9.6670 C   0  0  0  0  0  3  0  0  0  0  0  0
   -4.7180   -9.3420    8.0960 C   0  0  0  0  0  0  0  0  0  0  0  0
   -3.9570   -8.4620    6.7330 C   0  0  0  0  0  3  0  0  0  0  0  0
   -2.3790   -7.6010    6.9690 C   0  0  0  0  0  3  0  0  0  0  0  0
   -6.0170   -9.9910    7.8390 C   0  0  0  0  0  0  0  0  0  0  0  0
   -6.8490  -10.1660    8.9030 N   0  0  0  0  0  0  0  0  0  0  0  0
   -6.3190  -10.3630    6.7140 O   0  0  0  0  0  0  0  0  0  0  0  0
   -7.7370  -10.6150    8.7170 H   0  0  0  0  0  0  0  0  0  0  0  0
   -6.6400   -9.9030    9.8510 H   0  0  0  0  0  0  0  0  0  0  0  0
  1  2  1  1  0  0  0
  1 12  1  0  0  0  0
  2  3  1  0  0  0  0
  3  5  2  0  0  0  0
  3  6  1  0  0  0  0
  3  4  2  0  0  0  0
  6  7  1  0  0  0  0
  7  8  2  0  0  0  0
  8 33  1  0  0  0  0
  9  8  1  0  0  0  0
 10  9  2  0  0  0  0
 11 10  1  0  0  0  0
 11  6  2  0  0  0  0
 12 11  1  0  0  0  0
 13  2  1  0  0  0  0
 14 12  1  0  0  0  0
 15 28  1  0  0  0  0
 15 16  1  0  0  0  0
 16 17  2  0  0  0  0
 18 16  1  1  0  0  0
 18  1  1  0  0  0  0
 19 26  1  1  0  0  0
 19 18  1  0  0  0  0
 20 19  1  0  0  0  0
 21 20  2  0  0  0  0
 22 21  1  0  0  0  0
 23 22  2  0  0  0  0
 23 24  1  0  0  0  0
 24 25  2  0  0  0  0
 25 20  1  0  0  0  0
 25 15  1  0  0  0  0
 26 27  1  0  0  0  0
 28 29  1  0  0  0  0
 31 32  1  0  0  0  0
 31 30  1  0  0  0  0
 33 34  1  0  0  0  0
 35 38  1  0  0  0  0
 35 37  2  0  0  0  0
 35 33  1  0  0  0  0
 36 35  2  0  0  0  0
 38 39  1  0  0  0  0
 40 38  1  0  0  0  0
 40 41  1  0  0  0  0
 42 41  2  0  0  0  0
 43 42  1  0  0  0  0
 44 45  1  0  0  0  0
 44 43  2  0  0  0  0
 45 40  2  0  0  0  0
 46 43  1  0  0  0  0
 46 47  1  0  0  0  0
 47 50  1  0  0  0  0
 48 46  2  0  0  0  0
 49 47  1  0  0  0  0
M  END
>  <minimizedAffinity>
-7.61017323

$$$$

 OpenBabel09122217593D

 50 53  0  0  1  0  0  0  0  0999 V2000
    3.4420   -5.9340    9.2330 C   0  0  1  0  0  3  0  0  0  0  0  0
    4.3350   -6.0310    8.2740 N   0  0  0  0  0  0  0  0  0  0  0  0
    5.2730   -4.8090    7.8260 S   0  0  0  0  0  0  0  0  0  0  0  0
    6.3520   -4.5850    8.7650 O   0  0  0  0  0  0  0  0  0  0  0  0
    5.5540   -4.9340    6.4100 O   0  0  0  0  0  0  0  0  0  0  0  0
    4.1470   -3.4590    8.0040 C   0  0  0  0  0  0  0  0  0  0  0  0
    3.8950   -2.6030    6.9360 C   0  0  0  0  0  3  0  0  0  0  0  0
    2.7860   -1.7700    7.0140 C   0  0  0  0  0  0  0  0  0  0  0  0
    2.0590   -1.6690    8.2040 C   0  0  0  0  0  3  0  0  0  0  0  0
    2.3300   -2.5300    9.2730 C   0  0  0  0  0  3  0  0  0  0  0  0
    3.3220   -3.5010    9.1340 C   0  0  0  0  0  0  0  0  0  0  0  0
    3.2780   -4.6850    9.9080 N   0  0  0  0  0  0  0  0  0  0  0  0
    4.3230   -6.8500    7.6740 H   0  0  0  0  0  0  0  0  0  0  0  0
    2.6040   -4.6680   10.6760 H   0  0  0  0  0  0  0  0  0  0  0  0
    2.0320   -9.1960    8.3940 N   0  0  0  0  0  0  0  0  0  0  0  0
    2.8980   -8.3700    9.0650 C   0  0  0  0  0  0  0  0  0  0  0  0
    4.0930   -8.6130    9.2480 O   0  0  0  0  0  0  0  0  0  0  0  0
    2.3980   -6.9950    9.3970 C   0  0  2  0  0  3  0  0  0  0  0  0
    1.0730   -6.7740    9.4030 C   0  0  2  0  0  3  0  0  0  0  0  0
    0.1350   -7.8450    9.0470 C   0  0  0  0  0  0  0  0  0  0  0  0
   -1.2530   -7.7010    9.1340 C   0  0  0  0  0  3  0  0  0  0  0  0
   -2.0850   -8.7050    8.6430 C   0  0  0  0  0  3  0  0  0  0  0  0
   -1.5000   -9.8150    8.0640 C   0  0  0  0  0  3  0  0  0  0  0  0
   -0.1650   -9.9880    7.9730 N   0  0  0  0  0  0  0  0  0  0  0  0
    0.6310   -9.0160    8.4700 C   0  0  0  0  0  0  0  0  0  0  0  0
    0.5170   -5.5250    9.6080 O   0  0  0  0  0  0  0  0  0  0  0  0
    0.9490   -5.1120   10.3810 H   0  0  0  0  0  0  0  0  0  0  0  0
    2.5570  -10.1830    7.4280 C   0  0  0  0  0  2  0  0  0  0  0  0
    2.1240   -9.6600    5.7890 C   0  0  0  0  0  1  0  0  0  0  0  0
   -1.1080   -9.0750    4.3420 C   0  0  0  0  0  1  0  0  0  0  0  0
    0.4560   -8.5240    4.9170 C   0  0  0  0  0  2  0  0  0  0  0  0
   -0.2510   -6.9930    5.4300 C   0  0  0  0  0  1  0  0  0  0  0  0
    2.2740   -1.2210    5.8010 N   0  0  0  0  0  0  0  0  0  0  0  0
    2.7280   -0.3850    5.4350 H   0  0  0  0  0  0  0  0  0  0  0  0
    1.9350   -2.3140    4.5490 S   0  0  0  0  0  0  0  0  0  0  0  0
    1.3410   -3.4900    5.1300 O   0  0  0  0  0  0  0  0  0  0  0  0
    1.2820   -1.5420    3.5200 O   0  0  0  0  0  0  0  0  0  0  0  0
    3.5000   -2.6320    3.9690 N   0  0  0  0  0  0  0  0  0  0  0  0
    3.6640   -1.9780    3.2030 H   0  0  0  0  0  0  0  0  0  0  0  0
    3.8020   -3.9790    3.5520 C   0  0  0  0  0  0  0  0  0  0  0  0
    5.1140   -4.2020    2.3350 C   0  0  0  0  0  3  0  0  0  0  0  0
    5.6470   -5.8780    1.8640 C   0  0  0  0  0  3  0  0  0  0  0  0
    4.9960   -7.3200    2.7370 C   0  0  0  0  0  0  0  0  0  0  0  0
    3.7240   -7.0860    3.9770 C   0  0  0  0  0  3  0  0  0  0  0  0
    3.1930   -5.4150    4.4370 C   0  0  0  0  0  3  0  0  0  0  0  0
    5.4000   -8.7060    2.4390 C   0  0  0  0  0  0  0  0  0  0  0  0
    4.7340   -9.3500    1.4400 N   0  0  0  0  0  0  0  0  0  0  0  0
    6.2900   -9.2500    3.0770 O   0  0  0  0  0  0  0  0  0  0  0  0
    5.0170  -10.3030    1.2450 H   0  0  0  0  0  0  0  0  0  0  0  0
    3.9790   -8.9600    0.9030 H   0  0  0  0  0  0  0  0  0  0  0  0
  1  2  1  6  0  0  0
  1 18  1  0  0  0  0
  1 12  1  0  0  0  0
  3  6  1  0  0  0  0
  3  2  1  0  0  0  0
  3  4  2  0  0  0  0
  5  3  2  0  0  0  0
  6 11  1  0  0  0  0
  7  8  1  0  0  0  0
  7  6  2  0  0  0  0
  8  9  2  0  0  0  0
  9 10  1  0  0  0  0
 11 10  2  0  0  0  0
 11 12  1  0  0  0  0
 12 14  1  0  0  0  0
 13  2  1  0  0  0  0
 15 25  1  0  0  0  0
 15 16  1  0  0  0  0
 16 17  2  0  0  0  0
 18 16  1  6  0  0  0
 18 19  1  0  0  0  0
 19 26  1  6  0  0  0
 20 21  1  0  0  0  0
 20 19  1  0  0  0  0
 22 21  2  0  0  0  0
 23 22  1  0  0  0  0
 24 23  2  0  0  0  0
 24 25  1  0  0  0  0
 25 20  2  0  0  0  0
 26 27  1  0  0  0  0
 28 15  1  0  0  0  0
 29 28  1  0  0  0  0
 30 31  1  0  0  0  0
 31 32  1  0  0  0  0
 33  8  1  0  0  0  0
 34 33  1  0  0  0  0
 35 36  2  0  0  0  0
 35 33  1  0  0  0  0
 37 35  2  0  0  0  0
 38 35  1  0  0  0  0
 39 38  1  0  0  0  0
 40 38  1  0  0  0  0
 40 45  1  0  0  0  0
 41 40  2  0  0  0  0
 42 41  1  0  0  0  0
 42 43  2  0  0  0  0
 43 44  1  0  0  0  0
 44 45  2  0  0  0  0
 46 43  1  0  0  0  0
 46 48  2  0  0  0  0
 47 46  1  0  0  0  0
 49 47  1  0  0  0  0
 50 47  1  0  0  0  0
M  END
>  <minimizedAffinity>
-7.40478086

$$$$

 OpenBabel09122217593D

 50 53  0  0  1  0  0  0  0  0999 V2000
    4.1710   -3.8520    4.5950 C   0  0  1  0  0  3  0  0  0  0  0  0
    5.0370   -4.6910    4.0720 N   0  0  0  0  0  0  0  0  0  0  0  0
    4.6020   -6.0520    3.3430 S   0  0  0  0  0  0  0  0  0  0  0  0
    4.0800   -5.8100    2.0150 O   0  0  0  0  0  0  0  0  0  0  0  0
    5.6410   -7.0410    3.5490 O   0  0  0  0  0  0  0  0  0  0  0  0
    3.2350   -6.5340    4.3540 C   0  0  0  0  0  0  0  0  0  0  0  0
    3.2050   -7.7910    4.9510 C   0  0  0  0  0  3  0  0  0  0  0  0
    2.2920   -8.0070    5.9750 C   0  0  0  0  0  0  0  0  0  0  0  0
    1.3160   -7.0480    6.2650 C   0  0  0  0  0  3  0  0  0  0  0  0
    1.3520   -5.7920    5.6500 C   0  0  0  0  0  3  0  0  0  0  0  0
    2.3820   -5.5000    4.7550 C   0  0  0  0  0  0  0  0  0  0  0  0
    2.7760   -4.1590    4.5330 N   0  0  0  0  0  0  0  0  0  0  0  0
    6.0230   -4.5700    4.2790 H   0  0  0  0  0  0  0  0  0  0  0  0
    2.1390   -3.4570    4.9130 H   0  0  0  0  0  0  0  0  0  0  0  0
    6.4110   -2.6120    7.2000 N   0  0  0  0  0  0  0  0  0  0  0  0
    6.0850   -2.9050    5.9000 C   0  0  0  0  0  0  0  0  0  0  0  0
    6.8510   -3.4330    5.0900 O   0  0  0  0  0  0  0  0  0  0  0  0
    4.6400   -2.7710    5.5200 C   0  0  2  0  0  3  0  0  0  0  0  0
    3.8370   -2.0180    6.2910 C   0  0  2  0  0  3  0  0  0  0  0  0
    4.3530   -1.3780    7.5060 C   0  0  0  0  0  0  0  0  0  0  0  0
    3.5920   -0.5040    8.2890 C   0  0  0  0  0  3  0  0  0  0  0  0
    4.0950   -0.0480    9.5050 C   0  0  0  0  0  3  0  0  0  0  0  0
    5.3390   -0.4950    9.9080 C   0  0  0  0  0  3  0  0  0  0  0  0
    6.1020   -1.3300    9.1720 N   0  0  0  0  0  0  0  0  0  0  0  0
    5.6110   -1.7500    7.9860 C   0  0  0  0  0  0  0  0  0  0  0  0
    2.4760   -1.9030    6.0770 O   0  0  0  0  0  0  0  0  0  0  0  0
    2.3200   -1.7310    5.1280 H   0  0  0  0  0  0  0  0  0  0  0  0
    7.5120   -3.3410    7.8630 C   0  0  0  0  0  2  0  0  0  0  0  0
    6.8140   -4.5890    8.9140 C   0  0  0  0  0  1  0  0  0  0  0  0
    3.2280   -4.5170    9.0660 C   0  0  0  0  0  1  0  0  0  0  0  0
    4.7750   -5.3050    9.3230 C   0  0  0  0  0  2  0  0  0  0  0  0
    4.0510   -6.8780    8.9980 C   0  0  0  0  0  1  0  0  0  0  0  0
    2.5270   -9.0960    6.8650 N   0  0  0  0  0  0  0  0  0  0  0  0
    3.2500   -8.9760    7.5740 H   0  0  0  0  0  0  0  0  0  0  0  0
    1.1610   -9.8530    7.5270 S   0  0  0  0  0  0  0  0  0  0  0  0
    0.4700  -10.5380    6.4650 O   0  0  0  0  0  0  0  0  0  0  0  0
    1.6230  -10.5280    8.7150 O   0  0  0  0  0  0  0  0  0  0  0  0
    0.2800   -8.5050    8.0710 N   0  0  0  0  0  0  0  0  0  0  0  0
    0.7340   -8.1890    8.9300 H   0  0  0  0  0  0  0  0  0  0  0  0
   -1.1370   -8.6680    8.2830 C   0  0  0  0  0  0  0  0  0  0  0  0
   -2.2490   -8.0600    6.9990 C   0  0  0  0  0  3  0  0  0  0  0  0
   -4.0400   -8.3550    7.1290 C   0  0  0  0  0  3  0  0  0  0  0  0
   -4.6980   -9.4060    8.4440 C   0  0  0  0  0  0  0  0  0  0  0  0
   -3.5800  -10.0440    9.6900 C   0  0  0  0  0  3  0  0  0  0  0  0
   -1.7970   -9.7410    9.5590 C   0  0  0  0  0  3  0  0  0  0  0  0
   -6.1300   -9.7200    8.5980 C   0  0  0  0  0  0  0  0  0  0  0  0
   -6.6440   -9.6880    9.8590 N   0  0  0  0  0  0  0  0  0  0  0  0
   -6.8160  -10.0090    7.6280 O   0  0  0  0  0  0  0  0  0  0  0  0
   -7.6280   -9.9080    9.9560 H   0  0  0  0  0  0  0  0  0  0  0  0
   -6.1200   -9.4820   10.6930 H   0  0  0  0  0  0  0  0  0  0  0  0
  1  2  1  1  0  0  0
  1 18  1  0  0  0  0
  2 13  1  0  0  0  0
  3  5  2  0  0  0  0
  3  2  1  0  0  0  0
  3  6  1  0  0  0  0
  4  3  2  0  0  0  0
  6 11  2  0  0  0  0
  6  7  1  0  0  0  0
  7  8  2  0  0  0  0
  8  9  1  0  0  0  0
  8 33  1  0  0  0  0
 10  9  2  0  0  0  0
 11 10  1  0  0  0  0
 12  1  1  0  0  0  0
 12 11  1  0  0  0  0
 12 14  1  0  0  0  0
 15 28  1  0  0  0  0
 15 25  1  0  0  0  0
 16 15  1  0  0  0  0
 17 16  2  0  0  0  0
 18 16  1  1  0  0  0
 18 19  1  0  0  0  0
 19 26  1  1  0  0  0
 19 20  1  0  0  0  0
 20 25  2  0  0  0  0
 20 21  1  0  0  0  0
 21 22  2  0  0  0  0
 22 23  1  0  0  0  0
 24 23  2  0  0  0  0
 25 24  1  0  0  0  0
 27 26  1  0  0  0  0
 28 29  1  0  0  0  0
 30 31  1  0  0  0  0
 32 31  1  0  0  0  0
 33 35  1  0  0  0  0
 33 34  1  0  0  0  0
 35 38  1  0  0  0  0
 35 37  2  0  0  0  0
 36 35  2  0  0  0  0
 38 40  1  0  0  0  0
 38 39  1  0  0  0  0
 40 45  1  0  0  0  0
 41 42  1  0  0  0  0
 41 40  2  0  0  0  0
 42 43  2  0  0  0  0
 43 46  1  0  0  0  0
 43 44  1  0  0  0  0
 45 44  2  0  0  0  0
 46 47  1  0  0  0  0
 47 49  1  0  0  0  0
 47 50  1  0  0  0  0
 48 46  2  0  0  0  0
M  END
>  <minimizedAffinity>
-6.90720701

$$$$

 OpenBabel09122217593D

 50 53  0  0  1  0  0  0  0  0999 V2000
    1.6600   -7.6480    8.9410 C   0  0  1  0  0  3  0  0  0  0  0  0
    2.5610   -7.8180    7.9990 N   0  0  0  0  0  0  0  0  0  0  0  0
    3.8850   -6.9190    7.8850 S   0  0  0  0  0  0  0  0  0  0  0  0
    4.8810   -7.2990    8.8640 O   0  0  0  0  0  0  0  0  0  0  0  0
    4.2460   -6.8000    6.4870 O   0  0  0  0  0  0  0  0  0  0  0  0
    3.2490   -5.3470    8.3810 C   0  0  0  0  0  0  0  0  0  0  0  0
    3.3950   -4.2340    7.5590 C   0  0  0  0  0  3  0  0  0  0  0  0
    2.6170   -3.1150    7.8290 C   0  0  0  0  0  0  0  0  0  0  0  0
    1.8510   -3.0520    8.9980 C   0  0  0  0  0  3  0  0  0  0  0  0
    1.7210   -4.1770    9.8200 C   0  0  0  0  0  3  0  0  0  0  0  0
    2.3500   -5.3660    9.4540 C   0  0  0  0  0  0  0  0  0  0  0  0
    1.8470   -6.6100    9.9060 N   0  0  0  0  0  0  0  0  0  0  0  0
    2.3400   -8.4210    7.2140 H   0  0  0  0  0  0  0  0  0  0  0  0
    1.1450   -6.5440   10.6440 H   0  0  0  0  0  0  0  0  0  0  0  0
   -0.7130   -9.7960    7.1820 N   0  0  0  0  0  0  0  0  0  0  0  0
    0.3460   -9.5700    8.0260 C   0  0  0  0  0  0  0  0  0  0  0  0
    1.3830  -10.2380    8.0390 O   0  0  0  0  0  0  0  0  0  0  0  0
    0.3160   -8.2980    8.8200 C   0  0  2  0  0  3  0  0  0  0  0  0
   -0.8590   -7.6680    8.9870 C   0  0  2  0  0  3  0  0  0  0  0  0
   -2.0820   -8.1900    8.3650 C   0  0  0  0  0  0  0  0  0  0  0  0
   -3.3460   -7.6350    8.5870 C   0  0  0  0  0  3  0  0  0  0  0  0
   -4.4390   -8.0890    7.8530 C   0  0  0  0  0  3  0  0  0  0  0  0
   -4.2290   -9.0730    6.9060 C   0  0  0  0  0  3  0  0  0  0  0  0
   -3.0250   -9.6350    6.6740 N   0  0  0  0  0  0  0  0  0  0  0  0
   -1.9760   -9.2000    7.4060 C   0  0  0  0  0  0  0  0  0  0  0  0
   -0.9780   -6.4470    9.6240 O   0  0  0  0  0  0  0  0  0  0  0  0
   -0.4700   -6.4780   10.4590 H   0  0  0  0  0  0  0  0  0  0  0  0
   -0.4990  -10.5240    5.9150 C   0  0  0  0  0  2  0  0  0  0  0  0
    0.2400   -9.4170    4.7410 C   0  0  0  0  0  1  0  0  0  0  0  0
    3.7390   -9.8920    4.1010 C   0  0  0  0  0  1  0  0  0  0  0  0
    2.1290   -9.3890    3.6170 C   0  0  0  0  0  2  0  0  0  0  0  0
    2.4560   -9.8760    1.9550 C   0  0  0  0  0  1  0  0  0  0  0  0
    2.4320   -2.1600    6.7870 N   0  0  0  0  0  0  0  0  0  0  0  0
    3.0170   -1.3250    6.8060 H   0  0  0  0  0  0  0  0  0  0  0  0
    2.3050   -2.7640    5.2070 S   0  0  0  0  0  0  0  0  0  0  0  0
    1.8490   -4.1280    5.2850 O   0  0  0  0  0  0  0  0  0  0  0  0
    1.6050   -1.7520    4.4540 O   0  0  0  0  0  0  0  0  0  0  0  0
    3.9260   -2.6820    4.7020 N   0  0  0  0  0  0  0  0  0  0  0  0
    4.0520   -1.7620    4.2780 H   0  0  0  0  0  0  0  0  0  0  0  0
    4.4080   -3.7120    3.8150 C   0  0  0  0  0  0  0  0  0  0  0  0
    6.0620   -3.5140    3.1250 C   0  0  0  0  0  3  0  0  0  0  0  0
    6.7920   -4.8380    2.1110 C   0  0  0  0  0  3  0  0  0  0  0  0
    5.9450   -6.4250    1.9360 C   0  0  0  0  0  0  0  0  0  0  0  0
    4.3210   -6.6290    2.6640 C   0  0  0  0  0  3  0  0  0  0  0  0
    3.5960   -5.3040    3.6670 C   0  0  0  0  0  3  0  0  0  0  0  0
    6.4840   -7.5570    1.1610 C   0  0  0  0  0  0  0  0  0  0  0  0
    5.7860   -7.9480    0.0590 N   0  0  0  0  0  0  0  0  0  0  0  0
    7.5110   -8.1220    1.5090 O   0  0  0  0  0  0  0  0  0  0  0  0
    6.1620   -8.7290   -0.4650 H   0  0  0  0  0  0  0  0  0  0  0  0
    4.9240   -7.5360   -0.2570 H   0  0  0  0  0  0  0  0  0  0  0  0
  1  2  1  6  0  0  0
  1 12  1  0  0  0  0
  3  2  1  0  0  0  0
  3  6  1  0  0  0  0
  3  4  2  0  0  0  0
  5  3  2  0  0  0  0
  6 11  1  0  0  0  0
  7  8  1  0  0  0  0
  7  6  2  0  0  0  0
  8  9  2  0  0  0  0
  9 10  1  0  0  0  0
 11 10  2  0  0  0  0
 11 12  1  0  0  0  0
 12 14  1  0  0  0  0
 13  2  1  0  0  0  0
 15 25  1  0  0  0  0
 15 16  1  0  0  0  0
 16 17  2  0  0  0  0
 18 16  1  6  0  0  0
 18  1  1  0  0  0  0
 18 19  1  0  0  0  0
 19 26  1  6  0  0  0
 20 21  1  0  0  0  0
 20 19  1  0  0  0  0
 22 21  2  0  0  0  0
 23 22  1  0  0  0  0
 24 23  2  0  0  0  0
 24 25  1  0  0  0  0
 25 20  2  0  0  0  0
 26 27  1  0  0  0  0
 28 15  1  0  0  0  0
 29 28  1  0  0  0  0
 31 30  1  0  0  0  0
 32 31  1  0  0  0  0
 33 34  1  0  0  0  0
 33  8  1  0  0  0  0
 35 36  2  0  0  0  0
 35 33  1  0  0  0  0
 37 35  2  0  0  0  0
 38 35  1  0  0  0  0
 39 38  1  0  0  0  0
 40 38  1  0  0  0  0
 41 40  2  0  0  0  0
 42 41  1  0  0  0  0
 43 42  2  0  0  0  0
 43 44  1  0  0  0  0
 44 45  2  0  0  0  0
 45 40  1  0  0  0  0
 46 48  2  0  0  0  0
 46 43  1  0  0  0  0
 47 46  1  0  0  0  0
 49 47  1  0  0  0  0
 50 47  1  0  0  0  0
M  END
>  <minimizedAffinity>
-6.53499079

$$$$

 OpenBabel09122217593D

 50 53  0  0  1  0  0  0  0  0999 V2000
    4.7370   -3.2310    6.8470 C   0  0  1  0  0  3  0  0  0  0  0  0
    3.6160   -2.7150    7.3010 N   0  0  0  0  0  0  0  0  0  0  0  0
    3.1580   -2.8360    8.8340 S   0  0  0  0  0  0  0  0  0  0  0  0
    3.8880   -1.9240    9.6890 O   0  0  0  0  0  0  0  0  0  0  0  0
    1.7110   -2.8800    8.8840 O   0  0  0  0  0  0  0  0  0  0  0  0
    3.7290   -4.4650    9.2120 C   0  0  0  0  0  0  0  0  0  0  0  0
    2.8540   -5.4220    9.7150 C   0  0  0  0  0  3  0  0  0  0  0  0
    3.2560   -6.7520    9.6950 C   0  0  0  0  0  0  0  0  0  0  0  0
    4.5690   -7.0870    9.3480 C   0  0  0  0  0  3  0  0  0  0  0  0
    5.4410   -6.1120    8.8530 C   0  0  0  0  0  3  0  0  0  0  0  0
    4.9840   -4.8050    8.6930 C   0  0  0  0  0  0  0  0  0  0  0  0
    5.5890   -3.9470    7.7440 N   0  0  0  0  0  0  0  0  0  0  0  0
    2.9290   -2.3760    6.6370 H   0  0  0  0  0  0  0  0  0  0  0  0
    6.4690   -4.2910    7.3560 H   0  0  0  0  0  0  0  0  0  0  0  0
    4.2080   -4.9320    3.6580 N   0  0  0  0  0  0  0  0  0  0  0  0
    3.8480   -4.0700    4.6640 C   0  0  0  0  0  0  0  0  0  0  0  0
    2.7110   -3.9840    5.1350 O   0  0  0  0  0  0  0  0  0  0  0  0
    4.9610   -3.3550    5.3710 C   0  0  2  0  0  3  0  0  0  0  0  0
    6.1570   -3.2630    4.7660 C   0  0  2  0  0  3  0  0  0  0  0  0
    6.3820   -3.8900    3.4580 C   0  0  0  0  0  0  0  0  0  0  0  0
    7.5710   -3.7410    2.7370 C   0  0  0  0  0  3  0  0  0  0  0  0
    7.7730   -4.4810    1.5750 C   0  0  0  0  0  3  0  0  0  0  0  0
    6.7830   -5.3600    1.1780 C   0  0  0  0  0  3  0  0  0  0  0  0
    5.6210   -5.5200    1.8450 N   0  0  0  0  0  0  0  0  0  0  0  0
    5.4300   -4.7830    2.9620 C   0  0  0  0  0  0  0  0  0  0  0  0
    7.2680   -2.7040    5.3690 O   0  0  0  0  0  0  0  0  0  0  0  0
    7.0090   -1.8530    5.7760 H   0  0  0  0  0  0  0  0  0  0  0  0
    3.4050   -6.1450    3.4080 C   0  0  0  0  0  2  0  0  0  0  0  0
    3.8630   -7.3840    4.5930 C   0  0  0  0  0  1  0  0  0  0  0  0
    5.8530  -10.1170    3.3860 C   0  0  0  0  0  1  0  0  0  0  0  0
    4.6470   -9.4340    4.4640 C   0  0  0  0  0  2  0  0  0  0  0  0
    5.1500  -10.5280    5.7510 C   0  0  0  0  0  1  0  0  0  0  0  0
    2.2510   -7.7580    9.7930 N   0  0  0  0  0  0  0  0  0  0  0  0
    1.3290   -7.5390    9.4180 H   0  0  0  0  0  0  0  0  0  0  0  0
    2.7050   -9.3380    9.3750 S   0  0  0  0  0  0  0  0  0  0  0  0
    4.0920   -9.5120    9.7230 O   0  0  0  0  0  0  0  0  0  0  0  0
    1.6630  -10.1950    9.8860 O   0  0  0  0  0  0  0  0  0  0  0  0
    2.4900   -9.2980    7.6900 N   0  0  0  0  0  0  0  0  0  0  0  0
    3.2340   -8.7070    7.3160 H   0  0  0  0  0  0  0  0  0  0  0  0
    1.2080   -8.8700    7.1850 C   0  0  0  0  0  0  0  0  0  0  0  0
    1.1410   -7.3030    6.2950 C   0  0  0  0  0  3  0  0  0  0  0  0
   -0.4090   -6.7650    5.5090 C   0  0  0  0  0  3  0  0  0  0  0  0
   -1.8390   -7.8710    5.4610 C   0  0  0  0  0  0  0  0  0  0  0  0
   -1.7490   -9.4460    6.3100 C   0  0  0  0  0  3  0  0  0  0  0  0
   -0.2030   -9.9730    7.0970 C   0  0  0  0  0  3  0  0  0  0  0  0
   -3.1180   -7.5240    4.8170 C   0  0  0  0  0  0  0  0  0  0  0  0
   -3.9890   -6.7580    5.5310 N   0  0  0  0  0  0  0  0  0  0  0  0
   -3.3810   -7.9230    3.6920 O   0  0  0  0  0  0  0  0  0  0  0  0
   -4.8670   -6.5270    5.0810 H   0  0  0  0  0  0  0  0  0  0  0  0
   -3.8340   -6.4250    6.4670 H   0  0  0  0  0  0  0  0  0  0  0  0
  1  2  1  6  0  0  0
  1 12  1  0  0  0  0
  2  3  1  0  0  0  0
  3  5  2  0  0  0  0
  3  6  1  0  0  0  0
  3  4  2  0  0  0  0
  6  7  1  0  0  0  0
  8  7  2  0  0  0  0
  8 33  1  0  0  0  0
  9  8  1  0  0  0  0
 10  9  2  0  0  0  0
 11 10  1  0  0  0  0
 11  6  2  0  0  0  0
 12 11  1  0  0  0  0
 13  2  1  0  0  0  0
 14 12  1  0  0  0  0
 15 16  1  0  0  0  0
 16 17  2  0  0  0  0
 18 16  1  1  0  0  0
 18  1  1  0  0  0  0
 19 26  1  1  0  0  0
 19 18  1  0  0  0  0
 20 19  1  0  0  0  0
 21 20  2  0  0  0  0
 22 21  1  0  0  0  0
 23 22  2  0  0  0  0
 23 24  1  0  0  0  0
 24 25  2  0  0  0  0
 25 20  1  0  0  0  0
 25 15  1  0  0  0  0
 26 27  1  0  0  0  0
 28 15  1  0  0  0  0
 28 29  1  0  0  0  0
 30 31  1  0  0  0  0
 31 32  1  0  0  0  0
 34 33  1  0  0  0  0
 35 36  2  0  0  0  0
 35 33  1  0  0  0  0
 35 37  2  0  0  0  0
 38 35  1  0  0  0  0
 39 38  1  0  0  0  0
 40 38  1  0  0  0  0
 41 40  2  0  0  0  0
 42 41  1  0  0  0  0
 43 42  2  0  0  0  0
 43 44  1  0  0  0  0
 44 45  2  0  0  0  0
 45 40  1  0  0  0  0
 46 43  1  0  0  0  0
 46 47  1  0  0  0  0
 47 50  1  0  0  0  0
 48 46  2  0  0  0  0
 49 47  1  0  0  0  0
M  END
>  <minimizedAffinity>
-6.44263506

$$$$

 OpenBabel09122217593D

 50 53  0  0  1  0  0  0  0  0999 V2000
    3.1920   -6.5440    8.5480 C   0  0  1  0  0  3  0  0  0  0  0  0
    1.8780   -6.5820    8.5160 N   0  0  0  0  0  0  0  0  0  0  0  0
    1.0430   -7.9510    8.5680 S   0  0  0  0  0  0  0  0  0  0  0  0
    0.9960   -8.5030    9.9060 O   0  0  0  0  0  0  0  0  0  0  0  0
   -0.1790   -7.7780    7.8080 O   0  0  0  0  0  0  0  0  0  0  0  0
    2.0920   -9.0030    7.6130 C   0  0  0  0  0  0  0  0  0  0  0  0
    1.5920   -9.6830    6.5060 C   0  0  0  0  0  3  0  0  0  0  0  0
    2.5020  -10.2320    5.6100 C   0  0  0  0  0  0  0  0  0  0  0  0
    3.8660  -10.2560    5.9150 C   0  0  0  0  0  3  0  0  0  0  0  0
    4.3530   -9.5770    7.0370 C   0  0  0  0  0  3  0  0  0  0  0  0
    3.4650   -8.8620    7.8410 C   0  0  0  0  0  0  0  0  0  0  0  0
    3.9230   -7.7710    8.6170 N   0  0  0  0  0  0  0  0  0  0  0  0
    1.3700   -5.7370    8.2790 H   0  0  0  0  0  0  0  0  0  0  0  0
    4.9390   -7.6900    8.6840 H   0  0  0  0  0  0  0  0  0  0  0  0
    4.5130   -4.2010    6.0770 N   0  0  0  0  0  0  0  0  0  0  0  0
    3.5130   -4.7320    6.8520 C   0  0  0  0  0  0  0  0  0  0  0  0
    2.3640   -4.9480    6.4580 O   0  0  0  0  0  0  0  0  0  0  0  0
    3.9150   -5.2830    8.1890 C   0  0  2  0  0  3  0  0  0  0  0  0
    5.0810   -4.8860    8.7260 C   0  0  2  0  0  3  0  0  0  0  0  0
    5.9650   -3.9690    7.9980 C   0  0  0  0  0  0  0  0  0  0  0  0
    7.1390   -3.4450    8.5490 C   0  0  0  0  0  3  0  0  0  0  0  0
    8.0040   -2.6990    7.7520 C   0  0  0  0  0  3  0  0  0  0  0  0
    7.6750   -2.5140    6.4230 C   0  0  0  0  0  3  0  0  0  0  0  0
    6.5460   -2.9980    5.8630 N   0  0  0  0  0  0  0  0  0  0  0  0
    5.7060   -3.7040    6.6510 C   0  0  0  0  0  0  0  0  0  0  0  0
    5.5820   -5.4010    9.9070 O   0  0  0  0  0  0  0  0  0  0  0  0
    4.8680   -5.4070   10.5740 H   0  0  0  0  0  0  0  0  0  0  0  0
    4.4360   -4.3060    4.6060 C   0  0  0  0  0  2  0  0  0  0  0  0
    3.4110   -2.9910    3.9960 C   0  0  0  0  0  1  0  0  0  0  0  0
    1.7520   -0.7130    6.2180 C   0  0  0  0  0  1  0  0  0  0  0  0
    1.7700   -1.7920    4.8340 C   0  0  0  0  0  2  0  0  0  0  0  0
    0.5770   -0.7900    4.0120 C   0  0  0  0  0  1  0  0  0  0  0  0
    2.0460  -10.5390    4.2950 N   0  0  0  0  0  0  0  0  0  0  0  0
    1.4990  -11.3910    4.1740 H   0  0  0  0  0  0  0  0  0  0  0  0
    1.3700   -9.2650    3.4010 S   0  0  0  0  0  0  0  0  0  0  0  0
    1.4900   -8.0590    4.1790 O   0  0  0  0  0  0  0  0  0  0  0  0
    1.9120   -9.3880    2.0700 O   0  0  0  0  0  0  0  0  0  0  0  0
   -0.2490   -9.7730    3.2930 N   0  0  0  0  0  0  0  0  0  0  0  0
   -0.5310   -9.6370    2.3220 H   0  0  0  0  0  0  0  0  0  0  0  0
   -1.2060   -9.1650    4.1850 C   0  0  0  0  0  0  0  0  0  0  0  0
   -2.0800  -10.2440    5.3350 C   0  0  0  0  0  3  0  0  0  0  0  0
   -3.1970   -9.5340    6.5830 C   0  0  0  0  0  3  0  0  0  0  0  0
   -3.3030   -7.7420    6.7980 C   0  0  0  0  0  0  0  0  0  0  0  0
   -2.3940   -6.6770    5.6800 C   0  0  0  0  0  3  0  0  0  0  0  0
   -1.2880   -7.3910    4.4340 C   0  0  0  0  0  3  0  0  0  0  0  0
   -4.1570   -7.0900    7.8070 C   0  0  0  0  0  0  0  0  0  0  0  0
   -5.0090   -6.1200    7.3720 N   0  0  0  0  0  0  0  0  0  0  0  0
   -4.0860   -7.4060    8.9860 O   0  0  0  0  0  0  0  0  0  0  0  0
   -5.5890   -5.6760    8.0720 H   0  0  0  0  0  0  0  0  0  0  0  0
   -5.0880   -5.8050    6.4200 H   0  0  0  0  0  0  0  0  0  0  0  0
  1  2  1  6  0  0  0
  1 12  1  0  0  0  0
  2  3  1  0  0  0  0
  3  4  2  0  0  0  0
  5  3  2  0  0  0  0
  6 11  1  0  0  0  0
  6  3  1  0  0  0  0
  7  6  2  0  0  0  0
  8  9  2  0  0  0  0
  8  7  1  0  0  0  0
  9 10  1  0  0  0  0
 10 11  2  0  0  0  0
 11 12  1  0  0  0  0
 12 14  1  0  0  0  0
 13  2  1  0  0  0  0
 15 25  1  0  0  0  0
 15 16  1  0  0  0  0
 17 16  2  0  0  0  0
 18 16  1  6  0  0  0
 18  1  1  0  0  0  0
 18 19  1  0  0  0  0
 19 26  1  6  0  0  0
 20 21  1  0  0  0  0
 20 19  1  0  0  0  0
 22 21  2  0  0  0  0
 23 22  1  0  0  0  0
 24 23  2  0  0  0  0
 24 25  1  0  0  0  0
 25 20  2  0  0  0  0
 26 27  1  0  0  0  0
 28 15  1  0  0  0  0
 29 28  1  0  0  0  0
 31 30  1  0  0  0  0
 32 31  1  0  0  0  0
 33  8  1  0  0  0  0
 34 33  1  0  0  0  0
 35 36  2  0  0  0  0
 35 33  1  0  0  0  0
 37 35  2  0  0  0  0
 38 35  1  0  0  0  0
 38 40  1  0  0  0  0
 39 38  1  0  0  0  0
 40 45  2  0  0  0  0
 40 41  1  0  0  0  0
 41 42  2  0  0  0  0
 42 43  1  0  0  0  0
 43 46  1  0  0  0  0
 44 43  2  0  0  0  0
 45 44  1  0  0  0  0
 46 48  2  0  0  0  0
 47 46  1  0  0  0  0
 47 49  1  0  0  0  0
 50 47  1  0  0  0  0
M  END
>  <minimizedAffinity>
-6.22512388

$$$$

 OpenBabel09122217593D

 50 53  0  0  1  0  0  0  0  0999 V2000
    4.3100   -6.1100    8.3780 C   0  0  1  0  0  3  0  0  0  0  0  0
    4.5380   -7.2620    8.9680 N   0  0  0  0  0  0  0  0  0  0  0  0
    3.8740   -8.6380    8.4800 S   0  0  0  0  0  0  0  0  0  0  0  0
    4.5160   -9.1550    7.2900 O   0  0  0  0  0  0  0  0  0  0  0  0
    3.6800   -9.4950    9.6330 O   0  0  0  0  0  0  0  0  0  0  0  0
    2.2740   -8.0680    7.9950 C   0  0  0  0  0  0  0  0  0  0  0  0
    1.1260   -8.6420    8.5340 C   0  0  0  0  0  3  0  0  0  0  0  0
   -0.0780   -7.9650    8.3780 C   0  0  0  0  0  0  0  0  0  0  0  0
   -0.1550   -6.8410    7.5490 C   0  0  0  0  0  3  0  0  0  0  0  0
    1.0070   -6.2820    7.0070 C   0  0  0  0  0  3  0  0  0  0  0  0
    2.2450   -6.8470    7.3130 C   0  0  0  0  0  0  0  0  0  0  0  0
    3.4220   -6.0620    7.2600 N   0  0  0  0  0  0  0  0  0  0  0  0
    5.0130   -7.2680    9.8650 H   0  0  0  0  0  0  0  0  0  0  0  0
    3.3090   -5.1540    6.8070 H   0  0  0  0  0  0  0  0  0  0  0  0
    3.6420   -2.6430    9.3120 N   0  0  0  0  0  0  0  0  0  0  0  0
    3.5280   -4.0010    9.4730 C   0  0  0  0  0  0  0  0  0  0  0  0
    2.4790   -4.5830    9.7630 O   0  0  0  0  0  0  0  0  0  0  0  0
    4.7030   -4.8320    9.0530 C   0  0  2  0  0  3  0  0  0  0  0  0
    5.9040   -4.2400    8.9360 C   0  0  2  0  0  3  0  0  0  0  0  0
    6.0520   -2.7980    9.1700 C   0  0  0  0  0  0  0  0  0  0  0  0
    7.2900   -2.1490    9.1620 C   0  0  0  0  0  3  0  0  0  0  0  0
    7.3430   -0.7600    9.2460 C   0  0  0  0  0  3  0  0  0  0  0  0
    6.1530   -0.0620    9.3190 C   0  0  0  0  0  3  0  0  0  0  0  0
    4.9430   -0.6580    9.3380 N   0  0  0  0  0  0  0  0  0  0  0  0
    4.9050   -2.0080    9.2750 C   0  0  0  0  0  0  0  0  0  0  0  0
    7.0280   -4.8960    8.4710 O   0  0  0  0  0  0  0  0  0  0  0  0
    7.1000   -5.7570    8.9280 H   0  0  0  0  0  0  0  0  0  0  0  0
    2.4460   -1.8380    8.9890 C   0  0  0  0  0  2  0  0  0  0  0  0
    2.3220   -1.6870    7.2260 C   0  0  0  0  0  1  0  0  0  0  0  0
    4.8150   -3.4710    5.3570 C   0  0  0  0  0  1  0  0  0  0  0  0
    3.2320   -2.7280    5.5160 C   0  0  0  0  0  2  0  0  0  0  0  0
    2.5370   -3.9320    4.4330 C   0  0  0  0  0  1  0  0  0  0  0  0
   -1.1500   -8.2930    9.2600 N   0  0  0  0  0  0  0  0  0  0  0  0
   -1.1240   -7.8950   10.1980 H   0  0  0  0  0  0  0  0  0  0  0  0
   -2.7190   -8.2120    8.6200 S   0  0  0  0  0  0  0  0  0  0  0  0
   -3.6530   -8.2930    9.7140 O   0  0  0  0  0  0  0  0  0  0  0  0
   -2.7080   -7.1110    7.6880 O   0  0  0  0  0  0  0  0  0  0  0  0
   -2.7520   -9.6230    7.6730 N   0  0  0  0  0  0  0  0  0  0  0  0
   -2.6280  -10.4070    8.3160 H   0  0  0  0  0  0  0  0  0  0  0  0
   -1.8180   -9.7200    6.5780 C   0  0  0  0  0  0  0  0  0  0  0  0
   -2.1120   -8.6790    5.1350 C   0  0  0  0  0  3  0  0  0  0  0  0
   -0.9030   -8.6420    3.7750 C   0  0  0  0  0  3  0  0  0  0  0  0
    0.6780   -9.5040    3.9370 C   0  0  0  0  0  0  0  0  0  0  0  0
    0.9810  -10.5000    5.3950 C   0  0  0  0  0  3  0  0  0  0  0  0
   -0.2310  -10.5380    6.7430 C   0  0  0  0  0  3  0  0  0  0  0  0
    1.7220   -9.4960    2.8960 C   0  0  0  0  0  0  0  0  0  0  0  0
    1.5360  -10.3060    1.8170 N   0  0  0  0  0  0  0  0  0  0  0  0
    2.7170   -8.7950    3.0140 O   0  0  0  0  0  0  0  0  0  0  0  0
    2.2590  -10.2960    1.1100 H   0  0  0  0  0  0  0  0  0  0  0  0
    0.7500  -10.9200    1.6840 H   0  0  0  0  0  0  0  0  0  0  0  0
  1 12  1  1  0  0  0
  1  2  1  0  0  0  0
  1 18  1  0  0  0  0
  2 13  1  0  0  0  0
  3  2  1  0  0  0  0
  3  5  2  0  0  0  0
  4  3  2  0  0  0  0
  6  3  1  0  0  0  0
  6  7  1  0  0  0  0
  8  7  2  0  0  0  0
  8 33  1  0  0  0  0
  9  8  1  0  0  0  0
 10 11  1  0  0  0  0
 10  9  2  0  0  0  0
 11  6  2  0  0  0  0
 12 11  1  0  0  0  0
 14 12  1  0  0  0  0
 15 16  1  0  0  0  0
 16 17  2  0  0  0  0
 18 16  1  6  0  0  0
 19 26  1  6  0  0  0
 19 18  1  0  0  0  0
 19 20  1  0  0  0  0
 20 25  1  0  0  0  0
 21 20  2  0  0  0  0
 21 22  1  0  0  0  0
 22 23  2  0  0  0  0
 23 24  1  0  0  0  0
 25 15  1  0  0  0  0
 25 24  2  0  0  0  0
 26 27  1  0  0  0  0
 28 15  1  0  0  0  0
 29 28  1  0  0  0  0
 30 31  1  0  0  0  0
 32 31  1  0  0  0  0
 33 34  1  0  0  0  0
 35 33  1  0  0  0  0
 35 36  2  0  0  0  0
 37 35  2  0  0  0  0
 38 39  1  0  0  0  0
 38 35  1  0  0  0  0
 40 45  1  0  0  0  0
 40 38  1  0  0  0  0
 41 40  2  0  0  0  0
 42 43  2  0  0  0  0
 42 41  1  0  0  0  0
 43 44  1  0  0  0  0
 44 45  2  0  0  0  0
 46 48  2  0  0  0  0
 46 43  1  0  0  0  0
 47 46  1  0  0  0  0
 49 47  1  0  0  0  0
 50 47  1  0  0  0  0
M  END
>  <minimizedAffinity>
-6.07665968

$$$$

 OpenBabel09122217593D

 50 53  0  0  1  0  0  0  0  0999 V2000
    4.9210   -3.9220    4.9530 C   0  0  1  0  0  3  0  0  0  0  0  0
    5.6980   -4.6250    4.1590 N   0  0  0  0  0  0  0  0  0  0  0  0
    5.1290   -5.5950    3.0150 S   0  0  0  0  0  0  0  0  0  0  0  0
    4.6700   -4.8550    1.8590 O   0  0  0  0  0  0  0  0  0  0  0  0
    6.0440   -6.7070    2.8520 O   0  0  0  0  0  0  0  0  0  0  0  0
    3.6930   -6.2330    3.8220 C   0  0  0  0  0  0  0  0  0  0  0  0
    3.5060   -7.6060    3.9520 C   0  0  0  0  0  3  0  0  0  0  0  0
    2.5500   -8.0530    4.8560 C   0  0  0  0  0  0  0  0  0  0  0  0
    1.6820   -7.1470    5.4720 C   0  0  0  0  0  3  0  0  0  0  0  0
    1.8760   -5.7690    5.3240 C   0  0  0  0  0  3  0  0  0  0  0  0
    2.9530   -5.3080    4.5670 C   0  0  0  0  0  0  0  0  0  0  0  0
    3.5020   -4.0270    4.8120 N   0  0  0  0  0  0  0  0  0  0  0  0
    6.6860   -4.6960    4.3790 H   0  0  0  0  0  0  0  0  0  0  0  0
    2.9400   -3.4300    5.4200 H   0  0  0  0  0  0  0  0  0  0  0  0
    4.5290   -2.0050    8.0370 N   0  0  0  0  0  0  0  0  0  0  0  0
    4.4880   -3.1600    7.2960 C   0  0  0  0  0  0  0  0  0  0  0  0
    3.5890   -4.0020    7.3650 O   0  0  0  0  0  0  0  0  0  0  0  0
    5.4870   -3.2840    6.1840 C   0  0  2  0  0  3  0  0  0  0  0  0
    6.5840   -2.5090    6.2120 C   0  0  2  0  0  3  0  0  0  0  0  0
    6.7780   -1.5280    7.2860 C   0  0  0  0  0  0  0  0  0  0  0  0
    7.9450   -0.7680    7.4210 C   0  0  0  0  0  3  0  0  0  0  0  0
    8.0030    0.2460    8.3740 C   0  0  0  0  0  3  0  0  0  0  0  0
    6.8840    0.4800    9.1510 C   0  0  0  0  0  3  0  0  0  0  0  0
    5.7480   -0.2400    9.0510 N   0  0  0  0  0  0  0  0  0  0  0  0
    5.7100   -1.2340    8.1360 C   0  0  0  0  0  0  0  0  0  0  0  0
    7.5180   -2.4840    5.1930 O   0  0  0  0  0  0  0  0  0  0  0  0
    7.7390   -3.4040    4.9470 H   0  0  0  0  0  0  0  0  0  0  0  0
    3.2810   -1.4480    8.5980 C   0  0  0  0  0  2  0  0  0  0  0  0
    2.4050   -0.6050    7.3060 C   0  0  0  0  0  1  0  0  0  0  0  0
    0.2490   -0.3520    4.4470 C   0  0  0  0  0  1  0  0  0  0  0  0
    1.3650   -1.2360    5.4740 C   0  0  0  0  0  2  0  0  0  0  0  0
    1.9810   -2.1170    4.0790 C   0  0  0  0  0  1  0  0  0  0  0  0
    2.6390   -9.4010    5.3140 N   0  0  0  0  0  0  0  0  0  0  0  0
    3.2520  -10.0320    4.7990 H   0  0  0  0  0  0  0  0  0  0  0  0
    2.8120   -9.6320    6.9860 S   0  0  0  0  0  0  0  0  0  0  0  0
    3.9120  -10.5360    7.2010 O   0  0  0  0  0  0  0  0  0  0  0  0
    2.7630   -8.3150    7.5720 O   0  0  0  0  0  0  0  0  0  0  0  0
    1.3250  -10.3640    7.3630 N   0  0  0  0  0  0  0  0  0  0  0  0
    1.2120  -11.1420    6.7120 H   0  0  0  0  0  0  0  0  0  0  0  0
    0.1460   -9.5330    7.3610 C   0  0  0  0  0  0  0  0  0  0  0  0
   -0.9850   -9.6910    5.9650 C   0  0  0  0  0  3  0  0  0  0  0  0
   -2.5600   -8.7800    5.9600 C   0  0  0  0  0  3  0  0  0  0  0  0
   -3.0840   -7.8560    7.4220 C   0  0  0  0  0  0  0  0  0  0  0  0
   -1.9730   -7.7410    8.8230 C   0  0  0  0  0  3  0  0  0  0  0  0
   -0.4020   -8.6450    8.8190 C   0  0  0  0  0  3  0  0  0  0  0  0
   -4.3580   -7.1190    7.5100 C   0  0  0  0  0  0  0  0  0  0  0  0
   -5.3720   -7.7060    8.2060 N   0  0  0  0  0  0  0  0  0  0  0  0
   -4.4920   -6.0330    6.9650 O   0  0  0  0  0  0  0  0  0  0  0  0
   -6.2440   -7.1940    8.2570 H   0  0  0  0  0  0  0  0  0  0  0  0
   -5.3230   -8.6070    8.6500 H   0  0  0  0  0  0  0  0  0  0  0  0
  1  2  1  1  0  0  0
  1 18  1  0  0  0  0
  2 13  1  0  0  0  0
  3  6  1  0  0  0  0
  3  2  1  0  0  0  0
  4  3  2  0  0  0  0
  5  3  2  0  0  0  0
  6  7  2  0  0  0  0
  6 11  1  0  0  0  0
  7  8  1  0  0  0  0
  8 33  1  0  0  0  0
  8  9  2  0  0  0  0
 10  9  1  0  0  0  0
 11 12  1  0  0  0  0
 11 10  2  0  0  0  0
 12  1  1  0  0  0  0
 12 14  1  0  0  0  0
 15 25  1  0  0  0  0
 15 28  1  0  0  0  0
 16 17  2  0  0  0  0
 16 15  1  0  0  0  0
 18 19  1  0  0  0  0
 18 16  1  6  0  0  0
 19 26  1  6  0  0  0
 19 20  1  0  0  0  0
 20 21  2  0  0  0  0
 20 25  1  0  0  0  0
 21 22  1  0  0  0  0
 22 23  2  0  0  0  0
 24 23  1  0  0  0  0
 25 24  2  0  0  0  0
 27 26  1  0  0  0  0
 29 28  1  0  0  0  0
 30 31  1  0  0  0  0
 32 31  1  0  0  0  0
 33 35  1  0  0  0  0
 34 33  1  0  0  0  0
 35 36  2  0  0  0  0
 35 38  1  0  0  0  0
 35 37  2  0  0  0  0
 39 38  1  0  0  0  0
 40 38  1  0  0  0  0
 40 45  1  0  0  0  0
 41 40  2  0  0  0  0
 42 41  1  0  0  0  0
 42 43  2  0  0  0  0
 43 46  1  0  0  0  0
 43 44  1  0  0  0  0
 45 44  2  0  0  0  0
 46 47  1  0  0  0  0
 47 49  1  0  0  0  0
 47 50  1  0  0  0  0
 48 46  2  0  0  0  0
M  END
>  <minimizedAffinity>
-6.00202799

$$$$

 OpenBabel09122217593D

 50 53  0  0  1  0  0  0  0  0999 V2000
    1.0970   -9.5680    8.3780 C   0  0  1  0  0  3  0  0  0  0  0  0
    2.2350   -9.8650    7.7920 N   0  0  0  0  0  0  0  0  0  0  0  0
    3.6100   -9.1060    8.1220 S   0  0  0  0  0  0  0  0  0  0  0  0
    4.1800   -9.5430    9.3790 O   0  0  0  0  0  0  0  0  0  0  0  0
    4.4250   -9.0810    6.9230 O   0  0  0  0  0  0  0  0  0  0  0  0
    3.0180   -7.4610    8.3680 C   0  0  0  0  0  0  0  0  0  0  0  0
    3.5470   -6.4020    7.6360 C   0  0  0  0  0  3  0  0  0  0  0  0
    2.8480   -5.2010    7.6250 C   0  0  0  0  0  0  0  0  0  0  0  0
    1.7490   -5.0150    8.4700 C   0  0  0  0  0  3  0  0  0  0  0  0
    1.2340   -6.0870    9.2070 C   0  0  0  0  0  3  0  0  0  0  0  0
    1.8180   -7.3470    9.0800 C   0  0  0  0  0  0  0  0  0  0  0  0
    1.0640   -8.5150    9.3440 N   0  0  0  0  0  0  0  0  0  0  0  0
    2.2240  -10.4740    6.9810 H   0  0  0  0  0  0  0  0  0  0  0  0
    0.1680   -8.3490    9.8050 H   0  0  0  0  0  0  0  0  0  0  0  0
   -1.5130   -9.5750    5.8240 N   0  0  0  0  0  0  0  0  0  0  0  0
   -0.2900   -9.9380    6.3290 C   0  0  0  0  0  0  0  0  0  0  0  0
    0.7540   -9.9710    5.6720 O   0  0  0  0  0  0  0  0  0  0  0  0
   -0.1920  -10.0860    7.8180 C   0  0  2  0  0  3  0  0  0  0  0  0
   -1.3210  -10.2610    8.5250 C   0  0  2  0  0  3  0  0  0  0  0  0
   -2.6280  -10.2600    7.8580 C   0  0  0  0  0  0  0  0  0  0  0  0
   -3.8250  -10.5370    8.5270 C   0  0  0  0  0  3  0  0  0  0  0  0
   -5.0400  -10.3760    7.8660 C   0  0  0  0  0  3  0  0  0  0  0  0
   -5.0200   -9.9250    6.5600 C   0  0  0  0  0  3  0  0  0  0  0  0
   -3.8840   -9.6580    5.8840 N   0  0  0  0  0  0  0  0  0  0  0  0
   -2.7100   -9.8360    6.5300 C   0  0  0  0  0  0  0  0  0  0  0  0
   -1.3460  -10.3180    9.9060 O   0  0  0  0  0  0  0  0  0  0  0  0
   -0.6410  -10.9240   10.2080 H   0  0  0  0  0  0  0  0  0  0  0  0
   -1.5870   -8.7360    4.6100 C   0  0  0  0  0  2  0  0  0  0  0  0
   -2.1670   -7.1230    5.0680 C   0  0  0  0  0  1  0  0  0  0  0  0
   -4.8010   -5.5640    6.9440 C   0  0  0  0  0  1  0  0  0  0  0  0
   -3.2090   -6.2930    6.8180 C   0  0  0  0  0  2  0  0  0  0  0  0
   -3.3540   -6.9390    8.4500 C   0  0  0  0  0  1  0  0  0  0  0  0
    3.1220   -4.2760    6.5750 N   0  0  0  0  0  0  0  0  0  0  0  0
    2.3240   -3.8470    6.1070 H   0  0  0  0  0  0  0  0  0  0  0  0
    4.3330   -3.1240    6.8660 S   0  0  0  0  0  0  0  0  0  0  0  0
    3.7410   -2.0230    7.5810 O   0  0  0  0  0  0  0  0  0  0  0  0
    5.4630   -3.8630    7.3740 O   0  0  0  0  0  0  0  0  0  0  0  0
    4.7430   -2.6820    5.2770 N   0  0  0  0  0  0  0  0  0  0  0  0
    3.9370   -2.1820    4.8990 H   0  0  0  0  0  0  0  0  0  0  0  0
    5.1530   -3.7280    4.3720 C   0  0  0  0  0  0  0  0  0  0  0  0
    3.9410   -4.9970    3.9570 C   0  0  0  0  0  3  0  0  0  0  0  0
    4.3380   -6.2680    2.7160 C   0  0  0  0  0  3  0  0  0  0  0  0
    5.8720   -6.1660    1.7660 C   0  0  0  0  0  0  0  0  0  0  0  0
    7.0520   -4.8740    2.1540 C   0  0  0  0  0  3  0  0  0  0  0  0
    6.6530   -3.6150    3.3960 C   0  0  0  0  0  3  0  0  0  0  0  0
    6.2520   -7.1350    0.7220 C   0  0  0  0  0  0  0  0  0  0  0  0
    7.0310   -8.1870    1.1000 N   0  0  0  0  0  0  0  0  0  0  0  0
    5.8870   -6.9840   -0.4350 O   0  0  0  0  0  0  0  0  0  0  0  0
    7.2890   -8.8450    0.3760 H   0  0  0  0  0  0  0  0  0  0  0  0
    7.3790   -8.3440    2.0300 H   0  0  0  0  0  0  0  0  0  0  0  0
  1  2  1  6  0  0  0
  1 12  1  0  0  0  0
  2  3  1  0  0  0  0
  3  6  1  0  0  0  0
  3  4  2  0  0  0  0
  5  3  2  0  0  0  0
  6 11  1  0  0  0  0
  7  6  2  0  0  0  0
  8  7  1  0  0  0  0
  8  9  2  0  0  0  0
  9 10  1  0  0  0  0
 11 10  2  0  0  0  0
 11 12  1  0  0  0  0
 12 14  1  0  0  0  0
 13  2  1  0  0  0  0
 15 16  1  0  0  0  0
 15 25  1  0  0  0  0
 17 16  2  0  0  0  0
 18 16  1  6  0  0  0
 18  1  1  0  0  0  0
 18 19  1  0  0  0  0
 19 26  1  1  0  0  0
 20 19  1  0  0  0  0
 20 21  1  0  0  0  0
 22 21  2  0  0  0  0
 23 22  1  0  0  0  0
 24 25  1  0  0  0  0
 24 23  2  0  0  0  0
 25 20  2  0  0  0  0
 26 27  1  0  0  0  0
 28 29  1  0  0  0  0
 28 15  1  0  0  0  0
 31 30  1  0  0  0  0
 31 32  1  0  0  0  0
 33 35  1  0  0  0  0
 33  8  1  0  0  0  0
 34 33  1  0  0  0  0
 35 37  2  0  0  0  0
 35 36  2  0  0  0  0
 38 35  1  0  0  0  0
 39 38  1  0  0  0  0
 40 38  1  0  0  0  0
 41 40  1  0  0  0  0
 42 41  2  0  0  0  0
 43 44  2  0  0  0  0
 43 42  1  0  0  0  0
 44 45  1  0  0  0  0
 45 40  2  0  0  0  0
 46 47  1  0  0  0  0
 46 43  1  0  0  0  0
 47 50  1  0  0  0  0
 48 46  2  0  0  0  0
 49 47  1  0  0  0  0
M  END
>  <minimizedAffinity>
-5.65090895

$$$$

 OpenBabel09122217593D

 50 53  0  0  1  0  0  0  0  0999 V2000
    1.1640   -9.6600    8.6430 C   0  0  1  0  0  3  0  0  0  0  0  0
    2.3510   -9.9330    8.1480 N   0  0  0  0  0  0  0  0  0  0  0  0
    3.6740   -9.1260    8.5610 S   0  0  0  0  0  0  0  0  0  0  0  0
    4.1620   -9.5210    9.8650 O   0  0  0  0  0  0  0  0  0  0  0  0
    4.5740   -9.0980    7.4250 O   0  0  0  0  0  0  0  0  0  0  0  0
    3.0170   -7.4950    8.7280 C   0  0  0  0  0  0  0  0  0  0  0  0
    3.5670   -6.4340    8.0140 C   0  0  0  0  0  3  0  0  0  0  0  0
    2.8350   -5.2560    7.9260 C   0  0  0  0  0  0  0  0  0  0  0  0
    1.6720   -5.0890    8.6840 C   0  0  0  0  0  3  0  0  0  0  0  0
    1.1360   -6.1610    9.4050 C   0  0  0  0  0  3  0  0  0  0  0  0
    1.7650   -7.4050    9.3480 C   0  0  0  0  0  0  0  0  0  0  0  0
    1.0280   -8.5910    9.5810 N   0  0  0  0  0  0  0  0  0  0  0  0
    2.4170  -10.5580    7.3510 H   0  0  0  0  0  0  0  0  0  0  0  0
    0.0960   -8.4440    9.9720 H   0  0  0  0  0  0  0  0  0  0  0  0
   -1.0680  -10.0460    5.7780 N   0  0  0  0  0  0  0  0  0  0  0  0
    0.0510  -10.3510    6.5110 C   0  0  0  0  0  0  0  0  0  0  0  0
    1.1710  -10.5380    6.0290 O   0  0  0  0  0  0  0  0  0  0  0  0
   -0.0640  -10.2290    8.0020 C   0  0  2  0  0  3  0  0  0  0  0  0
   -1.2880  -10.2350    8.5570 C   0  0  2  0  0  3  0  0  0  0  0  0
   -2.4890  -10.3120    7.7170 C   0  0  0  0  0  0  0  0  0  0  0  0
   -3.7800  -10.4240    8.2430 C   0  0  0  0  0  3  0  0  0  0  0  0
   -4.8820  -10.3450    7.3950 C   0  0  0  0  0  3  0  0  0  0  0  0
   -4.6580  -10.1410    6.0470 C   0  0  0  0  0  3  0  0  0  0  0  0
   -3.4250  -10.0390    5.5070 N   0  0  0  0  0  0  0  0  0  0  0  0
   -2.3640  -10.1350    6.3380 C   0  0  0  0  0  0  0  0  0  0  0  0
   -1.5050  -10.0390    9.9080 O   0  0  0  0  0  0  0  0  0  0  0  0
   -0.8850  -10.6030   10.4100 H   0  0  0  0  0  0  0  0  0  0  0  0
   -0.9260   -9.4410    4.4380 C   0  0  0  0  0  2  0  0  0  0  0  0
    0.7700   -8.9750    4.2020 C   0  0  0  0  0  1  0  0  0  0  0  0
    2.4400   -9.4320    1.0580 C   0  0  0  0  0  1  0  0  0  0  0  0
    2.3600   -9.5730    2.8060 C   0  0  0  0  0  2  0  0  0  0  0  0
    4.1030   -9.3470    2.9240 C   0  0  0  0  0  1  0  0  0  0  0  0
    3.1580   -4.3430    6.8800 N   0  0  0  0  0  0  0  0  0  0  0  0
    2.4270   -3.7010    6.5740 H   0  0  0  0  0  0  0  0  0  0  0  0
    4.6470   -3.5390    6.9970 S   0  0  0  0  0  0  0  0  0  0  0  0
    4.5170   -2.4990    7.9850 O   0  0  0  0  0  0  0  0  0  0  0  0
    5.6470   -4.5750    7.0870 O   0  0  0  0  0  0  0  0  0  0  0  0
    4.7860   -2.8930    5.4310 N   0  0  0  0  0  0  0  0  0  0  0  0
    3.8980   -2.4310    5.2290 H   0  0  0  0  0  0  0  0  0  0  0  0
    5.1390   -3.7930    4.3610 C   0  0  0  0  0  0  0  0  0  0  0  0
    3.8150   -4.7630    3.6140 C   0  0  0  0  0  3  0  0  0  0  0  0
    4.1580   -5.8150    2.1690 C   0  0  0  0  0  3  0  0  0  0  0  0
    5.7750   -5.7590    1.3640 C   0  0  0  0  0  0  0  0  0  0  0  0
    7.0730   -4.7560    2.0860 C   0  0  0  0  0  3  0  0  0  0  0  0
    6.7270   -3.7160    3.5310 C   0  0  0  0  0  3  0  0  0  0  0  0
    6.1220   -6.5530    0.1710 C   0  0  0  0  0  0  0  0  0  0  0  0
    6.3690   -7.8800    0.3540 N   0  0  0  0  0  0  0  0  0  0  0  0
    6.1930   -6.0290   -0.9310 O   0  0  0  0  0  0  0  0  0  0  0  0
    6.6090   -8.4160   -0.4700 H   0  0  0  0  0  0  0  0  0  0  0  0
    6.3500   -8.3550    1.2410 H   0  0  0  0  0  0  0  0  0  0  0  0
  1  2  1  6  0  0  0
  1 12  1  0  0  0  0
  2  3  1  0  0  0  0
  3  6  1  0  0  0  0
  3  4  2  0  0  0  0
  5  3  2  0  0  0  0
  6 11  1  0  0  0  0
  7  6  2  0  0  0  0
  8  7  1  0  0  0  0
  8  9  2  0  0  0  0
  9 10  1  0  0  0  0
 11 10  2  0  0  0  0
 11 12  1  0  0  0  0
 12 14  1  0  0  0  0
 13  2  1  0  0  0  0
 15 25  1  0  0  0  0
 15 16  1  0  0  0  0
 17 16  2  0  0  0  0
 18 16  1  6  0  0  0
 18 19  1  0  0  0  0
 18  1  1  0  0  0  0
 19 26  1  6  0  0  0
 20 21  1  0  0  0  0
 20 19  1  0  0  0  0
 22 21  2  0  0  0  0
 23 22  1  0  0  0  0
 24 23  2  0  0  0  0
 24 25  1  0  0  0  0
 25 20  2  0  0  0  0
 26 27  1  0  0  0  0
 28 15  1  0  0  0  0
 29 28  1  0  0  0  0
 30 31  1  0  0  0  0
 31 32  1  0  0  0  0
 33 35  1  0  0  0  0
 33  8  1  0  0  0  0
 34 33  1  0  0  0  0
 35 37  2  0  0  0  0
 35 36  2  0  0  0  0
 38 35  1  0  0  0  0
 39 38  1  0  0  0  0
 40 38  1  0  0  0  0
 41 40  1  0  0  0  0
 42 41  2  0  0  0  0
 43 44  2  0  0  0  0
 43 42  1  0  0  0  0
 44 45  1  0  0  0  0
 45 40  2  0  0  0  0
 46 47  1  0  0  0  0
 46 43  1  0  0  0  0
 47 50  1  0  0  0  0
 48 46  2  0  0  0  0
 49 47  1  0  0  0  0
M  END
>  <minimizedAffinity>
-5.47207499

$$$$
