
 OpenBabel09122222393D

 50 53  0  0  1  0  0  0  0  0999 V2000
    1.1640   -9.6600    8.6430 C   0  0  1  0  0  3  0  0  0  0  0  0
    2.3510   -9.9330    8.1480 N   0  0  0  0  0  0  0  0  0  0  0  0
    3.6740   -9.1260    8.5610 S   0  0  0  0  0  0  0  0  0  0  0  0
    4.1620   -9.5210    9.8650 O   0  0  0  0  0  0  0  0  0  0  0  0
    4.5740   -9.0980    7.4250 O   0  0  0  0  0  0  0  0  0  0  0  0
    3.0170   -7.4950    8.7280 C   0  0  0  0  0  0  0  0  0  0  0  0
    3.5670   -6.4340    8.0140 C   0  0  0  0  0  3  0  0  0  0  0  0
    2.8350   -5.2560    7.9260 C   0  0  0  0  0  0  0  0  0  0  0  0
    1.6720   -5.0890    8.6840 C   0  0  0  0  0  3  0  0  0  0  0  0
    1.1360   -6.1610    9.4050 C   0  0  0  0  0  3  0  0  0  0  0  0
    1.7650   -7.4050    9.3480 C   0  0  0  0  0  0  0  0  0  0  0  0
    1.0280   -8.5910    9.5810 N   0  0  0  0  0  0  0  0  0  0  0  0
    2.4170  -10.5580    7.3510 H   0  0  0  0  0  0  0  0  0  0  0  0
    0.0960   -8.4440    9.9720 H   0  0  0  0  0  0  0  0  0  0  0  0
   -1.0680  -10.0460    5.7780 N   0  0  0  0  0  0  0  0  0  0  0  0
    0.0510  -10.3510    6.5110 C   0  0  0  0  0  0  0  0  0  0  0  0
    1.1710  -10.5380    6.0290 O   0  0  0  0  0  0  0  0  0  0  0  0
   -0.0640  -10.2290    8.0020 C   0  0  2  0  0  3  0  0  0  0  0  0
   -1.2880  -10.2350    8.5570 C   0  0  2  0  0  3  0  0  0  0  0  0
   -2.4890  -10.3120    7.7170 C   0  0  0  0  0  0  0  0  0  0  0  0
   -3.7800  -10.4240    8.2430 C   0  0  0  0  0  3  0  0  0  0  0  0
   -4.8820  -10.3450    7.3950 C   0  0  0  0  0  3  0  0  0  0  0  0
   -4.6580  -10.1410    6.0470 C   0  0  0  0  0  3  0  0  0  0  0  0
   -3.4250  -10.0390    5.5070 N   0  0  0  0  0  0  0  0  0  0  0  0
   -2.3640  -10.1350    6.3380 C   0  0  0  0  0  0  0  0  0  0  0  0
   -1.5050  -10.0390    9.9080 O   0  0  0  0  0  0  0  0  0  0  0  0
   -0.8850  -10.6030   10.4100 H   0  0  0  0  0  0  0  0  0  0  0  0
   -0.9260   -9.4410    4.4380 C   0  0  0  0  0  2  0  0  0  0  0  0
    0.7700   -8.9750    4.2020 C   0  0  0  0  0  1  0  0  0  0  0  0
    2.4400   -9.4320    1.0580 C   0  0  0  0  0  1  0  0  0  0  0  0
    2.3600   -9.5730    2.8060 C   0  0  0  0  0  2  0  0  0  0  0  0
    4.1030   -9.3470    2.9240 C   0  0  0  0  0  1  0  0  0  0  0  0
    3.1580   -4.3430    6.8800 N   0  0  0  0  0  0  0  0  0  0  0  0
    2.4270   -3.7010    6.5740 H   0  0  0  0  0  0  0  0  0  0  0  0
    4.6470   -3.5390    6.9970 S   0  0  0  0  0  0  0  0  0  0  0  0
    4.5170   -2.4990    7.9850 O   0  0  0  0  0  0  0  0  0  0  0  0
    5.6470   -4.5750    7.0870 O   0  0  0  0  0  0  0  0  0  0  0  0
    4.7860   -2.8930    5.4310 N   0  0  0  0  0  0  0  0  0  0  0  0
    3.8980   -2.4310    5.2290 H   0  0  0  0  0  0  0  0  0  0  0  0
    5.1390   -3.7930    4.3610 C   0  0  0  0  0  0  0  0  0  0  0  0
    3.8150   -4.7630    3.6140 C   0  0  0  0  0  3  0  0  0  0  0  0
    4.1580   -5.8150    2.1690 C   0  0  0  0  0  3  0  0  0  0  0  0
    5.7750   -5.7590    1.3640 C   0  0  0  0  0  0  0  0  0  0  0  0
    7.0730   -4.7560    2.0860 C   0  0  0  0  0  3  0  0  0  0  0  0
    6.7270   -3.7160    3.5310 C   0  0  0  0  0  3  0  0  0  0  0  0
    6.1220   -6.5530    0.1710 C   0  0  0  0  0  0  0  0  0  0  0  0
    6.3690   -7.8800    0.3540 N   0  0  0  0  0  0  0  0  0  0  0  0
    6.1930   -6.0290   -0.9310 O   0  0  0  0  0  0  0  0  0  0  0  0
    6.6090   -8.4160   -0.4700 H   0  0  0  0  0  0  0  0  0  0  0  0
    6.3500   -8.3550    1.2410 H   0  0  0  0  0  0  0  0  0  0  0  0
  1  2  1  6  0  0  0
  1 12  1  0  0  0  0
  2  3  1  0  0  0  0
  3  6  1  0  0  0  0
  3  4  2  0  0  0  0
  5  3  2  0  0  0  0
  6 11  1  0  0  0  0
  7  6  2  0  0  0  0
  8  7  1  0  0  0  0
  8  9  2  0  0  0  0
  9 10  1  0  0  0  0
 11 10  2  0  0  0  0
 11 12  1  0  0  0  0
 12 14  1  0  0  0  0
 13  2  1  0  0  0  0
 15 25  1  0  0  0  0
 15 16  1  0  0  0  0
 17 16  2  0  0  0  0
 18 16  1  6  0  0  0
 18 19  1  0  0  0  0
 18  1  1  0  0  0  0
 19 26  1  6  0  0  0
 20 21  1  0  0  0  0
 20 19  1  0  0  0  0
 22 21  2  0  0  0  0
 23 22  1  0  0  0  0
 24 23  2  0  0  0  0
 24 25  1  0  0  0  0
 25 20  2  0  0  0  0
 26 27  1  0  0  0  0
 28 15  1  0  0  0  0
 29 28  1  0  0  0  0
 30 31  1  0  0  0  0
 31 32  1  0  0  0  0
 33 35  1  0  0  0  0
 33  8  1  0  0  0  0
 34 33  1  0  0  0  0
 35 37  2  0  0  0  0
 35 36  2  0  0  0  0
 38 35  1  0  0  0  0
 39 38  1  0  0  0  0
 40 38  1  0  0  0  0
 41 40  1  0  0  0  0
 42 41  2  0  0  0  0
 43 44  2  0  0  0  0
 43 42  1  0  0  0  0
 44 45  1  0  0  0  0
 45 40  2  0  0  0  0
 46 47  1  0  0  0  0
 46 43  1  0  0  0  0
 47 50  1  0  0  0  0
 48 46  2  0  0  0  0
 49 47  1  0  0  0  0
M  END
>  <minimizedAffinity>
-5.47207499

$$$$
