
 OpenBabel09122222393D

 50 53  0  0  1  0  0  0  0  0999 V2000
    4.9210   -3.9220    4.9530 C   0  0  1  0  0  3  0  0  0  0  0  0
    5.6980   -4.6250    4.1590 N   0  0  0  0  0  0  0  0  0  0  0  0
    5.1290   -5.5950    3.0150 S   0  0  0  0  0  0  0  0  0  0  0  0
    4.6700   -4.8550    1.8590 O   0  0  0  0  0  0  0  0  0  0  0  0
    6.0440   -6.7070    2.8520 O   0  0  0  0  0  0  0  0  0  0  0  0
    3.6930   -6.2330    3.8220 C   0  0  0  0  0  0  0  0  0  0  0  0
    3.5060   -7.6060    3.9520 C   0  0  0  0  0  3  0  0  0  0  0  0
    2.5500   -8.0530    4.8560 C   0  0  0  0  0  0  0  0  0  0  0  0
    1.6820   -7.1470    5.4720 C   0  0  0  0  0  3  0  0  0  0  0  0
    1.8760   -5.7690    5.3240 C   0  0  0  0  0  3  0  0  0  0  0  0
    2.9530   -5.3080    4.5670 C   0  0  0  0  0  0  0  0  0  0  0  0
    3.5020   -4.0270    4.8120 N   0  0  0  0  0  0  0  0  0  0  0  0
    6.6860   -4.6960    4.3790 H   0  0  0  0  0  0  0  0  0  0  0  0
    2.9400   -3.4300    5.4200 H   0  0  0  0  0  0  0  0  0  0  0  0
    4.5290   -2.0050    8.0370 N   0  0  0  0  0  0  0  0  0  0  0  0
    4.4880   -3.1600    7.2960 C   0  0  0  0  0  0  0  0  0  0  0  0
    3.5890   -4.0020    7.3650 O   0  0  0  0  0  0  0  0  0  0  0  0
    5.4870   -3.2840    6.1840 C   0  0  2  0  0  3  0  0  0  0  0  0
    6.5840   -2.5090    6.2120 C   0  0  2  0  0  3  0  0  0  0  0  0
    6.7780   -1.5280    7.2860 C   0  0  0  0  0  0  0  0  0  0  0  0
    7.9450   -0.7680    7.4210 C   0  0  0  0  0  3  0  0  0  0  0  0
    8.0030    0.2460    8.3740 C   0  0  0  0  0  3  0  0  0  0  0  0
    6.8840    0.4800    9.1510 C   0  0  0  0  0  3  0  0  0  0  0  0
    5.7480   -0.2400    9.0510 N   0  0  0  0  0  0  0  0  0  0  0  0
    5.7100   -1.2340    8.1360 C   0  0  0  0  0  0  0  0  0  0  0  0
    7.5180   -2.4840    5.1930 O   0  0  0  0  0  0  0  0  0  0  0  0
    7.7390   -3.4040    4.9470 H   0  0  0  0  0  0  0  0  0  0  0  0
    3.2810   -1.4480    8.5980 C   0  0  0  0  0  2  0  0  0  0  0  0
    2.4050   -0.6050    7.3060 C   0  0  0  0  0  1  0  0  0  0  0  0
    0.2490   -0.3520    4.4470 C   0  0  0  0  0  1  0  0  0  0  0  0
    1.3650   -1.2360    5.4740 C   0  0  0  0  0  2  0  0  0  0  0  0
    1.9810   -2.1170    4.0790 C   0  0  0  0  0  1  0  0  0  0  0  0
    2.6390   -9.4010    5.3140 N   0  0  0  0  0  0  0  0  0  0  0  0
    3.2520  -10.0320    4.7990 H   0  0  0  0  0  0  0  0  0  0  0  0
    2.8120   -9.6320    6.9860 S   0  0  0  0  0  0  0  0  0  0  0  0
    3.9120  -10.5360    7.2010 O   0  0  0  0  0  0  0  0  0  0  0  0
    2.7630   -8.3150    7.5720 O   0  0  0  0  0  0  0  0  0  0  0  0
    1.3250  -10.3640    7.3630 N   0  0  0  0  0  0  0  0  0  0  0  0
    1.2120  -11.1420    6.7120 H   0  0  0  0  0  0  0  0  0  0  0  0
    0.1460   -9.5330    7.3610 C   0  0  0  0  0  0  0  0  0  0  0  0
   -0.9850   -9.6910    5.9650 C   0  0  0  0  0  3  0  0  0  0  0  0
   -2.5600   -8.7800    5.9600 C   0  0  0  0  0  3  0  0  0  0  0  0
   -3.0840   -7.8560    7.4220 C   0  0  0  0  0  0  0  0  0  0  0  0
   -1.9730   -7.7410    8.8230 C   0  0  0  0  0  3  0  0  0  0  0  0
   -0.4020   -8.6450    8.8190 C   0  0  0  0  0  3  0  0  0  0  0  0
   -4.3580   -7.1190    7.5100 C   0  0  0  0  0  0  0  0  0  0  0  0
   -5.3720   -7.7060    8.2060 N   0  0  0  0  0  0  0  0  0  0  0  0
   -4.4920   -6.0330    6.9650 O   0  0  0  0  0  0  0  0  0  0  0  0
   -6.2440   -7.1940    8.2570 H   0  0  0  0  0  0  0  0  0  0  0  0
   -5.3230   -8.6070    8.6500 H   0  0  0  0  0  0  0  0  0  0  0  0
  1  2  1  1  0  0  0
  1 18  1  0  0  0  0
  2 13  1  0  0  0  0
  3  6  1  0  0  0  0
  3  2  1  0  0  0  0
  4  3  2  0  0  0  0
  5  3  2  0  0  0  0
  6  7  2  0  0  0  0
  6 11  1  0  0  0  0
  7  8  1  0  0  0  0
  8 33  1  0  0  0  0
  8  9  2  0  0  0  0
 10  9  1  0  0  0  0
 11 12  1  0  0  0  0
 11 10  2  0  0  0  0
 12  1  1  0  0  0  0
 12 14  1  0  0  0  0
 15 25  1  0  0  0  0
 15 28  1  0  0  0  0
 16 17  2  0  0  0  0
 16 15  1  0  0  0  0
 18 19  1  0  0  0  0
 18 16  1  6  0  0  0
 19 26  1  6  0  0  0
 19 20  1  0  0  0  0
 20 21  2  0  0  0  0
 20 25  1  0  0  0  0
 21 22  1  0  0  0  0
 22 23  2  0  0  0  0
 24 23  1  0  0  0  0
 25 24  2  0  0  0  0
 27 26  1  0  0  0  0
 29 28  1  0  0  0  0
 30 31  1  0  0  0  0
 32 31  1  0  0  0  0
 33 35  1  0  0  0  0
 34 33  1  0  0  0  0
 35 36  2  0  0  0  0
 35 38  1  0  0  0  0
 35 37  2  0  0  0  0
 39 38  1  0  0  0  0
 40 38  1  0  0  0  0
 40 45  1  0  0  0  0
 41 40  2  0  0  0  0
 42 41  1  0  0  0  0
 42 43  2  0  0  0  0
 43 46  1  0  0  0  0
 43 44  1  0  0  0  0
 45 44  2  0  0  0  0
 46 47  1  0  0  0  0
 47 49  1  0  0  0  0
 47 50  1  0  0  0  0
 48 46  2  0  0  0  0
M  END
>  <minimizedAffinity>
-6.00202799

$$$$
