
 OpenBabel09122222393D

 50 53  0  0  1  0  0  0  0  0999 V2000
    1.6600   -7.6480    8.9410 C   0  0  1  0  0  3  0  0  0  0  0  0
    2.5610   -7.8180    7.9990 N   0  0  0  0  0  0  0  0  0  0  0  0
    3.8850   -6.9190    7.8850 S   0  0  0  0  0  0  0  0  0  0  0  0
    4.8810   -7.2990    8.8640 O   0  0  0  0  0  0  0  0  0  0  0  0
    4.2460   -6.8000    6.4870 O   0  0  0  0  0  0  0  0  0  0  0  0
    3.2490   -5.3470    8.3810 C   0  0  0  0  0  0  0  0  0  0  0  0
    3.3950   -4.2340    7.5590 C   0  0  0  0  0  3  0  0  0  0  0  0
    2.6170   -3.1150    7.8290 C   0  0  0  0  0  0  0  0  0  0  0  0
    1.8510   -3.0520    8.9980 C   0  0  0  0  0  3  0  0  0  0  0  0
    1.7210   -4.1770    9.8200 C   0  0  0  0  0  3  0  0  0  0  0  0
    2.3500   -5.3660    9.4540 C   0  0  0  0  0  0  0  0  0  0  0  0
    1.8470   -6.6100    9.9060 N   0  0  0  0  0  0  0  0  0  0  0  0
    2.3400   -8.4210    7.2140 H   0  0  0  0  0  0  0  0  0  0  0  0
    1.1450   -6.5440   10.6440 H   0  0  0  0  0  0  0  0  0  0  0  0
   -0.7130   -9.7960    7.1820 N   0  0  0  0  0  0  0  0  0  0  0  0
    0.3460   -9.5700    8.0260 C   0  0  0  0  0  0  0  0  0  0  0  0
    1.3830  -10.2380    8.0390 O   0  0  0  0  0  0  0  0  0  0  0  0
    0.3160   -8.2980    8.8200 C   0  0  2  0  0  3  0  0  0  0  0  0
   -0.8590   -7.6680    8.9870 C   0  0  2  0  0  3  0  0  0  0  0  0
   -2.0820   -8.1900    8.3650 C   0  0  0  0  0  0  0  0  0  0  0  0
   -3.3460   -7.6350    8.5870 C   0  0  0  0  0  3  0  0  0  0  0  0
   -4.4390   -8.0890    7.8530 C   0  0  0  0  0  3  0  0  0  0  0  0
   -4.2290   -9.0730    6.9060 C   0  0  0  0  0  3  0  0  0  0  0  0
   -3.0250   -9.6350    6.6740 N   0  0  0  0  0  0  0  0  0  0  0  0
   -1.9760   -9.2000    7.4060 C   0  0  0  0  0  0  0  0  0  0  0  0
   -0.9780   -6.4470    9.6240 O   0  0  0  0  0  0  0  0  0  0  0  0
   -0.4700   -6.4780   10.4590 H   0  0  0  0  0  0  0  0  0  0  0  0
   -0.4990  -10.5240    5.9150 C   0  0  0  0  0  2  0  0  0  0  0  0
    0.2400   -9.4170    4.7410 C   0  0  0  0  0  1  0  0  0  0  0  0
    3.7390   -9.8920    4.1010 C   0  0  0  0  0  1  0  0  0  0  0  0
    2.1290   -9.3890    3.6170 C   0  0  0  0  0  2  0  0  0  0  0  0
    2.4560   -9.8760    1.9550 C   0  0  0  0  0  1  0  0  0  0  0  0
    2.4320   -2.1600    6.7870 N   0  0  0  0  0  0  0  0  0  0  0  0
    3.0170   -1.3250    6.8060 H   0  0  0  0  0  0  0  0  0  0  0  0
    2.3050   -2.7640    5.2070 S   0  0  0  0  0  0  0  0  0  0  0  0
    1.8490   -4.1280    5.2850 O   0  0  0  0  0  0  0  0  0  0  0  0
    1.6050   -1.7520    4.4540 O   0  0  0  0  0  0  0  0  0  0  0  0
    3.9260   -2.6820    4.7020 N   0  0  0  0  0  0  0  0  0  0  0  0
    4.0520   -1.7620    4.2780 H   0  0  0  0  0  0  0  0  0  0  0  0
    4.4080   -3.7120    3.8150 C   0  0  0  0  0  0  0  0  0  0  0  0
    6.0620   -3.5140    3.1250 C   0  0  0  0  0  3  0  0  0  0  0  0
    6.7920   -4.8380    2.1110 C   0  0  0  0  0  3  0  0  0  0  0  0
    5.9450   -6.4250    1.9360 C   0  0  0  0  0  0  0  0  0  0  0  0
    4.3210   -6.6290    2.6640 C   0  0  0  0  0  3  0  0  0  0  0  0
    3.5960   -5.3040    3.6670 C   0  0  0  0  0  3  0  0  0  0  0  0
    6.4840   -7.5570    1.1610 C   0  0  0  0  0  0  0  0  0  0  0  0
    5.7860   -7.9480    0.0590 N   0  0  0  0  0  0  0  0  0  0  0  0
    7.5110   -8.1220    1.5090 O   0  0  0  0  0  0  0  0  0  0  0  0
    6.1620   -8.7290   -0.4650 H   0  0  0  0  0  0  0  0  0  0  0  0
    4.9240   -7.5360   -0.2570 H   0  0  0  0  0  0  0  0  0  0  0  0
  1  2  1  6  0  0  0
  1 12  1  0  0  0  0
  3  2  1  0  0  0  0
  3  6  1  0  0  0  0
  3  4  2  0  0  0  0
  5  3  2  0  0  0  0
  6 11  1  0  0  0  0
  7  8  1  0  0  0  0
  7  6  2  0  0  0  0
  8  9  2  0  0  0  0
  9 10  1  0  0  0  0
 11 10  2  0  0  0  0
 11 12  1  0  0  0  0
 12 14  1  0  0  0  0
 13  2  1  0  0  0  0
 15 25  1  0  0  0  0
 15 16  1  0  0  0  0
 16 17  2  0  0  0  0
 18 16  1  6  0  0  0
 18  1  1  0  0  0  0
 18 19  1  0  0  0  0
 19 26  1  6  0  0  0
 20 21  1  0  0  0  0
 20 19  1  0  0  0  0
 22 21  2  0  0  0  0
 23 22  1  0  0  0  0
 24 23  2  0  0  0  0
 24 25  1  0  0  0  0
 25 20  2  0  0  0  0
 26 27  1  0  0  0  0
 28 15  1  0  0  0  0
 29 28  1  0  0  0  0
 31 30  1  0  0  0  0
 32 31  1  0  0  0  0
 33 34  1  0  0  0  0
 33  8  1  0  0  0  0
 35 36  2  0  0  0  0
 35 33  1  0  0  0  0
 37 35  2  0  0  0  0
 38 35  1  0  0  0  0
 39 38  1  0  0  0  0
 40 38  1  0  0  0  0
 41 40  2  0  0  0  0
 42 41  1  0  0  0  0
 43 42  2  0  0  0  0
 43 44  1  0  0  0  0
 44 45  2  0  0  0  0
 45 40  1  0  0  0  0
 46 48  2  0  0  0  0
 46 43  1  0  0  0  0
 47 46  1  0  0  0  0
 49 47  1  0  0  0  0
 50 47  1  0  0  0  0
M  END
>  <minimizedAffinity>
-6.53499079

$$$$
