
 OpenBabel09122222393D

 50 53  0  0  1  0  0  0  0  0999 V2000
    3.1920   -6.5440    8.5480 C   0  0  1  0  0  3  0  0  0  0  0  0
    1.8780   -6.5820    8.5160 N   0  0  0  0  0  0  0  0  0  0  0  0
    1.0430   -7.9510    8.5680 S   0  0  0  0  0  0  0  0  0  0  0  0
    0.9960   -8.5030    9.9060 O   0  0  0  0  0  0  0  0  0  0  0  0
   -0.1790   -7.7780    7.8080 O   0  0  0  0  0  0  0  0  0  0  0  0
    2.0920   -9.0030    7.6130 C   0  0  0  0  0  0  0  0  0  0  0  0
    1.5920   -9.6830    6.5060 C   0  0  0  0  0  3  0  0  0  0  0  0
    2.5020  -10.2320    5.6100 C   0  0  0  0  0  0  0  0  0  0  0  0
    3.8660  -10.2560    5.9150 C   0  0  0  0  0  3  0  0  0  0  0  0
    4.3530   -9.5770    7.0370 C   0  0  0  0  0  3  0  0  0  0  0  0
    3.4650   -8.8620    7.8410 C   0  0  0  0  0  0  0  0  0  0  0  0
    3.9230   -7.7710    8.6170 N   0  0  0  0  0  0  0  0  0  0  0  0
    1.3700   -5.7370    8.2790 H   0  0  0  0  0  0  0  0  0  0  0  0
    4.9390   -7.6900    8.6840 H   0  0  0  0  0  0  0  0  0  0  0  0
    4.5130   -4.2010    6.0770 N   0  0  0  0  0  0  0  0  0  0  0  0
    3.5130   -4.7320    6.8520 C   0  0  0  0  0  0  0  0  0  0  0  0
    2.3640   -4.9480    6.4580 O   0  0  0  0  0  0  0  0  0  0  0  0
    3.9150   -5.2830    8.1890 C   0  0  2  0  0  3  0  0  0  0  0  0
    5.0810   -4.8860    8.7260 C   0  0  2  0  0  3  0  0  0  0  0  0
    5.9650   -3.9690    7.9980 C   0  0  0  0  0  0  0  0  0  0  0  0
    7.1390   -3.4450    8.5490 C   0  0  0  0  0  3  0  0  0  0  0  0
    8.0040   -2.6990    7.7520 C   0  0  0  0  0  3  0  0  0  0  0  0
    7.6750   -2.5140    6.4230 C   0  0  0  0  0  3  0  0  0  0  0  0
    6.5460   -2.9980    5.8630 N   0  0  0  0  0  0  0  0  0  0  0  0
    5.7060   -3.7040    6.6510 C   0  0  0  0  0  0  0  0  0  0  0  0
    5.5820   -5.4010    9.9070 O   0  0  0  0  0  0  0  0  0  0  0  0
    4.8680   -5.4070   10.5740 H   0  0  0  0  0  0  0  0  0  0  0  0
    4.4360   -4.3060    4.6060 C   0  0  0  0  0  2  0  0  0  0  0  0
    3.4110   -2.9910    3.9960 C   0  0  0  0  0  1  0  0  0  0  0  0
    1.7520   -0.7130    6.2180 C   0  0  0  0  0  1  0  0  0  0  0  0
    1.7700   -1.7920    4.8340 C   0  0  0  0  0  2  0  0  0  0  0  0
    0.5770   -0.7900    4.0120 C   0  0  0  0  0  1  0  0  0  0  0  0
    2.0460  -10.5390    4.2950 N   0  0  0  0  0  0  0  0  0  0  0  0
    1.4990  -11.3910    4.1740 H   0  0  0  0  0  0  0  0  0  0  0  0
    1.3700   -9.2650    3.4010 S   0  0  0  0  0  0  0  0  0  0  0  0
    1.4900   -8.0590    4.1790 O   0  0  0  0  0  0  0  0  0  0  0  0
    1.9120   -9.3880    2.0700 O   0  0  0  0  0  0  0  0  0  0  0  0
   -0.2490   -9.7730    3.2930 N   0  0  0  0  0  0  0  0  0  0  0  0
   -0.5310   -9.6370    2.3220 H   0  0  0  0  0  0  0  0  0  0  0  0
   -1.2060   -9.1650    4.1850 C   0  0  0  0  0  0  0  0  0  0  0  0
   -2.0800  -10.2440    5.3350 C   0  0  0  0  0  3  0  0  0  0  0  0
   -3.1970   -9.5340    6.5830 C   0  0  0  0  0  3  0  0  0  0  0  0
   -3.3030   -7.7420    6.7980 C   0  0  0  0  0  0  0  0  0  0  0  0
   -2.3940   -6.6770    5.6800 C   0  0  0  0  0  3  0  0  0  0  0  0
   -1.2880   -7.3910    4.4340 C   0  0  0  0  0  3  0  0  0  0  0  0
   -4.1570   -7.0900    7.8070 C   0  0  0  0  0  0  0  0  0  0  0  0
   -5.0090   -6.1200    7.3720 N   0  0  0  0  0  0  0  0  0  0  0  0
   -4.0860   -7.4060    8.9860 O   0  0  0  0  0  0  0  0  0  0  0  0
   -5.5890   -5.6760    8.0720 H   0  0  0  0  0  0  0  0  0  0  0  0
   -5.0880   -5.8050    6.4200 H   0  0  0  0  0  0  0  0  0  0  0  0
  1  2  1  6  0  0  0
  1 12  1  0  0  0  0
  2  3  1  0  0  0  0
  3  4  2  0  0  0  0
  5  3  2  0  0  0  0
  6 11  1  0  0  0  0
  6  3  1  0  0  0  0
  7  6  2  0  0  0  0
  8  9  2  0  0  0  0
  8  7  1  0  0  0  0
  9 10  1  0  0  0  0
 10 11  2  0  0  0  0
 11 12  1  0  0  0  0
 12 14  1  0  0  0  0
 13  2  1  0  0  0  0
 15 25  1  0  0  0  0
 15 16  1  0  0  0  0
 17 16  2  0  0  0  0
 18 16  1  6  0  0  0
 18  1  1  0  0  0  0
 18 19  1  0  0  0  0
 19 26  1  6  0  0  0
 20 21  1  0  0  0  0
 20 19  1  0  0  0  0
 22 21  2  0  0  0  0
 23 22  1  0  0  0  0
 24 23  2  0  0  0  0
 24 25  1  0  0  0  0
 25 20  2  0  0  0  0
 26 27  1  0  0  0  0
 28 15  1  0  0  0  0
 29 28  1  0  0  0  0
 31 30  1  0  0  0  0
 32 31  1  0  0  0  0
 33  8  1  0  0  0  0
 34 33  1  0  0  0  0
 35 36  2  0  0  0  0
 35 33  1  0  0  0  0
 37 35  2  0  0  0  0
 38 35  1  0  0  0  0
 38 40  1  0  0  0  0
 39 38  1  0  0  0  0
 40 45  2  0  0  0  0
 40 41  1  0  0  0  0
 41 42  2  0  0  0  0
 42 43  1  0  0  0  0
 43 46  1  0  0  0  0
 44 43  2  0  0  0  0
 45 44  1  0  0  0  0
 46 48  2  0  0  0  0
 47 46  1  0  0  0  0
 47 49  1  0  0  0  0
 50 47  1  0  0  0  0
M  END
>  <minimizedAffinity>
-6.22512388

$$$$
