REMARK  Name = 
REMARK  11 active torsions:
REMARK  status: ('A' for Active; 'I' for Inactive)
REMARK    1  A    between atoms: C_1  and  C_2
REMARK    2  A    between atoms: C_2  and  N_3
REMARK    3  A    between atoms: N_3  and  C_7
REMARK    4  A    between atoms: C_4  and  C_5
REMARK    5  A    between atoms: C_10  and  C_11
REMARK    6  A    between atoms: C_18  and  C_19
REMARK    7  A    between atoms: C_19  and  O_20
REMARK    8  A    between atoms: O_20  and  C_21
REMARK    9  A    between atoms: C_24  and  C_25
REMARK   10  A    between atoms: C_29  and  C_30
REMARK   11  A    between atoms: N_36  and  C_37
REMARK                            x       y       z     vdW  Elec       q    Type
REMARK                         _______ _______ _______ _____ _____    ______ ____
ROOT
ATOM      1  C   UNL     1       5.161   3.374   1.503  0.00  0.00    +0.124 A 
ATOM      2  C   UNL     1       3.973   3.608   0.813  0.00  0.00    +0.046 A 
ATOM      3  C   UNL     1       3.135   4.662   1.198  0.00  0.00    +0.018 A 
ATOM      4  C   UNL     1       3.491   5.514   2.251  0.00  0.00    +0.053 A 
ATOM      5  C   UNL     1       4.698   5.279   2.913  0.00  0.00    +0.137 A 
ATOM      6  F   UNL     1       5.084   6.062   3.931  0.00  0.00    -0.205 F 
ATOM      7  C   UNL     1       5.535   4.231   2.537  0.00  0.00    +0.084 A 
ENDROOT
BRANCH   4   8
ATOM      8  C   UNL     1       2.567   6.574   2.655  0.00  0.00    +0.145 A 
ATOM      9  N   UNL     1       1.298   6.347   2.932  0.00  0.00    -0.227 NA
ATOM     10  C   UNL     1       0.756   7.556   3.284  0.00  0.00    +0.090 A 
ATOM     11  C   UNL     1      -0.552   7.860   3.694  0.00  0.00    +0.039 A 
ATOM     12  C   UNL     1      -0.900   9.189   4.005  0.00  0.00    -0.001 A 
ATOM     13  C   UNL     1       0.083  10.185   3.896  0.00  0.00    +0.012 A 
ATOM     14  C   UNL     1       1.392   9.903   3.485  0.00  0.00    +0.028 A 
ATOM     15  C   UNL     1       1.704   8.571   3.183  0.00  0.00    +0.069 A 
ATOM     16  N   UNL     1       2.847   7.931   2.741  0.00  0.00    -0.320 N 
BRANCH  16  17
ATOM     17  C   UNL     1       4.094   8.576   2.339  0.00  0.00    +0.089 C 
ATOM     18  C   UNL     1       3.914   9.531   1.145  0.00  0.00    +0.025 C 
ATOM     19  C   UNL     1       5.251  10.128   0.708  0.00  0.00    +0.002 C 
ATOM     20  C   UNL     1       5.975  10.801   1.871  0.00  0.00    +0.000 C 
ATOM     21  C   UNL     1       6.158   9.849   3.051  0.00  0.00    +0.002 C 
ATOM     22  C   UNL     1       4.828   9.253   3.507  0.00  0.00    +0.025 C 
ENDBRANCH  16  17
BRANCH  12  23
ATOM     23  C   UNL     1      -2.307   9.538   4.446  0.00  0.00    +0.072 C 
ATOM     24  O   UNL     1      -3.150   8.589   4.512  0.00  0.00    -0.545 OA
ATOM     25  O   UNL     1      -2.541  10.759   4.716  0.00  0.00    -0.545 OA
ENDBRANCH  12  23
ENDBRANCH   4   8
BRANCH   1  26
ATOM     26  O   UNL     1       6.042   2.364   1.234  0.00  0.00    -0.487 OA
BRANCH  26  27
ATOM     27  C   UNL     1       5.492   1.109   0.817  0.00  0.00    +0.265 C 
BRANCH  27  32
ATOM     28  C   UNL     1       2.550  -0.266   2.845  0.00  0.00    +0.037 A 
ATOM     29  C   UNL     1       3.215  -0.828   3.936  0.00  0.00    +0.024 A 
ATOM     30  C   UNL     1       4.610  -0.777   4.033  0.00  0.00    +0.011 A 
ATOM     31  C   UNL     1       5.390  -0.166   3.038  0.00  0.00    -0.011 A 
ATOM     32  C   UNL     1       4.736   0.394   1.922  0.00  0.00    -0.001 A 
ATOM     33  C   UNL     1       3.328   0.320   1.838  0.00  0.00    +0.031 A 
BRANCH  31  34
ATOM     34  C   UNL     1       6.849  -0.154   3.195  0.00  0.00    -0.017 A 
ATOM     35  C   UNL     1       7.631  -1.205   2.690  0.00  0.00    +0.010 A 
ATOM     36  C   UNL     1       9.020  -1.201   2.849  0.00  0.00    +0.020 A 
ATOM     37  C   UNL     1       9.636  -0.146   3.518  0.00  0.00    +0.041 A 
ATOM     38 CL   UNL     1      11.345  -0.142   3.714  0.00  0.00    -0.084 Cl
ATOM     39  C   UNL     1       8.877   0.903   4.031  0.00  0.00    +0.020 A 
ATOM     40  C   UNL     1       7.489   0.896   3.873  0.00  0.00    +0.010 A 
ENDBRANCH  31  34
BRANCH  28  41
ATOM     41  N   UNL     1       1.127  -0.344   2.726  0.00  0.00    -0.272 N 
ATOM     42  C   UNL     1       0.228  -0.315   3.796  0.00  0.00    +0.217 C 
ATOM     43  C   UNL     1       0.658   0.363   5.078  0.00  0.00    +0.109 C 
ATOM     44  O   UNL     1      -0.921  -0.757   3.706  0.00  0.00    -0.276 OA
BRANCH  41  46
ATOM     45  C   UNL     1      -0.081   0.720   0.834  0.00  0.00    +0.025 C 
ATOM     46  C   UNL     1       0.546  -0.551   1.394  0.00  0.00    +0.110 C 
ENDBRANCH  41  46
ENDBRANCH  28  41
ENDBRANCH  27  32
ENDBRANCH  26  27
ENDBRANCH   1  26
TORSDOF 9
