
 OpenBabel09122222393D

 46 51  0  0  0  0  0  0  0  0999 V2000
   13.4490    6.4480    3.3160 C   0  0  0  0  0  0  0  0  0  0  0  0
   12.1130    6.1850    3.0180 C   0  0  0  0  0  3  0  0  0  0  0  0
   11.3070    7.1900    2.4700 C   0  0  0  0  0  3  0  0  0  0  0  0
   11.8340    8.4550    2.1800 C   0  0  0  0  0  0  0  0  0  0  0  0
   13.1810    8.6910    2.4620 C   0  0  0  0  0  0  0  0  0  0  0  0
   13.7350    9.8860    2.2090 F   0  0  0  0  0  0  0  0  0  0  0  0
   13.9880    7.6970    3.0100 C   0  0  0  0  0  3  0  0  0  0  0  0
   10.9490    9.4940    1.6530 C   0  0  0  0  0  0  0  0  0  0  0  0
   10.5120    9.4950    0.4090 N   0  0  0  0  0  0  0  0  0  0  0  0
    9.7040   10.5950    0.2830 C   0  0  0  0  0  0  0  0  0  0  0  0
    8.9710   11.0390   -0.8300 C   0  0  0  0  0  3  0  0  0  0  0  0
    8.2030   12.2160   -0.7410 C   0  0  0  0  0  0  0  0  0  0  0  0
    8.1890   12.9200    0.4730 C   0  0  0  0  0  3  0  0  0  0  0  0
    8.9160   12.4960    1.5930 C   0  0  0  0  0  3  0  0  0  0  0  0
    9.6700   11.3220    1.4700 C   0  0  0  0  0  0  0  0  0  0  0  0
   10.5040   10.6250    2.3240 N   0  0  0  0  0  0  0  0  0  0  0  0
   10.9230   11.0520    3.6560 C   0  0  0  0  0  3  0  0  0  0  0  0
   11.9270   12.2180    3.6200 C   0  0  0  0  0  2  0  0  0  0  0  0
   12.3980   12.5860    5.0270 C   0  0  0  0  0  2  0  0  0  0  0  0
   11.2230   12.8740    5.9570 C   0  0  0  0  0  2  0  0  0  0  0  0
   10.2320   11.7120    5.9950 C   0  0  0  0  0  2  0  0  0  0  0  0
    9.7440   11.3410    4.5970 C   0  0  0  0  0  2  0  0  0  0  0  0
    7.4080   12.7130   -1.9310 C   0  0  0  0  0  0  0  0  0  0  0  0
    6.7340   13.7800   -1.7780 O   0  0  0  0  0  1  0  0  0  0  0  0
    7.4730   12.0230   -2.9980 O   0  0  0  0  0  0  0  0  0  0  0  0
   14.3210    5.5560    3.8750 O   0  0  0  0  0  0  0  0  0  0  0  0
   14.3750    5.5000    5.3050 C   0  0  0  0  0  2  0  0  0  0  0  0
   11.5410    3.0520    6.0990 C   0  0  0  0  0  0  0  0  0  0  0  0
   10.7450    3.8270    6.9450 C   0  0  0  0  0  3  0  0  0  0  0  0
   11.1080    5.1380    7.2730 C   0  0  0  0  0  3  0  0  0  0  0  0
   12.2840    5.7180    6.7710 C   0  0  0  0  0  0  0  0  0  0  0  0
   13.1070    4.9450    5.9270 C   0  0  0  0  0  0  0  0  0  0  0  0
   12.7280    3.6200    5.6190 C   0  0  0  0  0  3  0  0  0  0  0  0
   12.6120    7.0940    7.1600 C   0  0  0  0  0  0  0  0  0  0  0  0
   13.2100    7.3620    8.4020 C   0  0  0  0  0  3  0  0  0  0  0  0
   13.5130    8.6740    8.7800 C   0  0  0  0  0  3  0  0  0  0  0  0
   13.2160    9.7270    7.9180 C   0  0  0  0  0  0  0  0  0  0  0  0
   13.5880   11.3410    8.3840 Cl  0  0  0  0  0  0  0  0  0  0  0  0
   12.6180    9.4830    6.6850 C   0  0  0  0  0  3  0  0  0  0  0  0
   12.3140    8.1710    6.3100 C   0  0  0  0  0  3  0  0  0  0  0  0
   11.1900    1.7010    5.7870 N   0  0  0  0  0  0  0  0  0  0  0  0
   10.4150    1.3040    4.6940 C   0  0  0  0  0  0  0  0  0  0  0  0
   10.3760    2.2010    3.4760 C   0  0  0  0  0  1  0  0  0  0  0  0
    9.8230    0.2210    4.6620 O   0  0  0  0  0  0  0  0  0  0  0  0
   10.6270    0.4860    7.8790 C   0  0  0  0  0  1  0  0  0  0  0  0
   11.5980    0.6390    6.7150 C   0  0  0  0  0  2  0  0  0  0  0  0
  1 26  1  0  0  0  0
  2  1  1  0  0  0  0
  3  2  2  0  0  0  0
  4  5  2  0  0  0  0
  4  3  1  0  0  0  0
  5  7  1  0  0  0  0
  6  5  1  0  0  0  0
  7  1  2  0  0  0  0
  8  4  1  0  0  0  0
  8 16  1  0  0  0  0
  9  8  2  0  0  0  0
 10  9  1  0  0  0  0
 10 15  1  0  0  0  0
 11 12  1  0  0  0  0
 11 10  2  0  0  0  0
 12 13  2  0  0  0  0
 13 14  1  0  0  0  0
 15 14  2  0  0  0  0
 15 16  1  0  0  0  0
 16 17  1  0  0  0  0
 17 22  1  0  0  0  0
 18 17  1  0  0  0  0
 18 19  1  0  0  0  0
 19 20  1  0  0  0  0
 20 21  1  0  0  0  0
 22 21  1  0  0  0  0
 23 24  1  0  0  0  0
 23 12  1  0  0  0  0
 25 23  2  0  0  0  0
 26 27  1  0  0  0  0
 27 32  1  0  0  0  0
 28 29  1  0  0  0  0
 29 30  2  0  0  0  0
 31 34  1  0  0  0  0
 31 30  1  0  0  0  0
 32 31  2  0  0  0  0
 33 32  1  0  0  0  0
 33 28  2  0  0  0  0
 34 35  1  0  0  0  0
 35 36  2  0  0  0  0
 37 38  1  0  0  0  0
 37 36  1  0  0  0  0
 39 37  2  0  0  0  0
 40 39  1  0  0  0  0
 40 34  2  0  0  0  0
 41 28  1  0  0  0  0
 41 46  1  0  0  0  0
 42 41  1  0  0  0  0
 43 42  1  0  0  0  0
 44 42  2  0  0  0  0
 46 45  1  0  0  0  0
M  END
>  <minimizedAffinity>
-6.55740404

$$$$
