
 OpenBabel09122219113D

 46 51  0  0  0  0  0  0  0  0999 V2000
   11.9050    5.2340    3.9150 C   0  0  0  0  0  0  0  0  0  0  0  0
   12.5800    4.2310    3.2210 C   0  0  0  0  0  3  0  0  0  0  0  0
   12.0470    2.9380    3.1640 C   0  0  0  0  0  3  0  0  0  0  0  0
   10.8180    2.6410    3.7670 C   0  0  0  0  0  0  0  0  0  0  0  0
   10.1440    3.6660    4.4350 C   0  0  0  0  0  0  0  0  0  0  0  0
    8.9660    3.4350    5.0330 F   0  0  0  0  0  0  0  0  0  0  0  0
   10.6700    4.9540    4.4980 C   0  0  0  0  0  3  0  0  0  0  0  0
   10.3160    1.2670    3.7280 C   0  0  0  0  0  0  0  0  0  0  0  0
    9.8040    0.7260    2.6400 N   0  0  0  0  0  0  0  0  0  0  0  0
    9.4620   -0.5600    2.9710 C   0  0  0  0  0  0  0  0  0  0  0  0
    8.9040   -1.5680    2.1690 C   0  0  0  0  0  3  0  0  0  0  0  0
    8.6220   -2.8320    2.7230 C   0  0  0  0  0  0  0  0  0  0  0  0
    8.9110   -3.0510    4.0790 C   0  0  0  0  0  3  0  0  0  0  0  0
    9.4630   -2.0580    4.8970 C   0  0  0  0  0  3  0  0  0  0  0  0
    9.7310   -0.8120    4.3140 C   0  0  0  0  0  0  0  0  0  0  0  0
   10.2410    0.3800    4.7930 N   0  0  0  0  0  0  0  0  0  0  0  0
   10.5490    0.6870    6.1870 C   0  0  0  0  0  3  0  0  0  0  0  0
    9.3180    0.5860    7.1060 C   0  0  0  0  0  2  0  0  0  0  0  0
    9.6650    0.9850    8.5400 C   0  0  0  0  0  2  0  0  0  0  0  0
   10.8450    0.1820    9.0790 C   0  0  0  0  0  2  0  0  0  0  0  0
   12.0660    0.2890    8.1690 C   0  0  0  0  0  2  0  0  0  0  0  0
   11.7380   -0.1180    6.7340 C   0  0  0  0  0  2  0  0  0  0  0  0
    8.0170   -3.9320    1.8740 C   0  0  0  0  0  0  0  0  0  0  0  0
    8.5110   -4.1140    0.7170 O   0  0  0  0  0  0  0  0  0  0  0  0
    7.0560   -4.5910    2.3840 O   0  0  0  0  0  1  0  0  0  0  0  0
   12.3400    6.5220    4.0580 O   0  0  0  0  0  0  0  0  0  0  0  0
   13.0630    7.0950    2.9620 C   0  0  0  0  0  2  0  0  0  0  0  0
   11.5550   10.4440    1.8810 C   0  0  0  0  0  0  0  0  0  0  0  0
   10.7240   10.0390    0.8350 C   0  0  0  0  0  3  0  0  0  0  0  0
   10.6400    8.6930    0.4620 C   0  0  0  0  0  3  0  0  0  0  0  0
   11.3890    7.7040    1.1200 C   0  0  0  0  0  0  0  0  0  0  0  0
   12.2450    8.0970    2.1690 C   0  0  0  0  0  0  0  0  0  0  0  0
   12.3240    9.4630    2.5200 C   0  0  0  0  0  3  0  0  0  0  0  0
   11.2620    6.3120    0.6740 C   0  0  0  0  0  0  0  0  0  0  0  0
   12.3300    5.6670    0.0300 C   0  0  0  0  0  3  0  0  0  0  0  0
   12.2070    4.3450   -0.4060 C   0  0  0  0  0  3  0  0  0  0  0  0
   11.0120    3.6580   -0.2020 C   0  0  0  0  0  0  0  0  0  0  0  0
   10.8610    2.0310   -0.7390 Cl  0  0  0  0  0  0  0  0  0  0  0  0
    9.9400    4.2820    0.4310 C   0  0  0  0  0  3  0  0  0  0  0  0
   10.0640    5.6040    0.8630 C   0  0  0  0  0  3  0  0  0  0  0  0
   11.6690   11.8220    2.2440 N   0  0  0  0  0  0  0  0  0  0  0  0
   10.8110   12.4970    3.1190 C   0  0  0  0  0  0  0  0  0  0  0  0
   10.0680   11.6900    4.1600 C   0  0  0  0  0  1  0  0  0  0  0  0
   10.6970   13.7260    3.1160 O   0  0  0  0  0  0  0  0  0  0  0  0
   14.0070   12.6450    2.4000 C   0  0  0  0  0  1  0  0  0  0  0  0
   12.7100   12.6330    1.6010 C   0  0  0  0  0  2  0  0  0  0  0  0
  1 26  1  0  0  0  0
  1  7  1  0  0  0  0
  2  1  2  0  0  0  0
  3  2  1  0  0  0  0
  3  4  2  0  0  0  0
  4  5  1  0  0  0  0
  5  7  2  0  0  0  0
  5  6  1  0  0  0  0
  8  4  1  0  0  0  0
  8 16  1  0  0  0  0
  9 10  1  0  0  0  0
  9  8  2  0  0  0  0
 10 15  1  0  0  0  0
 11 12  1  0  0  0  0
 11 10  2  0  0  0  0
 12 13  2  0  0  0  0
 13 14  1  0  0  0  0
 15 16  1  0  0  0  0
 15 14  2  0  0  0  0
 16 17  1  0  0  0  0
 17 22  1  0  0  0  0
 17 18  1  0  0  0  0
 18 19  1  0  0  0  0
 19 20  1  0  0  0  0
 21 20  1  0  0  0  0
 22 21  1  0  0  0  0
 23 25  1  0  0  0  0
 23 12  1  0  0  0  0
 24 23  2  0  0  0  0
 27 26  1  0  0  0  0
 28 41  1  0  0  0  0
 28 33  1  0  0  0  0
 29 28  2  0  0  0  0
 30 29  1  0  0  0  0
 30 31  2  0  0  0  0
 31 32  1  0  0  0  0
 32 33  2  0  0  0  0
 32 27  1  0  0  0  0
 34 40  1  0  0  0  0
 34 31  1  0  0  0  0
 35 34  2  0  0  0  0
 36 37  2  0  0  0  0
 36 35  1  0  0  0  0
 37 39  1  0  0  0  0
 38 37  1  0  0  0  0
 39 40  2  0  0  0  0
 41 42  1  0  0  0  0
 42 43  1  0  0  0  0
 44 42  2  0  0  0  0
 46 41  1  0  0  0  0
 46 45  1  0  0  0  0
M  END
>  <minimizedAffinity>
-7.02877569

$$$$

 OpenBabel09122219113D

 46 51  0  0  0  0  0  0  0  0999 V2000
   11.2990    6.5930   -0.2200 C   0  0  0  0  0  0  0  0  0  0  0  0
    9.9740    6.1830   -0.0810 C   0  0  0  0  0  3  0  0  0  0  0  0
    9.6810    4.9490    0.5130 C   0  0  0  0  0  3  0  0  0  0  0  0
   10.7040    4.1290    1.0050 C   0  0  0  0  0  0  0  0  0  0  0  0
   12.0230    4.5690    0.8800 C   0  0  0  0  0  0  0  0  0  0  0  0
   13.0410    3.8200    1.3310 F   0  0  0  0  0  0  0  0  0  0  0  0
   12.3220    5.7940    0.2880 C   0  0  0  0  0  3  0  0  0  0  0  0
   10.3620    2.8260    1.5750 C   0  0  0  0  0  0  0  0  0  0  0  0
    9.8320    1.8520    0.8610 N   0  0  0  0  0  0  0  0  0  0  0  0
    9.6660    0.7920    1.7150 C   0  0  0  0  0  0  0  0  0  0  0  0
    9.1670   -0.4940    1.4520 C   0  0  0  0  0  3  0  0  0  0  0  0
    9.0750   -1.4390    2.4920 C   0  0  0  0  0  0  0  0  0  0  0  0
    9.4910   -1.0640    3.7790 C   0  0  0  0  0  3  0  0  0  0  0  0
    9.9880    0.2140    4.0630 C   0  0  0  0  0  3  0  0  0  0  0  0
   10.0650    1.1290    3.0060 C   0  0  0  0  0  0  0  0  0  0  0  0
   10.4710    2.4470    2.9060 N   0  0  0  0  0  0  0  0  0  0  0  0
   10.8490    3.3170    4.0170 C   0  0  0  0  0  3  0  0  0  0  0  0
    9.7260    3.4800    5.0570 C   0  0  0  0  0  2  0  0  0  0  0  0
   10.1330    4.4540    6.1620 C   0  0  0  0  0  2  0  0  0  0  0  0
   11.4550    4.0520    6.8100 C   0  0  0  0  0  2  0  0  0  0  0  0
   12.5680    3.8980    5.7760 C   0  0  0  0  0  2  0  0  0  0  0  0
   12.1810    2.9180    4.6710 C   0  0  0  0  0  2  0  0  0  0  0  0
    8.5360   -2.8300    2.2290 C   0  0  0  0  0  0  0  0  0  0  0  0
    8.7760   -3.3430    1.0920 O   0  0  0  0  0  0  0  0  0  0  0  0
    7.8790   -3.3820    3.1690 O   0  0  0  0  0  1  0  0  0  0  0  0
   11.7050    7.7610   -0.8040 O   0  0  0  0  0  0  0  0  0  0  0  0
   12.2670    8.7610    0.0540 C   0  0  0  0  0  2  0  0  0  0  0  0
    9.7340   11.6160   -0.2420 C   0  0  0  0  0  0  0  0  0  0  0  0
    9.4510   11.8650    1.1020 C   0  0  0  0  0  3  0  0  0  0  0  0
   10.0640   11.1210    2.1160 C   0  0  0  0  0  3  0  0  0  0  0  0
   10.9780   10.0970    1.8210 C   0  0  0  0  0  0  0  0  0  0  0  0
   11.2640    9.8220    0.4680 C   0  0  0  0  0  0  0  0  0  0  0  0
   10.6240   10.5760   -0.5400 C   0  0  0  0  0  3  0  0  0  0  0  0
   11.5790    9.3480    2.9310 C   0  0  0  0  0  0  0  0  0  0  0  0
   11.1260    8.0580    3.2500 C   0  0  0  0  0  3  0  0  0  0  0  0
   11.6900    7.3480    4.3150 C   0  0  0  0  0  3  0  0  0  0  0  0
   12.7080    7.9250    5.0690 C   0  0  0  0  0  0  0  0  0  0  0  0
   13.4010    7.0510    6.3790 Cl  0  0  0  0  0  0  0  0  0  0  0  0
   13.1670    9.2060    4.7710 C   0  0  0  0  0  3  0  0  0  0  0  0
   12.6010    9.9150    3.7080 C   0  0  0  0  0  3  0  0  0  0  0  0
    9.0860   12.3520   -1.2830 N   0  0  0  0  0  0  0  0  0  0  0  0
    7.7030   12.5020   -1.4210 C   0  0  0  0  0  0  0  0  0  0  0  0
    6.8400   12.3820   -0.1840 C   0  0  0  0  0  1  0  0  0  0  0  0
    7.1740   12.7990   -2.4960 O   0  0  0  0  0  0  0  0  0  0  0  0
   10.6580   14.1810   -1.8790 C   0  0  0  0  0  1  0  0  0  0  0  0
    9.9120   12.9370   -2.3460 C   0  0  0  0  0  2  0  0  0  0  0  0
  1  2  2  0  0  0  0
  1  7  1  0  0  0  0
  2  3  1  0  0  0  0
  3  4  2  0  0  0  0
  4  8  1  0  0  0  0
  5  4  1  0  0  0  0
  5  6  1  0  0  0  0
  7  5  2  0  0  0  0
  8 16  1  0  0  0  0
  9  8  2  0  0  0  0
  9 10  1  0  0  0  0
 10 15  1  0  0  0  0
 11 10  2  0  0  0  0
 11 12  1  0  0  0  0
 12 13  2  0  0  0  0
 13 14  1  0  0  0  0
 15 14  2  0  0  0  0
 16 15  1  0  0  0  0
 16 17  1  0  0  0  0
 17 22  1  0  0  0  0
 17 18  1  0  0  0  0
 18 19  1  0  0  0  0
 19 20  1  0  0  0  0
 21 20  1  0  0  0  0
 22 21  1  0  0  0  0
 23 12  1  0  0  0  0
 23 25  1  0  0  0  0
 24 23  2  0  0  0  0
 26  1  1  0  0  0  0
 26 27  1  0  0  0  0
 27 32  1  0  0  0  0
 28 29  1  0  0  0  0
 29 30  2  0  0  0  0
 31 30  1  0  0  0  0
 31 34  1  0  0  0  0
 32 31  2  0  0  0  0
 33 28  2  0  0  0  0
 33 32  1  0  0  0  0
 34 35  2  0  0  0  0
 34 40  1  0  0  0  0
 35 36  1  0  0  0  0
 36 37  2  0  0  0  0
 37 38  1  0  0  0  0
 39 37  1  0  0  0  0
 40 39  2  0  0  0  0
 41 28  1  0  0  0  0
 42 41  1  0  0  0  0
 42 43  1  0  0  0  0
 44 42  2  0  0  0  0
 46 45  1  0  0  0  0
 46 41  1  0  0  0  0
M  END
>  <minimizedAffinity>
-6.8905158

$$$$

 OpenBabel09122219113D

 46 51  0  0  0  0  0  0  0  0999 V2000
   11.7760    5.9050    3.8550 C   0  0  0  0  0  0  0  0  0  0  0  0
   10.5270    5.5580    4.3670 C   0  0  0  0  0  3  0  0  0  0  0  0
   10.1310    4.2150    4.4000 C   0  0  0  0  0  3  0  0  0  0  0  0
   10.9920    3.2030    3.9560 C   0  0  0  0  0  0  0  0  0  0  0  0
   12.2490    3.5680    3.4710 C   0  0  0  0  0  0  0  0  0  0  0  0
   13.1100    2.6390    3.0300 F   0  0  0  0  0  0  0  0  0  0  0  0
   12.6480    4.9030    3.4330 C   0  0  0  0  0  3  0  0  0  0  0  0
   10.5250    1.8160    3.9610 C   0  0  0  0  0  0  0  0  0  0  0  0
    9.9610    1.2490    2.9130 N   0  0  0  0  0  0  0  0  0  0  0  0
    9.6740   -0.0410    3.2770 C   0  0  0  0  0  0  0  0  0  0  0  0
    9.0950   -1.0720    2.5200 C   0  0  0  0  0  3  0  0  0  0  0  0
    8.8800   -2.3360    3.1040 C   0  0  0  0  0  0  0  0  0  0  0  0
    9.2560   -2.5330    4.4410 C   0  0  0  0  0  3  0  0  0  0  0  0
    9.8320   -1.5160    5.2140 C   0  0  0  0  0  3  0  0  0  0  0  0
   10.0310   -0.2710    4.6030 C   0  0  0  0  0  0  0  0  0  0  0  0
   10.5370    0.9400    5.0380 N   0  0  0  0  0  0  0  0  0  0  0  0
   10.9220    1.2700    6.4070 C   0  0  0  0  0  3  0  0  0  0  0  0
   12.3240    1.9010    6.4980 C   0  0  0  0  0  2  0  0  0  0  0  0
   12.7190    2.1630    7.9500 C   0  0  0  0  0  2  0  0  0  0  0  0
   11.6710    3.0000    8.6780 C   0  0  0  0  0  2  0  0  0  0  0  0
   10.2830    2.3690    8.5920 C   0  0  0  0  0  2  0  0  0  0  0  0
    9.8690    2.1110    7.1450 C   0  0  0  0  0  2  0  0  0  0  0  0
    8.2530   -3.4610    2.3050 C   0  0  0  0  0  0  0  0  0  0  0  0
    7.2800   -4.0820    2.8360 O   0  0  0  0  0  1  0  0  0  0  0  0
    8.7510   -3.7020    1.1590 O   0  0  0  0  0  0  0  0  0  0  0  0
   12.2570    7.1800    3.7500 O   0  0  0  0  0  0  0  0  0  0  0  0
   12.8090    7.5700    2.4870 C   0  0  0  0  0  2  0  0  0  0  0  0
   10.8570   10.5670    1.1200 C   0  0  0  0  0  0  0  0  0  0  0  0
   10.0320    9.9450    0.1820 C   0  0  0  0  0  3  0  0  0  0  0  0
   10.0930    8.5630   -0.0260 C   0  0  0  0  0  3  0  0  0  0  0  0
   10.9870    7.7540    0.6940 C   0  0  0  0  0  0  0  0  0  0  0  0
   11.8380    8.3670    1.6350 C   0  0  0  0  0  0  0  0  0  0  0  0
   11.7690    9.7660    1.8200 C   0  0  0  0  0  3  0  0  0  0  0  0
   11.0070    6.3120    0.4220 C   0  0  0  0  0  0  0  0  0  0  0  0
   12.1690    5.6940   -0.0680 C   0  0  0  0  0  3  0  0  0  0  0  0
   12.1870    4.3220   -0.3380 C   0  0  0  0  0  3  0  0  0  0  0  0
   11.0410    3.5600   -0.1240 C   0  0  0  0  0  0  0  0  0  0  0  0
   11.0630    1.8730   -0.4580 Cl  0  0  0  0  0  0  0  0  0  0  0  0
    9.8770    4.1560    0.3570 C   0  0  0  0  0  3  0  0  0  0  0  0
    9.8610    5.5270    0.6240 C   0  0  0  0  0  3  0  0  0  0  0  0
   10.8210   11.9840    1.3130 N   0  0  0  0  0  0  0  0  0  0  0  0
   11.8030   12.8800    0.8800 C   0  0  0  0  0  0  0  0  0  0  0  0
   12.6660   12.4850   -0.2980 C   0  0  0  0  0  1  0  0  0  0  0  0
   11.9390   14.0020    1.3760 O   0  0  0  0  0  0  0  0  0  0  0  0
    9.4030   11.7340    3.3370 C   0  0  0  0  0  1  0  0  0  0  0  0
    9.7170   12.5560    2.0930 C   0  0  0  0  0  2  0  0  0  0  0  0
  1  2  1  0  0  0  0
  2  3  2  0  0  0  0
  4  8  1  0  0  0  0
  4  3  1  0  0  0  0
  5  4  2  0  0  0  0
  6  5  1  0  0  0  0
  7  5  1  0  0  0  0
  7  1  2  0  0  0  0
  8 16  1  0  0  0  0
  9 10  1  0  0  0  0
  9  8  2  0  0  0  0
 10 15  1  0  0  0  0
 11 12  1  0  0  0  0
 11 10  2  0  0  0  0
 12 13  2  0  0  0  0
 13 14  1  0  0  0  0
 15 16  1  0  0  0  0
 15 14  2  0  0  0  0
 16 17  1  0  0  0  0
 17 18  1  0  0  0  0
 17 22  1  0  0  0  0
 18 19  1  0  0  0  0
 19 20  1  0  0  0  0
 21 20  1  0  0  0  0
 22 21  1  0  0  0  0
 23 24  1  0  0  0  0
 23 12  1  0  0  0  0
 25 23  2  0  0  0  0
 26  1  1  0  0  0  0
 27 26  1  0  0  0  0
 28 41  1  0  0  0  0
 28 33  1  0  0  0  0
 29 28  2  0  0  0  0
 30 29  1  0  0  0  0
 30 31  2  0  0  0  0
 31 32  1  0  0  0  0
 32 33  2  0  0  0  0
 32 27  1  0  0  0  0
 34 40  1  0  0  0  0
 34 31  1  0  0  0  0
 35 34  2  0  0  0  0
 36 37  2  0  0  0  0
 36 35  1  0  0  0  0
 37 39  1  0  0  0  0
 38 37  1  0  0  0  0
 39 40  2  0  0  0  0
 41 46  1  0  0  0  0
 42 41  1  0  0  0  0
 42 44  2  0  0  0  0
 43 42  1  0  0  0  0
 46 45  1  0  0  0  0
M  END
>  <minimizedAffinity>
-6.8566885

$$$$

 OpenBabel09122219113D

 46 51  0  0  0  0  0  0  0  0999 V2000
   10.1960    2.0140    2.8830 C   0  0  0  0  0  0  0  0  0  0  0  0
   10.4570    2.7550    1.7320 C   0  0  0  0  0  3  0  0  0  0  0  0
   10.5670    4.1490    1.8070 C   0  0  0  0  0  3  0  0  0  0  0  0
   10.4550    4.8130    3.0350 C   0  0  0  0  0  0  0  0  0  0  0  0
   10.2200    4.0500    4.1810 C   0  0  0  0  0  0  0  0  0  0  0  0
   10.0990    4.6370    5.3810 F   0  0  0  0  0  0  0  0  0  0  0  0
   10.1060    2.6640    4.1130 C   0  0  0  0  0  3  0  0  0  0  0  0
   10.5280    6.2740    3.0650 C   0  0  0  0  0  0  0  0  0  0  0  0
    9.6730    7.0450    2.4220 N   0  0  0  0  0  0  0  0  0  0  0  0
   10.0380    8.3380    2.6930 C   0  0  0  0  0  0  0  0  0  0  0  0
    9.4400    9.5380    2.2750 C   0  0  0  0  0  3  0  0  0  0  0  0
    9.9930   10.7730    2.6690 C   0  0  0  0  0  0  0  0  0  0  0  0
   11.1390   10.7690    3.4790 C   0  0  0  0  0  3  0  0  0  0  0  0
   11.7520    9.5830    3.9030 C   0  0  0  0  0  3  0  0  0  0  0  0
   11.1780    8.3740    3.4920 C   0  0  0  0  0  0  0  0  0  0  0  0
   11.5010    7.0440    3.6890 N   0  0  0  0  0  0  0  0  0  0  0  0
   12.7030    6.5380    4.3460 C   0  0  0  0  0  3  0  0  0  0  0  0
   13.9990    7.0830    3.7200 C   0  0  0  0  0  2  0  0  0  0  0  0
   15.2330    6.4740    4.3850 C   0  0  0  0  0  2  0  0  0  0  0  0
   15.2090    6.6640    5.8990 C   0  0  0  0  0  2  0  0  0  0  0  0
   13.9240    6.1170    6.5180 C   0  0  0  0  0  2  0  0  0  0  0  0
   12.6820    6.7250    5.8710 C   0  0  0  0  0  2  0  0  0  0  0  0
    9.3640   12.0790    2.2260 C   0  0  0  0  0  0  0  0  0  0  0  0
    8.1800   12.3190    2.6200 O   0  0  0  0  0  1  0  0  0  0  0  0
   10.0700   12.8380    1.4890 O   0  0  0  0  0  0  0  0  0  0  0  0
   10.0440    0.6560    2.9280 O   0  0  0  0  0  0  0  0  0  0  0  0
    8.9700    0.0920    2.1650 C   0  0  0  0  0  2  0  0  0  0  0  0
   10.5050   -1.8760   -0.7380 C   0  0  0  0  0  0  0  0  0  0  0  0
   10.1820   -3.1840   -0.3760 C   0  0  0  0  0  3  0  0  0  0  0  0
    9.4750   -3.4520    0.8010 C   0  0  0  0  0  3  0  0  0  0  0  0
    9.0700   -2.4190    1.6610 C   0  0  0  0  0  0  0  0  0  0  0  0
    9.4000   -1.0920    1.3180 C   0  0  0  0  0  0  0  0  0  0  0  0
   10.1250   -0.8450    0.1320 C   0  0  0  0  0  3  0  0  0  0  0  0
    8.3380   -2.7670    2.8850 C   0  0  0  0  0  0  0  0  0  0  0  0
    7.0940   -3.4130    2.8150 C   0  0  0  0  0  3  0  0  0  0  0  0
    6.3900   -3.7350    3.9790 C   0  0  0  0  0  3  0  0  0  0  0  0
    6.9270   -3.4090    5.2230 C   0  0  0  0  0  0  0  0  0  0  0  0
    6.0600   -3.8040    6.6550 Cl  0  0  0  0  0  0  0  0  0  0  0  0
    8.1570   -2.7630    5.3130 C   0  0  0  0  0  3  0  0  0  0  0  0
    8.8570   -2.4400    4.1480 C   0  0  0  0  0  3  0  0  0  0  0  0
   11.2560   -1.6000   -1.9240 N   0  0  0  0  0  0  0  0  0  0  0  0
   12.4710   -2.2010   -2.2640 C   0  0  0  0  0  0  0  0  0  0  0  0
   12.7810   -3.5680   -1.6960 C   0  0  0  0  0  1  0  0  0  0  0  0
   13.2620   -1.6880   -3.0610 O   0  0  0  0  0  0  0  0  0  0  0  0
   11.4340    0.7950   -2.5610 C   0  0  0  0  0  1  0  0  0  0  0  0
   10.7730   -0.5520   -2.8310 C   0  0  0  0  0  2  0  0  0  0  0  0
  1 26  1  0  0  0  0
  1  7  1  0  0  0  0
  2  3  1  0  0  0  0
  2  1  2  0  0  0  0
  3  4  2  0  0  0  0
  4  8  1  0  0  0  0
  4  5  1  0  0  0  0
  5  6  1  0  0  0  0
  7  5  2  0  0  0  0
  8 16  1  0  0  0  0
  9 10  1  0  0  0  0
  9  8  2  0  0  0  0
 10 15  1  0  0  0  0
 11 12  1  0  0  0  0
 11 10  2  0  0  0  0
 12 13  2  0  0  0  0
 13 14  1  0  0  0  0
 15 16  1  0  0  0  0
 15 14  2  0  0  0  0
 16 17  1  0  0  0  0
 17 22  1  0  0  0  0
 18 17  1  0  0  0  0
 18 19  1  0  0  0  0
 19 20  1  0  0  0  0
 20 21  1  0  0  0  0
 22 21  1  0  0  0  0
 23 24  1  0  0  0  0
 23 12  1  0  0  0  0
 25 23  2  0  0  0  0
 27 26  1  0  0  0  0
 28 29  2  0  0  0  0
 28 33  1  0  0  0  0
 29 30  1  0  0  0  0
 30 31  2  0  0  0  0
 31 34  1  0  0  0  0
 32 31  1  0  0  0  0
 32 27  1  0  0  0  0
 33 32  2  0  0  0  0
 34 40  1  0  0  0  0
 35 34  2  0  0  0  0
 35 36  1  0  0  0  0
 36 37  2  0  0  0  0
 37 39  1  0  0  0  0
 37 38  1  0  0  0  0
 40 39  2  0  0  0  0
 41 28  1  0  0  0  0
 42 41  1  0  0  0  0
 42 43  1  0  0  0  0
 44 42  2  0  0  0  0
 46 45  1  0  0  0  0
 46 41  1  0  0  0  0
M  END
>  <minimizedAffinity>
-6.8045373

$$$$

 OpenBabel09122219113D

 46 51  0  0  0  0  0  0  0  0999 V2000
   10.3310    3.1230    1.5190 C   0  0  0  0  0  0  0  0  0  0  0  0
    9.7530    3.5630    0.3300 C   0  0  0  0  0  3  0  0  0  0  0  0
    9.6850    4.9340    0.0500 C   0  0  0  0  0  3  0  0  0  0  0  0
   10.2240    5.8750    0.9360 C   0  0  0  0  0  0  0  0  0  0  0  0
   10.8210    5.4120    2.1110 C   0  0  0  0  0  0  0  0  0  0  0  0
   11.3480    6.2710    2.9950 F   0  0  0  0  0  0  0  0  0  0  0  0
   10.8900    4.0510    2.3970 C   0  0  0  0  0  3  0  0  0  0  0  0
   10.0900    7.3000    0.6320 C   0  0  0  0  0  0  0  0  0  0  0  0
    8.9810    7.9770    0.8580 N   0  0  0  0  0  0  0  0  0  0  0  0
    9.2300    9.2680    0.4700 C   0  0  0  0  0  0  0  0  0  0  0  0
    8.3910   10.3930    0.5280 C   0  0  0  0  0  3  0  0  0  0  0  0
    8.8530   11.6390    0.0620 C   0  0  0  0  0  0  0  0  0  0  0  0
   10.1560   11.7240   -0.4530 C   0  0  0  0  0  3  0  0  0  0  0  0
   11.0070   10.6130   -0.5220 C   0  0  0  0  0  3  0  0  0  0  0  0
   10.5160    9.3890   -0.0510 C   0  0  0  0  0  0  0  0  0  0  0  0
   11.0380    8.1110    0.0240 N   0  0  0  0  0  0  0  0  0  0  0  0
   12.3160    7.6700   -0.5290 C   0  0  0  0  0  3  0  0  0  0  0  0
   12.3320    7.6690   -2.0680 C   0  0  0  0  0  2  0  0  0  0  0  0
   13.6570    7.1320   -2.6070 C   0  0  0  0  0  2  0  0  0  0  0  0
   14.8490    7.8870   -2.0260 C   0  0  0  0  0  2  0  0  0  0  0  0
   14.8340    7.8810   -0.4990 C   0  0  0  0  0  2  0  0  0  0  0  0
   13.5200    8.4260    0.0550 C   0  0  0  0  0  2  0  0  0  0  0  0
    7.9620   12.8630    0.1120 C   0  0  0  0  0  0  0  0  0  0  0  0
    7.3290   13.0800    1.1930 O   0  0  0  0  0  1  0  0  0  0  0  0
    7.9110   13.5830   -0.9350 O   0  0  0  0  0  0  0  0  0  0  0  0
   10.4300    1.8160    1.9100 O   0  0  0  0  0  0  0  0  0  0  0  0
    9.3440    1.2750    2.6700 C   0  0  0  0  0  2  0  0  0  0  0  0
    9.3610   -2.5410    2.3620 C   0  0  0  0  0  0  0  0  0  0  0  0
    9.8020   -2.9110    3.6330 C   0  0  0  0  0  3  0  0  0  0  0  0
   10.1030   -1.9460    4.6000 C   0  0  0  0  0  3  0  0  0  0  0  0
    9.9770   -0.5740    4.3270 C   0  0  0  0  0  0  0  0  0  0  0  0
    9.5460   -0.1820    3.0440 C   0  0  0  0  0  0  0  0  0  0  0  0
    9.2610   -1.1730    2.0790 C   0  0  0  0  0  3  0  0  0  0  0  0
   10.3170    0.3880    5.3820 C   0  0  0  0  0  0  0  0  0  0  0  0
   11.2970    1.3700    5.1650 C   0  0  0  0  0  3  0  0  0  0  0  0
   11.6300    2.2800    6.1730 C   0  0  0  0  0  3  0  0  0  0  0  0
   10.9870    2.2110    7.4070 C   0  0  0  0  0  0  0  0  0  0  0  0
   11.3980    3.3300    8.6470 Cl  0  0  0  0  0  0  0  0  0  0  0  0
   10.0160    1.2410    7.6430 C   0  0  0  0  0  3  0  0  0  0  0  0
    9.6860    0.3310    6.6350 C   0  0  0  0  0  3  0  0  0  0  0  0
    9.0830   -3.5230    1.3600 N   0  0  0  0  0  0  0  0  0  0  0  0
    9.7850   -3.6680    0.1600 C   0  0  0  0  0  0  0  0  0  0  0  0
   11.2160   -3.1800    0.1000 C   0  0  0  0  0  1  0  0  0  0  0  0
    9.3050   -4.2420   -0.8220 O   0  0  0  0  0  0  0  0  0  0  0  0
    6.9370   -3.8540    2.5660 C   0  0  0  0  0  1  0  0  0  0  0  0
    7.9260   -4.4070    1.5470 C   0  0  0  0  0  2  0  0  0  0  0  0
  1 26  1  0  0  0  0
  1  7  1  0  0  0  0
  2  1  2  0  0  0  0
  3  2  1  0  0  0  0
  3  4  2  0  0  0  0
  4  5  1  0  0  0  0
  5  7  2  0  0  0  0
  5  6  1  0  0  0  0
  8  9  2  0  0  0  0
  8  4  1  0  0  0  0
 10 11  1  0  0  0  0
 10  9  1  0  0  0  0
 12 23  1  0  0  0  0
 12 11  2  0  0  0  0
 13 12  1  0  0  0  0
 14 13  2  0  0  0  0
 14 15  1  0  0  0  0
 15 16  1  0  0  0  0
 15 10  2  0  0  0  0
 16  8  1  0  0  0  0
 17 16  1  0  0  0  0
 17 22  1  0  0  0  0
 18 17  1  0  0  0  0
 19 18  1  0  0  0  0
 19 20  1  0  0  0  0
 20 21  1  0  0  0  0
 21 22  1  0  0  0  0
 23 24  1  0  0  0  0
 25 23  2  0  0  0  0
 26 27  1  0  0  0  0
 27 32  1  0  0  0  0
 28 29  1  0  0  0  0
 29 30  2  0  0  0  0
 31 30  1  0  0  0  0
 31 34  1  0  0  0  0
 32 31  2  0  0  0  0
 33 28  2  0  0  0  0
 33 32  1  0  0  0  0
 34 40  1  0  0  0  0
 35 34  2  0  0  0  0
 35 36  1  0  0  0  0
 36 37  2  0  0  0  0
 37 39  1  0  0  0  0
 37 38  1  0  0  0  0
 40 39  2  0  0  0  0
 41 46  1  0  0  0  0
 41 28  1  0  0  0  0
 42 41  1  0  0  0  0
 43 42  1  0  0  0  0
 44 42  2  0  0  0  0
 46 45  1  0  0  0  0
M  END
>  <minimizedAffinity>
-6.72793722

$$$$

 OpenBabel09122219113D

 46 51  0  0  0  0  0  0  0  0999 V2000
   11.3270    4.1930    3.3440 C   0  0  0  0  0  0  0  0  0  0  0  0
   10.3690    4.7660    4.1780 C   0  0  0  0  0  3  0  0  0  0  0  0
   10.4750    6.1140    4.5450 C   0  0  0  0  0  3  0  0  0  0  0  0
   11.5170    6.9110    4.0540 C   0  0  0  0  0  0  0  0  0  0  0  0
   12.4520    6.3250    3.1990 C   0  0  0  0  0  0  0  0  0  0  0  0
   13.4720    7.0420    2.7050 F   0  0  0  0  0  0  0  0  0  0  0  0
   12.3540    4.9850    2.8320 C   0  0  0  0  0  3  0  0  0  0  0  0
   11.6220    8.3010    4.4980 C   0  0  0  0  0  0  0  0  0  0  0  0
   11.9380    8.6330    5.7350 N   0  0  0  0  0  0  0  0  0  0  0  0
   11.9570   10.0040    5.7750 C   0  0  0  0  0  0  0  0  0  0  0  0
   12.2620   10.8590    6.8450 C   0  0  0  0  0  3  0  0  0  0  0  0
   12.2110   12.2550    6.6660 C   0  0  0  0  0  0  0  0  0  0  0  0
   11.8520   12.7590    5.4060 C   0  0  0  0  0  3  0  0  0  0  0  0
   11.5400   11.9230    4.3270 C   0  0  0  0  0  3  0  0  0  0  0  0
   11.6010   10.5390    4.5400 C   0  0  0  0  0  0  0  0  0  0  0  0
   11.3510    9.4360    3.7450 N   0  0  0  0  0  0  0  0  0  0  0  0
   10.8040    9.4550    2.3910 C   0  0  0  0  0  3  0  0  0  0  0  0
    9.2960    9.1480    2.3530 C   0  0  0  0  0  2  0  0  0  0  0  0
    8.7770    9.1050    0.9160 C   0  0  0  0  0  2  0  0  0  0  0  0
    9.1180   10.3830    0.1550 C   0  0  0  0  0  2  0  0  0  0  0  0
   10.6150   10.6810    0.1900 C   0  0  0  0  0  2  0  0  0  0  0  0
   11.1460   10.7400    1.6200 C   0  0  0  0  0  2  0  0  0  0  0  0
   12.5340   13.1950    7.8100 C   0  0  0  0  0  0  0  0  0  0  0  0
   13.5680   12.9380    8.5020 O   0  0  0  0  0  1  0  0  0  0  0  0
   11.7410   14.1730    7.9940 O   0  0  0  0  0  0  0  0  0  0  0  0
   11.3400    2.8870    2.9410 O   0  0  0  0  0  0  0  0  0  0  0  0
   10.0740    2.2660    2.6900 C   0  0  0  0  0  2  0  0  0  0  0  0
    9.7800   -0.8300    0.4560 C   0  0  0  0  0  0  0  0  0  0  0  0
   10.0990   -0.2920   -0.7920 C   0  0  0  0  0  3  0  0  0  0  0  0
   10.4070    1.0660   -0.9330 C   0  0  0  0  0  3  0  0  0  0  0  0
   10.4020    1.9350    0.1700 C   0  0  0  0  0  0  0  0  0  0  0  0
   10.0680    1.4120    1.4350 C   0  0  0  0  0  0  0  0  0  0  0  0
    9.7480    0.0420    1.5530 C   0  0  0  0  0  3  0  0  0  0  0  0
   10.7250    3.3500   -0.0470 C   0  0  0  0  0  0  0  0  0  0  0  0
   12.0350    3.7440   -0.3650 C   0  0  0  0  0  3  0  0  0  0  0  0
   12.3470    5.0920   -0.5610 C   0  0  0  0  0  3  0  0  0  0  0  0
   11.3510    6.0570   -0.4360 C   0  0  0  0  0  0  0  0  0  0  0  0
   11.7360    7.7170   -0.6760 Cl  0  0  0  0  0  0  0  0  0  0  0  0
   10.0470    5.6880   -0.1160 C   0  0  0  0  0  3  0  0  0  0  0  0
    9.7370    4.3400    0.0810 C   0  0  0  0  0  3  0  0  0  0  0  0
    9.4340   -2.2090    0.6000 N   0  0  0  0  0  0  0  0  0  0  0  0
    9.9020   -3.2450   -0.2130 C   0  0  0  0  0  0  0  0  0  0  0  0
   11.2250   -3.0590   -0.9230 C   0  0  0  0  0  1  0  0  0  0  0  0
    9.3130   -4.3250   -0.3130 O   0  0  0  0  0  0  0  0  0  0  0  0
    9.1090   -3.0770    2.9050 C   0  0  0  0  0  1  0  0  0  0  0  0
    8.4490   -2.5810    1.6240 C   0  0  0  0  0  2  0  0  0  0  0  0
  1  2  1  0  0  0  0
  2  3  2  0  0  0  0
  4  8  1  0  0  0  0
  4  3  1  0  0  0  0
  5  4  2  0  0  0  0
  6  5  1  0  0  0  0
  7  5  1  0  0  0  0
  7  1  2  0  0  0  0
  8  9  2  0  0  0  0
  9 10  1  0  0  0  0
 10 11  1  0  0  0  0
 12 11  2  0  0  0  0
 12 23  1  0  0  0  0
 13 12  1  0  0  0  0
 14 15  1  0  0  0  0
 14 13  2  0  0  0  0
 15 10  2  0  0  0  0
 16  8  1  0  0  0  0
 16 15  1  0  0  0  0
 17 16  1  0  0  0  0
 18 17  1  0  0  0  0
 19 18  1  0  0  0  0
 20 21  1  0  0  0  0
 20 19  1  0  0  0  0
 21 22  1  0  0  0  0
 22 17  1  0  0  0  0
 23 25  2  0  0  0  0
 23 24  1  0  0  0  0
 26  1  1  0  0  0  0
 27 26  1  0  0  0  0
 28 41  1  0  0  0  0
 28 33  1  0  0  0  0
 29 28  2  0  0  0  0
 30 29  1  0  0  0  0
 30 31  2  0  0  0  0
 31 32  1  0  0  0  0
 32 33  2  0  0  0  0
 32 27  1  0  0  0  0
 34 40  1  0  0  0  0
 34 31  1  0  0  0  0
 35 34  2  0  0  0  0
 36 37  2  0  0  0  0
 36 35  1  0  0  0  0
 37 39  1  0  0  0  0
 38 37  1  0  0  0  0
 39 40  2  0  0  0  0
 41 46  1  0  0  0  0
 42 41  1  0  0  0  0
 43 42  1  0  0  0  0
 44 42  2  0  0  0  0
 46 45  1  0  0  0  0
M  END
>  <minimizedAffinity>
-6.70664024

$$$$

 OpenBabel09122219113D

 46 51  0  0  0  0  0  0  0  0999 V2000
   11.4300    4.4720    3.5290 C   0  0  0  0  0  0  0  0  0  0  0  0
   10.4500    5.4410    3.3250 C   0  0  0  0  0  3  0  0  0  0  0  0
   10.6930    6.7710    3.6870 C   0  0  0  0  0  3  0  0  0  0  0  0
   11.9290    7.1540    4.2240 C   0  0  0  0  0  0  0  0  0  0  0  0
   12.9070    6.1730    4.3970 C   0  0  0  0  0  0  0  0  0  0  0  0
   14.1060    6.4850    4.9110 F   0  0  0  0  0  0  0  0  0  0  0  0
   12.6710    4.8470    4.0410 C   0  0  0  0  0  3  0  0  0  0  0  0
   12.1290    8.5440    4.6350 C   0  0  0  0  0  0  0  0  0  0  0  0
   11.5970    9.0470    5.7320 N   0  0  0  0  0  0  0  0  0  0  0  0
   12.0090   10.3530    5.7990 C   0  0  0  0  0  0  0  0  0  0  0  0
   11.7470   11.3200    6.7830 C   0  0  0  0  0  3  0  0  0  0  0  0
   12.2710   12.6200    6.6470 C   0  0  0  0  0  0  0  0  0  0  0  0
   13.0530   12.9160    5.5190 C   0  0  0  0  0  3  0  0  0  0  0  0
   13.3230   11.9670    4.5250 C   0  0  0  0  0  3  0  0  0  0  0  0
   12.7850   10.6840    4.6910 C   0  0  0  0  0  0  0  0  0  0  0  0
   12.8180    9.5260    3.9370 N   0  0  0  0  0  0  0  0  0  0  0  0
   13.3880    9.3850    2.5990 C   0  0  0  0  0  3  0  0  0  0  0  0
   13.2810   10.6760    1.7670 C   0  0  0  0  0  2  0  0  0  0  0  0
   13.8200   10.4680    0.3520 C   0  0  0  0  0  2  0  0  0  0  0  0
   15.2420    9.9160    0.3660 C   0  0  0  0  0  2  0  0  0  0  0  0
   15.3430    8.6320    1.1870 C   0  0  0  0  0  2  0  0  0  0  0  0
   14.8200    8.8270    2.6080 C   0  0  0  0  0  2  0  0  0  0  0  0
   11.9970   13.6790    7.6950 C   0  0  0  0  0  0  0  0  0  0  0  0
   12.6120   13.5770    8.8030 O   0  0  0  0  0  1  0  0  0  0  0  0
   11.1660   14.5930    7.3880 O   0  0  0  0  0  0  0  0  0  0  0  0
   11.2960    3.1430    3.2390 O   0  0  0  0  0  0  0  0  0  0  0  0
    9.9980    2.6870    2.8400 C   0  0  0  0  0  2  0  0  0  0  0  0
    9.8210   -0.4420    0.6400 C   0  0  0  0  0  0  0  0  0  0  0  0
   10.1310    0.0920   -0.6120 C   0  0  0  0  0  3  0  0  0  0  0  0
   10.3970    1.4570   -0.7670 C   0  0  0  0  0  3  0  0  0  0  0  0
   10.3550    2.3380    0.3260 C   0  0  0  0  0  0  0  0  0  0  0  0
   10.0290    1.8190    1.5950 C   0  0  0  0  0  0  0  0  0  0  0  0
    9.7520    0.4400    1.7260 C   0  0  0  0  0  3  0  0  0  0  0  0
   10.6350    3.7600    0.0950 C   0  0  0  0  0  0  0  0  0  0  0  0
   11.9570    4.2230    0.0050 C   0  0  0  0  0  3  0  0  0  0  0  0
   12.2250    5.5800   -0.2040 C   0  0  0  0  0  3  0  0  0  0  0  0
   11.1710    6.4830   -0.3200 C   0  0  0  0  0  0  0  0  0  0  0  0
   11.5020    8.1510   -0.5760 Cl  0  0  0  0  0  0  0  0  0  0  0  0
    9.8530    6.0430   -0.2280 C   0  0  0  0  0  3  0  0  0  0  0  0
    9.5870    4.6880   -0.0180 C   0  0  0  0  0  3  0  0  0  0  0  0
    9.5180   -1.8310    0.7980 N   0  0  0  0  0  0  0  0  0  0  0  0
    9.9140   -2.8450   -0.0790 C   0  0  0  0  0  0  0  0  0  0  0  0
   11.1490   -2.6210   -0.9240 C   0  0  0  0  0  1  0  0  0  0  0  0
    9.3380   -3.9350   -0.1330 O   0  0  0  0  0  0  0  0  0  0  0  0
    9.4610   -2.7150    3.1180 C   0  0  0  0  0  1  0  0  0  0  0  0
    8.6570   -2.2370    1.9150 C   0  0  0  0  0  2  0  0  0  0  0  0
  1  7  1  0  0  0  0
  2  1  2  0  0  0  0
  2  3  1  0  0  0  0
  3  4  2  0  0  0  0
  4  5  1  0  0  0  0
  4  8  1  0  0  0  0
  5  6  1  0  0  0  0
  7  5  2  0  0  0  0
  8  9  2  0  0  0  0
  9 10  1  0  0  0  0
 10 11  1  0  0  0  0
 12 11  2  0  0  0  0
 12 23  1  0  0  0  0
 13 12  1  0  0  0  0
 14 15  1  0  0  0  0
 14 13  2  0  0  0  0
 15 10  2  0  0  0  0
 16  8  1  0  0  0  0
 16 15  1  0  0  0  0
 17 22  1  0  0  0  0
 17 16  1  0  0  0  0
 18 17  1  0  0  0  0
 19 20  1  0  0  0  0
 19 18  1  0  0  0  0
 20 21  1  0  0  0  0
 21 22  1  0  0  0  0
 23 24  1  0  0  0  0
 25 23  2  0  0  0  0
 26  1  1  0  0  0  0
 27 26  1  0  0  0  0
 28 41  1  0  0  0  0
 28 33  1  0  0  0  0
 29 28  2  0  0  0  0
 30 29  1  0  0  0  0
 30 31  2  0  0  0  0
 31 32  1  0  0  0  0
 32 33  2  0  0  0  0
 32 27  1  0  0  0  0
 34 31  1  0  0  0  0
 35 34  1  0  0  0  0
 36 35  2  0  0  0  0
 37 39  2  0  0  0  0
 37 36  1  0  0  0  0
 38 37  1  0  0  0  0
 39 40  1  0  0  0  0
 40 34  2  0  0  0  0
 41 46  1  0  0  0  0
 42 41  1  0  0  0  0
 43 42  1  0  0  0  0
 44 42  2  0  0  0  0
 46 45  1  0  0  0  0
M  END
>  <minimizedAffinity>
-6.60297918

$$$$

 OpenBabel09122219113D

 46 51  0  0  0  0  0  0  0  0999 V2000
   13.4490    6.4480    3.3160 C   0  0  0  0  0  0  0  0  0  0  0  0
   12.1130    6.1850    3.0180 C   0  0  0  0  0  3  0  0  0  0  0  0
   11.3070    7.1900    2.4700 C   0  0  0  0  0  3  0  0  0  0  0  0
   11.8340    8.4550    2.1800 C   0  0  0  0  0  0  0  0  0  0  0  0
   13.1810    8.6910    2.4620 C   0  0  0  0  0  0  0  0  0  0  0  0
   13.7350    9.8860    2.2090 F   0  0  0  0  0  0  0  0  0  0  0  0
   13.9880    7.6970    3.0100 C   0  0  0  0  0  3  0  0  0  0  0  0
   10.9490    9.4940    1.6530 C   0  0  0  0  0  0  0  0  0  0  0  0
   10.5120    9.4950    0.4090 N   0  0  0  0  0  0  0  0  0  0  0  0
    9.7040   10.5950    0.2830 C   0  0  0  0  0  0  0  0  0  0  0  0
    8.9710   11.0390   -0.8300 C   0  0  0  0  0  3  0  0  0  0  0  0
    8.2030   12.2160   -0.7410 C   0  0  0  0  0  0  0  0  0  0  0  0
    8.1890   12.9200    0.4730 C   0  0  0  0  0  3  0  0  0  0  0  0
    8.9160   12.4960    1.5930 C   0  0  0  0  0  3  0  0  0  0  0  0
    9.6700   11.3220    1.4700 C   0  0  0  0  0  0  0  0  0  0  0  0
   10.5040   10.6250    2.3240 N   0  0  0  0  0  0  0  0  0  0  0  0
   10.9230   11.0520    3.6560 C   0  0  0  0  0  3  0  0  0  0  0  0
   11.9270   12.2180    3.6200 C   0  0  0  0  0  2  0  0  0  0  0  0
   12.3980   12.5860    5.0270 C   0  0  0  0  0  2  0  0  0  0  0  0
   11.2230   12.8740    5.9570 C   0  0  0  0  0  2  0  0  0  0  0  0
   10.2320   11.7120    5.9950 C   0  0  0  0  0  2  0  0  0  0  0  0
    9.7440   11.3410    4.5970 C   0  0  0  0  0  2  0  0  0  0  0  0
    7.4080   12.7130   -1.9310 C   0  0  0  0  0  0  0  0  0  0  0  0
    6.7340   13.7800   -1.7780 O   0  0  0  0  0  1  0  0  0  0  0  0
    7.4730   12.0230   -2.9980 O   0  0  0  0  0  0  0  0  0  0  0  0
   14.3210    5.5560    3.8750 O   0  0  0  0  0  0  0  0  0  0  0  0
   14.3750    5.5000    5.3050 C   0  0  0  0  0  2  0  0  0  0  0  0
   11.5410    3.0520    6.0990 C   0  0  0  0  0  0  0  0  0  0  0  0
   10.7450    3.8270    6.9450 C   0  0  0  0  0  3  0  0  0  0  0  0
   11.1080    5.1380    7.2730 C   0  0  0  0  0  3  0  0  0  0  0  0
   12.2840    5.7180    6.7710 C   0  0  0  0  0  0  0  0  0  0  0  0
   13.1070    4.9450    5.9270 C   0  0  0  0  0  0  0  0  0  0  0  0
   12.7280    3.6200    5.6190 C   0  0  0  0  0  3  0  0  0  0  0  0
   12.6120    7.0940    7.1600 C   0  0  0  0  0  0  0  0  0  0  0  0
   13.2100    7.3620    8.4020 C   0  0  0  0  0  3  0  0  0  0  0  0
   13.5130    8.6740    8.7800 C   0  0  0  0  0  3  0  0  0  0  0  0
   13.2160    9.7270    7.9180 C   0  0  0  0  0  0  0  0  0  0  0  0
   13.5880   11.3410    8.3840 Cl  0  0  0  0  0  0  0  0  0  0  0  0
   12.6180    9.4830    6.6850 C   0  0  0  0  0  3  0  0  0  0  0  0
   12.3140    8.1710    6.3100 C   0  0  0  0  0  3  0  0  0  0  0  0
   11.1900    1.7010    5.7870 N   0  0  0  0  0  0  0  0  0  0  0  0
   10.4150    1.3040    4.6940 C   0  0  0  0  0  0  0  0  0  0  0  0
   10.3760    2.2010    3.4760 C   0  0  0  0  0  1  0  0  0  0  0  0
    9.8230    0.2210    4.6620 O   0  0  0  0  0  0  0  0  0  0  0  0
   10.6270    0.4860    7.8790 C   0  0  0  0  0  1  0  0  0  0  0  0
   11.5980    0.6390    6.7150 C   0  0  0  0  0  2  0  0  0  0  0  0
  1 26  1  0  0  0  0
  2  1  1  0  0  0  0
  3  2  2  0  0  0  0
  4  5  2  0  0  0  0
  4  3  1  0  0  0  0
  5  7  1  0  0  0  0
  6  5  1  0  0  0  0
  7  1  2  0  0  0  0
  8  4  1  0  0  0  0
  8 16  1  0  0  0  0
  9  8  2  0  0  0  0
 10  9  1  0  0  0  0
 10 15  1  0  0  0  0
 11 12  1  0  0  0  0
 11 10  2  0  0  0  0
 12 13  2  0  0  0  0
 13 14  1  0  0  0  0
 15 14  2  0  0  0  0
 15 16  1  0  0  0  0
 16 17  1  0  0  0  0
 17 22  1  0  0  0  0
 18 17  1  0  0  0  0
 18 19  1  0  0  0  0
 19 20  1  0  0  0  0
 20 21  1  0  0  0  0
 22 21  1  0  0  0  0
 23 24  1  0  0  0  0
 23 12  1  0  0  0  0
 25 23  2  0  0  0  0
 26 27  1  0  0  0  0
 27 32  1  0  0  0  0
 28 29  1  0  0  0  0
 29 30  2  0  0  0  0
 31 34  1  0  0  0  0
 31 30  1  0  0  0  0
 32 31  2  0  0  0  0
 33 32  1  0  0  0  0
 33 28  2  0  0  0  0
 34 35  1  0  0  0  0
 35 36  2  0  0  0  0
 37 38  1  0  0  0  0
 37 36  1  0  0  0  0
 39 37  2  0  0  0  0
 40 39  1  0  0  0  0
 40 34  2  0  0  0  0
 41 28  1  0  0  0  0
 41 46  1  0  0  0  0
 42 41  1  0  0  0  0
 43 42  1  0  0  0  0
 44 42  2  0  0  0  0
 46 45  1  0  0  0  0
M  END
>  <minimizedAffinity>
-6.55740404

$$$$

 OpenBabel09122219113D

 46 51  0  0  0  0  0  0  0  0999 V2000
   10.6620    6.2070   -0.2880 C   0  0  0  0  0  0  0  0  0  0  0  0
    9.4080    5.6020   -0.3470 C   0  0  0  0  0  3  0  0  0  0  0  0
    9.2280    4.3120    0.1690 C   0  0  0  0  0  3  0  0  0  0  0  0
   10.2870    3.6290    0.7800 C   0  0  0  0  0  0  0  0  0  0  0  0
   11.5290    4.2640    0.8520 C   0  0  0  0  0  0  0  0  0  0  0  0
   12.5780    3.6520    1.4220 F   0  0  0  0  0  0  0  0  0  0  0  0
   11.7160    5.5450    0.3390 C   0  0  0  0  0  3  0  0  0  0  0  0
   10.0720    2.2650    1.2640 C   0  0  0  0  0  0  0  0  0  0  0  0
    9.8630    1.9840    2.5350 N   0  0  0  0  0  0  0  0  0  0  0  0
    9.6890    0.6260    2.6080 C   0  0  0  0  0  0  0  0  0  0  0  0
    9.4110   -0.1780    3.7250 C   0  0  0  0  0  3  0  0  0  0  0  0
    9.2770   -1.5720    3.5720 C   0  0  0  0  0  0  0  0  0  0  0  0
    9.4270   -2.1250    2.2910 C   0  0  0  0  0  3  0  0  0  0  0  0
    9.7090   -1.3410    1.1650 C   0  0  0  0  0  3  0  0  0  0  0  0
    9.8360    0.0410    1.3520 C   0  0  0  0  0  0  0  0  0  0  0  0
   10.1200    1.1000    0.5110 N   0  0  0  0  0  0  0  0  0  0  0  0
   10.5010    1.0040   -0.8960 C   0  0  0  0  0  3  0  0  0  0  0  0
   11.9390    1.4890   -1.1590 C   0  0  0  0  0  2  0  0  0  0  0  0
   12.2740    1.4420   -2.6490 C   0  0  0  0  0  2  0  0  0  0  0  0
   12.0230    0.0580   -3.2400 C   0  0  0  0  0  2  0  0  0  0  0  0
   10.5950   -0.4170   -2.9830 C   0  0  0  0  0  2  0  0  0  0  0  0
   10.2490   -0.3880   -1.4960 C   0  0  0  0  0  2  0  0  0  0  0  0
    8.9810   -2.4560    4.7660 C   0  0  0  0  0  0  0  0  0  0  0  0
    7.8660   -3.0670    4.7760 O   0  0  0  0  0  0  0  0  0  0  0  0
    9.8710   -2.5210    5.6720 O   0  0  0  0  0  1  0  0  0  0  0  0
   10.9610    7.4470   -0.7800 O   0  0  0  0  0  0  0  0  0  0  0  0
   11.7880    8.2910    0.0300 C   0  0  0  0  0  2  0  0  0  0  0  0
    9.9330   11.6240    0.3530 C   0  0  0  0  0  0  0  0  0  0  0  0
    9.6780   11.6580    1.7250 C   0  0  0  0  0  3  0  0  0  0  0  0
   10.0920   10.6150    2.5600 C   0  0  0  0  0  3  0  0  0  0  0  0
   10.7730    9.4970    2.0500 C   0  0  0  0  0  0  0  0  0  0  0  0
   11.0260    9.4390    0.6650 C   0  0  0  0  0  0  0  0  0  0  0  0
   10.5880   10.4970   -0.1620 C   0  0  0  0  0  3  0  0  0  0  0  0
   11.1720    8.4320    2.9780 C   0  0  0  0  0  0  0  0  0  0  0  0
   10.3950    7.2710    3.1110 C   0  0  0  0  0  3  0  0  0  0  0  0
   10.7670    6.2610    4.0030 C   0  0  0  0  0  3  0  0  0  0  0  0
   11.9200    6.4080    4.7710 C   0  0  0  0  0  0  0  0  0  0  0  0
   12.3780    5.1660    5.8690 Cl  0  0  0  0  0  0  0  0  0  0  0  0
   12.7010    7.5560    4.6580 C   0  0  0  0  0  3  0  0  0  0  0  0
   12.3260    8.5650    3.7680 C   0  0  0  0  0  3  0  0  0  0  0  0
    9.4840   12.6730   -0.5090 N   0  0  0  0  0  0  0  0  0  0  0  0
    8.1610   12.8650   -0.9190 C   0  0  0  0  0  0  0  0  0  0  0  0
    7.0510   12.3330   -0.0400 C   0  0  0  0  0  1  0  0  0  0  0  0
    7.8700   13.5120   -1.9290 O   0  0  0  0  0  0  0  0  0  0  0  0
   11.0200   13.0800   -2.4190 C   0  0  0  0  0  1  0  0  0  0  0  0
   10.4810   13.5830   -1.0850 C   0  0  0  0  0  2  0  0  0  0  0  0
  1  7  1  0  0  0  0
  2  1  2  0  0  0  0
  2  3  1  0  0  0  0
  3  4  2  0  0  0  0
  4  5  1  0  0  0  0
  4  8  1  0  0  0  0
  5  6  1  0  0  0  0
  7  5  2  0  0  0  0
  8  9  2  0  0  0  0
  9 10  1  0  0  0  0
 10 11  1  0  0  0  0
 12 11  2  0  0  0  0
 12 23  1  0  0  0  0
 13 12  1  0  0  0  0
 14 15  1  0  0  0  0
 14 13  2  0  0  0  0
 15 10  2  0  0  0  0
 16  8  1  0  0  0  0
 16 15  1  0  0  0  0
 17 16  1  0  0  0  0
 18 17  1  0  0  0  0
 19 18  1  0  0  0  0
 20 21  1  0  0  0  0
 20 19  1  0  0  0  0
 21 22  1  0  0  0  0
 22 17  1  0  0  0  0
 23 24  2  0  0  0  0
 23 25  1  0  0  0  0
 26  1  1  0  0  0  0
 26 27  1  0  0  0  0
 27 32  1  0  0  0  0
 28 29  1  0  0  0  0
 29 30  2  0  0  0  0
 31 30  1  0  0  0  0
 31 34  1  0  0  0  0
 32 31  2  0  0  0  0
 33 28  2  0  0  0  0
 33 32  1  0  0  0  0
 34 35  2  0  0  0  0
 34 40  1  0  0  0  0
 35 36  1  0  0  0  0
 36 37  2  0  0  0  0
 37 38  1  0  0  0  0
 39 37  1  0  0  0  0
 40 39  2  0  0  0  0
 41 28  1  0  0  0  0
 42 41  1  0  0  0  0
 42 43  1  0  0  0  0
 44 42  2  0  0  0  0
 45 46  1  0  0  0  0
 46 41  1  0  0  0  0
M  END
>  <minimizedAffinity>
-6.51224756

$$$$

 OpenBabel09122219113D

 46 51  0  0  0  0  0  0  0  0999 V2000
   10.7560    6.3920    1.3360 C   0  0  0  0  0  0  0  0  0  0  0  0
   11.4360    5.5850    2.2460 C   0  0  0  0  0  3  0  0  0  0  0  0
   11.1750    4.2100    2.2950 C   0  0  0  0  0  3  0  0  0  0  0  0
   10.2610    3.6210    1.4120 C   0  0  0  0  0  0  0  0  0  0  0  0
    9.6090    4.4430    0.4900 C   0  0  0  0  0  0  0  0  0  0  0  0
    8.7200    3.9310   -0.3750 F   0  0  0  0  0  0  0  0  0  0  0  0
    9.8620    5.8120    0.4380 C   0  0  0  0  0  3  0  0  0  0  0  0
    9.9790    2.1900    1.5250 C   0  0  0  0  0  0  0  0  0  0  0  0
    9.5980    1.6250    2.6540 N   0  0  0  0  0  0  0  0  0  0  0  0
    9.4130    0.2950    2.3790 C   0  0  0  0  0  0  0  0  0  0  0  0
    8.9830   -0.7390    3.2260 C   0  0  0  0  0  3  0  0  0  0  0  0
    8.8690   -2.0520    2.7310 C   0  0  0  0  0  0  0  0  0  0  0  0
    9.1900   -2.2940    1.3860 C   0  0  0  0  0  3  0  0  0  0  0  0
    9.6240   -1.2780    0.5260 C   0  0  0  0  0  3  0  0  0  0  0  0
    9.7280    0.0170    1.0510 C   0  0  0  0  0  0  0  0  0  0  0  0
   10.1260    1.2340    0.5300 N   0  0  0  0  0  0  0  0  0  0  0  0
   10.6950    1.4570   -0.7960 C   0  0  0  0  0  3  0  0  0  0  0  0
   12.0660    2.1560   -0.7470 C   0  0  0  0  0  2  0  0  0  0  0  0
   12.5940    2.4390   -2.1530 C   0  0  0  0  0  2  0  0  0  0  0  0
   12.6300    1.1740   -3.0060 C   0  0  0  0  0  2  0  0  0  0  0  0
   11.2670    0.4870   -3.0590 C   0  0  0  0  0  2  0  0  0  0  0  0
   10.7320    0.1870   -1.6600 C   0  0  0  0  0  2  0  0  0  0  0  0
    8.4100   -3.1820    3.6300 C   0  0  0  0  0  0  0  0  0  0  0  0
    9.1010   -3.4160    4.6710 O   0  0  0  0  0  1  0  0  0  0  0  0
    7.3660   -3.8150    3.2740 O   0  0  0  0  0  0  0  0  0  0  0  0
   10.9100    7.7450    1.2150 O   0  0  0  0  0  0  0  0  0  0  0  0
    9.9370    8.5740    1.8600 C   0  0  0  0  0  2  0  0  0  0  0  0
    9.6880   11.6410   -0.4190 C   0  0  0  0  0  0  0  0  0  0  0  0
   10.1420   12.6480    0.4340 C   0  0  0  0  0  3  0  0  0  0  0  0
   10.5290   12.3580    1.7480 C   0  0  0  0  0  3  0  0  0  0  0  0
   10.4690   11.0500    2.2550 C   0  0  0  0  0  0  0  0  0  0  0  0
    9.9990   10.0230    1.4120 C   0  0  0  0  0  0  0  0  0  0  0  0
    9.6020   10.3400    0.0940 C   0  0  0  0  0  3  0  0  0  0  0  0
   10.8800   10.8140    3.6440 C   0  0  0  0  0  0  0  0  0  0  0  0
   10.3350   11.5760    4.6900 C   0  0  0  0  0  3  0  0  0  0  0  0
   10.7350   11.3610    6.0130 C   0  0  0  0  0  3  0  0  0  0  0  0
   11.6860   10.3830    6.2970 C   0  0  0  0  0  0  0  0  0  0  0  0
   12.1770   10.1190    7.9240 Cl  0  0  0  0  0  0  0  0  0  0  0  0
   12.2420    9.6220    5.2730 C   0  0  0  0  0  3  0  0  0  0  0  0
   11.8430    9.8400    3.9520 C   0  0  0  0  0  3  0  0  0  0  0  0
    9.2620   11.9370   -1.7520 N   0  0  0  0  0  0  0  0  0  0  0  0
    7.9460   12.2170   -2.1310 C   0  0  0  0  0  0  0  0  0  0  0  0
    7.0010   12.7770   -1.0910 C   0  0  0  0  0  1  0  0  0  0  0  0
    7.5530   12.0910   -3.2940 O   0  0  0  0  0  0  0  0  0  0  0  0
   10.8290   13.2390   -3.1730 C   0  0  0  0  0  1  0  0  0  0  0  0
   10.2510   11.8710   -2.8340 C   0  0  0  0  0  2  0  0  0  0  0  0
  1  2  1  0  0  0  0
  2  3  2  0  0  0  0
  4  8  1  0  0  0  0
  4  3  1  0  0  0  0
  5  4  2  0  0  0  0
  6  5  1  0  0  0  0
  7  5  1  0  0  0  0
  7  1  2  0  0  0  0
  8  9  2  0  0  0  0
 10  9  1  0  0  0  0
 10 11  1  0  0  0  0
 12 11  2  0  0  0  0
 12 23  1  0  0  0  0
 13 12  1  0  0  0  0
 14 15  1  0  0  0  0
 14 13  2  0  0  0  0
 15 10  2  0  0  0  0
 16 15  1  0  0  0  0
 16  8  1  0  0  0  0
 17 18  1  0  0  0  0
 17 16  1  0  0  0  0
 19 18  1  0  0  0  0
 20 19  1  0  0  0  0
 21 20  1  0  0  0  0
 21 22  1  0  0  0  0
 22 17  1  0  0  0  0
 23 24  1  0  0  0  0
 25 23  2  0  0  0  0
 26  1  1  0  0  0  0
 26 27  1  0  0  0  0
 28 33  2  0  0  0  0
 28 29  1  0  0  0  0
 29 30  2  0  0  0  0
 30 31  1  0  0  0  0
 31 34  1  0  0  0  0
 32 27  1  0  0  0  0
 32 31  2  0  0  0  0
 33 32  1  0  0  0  0
 34 40  2  0  0  0  0
 34 35  1  0  0  0  0
 35 36  2  0  0  0  0
 36 37  1  0  0  0  0
 37 38  1  0  0  0  0
 39 37  2  0  0  0  0
 40 39  1  0  0  0  0
 41 28  1  0  0  0  0
 42 41  1  0  0  0  0
 42 43  1  0  0  0  0
 44 42  2  0  0  0  0
 45 46  1  0  0  0  0
 46 41  1  0  0  0  0
M  END
>  <minimizedAffinity>
-6.51017952

$$$$
