
 OpenBabel09122222393D

 46 51  0  0  0  0  0  0  0  0999 V2000
   10.6620    6.2070   -0.2880 C   0  0  0  0  0  0  0  0  0  0  0  0
    9.4080    5.6020   -0.3470 C   0  0  0  0  0  3  0  0  0  0  0  0
    9.2280    4.3120    0.1690 C   0  0  0  0  0  3  0  0  0  0  0  0
   10.2870    3.6290    0.7800 C   0  0  0  0  0  0  0  0  0  0  0  0
   11.5290    4.2640    0.8520 C   0  0  0  0  0  0  0  0  0  0  0  0
   12.5780    3.6520    1.4220 F   0  0  0  0  0  0  0  0  0  0  0  0
   11.7160    5.5450    0.3390 C   0  0  0  0  0  3  0  0  0  0  0  0
   10.0720    2.2650    1.2640 C   0  0  0  0  0  0  0  0  0  0  0  0
    9.8630    1.9840    2.5350 N   0  0  0  0  0  0  0  0  0  0  0  0
    9.6890    0.6260    2.6080 C   0  0  0  0  0  0  0  0  0  0  0  0
    9.4110   -0.1780    3.7250 C   0  0  0  0  0  3  0  0  0  0  0  0
    9.2770   -1.5720    3.5720 C   0  0  0  0  0  0  0  0  0  0  0  0
    9.4270   -2.1250    2.2910 C   0  0  0  0  0  3  0  0  0  0  0  0
    9.7090   -1.3410    1.1650 C   0  0  0  0  0  3  0  0  0  0  0  0
    9.8360    0.0410    1.3520 C   0  0  0  0  0  0  0  0  0  0  0  0
   10.1200    1.1000    0.5110 N   0  0  0  0  0  0  0  0  0  0  0  0
   10.5010    1.0040   -0.8960 C   0  0  0  0  0  3  0  0  0  0  0  0
   11.9390    1.4890   -1.1590 C   0  0  0  0  0  2  0  0  0  0  0  0
   12.2740    1.4420   -2.6490 C   0  0  0  0  0  2  0  0  0  0  0  0
   12.0230    0.0580   -3.2400 C   0  0  0  0  0  2  0  0  0  0  0  0
   10.5950   -0.4170   -2.9830 C   0  0  0  0  0  2  0  0  0  0  0  0
   10.2490   -0.3880   -1.4960 C   0  0  0  0  0  2  0  0  0  0  0  0
    8.9810   -2.4560    4.7660 C   0  0  0  0  0  0  0  0  0  0  0  0
    7.8660   -3.0670    4.7760 O   0  0  0  0  0  0  0  0  0  0  0  0
    9.8710   -2.5210    5.6720 O   0  0  0  0  0  1  0  0  0  0  0  0
   10.9610    7.4470   -0.7800 O   0  0  0  0  0  0  0  0  0  0  0  0
   11.7880    8.2910    0.0300 C   0  0  0  0  0  2  0  0  0  0  0  0
    9.9330   11.6240    0.3530 C   0  0  0  0  0  0  0  0  0  0  0  0
    9.6780   11.6580    1.7250 C   0  0  0  0  0  3  0  0  0  0  0  0
   10.0920   10.6150    2.5600 C   0  0  0  0  0  3  0  0  0  0  0  0
   10.7730    9.4970    2.0500 C   0  0  0  0  0  0  0  0  0  0  0  0
   11.0260    9.4390    0.6650 C   0  0  0  0  0  0  0  0  0  0  0  0
   10.5880   10.4970   -0.1620 C   0  0  0  0  0  3  0  0  0  0  0  0
   11.1720    8.4320    2.9780 C   0  0  0  0  0  0  0  0  0  0  0  0
   10.3950    7.2710    3.1110 C   0  0  0  0  0  3  0  0  0  0  0  0
   10.7670    6.2610    4.0030 C   0  0  0  0  0  3  0  0  0  0  0  0
   11.9200    6.4080    4.7710 C   0  0  0  0  0  0  0  0  0  0  0  0
   12.3780    5.1660    5.8690 Cl  0  0  0  0  0  0  0  0  0  0  0  0
   12.7010    7.5560    4.6580 C   0  0  0  0  0  3  0  0  0  0  0  0
   12.3260    8.5650    3.7680 C   0  0  0  0  0  3  0  0  0  0  0  0
    9.4840   12.6730   -0.5090 N   0  0  0  0  0  0  0  0  0  0  0  0
    8.1610   12.8650   -0.9190 C   0  0  0  0  0  0  0  0  0  0  0  0
    7.0510   12.3330   -0.0400 C   0  0  0  0  0  1  0  0  0  0  0  0
    7.8700   13.5120   -1.9290 O   0  0  0  0  0  0  0  0  0  0  0  0
   11.0200   13.0800   -2.4190 C   0  0  0  0  0  1  0  0  0  0  0  0
   10.4810   13.5830   -1.0850 C   0  0  0  0  0  2  0  0  0  0  0  0
  1  7  1  0  0  0  0
  2  1  2  0  0  0  0
  2  3  1  0  0  0  0
  3  4  2  0  0  0  0
  4  5  1  0  0  0  0
  4  8  1  0  0  0  0
  5  6  1  0  0  0  0
  7  5  2  0  0  0  0
  8  9  2  0  0  0  0
  9 10  1  0  0  0  0
 10 11  1  0  0  0  0
 12 11  2  0  0  0  0
 12 23  1  0  0  0  0
 13 12  1  0  0  0  0
 14 15  1  0  0  0  0
 14 13  2  0  0  0  0
 15 10  2  0  0  0  0
 16  8  1  0  0  0  0
 16 15  1  0  0  0  0
 17 16  1  0  0  0  0
 18 17  1  0  0  0  0
 19 18  1  0  0  0  0
 20 21  1  0  0  0  0
 20 19  1  0  0  0  0
 21 22  1  0  0  0  0
 22 17  1  0  0  0  0
 23 24  2  0  0  0  0
 23 25  1  0  0  0  0
 26  1  1  0  0  0  0
 26 27  1  0  0  0  0
 27 32  1  0  0  0  0
 28 29  1  0  0  0  0
 29 30  2  0  0  0  0
 31 30  1  0  0  0  0
 31 34  1  0  0  0  0
 32 31  2  0  0  0  0
 33 28  2  0  0  0  0
 33 32  1  0  0  0  0
 34 35  2  0  0  0  0
 34 40  1  0  0  0  0
 35 36  1  0  0  0  0
 36 37  2  0  0  0  0
 37 38  1  0  0  0  0
 39 37  1  0  0  0  0
 40 39  2  0  0  0  0
 41 28  1  0  0  0  0
 42 41  1  0  0  0  0
 42 43  1  0  0  0  0
 44 42  2  0  0  0  0
 45 46  1  0  0  0  0
 46 41  1  0  0  0  0
M  END
>  <minimizedAffinity>
-6.51224756

$$$$
