
 OpenBabel09122222393D

 46 51  0  0  0  0  0  0  0  0999 V2000
   11.3270    4.1930    3.3440 C   0  0  0  0  0  0  0  0  0  0  0  0
   10.3690    4.7660    4.1780 C   0  0  0  0  0  3  0  0  0  0  0  0
   10.4750    6.1140    4.5450 C   0  0  0  0  0  3  0  0  0  0  0  0
   11.5170    6.9110    4.0540 C   0  0  0  0  0  0  0  0  0  0  0  0
   12.4520    6.3250    3.1990 C   0  0  0  0  0  0  0  0  0  0  0  0
   13.4720    7.0420    2.7050 F   0  0  0  0  0  0  0  0  0  0  0  0
   12.3540    4.9850    2.8320 C   0  0  0  0  0  3  0  0  0  0  0  0
   11.6220    8.3010    4.4980 C   0  0  0  0  0  0  0  0  0  0  0  0
   11.9380    8.6330    5.7350 N   0  0  0  0  0  0  0  0  0  0  0  0
   11.9570   10.0040    5.7750 C   0  0  0  0  0  0  0  0  0  0  0  0
   12.2620   10.8590    6.8450 C   0  0  0  0  0  3  0  0  0  0  0  0
   12.2110   12.2550    6.6660 C   0  0  0  0  0  0  0  0  0  0  0  0
   11.8520   12.7590    5.4060 C   0  0  0  0  0  3  0  0  0  0  0  0
   11.5400   11.9230    4.3270 C   0  0  0  0  0  3  0  0  0  0  0  0
   11.6010   10.5390    4.5400 C   0  0  0  0  0  0  0  0  0  0  0  0
   11.3510    9.4360    3.7450 N   0  0  0  0  0  0  0  0  0  0  0  0
   10.8040    9.4550    2.3910 C   0  0  0  0  0  3  0  0  0  0  0  0
    9.2960    9.1480    2.3530 C   0  0  0  0  0  2  0  0  0  0  0  0
    8.7770    9.1050    0.9160 C   0  0  0  0  0  2  0  0  0  0  0  0
    9.1180   10.3830    0.1550 C   0  0  0  0  0  2  0  0  0  0  0  0
   10.6150   10.6810    0.1900 C   0  0  0  0  0  2  0  0  0  0  0  0
   11.1460   10.7400    1.6200 C   0  0  0  0  0  2  0  0  0  0  0  0
   12.5340   13.1950    7.8100 C   0  0  0  0  0  0  0  0  0  0  0  0
   13.5680   12.9380    8.5020 O   0  0  0  0  0  1  0  0  0  0  0  0
   11.7410   14.1730    7.9940 O   0  0  0  0  0  0  0  0  0  0  0  0
   11.3400    2.8870    2.9410 O   0  0  0  0  0  0  0  0  0  0  0  0
   10.0740    2.2660    2.6900 C   0  0  0  0  0  2  0  0  0  0  0  0
    9.7800   -0.8300    0.4560 C   0  0  0  0  0  0  0  0  0  0  0  0
   10.0990   -0.2920   -0.7920 C   0  0  0  0  0  3  0  0  0  0  0  0
   10.4070    1.0660   -0.9330 C   0  0  0  0  0  3  0  0  0  0  0  0
   10.4020    1.9350    0.1700 C   0  0  0  0  0  0  0  0  0  0  0  0
   10.0680    1.4120    1.4350 C   0  0  0  0  0  0  0  0  0  0  0  0
    9.7480    0.0420    1.5530 C   0  0  0  0  0  3  0  0  0  0  0  0
   10.7250    3.3500   -0.0470 C   0  0  0  0  0  0  0  0  0  0  0  0
   12.0350    3.7440   -0.3650 C   0  0  0  0  0  3  0  0  0  0  0  0
   12.3470    5.0920   -0.5610 C   0  0  0  0  0  3  0  0  0  0  0  0
   11.3510    6.0570   -0.4360 C   0  0  0  0  0  0  0  0  0  0  0  0
   11.7360    7.7170   -0.6760 Cl  0  0  0  0  0  0  0  0  0  0  0  0
   10.0470    5.6880   -0.1160 C   0  0  0  0  0  3  0  0  0  0  0  0
    9.7370    4.3400    0.0810 C   0  0  0  0  0  3  0  0  0  0  0  0
    9.4340   -2.2090    0.6000 N   0  0  0  0  0  0  0  0  0  0  0  0
    9.9020   -3.2450   -0.2130 C   0  0  0  0  0  0  0  0  0  0  0  0
   11.2250   -3.0590   -0.9230 C   0  0  0  0  0  1  0  0  0  0  0  0
    9.3130   -4.3250   -0.3130 O   0  0  0  0  0  0  0  0  0  0  0  0
    9.1090   -3.0770    2.9050 C   0  0  0  0  0  1  0  0  0  0  0  0
    8.4490   -2.5810    1.6240 C   0  0  0  0  0  2  0  0  0  0  0  0
  1  2  1  0  0  0  0
  2  3  2  0  0  0  0
  4  8  1  0  0  0  0
  4  3  1  0  0  0  0
  5  4  2  0  0  0  0
  6  5  1  0  0  0  0
  7  5  1  0  0  0  0
  7  1  2  0  0  0  0
  8  9  2  0  0  0  0
  9 10  1  0  0  0  0
 10 11  1  0  0  0  0
 12 11  2  0  0  0  0
 12 23  1  0  0  0  0
 13 12  1  0  0  0  0
 14 15  1  0  0  0  0
 14 13  2  0  0  0  0
 15 10  2  0  0  0  0
 16  8  1  0  0  0  0
 16 15  1  0  0  0  0
 17 16  1  0  0  0  0
 18 17  1  0  0  0  0
 19 18  1  0  0  0  0
 20 21  1  0  0  0  0
 20 19  1  0  0  0  0
 21 22  1  0  0  0  0
 22 17  1  0  0  0  0
 23 25  2  0  0  0  0
 23 24  1  0  0  0  0
 26  1  1  0  0  0  0
 27 26  1  0  0  0  0
 28 41  1  0  0  0  0
 28 33  1  0  0  0  0
 29 28  2  0  0  0  0
 30 29  1  0  0  0  0
 30 31  2  0  0  0  0
 31 32  1  0  0  0  0
 32 33  2  0  0  0  0
 32 27  1  0  0  0  0
 34 40  1  0  0  0  0
 34 31  1  0  0  0  0
 35 34  2  0  0  0  0
 36 37  2  0  0  0  0
 36 35  1  0  0  0  0
 37 39  1  0  0  0  0
 38 37  1  0  0  0  0
 39 40  2  0  0  0  0
 41 46  1  0  0  0  0
 42 41  1  0  0  0  0
 43 42  1  0  0  0  0
 44 42  2  0  0  0  0
 46 45  1  0  0  0  0
M  END
>  <minimizedAffinity>
-6.70664024

$$$$
