REMARK  Name = 
REMARK  7 active torsions:
REMARK  status: ('A' for Active; 'I' for Inactive)
REMARK    1  A    between atoms: C_2  and  C_4
REMARK    2  A    between atoms: C_4  and  C_5
REMARK    3  A    between atoms: C_4  and  N_12
REMARK    4  A    between atoms: C_5  and  C_6
REMARK    5  A    between atoms: N_12  and  C_13
REMARK    6  A    between atoms: C_13  and  C_14
REMARK    7  A    between atoms: C_20  and  C_22
REMARK                            x       y       z     vdW  Elec       q    Type
REMARK                         _______ _______ _______ _____ _____    ______ ____
ROOT
ATOM      1  N   UNL     1       2.663  -0.279   2.491  0.00  0.00    -0.285 N 
ATOM      2  C   UNL     1       1.333  -0.069   2.859  0.00  0.00    +0.249 C 
ATOM      3  O   UNL     1       0.520   0.613   2.240  0.00  0.00    -0.270 OA
ENDROOT
BRANCH   2   4
ATOM      4  C   UNL     1       0.791  -0.813   4.013  0.00  0.00    +0.055 A 
ATOM      5  C   UNL     1       0.633  -2.202   3.881  0.00  0.00    +0.016 A 
ATOM      6  C   UNL     1       0.096  -2.948   4.930  0.00  0.00    +0.021 A 
ATOM      7  C   UNL     1      -0.296  -2.303   6.102  0.00  0.00    +0.042 A 
ATOM      8 CL   UNL     1      -0.959  -3.223   7.396  0.00  0.00    -0.083 Cl
ATOM      9  C   UNL     1      -0.169  -0.920   6.230  0.00  0.00    +0.040 A 
ATOM     10  C   UNL     1       0.364  -0.167   5.178  0.00  0.00    +0.054 A 
ATOM     11 CL   UNL     1       0.477   1.541   5.400  0.00  0.00    -0.083 Cl
ENDBRANCH   2   4
BRANCH   1  12
ATOM     12  C   UNL     1       3.142   0.254   1.167  0.00  0.00    +0.127 C 
BRANCH  12  14
ATOM     13  O   UNL     1       3.056   2.408   0.082  0.00  0.00    -0.548 OA
ATOM     14  C   UNL     1       3.435   1.788   1.117  0.00  0.00    +0.062 C 
ATOM     15  O   UNL     1       4.143   2.222   2.077  0.00  0.00    -0.548 OA
ENDBRANCH  12  14
BRANCH  12  16
ATOM     16  C   UNL     1       2.289  -0.212  -0.034  0.00  0.00    +0.063 C 
BRANCH  16  17
ATOM     17  C   UNL     1       2.048  -1.711  -0.090  0.00  0.00    -0.045 A 
ATOM     18  C   UNL     1       0.741  -2.213  -0.041  0.00  0.00    +0.004 A 
ATOM     19  C   UNL     1       0.505  -3.588  -0.092  0.00  0.00    +0.000 A 
ATOM     20  C   UNL     1       1.575  -4.475  -0.195  0.00  0.00    +0.000 A 
ATOM     21  C   UNL     1       2.880  -3.987  -0.252  0.00  0.00    +0.000 A 
ATOM     22  C   UNL     1       3.116  -2.612  -0.206  0.00  0.00    +0.004 A 
ENDBRANCH  16  17
ENDBRANCH  12  16
ENDBRANCH   1  12
BRANCH   1  23
ATOM     23  C   UNL     1       3.640  -1.045   3.275  0.00  0.00    +0.145 C 
BRANCH  23  24
ATOM     24  C   UNL     1       3.815  -0.635   4.713  0.00  0.00    -0.012 A 
ATOM     25  C   UNL     1       4.027   0.691   5.089  0.00  0.00    +0.008 A 
ATOM     26  C   UNL     1       4.202   1.014   6.431  0.00  0.00    +0.020 A 
ATOM     27  C   UNL     1       4.172  -0.010   7.360  0.00  0.00    +0.111 A 
ATOM     28  N   UNL     1       3.991  -1.311   7.043  0.00  0.00    -0.263 NA
ATOM     29  C   UNL     1       3.826  -1.588   5.728  0.00  0.00    +0.115 A 
ENDBRANCH  23  24
ENDBRANCH   1  23
TORSDOF 7
