
 OpenBabel09132204463D

 29 31  0  0  1  0  0  0  0  0999 V2000
    3.1300   -5.6150    4.8530 N   0  0  0  0  0  0  0  0  0  0  0  0
    2.9630   -6.8300    5.5200 C   0  0  0  0  0  0  0  0  0  0  0  0
    3.7960   -7.7300    5.5830 O   0  0  0  0  0  0  0  0  0  0  0  0
    1.7460   -7.0320    6.3310 C   0  0  0  0  0  0  0  0  0  0  0  0
    0.5410   -7.2760    5.6540 C   0  0  0  0  0  3  0  0  0  0  0  0
   -0.6430   -7.4430    6.3720 C   0  0  0  0  0  3  0  0  0  0  0  0
   -0.6230   -7.3500    7.7630 C   0  0  0  0  0  0  0  0  0  0  0  0
   -2.0840   -7.5550    8.6480 Cl  0  0  0  0  0  0  0  0  0  0  0  0
    0.5650   -7.0800    8.4410 C   0  0  0  0  0  3  0  0  0  0  0  0
    1.7540   -6.9060    7.7250 C   0  0  0  0  0  0  0  0  0  0  0  0
    3.1830   -6.5580    8.6280 Cl  0  0  0  0  0  0  0  0  0  0  0  0
    4.4740   -5.2930    4.2580 C   0  0  2  0  0  3  0  0  0  0  0  0
    6.2210   -3.6520    4.5390 O   0  0  0  0  0  0  0  0  0  0  0  0
    5.4200   -4.4200    5.1450 C   0  0  0  0  0  0  0  0  0  0  0  0
    5.3650   -4.6770    6.3870 O   0  0  0  0  0  1  0  0  0  0  0  0
    4.4000   -4.7730    2.8050 C   0  0  0  0  0  2  0  0  0  0  0  0
    4.6320   -5.8360    1.7440 C   0  0  0  0  0  0  0  0  0  0  0  0
    4.4870   -7.1910    2.0670 C   0  0  0  0  0  3  0  0  0  0  0  0
    4.6960   -8.1790    1.1030 C   0  0  0  0  0  3  0  0  0  0  0  0
    5.0500   -7.8190   -0.1970 C   0  0  0  0  0  3  0  0  0  0  0  0
    5.1890   -6.4730   -0.5320 C   0  0  0  0  0  3  0  0  0  0  0  0
    4.9750   -5.4850    0.4310 C   0  0  0  0  0  3  0  0  0  0  0  0
    2.1000   -4.5750    4.7340 C   0  0  0  0  0  2  0  0  0  0  0  0
    2.2120   -3.4080    5.6790 C   0  0  0  0  0  0  0  0  0  0  0  0
    2.5610   -3.5670    7.0200 C   0  0  0  0  0  3  0  0  0  0  0  0
    2.6320   -2.4580    7.8570 C   0  0  0  0  0  3  0  0  0  0  0  0
    2.3370   -1.2160    7.3240 C   0  0  0  0  0  3  0  0  0  0  0  0
    1.9740   -1.0140    6.0380 N   0  0  0  0  0  0  0  0  0  0  0  0
    1.9140   -2.1170    5.2540 C   0  0  0  0  0  3  0  0  0  0  0  0
  1  2  1  0  0  0  0
  2  3  2  0  0  0  0
  2  4  1  0  0  0  0
  4 10  1  0  0  0  0
  5  4  2  0  0  0  0
  5  6  1  0  0  0  0
  6  7  2  0  0  0  0
  7  9  1  0  0  0  0
  7  8  1  0  0  0  0
 10  9  2  0  0  0  0
 10 11  1  0  0  0  0
 12 16  1  6  0  0  0
 12  1  1  0  0  0  0
 12 14  1  0  0  0  0
 13 14  2  0  0  0  0
 14 15  1  0  0  0  0
 17 18  1  0  0  0  0
 17 16  1  0  0  0  0
 19 18  2  0  0  0  0
 20 19  1  0  0  0  0
 21 20  2  0  0  0  0
 21 22  1  0  0  0  0
 22 17  2  0  0  0  0
 23  1  1  0  0  0  0
 23 24  1  0  0  0  0
 24 25  1  0  0  0  0
 25 26  2  0  0  0  0
 27 26  1  0  0  0  0
 28 27  2  0  0  0  0
 29 24  2  0  0  0  0
 29 28  1  0  0  0  0
M  END
>  <minimizedAffinity>
-6.60806894

$$$$
