
 OpenBabel09132204463D

 29 31  0  0  1  0  0  0  0  0999 V2000
    2.4190   -5.2880    7.1180 N   0  0  0  0  0  0  0  0  0  0  0  0
    2.6600   -5.0850    8.4780 C   0  0  0  0  0  0  0  0  0  0  0  0
    2.6380   -5.9560    9.3450 O   0  0  0  0  0  0  0  0  0  0  0  0
    3.1030   -3.7510    8.9280 C   0  0  0  0  0  0  0  0  0  0  0  0
    2.1290   -2.7480    9.0630 C   0  0  0  0  0  3  0  0  0  0  0  0
    2.4980   -1.4620    9.4550 C   0  0  0  0  0  3  0  0  0  0  0  0
    3.8410   -1.1760    9.6970 C   0  0  0  0  0  0  0  0  0  0  0  0
    4.2970    0.4110   10.1800 Cl  0  0  0  0  0  0  0  0  0  0  0  0
    4.8180   -2.1580    9.5370 C   0  0  0  0  0  3  0  0  0  0  0  0
    4.4520   -3.4490    9.1390 C   0  0  0  0  0  0  0  0  0  0  0  0
    5.7150   -4.6090    8.9460 Cl  0  0  0  0  0  0  0  0  0  0  0  0
    2.2390   -6.6950    6.6160 C   0  0  2  0  0  3  0  0  0  0  0  0
    3.7780   -7.6240    5.0050 O   0  0  0  0  0  0  0  0  0  0  0  0
    3.5510   -7.4550    6.2380 C   0  0  0  0  0  0  0  0  0  0  0  0
    4.1860   -7.9360    7.2260 O   0  0  0  0  0  1  0  0  0  0  0  0
    1.1570   -6.8290    5.5220 C   0  0  0  0  0  2  0  0  0  0  0  0
   -0.2470   -7.0710    6.0520 C   0  0  0  0  0  0  0  0  0  0  0  0
   -0.4410   -7.3890    7.4020 C   0  0  0  0  0  3  0  0  0  0  0  0
   -1.7240   -7.6130    7.9030 C   0  0  0  0  0  3  0  0  0  0  0  0
   -2.8280   -7.5180    7.0570 C   0  0  0  0  0  3  0  0  0  0  0  0
   -2.6480   -7.1940    5.7130 C   0  0  0  0  0  3  0  0  0  0  0  0
   -1.3650   -6.9650    5.2130 C   0  0  0  0  0  3  0  0  0  0  0  0
    2.3860   -4.2260    6.1040 C   0  0  0  0  0  2  0  0  0  0  0  0
    3.5350   -4.1910    5.1330 C   0  0  0  0  0  0  0  0  0  0  0  0
    3.3560   -4.3650    3.7610 C   0  0  0  0  0  3  0  0  0  0  0  0
    4.4540   -4.3430    2.9070 C   0  0  0  0  0  3  0  0  0  0  0  0
    5.7090   -4.1600    3.4600 C   0  0  0  0  0  3  0  0  0  0  0  0
    5.9350   -4.0080    4.7830 N   0  0  0  0  0  0  0  0  0  0  0  0
    4.8430   -4.0370    5.5830 C   0  0  0  0  0  3  0  0  0  0  0  0
  1  2  1  0  0  0  0
  2  4  1  0  0  0  0
  2  3  2  0  0  0  0
  4  5  2  0  0  0  0
  4 10  1  0  0  0  0
  5  6  1  0  0  0  0
  6  7  2  0  0  0  0
  7  8  1  0  0  0  0
  9  7  1  0  0  0  0
 10  9  2  0  0  0  0
 11 10  1  0  0  0  0
 12 16  1  6  0  0  0
 12  1  1  0  0  0  0
 13 14  2  0  0  0  0
 14 12  1  0  0  0  0
 14 15  1  0  0  0  0
 16 17  1  0  0  0  0
 17 18  1  0  0  0  0
 18 19  2  0  0  0  0
 20 19  1  0  0  0  0
 21 20  2  0  0  0  0
 22 21  1  0  0  0  0
 22 17  2  0  0  0  0
 23  1  1  0  0  0  0
 24 29  1  0  0  0  0
 24 23  1  0  0  0  0
 25 24  2  0  0  0  0
 26 27  2  0  0  0  0
 26 25  1  0  0  0  0
 27 28  1  0  0  0  0
 28 29  2  0  0  0  0
M  END
>  <minimizedAffinity>
-6.03448439

$$$$
