
 OpenBabel09132204463D

 29 31  0  0  1  0  0  0  0  0999 V2000
    3.5900   -4.7760    5.7220 N   0  0  0  0  0  0  0  0  0  0  0  0
    3.3470   -3.4170    5.5180 C   0  0  0  0  0  0  0  0  0  0  0  0
    2.8970   -2.9190    4.4890 O   0  0  0  0  0  0  0  0  0  0  0  0
    3.5140   -2.4890    6.6540 C   0  0  0  0  0  0  0  0  0  0  0  0
    2.3540   -1.9970    7.2730 C   0  0  0  0  0  3  0  0  0  0  0  0
    2.4550   -1.0930    8.3310 C   0  0  0  0  0  3  0  0  0  0  0  0
    3.7130   -0.6710    8.7560 C   0  0  0  0  0  0  0  0  0  0  0  0
    3.8380    0.4450   10.0600 Cl  0  0  0  0  0  0  0  0  0  0  0  0
    4.8690   -1.1330    8.1270 C   0  0  0  0  0  3  0  0  0  0  0  0
    4.7720   -2.0360    7.0630 C   0  0  0  0  0  0  0  0  0  0  0  0
    6.2430   -2.5530    6.3220 Cl  0  0  0  0  0  0  0  0  0  0  0  0
    3.1610   -5.7570    4.6630 C   0  0  2  0  0  3  0  0  0  0  0  0
    0.8350   -5.9480    5.2780 O   0  0  0  0  0  1  0  0  0  0  0  0
    1.8830   -6.5950    4.9900 C   0  0  0  0  0  0  0  0  0  0  0  0
    2.0750   -7.8480    5.0540 O   0  0  0  0  0  0  0  0  0  0  0  0
    4.3120   -6.6400    4.1330 C   0  0  0  0  0  2  0  0  0  0  0  0
    4.3600   -6.7700    2.6200 C   0  0  0  0  0  0  0  0  0  0  0  0
    4.7990   -5.6940    1.8380 C   0  0  0  0  0  3  0  0  0  0  0  0
    4.8480   -5.8000    0.4470 C   0  0  0  0  0  3  0  0  0  0  0  0
    4.4600   -6.9850   -0.1760 C   0  0  0  0  0  3  0  0  0  0  0  0
    4.0280   -8.0650    0.5930 C   0  0  0  0  0  3  0  0  0  0  0  0
    3.9840   -7.9620    1.9840 C   0  0  0  0  0  3  0  0  0  0  0  0
    4.1870   -5.3500    6.9350 C   0  0  0  0  0  2  0  0  0  0  0  0
    3.2400   -6.0100    7.9000 C   0  0  0  0  0  0  0  0  0  0  0  0
    2.1820   -5.3230    8.4940 C   0  0  0  0  0  3  0  0  0  0  0  0
    1.3460   -5.9760    9.3950 C   0  0  0  0  0  3  0  0  0  0  0  0
    1.6060   -7.3030    9.6850 C   0  0  0  0  0  3  0  0  0  0  0  0
    2.6300   -8.0050    9.1520 N   0  0  0  0  0  0  0  0  0  0  0  0
    3.4230   -7.3370    8.2820 C   0  0  0  0  0  3  0  0  0  0  0  0
  1 23  1  0  0  0  0
  2  1  1  0  0  0  0
  2  4  1  0  0  0  0
  3  2  2  0  0  0  0
  4 10  2  0  0  0  0
  4  5  1  0  0  0  0
  5  6  2  0  0  0  0
  6  7  1  0  0  0  0
  7  8  1  0  0  0  0
  9  7  2  0  0  0  0
 10  9  1  0  0  0  0
 11 10  1  0  0  0  0
 12 16  1  1  0  0  0
 12 14  1  0  0  0  0
 12  1  1  0  0  0  0
 14 15  2  0  0  0  0
 14 13  1  0  0  0  0
 17 16  1  0  0  0  0
 18 17  2  0  0  0  0
 19 18  1  0  0  0  0
 20 19  2  0  0  0  0
 20 21  1  0  0  0  0
 21 22  2  0  0  0  0
 22 17  1  0  0  0  0
 23 24  1  0  0  0  0
 24 29  2  0  0  0  0
 24 25  1  0  0  0  0
 25 26  2  0  0  0  0
 26 27  1  0  0  0  0
 28 27  2  0  0  0  0
 29 28  1  0  0  0  0
M  END
>  <minimizedAffinity>
-6.32664776

$$$$
