REMARK  Name = 
REMARK  8 active torsions:
REMARK  status: ('A' for Active; 'I' for Inactive)
REMARK    1  A    between atoms: C_1  and  O_2
REMARK    2  A    between atoms: O_2  and  C_3
REMARK    3  A    between atoms: C_7  and  C_8
REMARK    4  A    between atoms: N_10  and  CA_11
REMARK    5  A    between atoms: CA_11  and  CB_12
REMARK    6  A    between atoms: CA_11  and  C_16
REMARK    7  A    between atoms: CB_12  and  CG_13
REMARK    8  A    between atoms: C_24  and  C_25
REMARK                            x       y       z     vdW  Elec       q    Type
REMARK                         _______ _______ _______ _____ _____    ______ ____
ROOT
ATOM      1  C   UNK A   0       1.090   0.394  -2.926  0.00  0.00    +0.132 A 
ATOM      2  C   UNK A   0       2.139   1.284  -3.134  0.00  0.00    +0.047 A 
ATOM      3  C   UNK A   0       1.973   2.375  -3.979  0.00  0.00    +0.013 A 
ATOM      4  C   UNK A   0       0.763   2.613  -4.651  0.00  0.00    -0.002 A 
ATOM      5  C   UNK A   0       0.609   3.692  -5.558  0.00  0.00    +0.079 A 
ATOM      6  C   UNK A   0      -0.607   3.931  -6.189  0.00  0.00    +0.136 A 
ATOM      7  F   UNK A   0      -0.775   4.968  -7.022  0.00  0.00    -0.205 F 
ATOM      8  C   UNK A   0      -1.686   3.095  -5.958  0.00  0.00    +0.040 A 
ATOM      9  C   UNK A   0      -1.549   2.014  -5.085  0.00  0.00    +0.012 A 
ATOM     10  C   UNK A   0      -0.332   1.736  -4.410  0.00  0.00    -0.002 A 
ATOM     11  C   UNK A   0      -0.163   0.623  -3.522  0.00  0.00    +0.104 A 
ENDROOT
BRANCH   5  12
ATOM     12  C   UNK A   0       1.699   4.641  -5.832  0.00  0.00    +0.248 C 
ATOM     13  O   UNK A   0       1.757   5.658  -5.143  0.00  0.00    -0.270 OA
ATOM     14  N   ASP A   1       2.573   4.352  -6.842  0.00  0.00    -0.303 N 
ATOM     15  H   ASP A   1       3.374   4.977  -6.972  0.00  0.00    +0.150 HD
BRANCH  14  16
ATOM     16  CA  ASP A   1       2.665   3.132  -7.681  0.00  0.00    +0.124 C 
BRANCH  16  17
ATOM     17  C   ASP A   1       3.485   1.928  -7.095  0.00  0.00    +0.062 C 
ATOM     18  O   ASP A   1       3.168   0.791  -7.574  0.00  0.00    -0.548 OA
ATOM     19  OXT ASP A   1       4.272   2.166  -6.133  0.00  0.00    -0.548 OA
ENDBRANCH  16  17
BRANCH  16  20
ATOM     20  CB  ASP A   1       3.107   3.466  -9.108  0.00  0.00    +0.080 C 
BRANCH  20  21
ATOM     21  CG  ASP A   1       4.395   4.264  -9.316  0.00  0.00    +0.044 C 
ATOM     22  OD1 ASP A   1       5.004   4.019 -10.402  0.00  0.00    -0.550 OA
ATOM     23  OD2 ASP A   1       4.644   5.167  -8.465  0.00  0.00    -0.550 OA
ENDBRANCH  20  21
ENDBRANCH  16  20
ENDBRANCH  14  16
ENDBRANCH   5  12
BRANCH  11  24
ATOM     24  C   UNK A   0      -1.321  -0.309  -3.255  0.00  0.00    +0.421 C 
ATOM     25  F   UNK A   0      -1.103  -1.339  -2.386  0.00  0.00    -0.166 F 
ATOM     26  F   UNK A   0      -2.402   0.351  -2.730  0.00  0.00    -0.166 F 
ATOM     27  F   UNK A   0      -1.794  -0.909  -4.389  0.00  0.00    -0.166 F 
ENDBRANCH  11  24
BRANCH   1  29
ATOM     28  C   UNK A   0       2.447  -1.421  -2.350  0.00  0.00    +0.277 C 
ATOM     29  O   UNK A   0       1.243  -0.692  -2.104  0.00  0.00    -0.495 OA
ENDBRANCH   1  29
TORSDOF 7
