REMARK  Name = 
REMARK  8 active torsions:
REMARK  status: ('A' for Active; 'I' for Inactive)
REMARK    1  A    between atoms: C_1  and  C_2
REMARK    2  A    between atoms: C_2  and  C_3
REMARK    3  A    between atoms: C_3  and  C_4
REMARK    4  A    between atoms: C_4  and  C_5
REMARK    5  A    between atoms: C_5  and  S_6
REMARK    6  A    between atoms: S_6  and  C_7
REMARK    7  A    between atoms: C_9  and  C_10
REMARK    8  A    between atoms: C_17  and  C_18
REMARK                            x       y       z     vdW  Elec       q    Type
REMARK                         _______ _______ _______ _____ _____    ______ ____
ROOT
ATOM      1  C   UNL     1      -0.941  -3.073  -2.923  0.00  0.00    +0.170 A 
ATOM      2  N   UNL     1      -1.267  -1.828  -2.984  0.00  0.00    -0.222 NA
ATOM      3  C   UNL     1      -0.962  -1.158  -4.150  0.00  0.00    +0.096 A 
ATOM      4  C   UNL     1      -0.361  -1.723  -5.213  0.00  0.00    +0.142 A 
ATOM      5  C   UNL     1      -0.008  -3.153  -5.110  0.00  0.00    +0.270 A 
ATOM      6  O   UNL     1       0.544  -3.769  -6.013  0.00  0.00    -0.266 OA
ATOM      7  N   UNL     1      -0.337  -3.752  -3.930  0.00  0.00    -0.301 N 
ATOM      8  H   UNL     1      -0.122  -4.731  -3.812  0.00  0.00    +0.171 HD
ENDROOT
BRANCH   3   9
ATOM      9  C   UNL     1      -1.343   0.266  -4.182  0.00  0.00    +0.002 A 
ATOM     10  C   UNL     1      -2.626   0.643  -4.603  0.00  0.00    +0.011 A 
ATOM     11  C   UNL     1      -2.986   1.992  -4.641  0.00  0.00    +0.016 A 
ATOM     12  C   UNL     1      -2.066   2.965  -4.252  0.00  0.00    +0.018 A 
ATOM     13 BR   UNL     1      -2.556   4.790  -4.300  0.00  0.00    -0.050 Br
ATOM     14  C   UNL     1      -0.790   2.602  -3.825  0.00  0.00    +0.016 A 
ATOM     15  C   UNL     1      -0.429   1.253  -3.788  0.00  0.00    +0.011 A 
ENDBRANCH   3   9
BRANCH   4  16
ATOM     16  C   UNL     1      -0.031  -0.982  -6.499  0.00  0.00    +0.107 C 
ATOM     17  N   UNL     1       0.242  -0.366  -7.565  0.00  0.00    -0.191 NA
ENDBRANCH   4  16
BRANCH   1  18
ATOM     18  S   UNL     1      -1.253  -4.075  -1.547  0.00  0.00    -0.088 S 
BRANCH  18  19
ATOM     19  C   UNL     1      -1.005  -2.905  -0.174  0.00  0.00    +0.077 C 
BRANCH  19  20
ATOM     20  C   UNL     1       0.411  -2.968   0.406  0.00  0.00    +0.011 C 
BRANCH  20  21
ATOM     21  C   UNL     1       1.526  -2.384  -0.468  0.00  0.00    +0.001 C 
BRANCH  21  23
ATOM     22  C   UNL     1       1.539  -0.027   0.514  0.00  0.00    +0.004 C 
ATOM     23  C   UNL     1       1.427  -0.881  -0.740  0.00  0.00    -0.003 C 
ENDBRANCH  21  23
ENDBRANCH  20  21
ENDBRANCH  19  20
ENDBRANCH  18  19
ENDBRANCH   1  18
TORSDOF 7
