
 OpenBabel09132204463D

 23 24  0  0  0  0  0  0  0  0999 V2000
   -0.7060   -1.5640    4.2820 C   0  0  0  0  0  0  0  0  0  0  0  0
   -0.2640   -2.7740    4.2640 N   0  0  0  0  0  0  0  0  0  0  0  0
    1.1040   -2.9410    4.3220 C   0  0  0  0  0  0  0  0  0  0  0  0
    1.9870   -1.9290    4.4040 C   0  0  0  0  0  0  0  0  0  0  0  0
    1.4440   -0.5570    4.4300 C   0  0  0  0  0  0  0  0  0  0  0  0
    2.1540    0.4390    4.4990 O   0  0  0  0  0  0  0  0  0  0  0  0
    0.0850   -0.4650    4.3670 N   0  0  0  0  0  0  0  0  0  0  0  0
   -0.3360    0.4520    4.3880 H   0  0  0  0  0  0  0  0  0  0  0  0
    1.5740   -4.3380    4.2920 C   0  0  0  0  0  0  0  0  0  0  0  0
    0.6780   -5.3890    4.5320 C   0  0  0  0  0  3  0  0  0  0  0  0
    1.1240   -6.7120    4.5110 C   0  0  0  0  0  3  0  0  0  0  0  0
    2.4640   -6.9870    4.2450 C   0  0  0  0  0  0  0  0  0  0  0  0
    3.0650   -8.7790    4.2130 Br  0  0  0  0  0  0  0  0  0  0  0  0
    3.3630   -5.9510    3.9980 C   0  0  0  0  0  3  0  0  0  0  0  0
    2.9180   -4.6270    4.0200 C   0  0  0  0  0  3  0  0  0  0  0  0
    3.4940   -2.1180    4.4740 C   0  0  0  0  0  2  0  0  0  0  0  0
    4.7440   -2.2760    4.5320 N   0  0  0  0  0  1  0  0  0  0  0  0
   -2.3890   -1.1610    4.2270 S   0  0  0  0  0  0  0  0  0  0  0  0
   -2.5020   -0.2610    2.6480 C   0  0  0  0  0  2  0  0  0  0  0  0
   -3.9480    0.0370    2.2410 C   0  0  0  0  0  2  0  0  0  0  0  0
   -4.1350    1.0370    1.0960 C   0  0  0  0  0  2  0  0  0  0  0  0
   -3.9960    3.5840    0.9810 C   0  0  0  0  0  1  0  0  0  0  0  0
   -4.7660    2.3750    1.4900 C   0  0  0  0  0  2  0  0  0  0  0  0
  1  7  1  0  0  0  0
  2  1  2  0  0  0  0
  2  3  1  0  0  0  0
  3  4  2  0  0  0  0
  4  5  1  0  0  0  0
  4 16  1  0  0  0  0
  5  6  2  0  0  0  0
  7  8  1  0  0  0  0
  7  5  1  0  0  0  0
  9  3  1  0  0  0  0
  9 10  1  0  0  0  0
 11 10  2  0  0  0  0
 12 11  1  0  0  0  0
 13 12  1  0  0  0  0
 14 15  1  0  0  0  0
 14 12  2  0  0  0  0
 15  9  2  0  0  0  0
 16 17  1  0  0  0  0
 18  1  1  0  0  0  0
 19 18  1  0  0  0  0
 20 19  1  0  0  0  0
 21 23  1  0  0  0  0
 21 20  1  0  0  0  0
 22 23  1  0  0  0  0
M  END
>  <minimizedAffinity>
26.5256557

$$$$
