
 OpenBabel09122223113D

 23 24  0  0  0  0  0  0  0  0999 V2000
    4.8760   -4.5010    2.7360 C   0  0  0  0  0  0  0  0  0  0  0  0
    4.2620   -4.2810    1.6250 N   0  0  0  0  0  0  0  0  0  0  0  0
    4.0920   -5.3580    0.7800 C   0  0  0  0  0  0  0  0  0  0  0  0
    4.5160   -6.6060    1.0500 C   0  0  0  0  0  0  0  0  0  0  0  0
    5.2100   -6.8220    2.3350 C   0  0  0  0  0  0  0  0  0  0  0  0
    5.6410   -7.9140    2.6830 O   0  0  0  0  0  0  0  0  0  0  0  0
    5.3440   -5.7150    3.1200 N   0  0  0  0  0  0  0  0  0  0  0  0
    5.8060   -5.8110    4.0120 H   0  0  0  0  0  0  0  0  0  0  0  0
    3.3920   -5.0680   -0.4850 C   0  0  0  0  0  0  0  0  0  0  0  0
    2.4840   -5.9950   -1.0160 C   0  0  0  0  0  3  0  0  0  0  0  0
    1.8260   -5.7260   -2.2180 C   0  0  0  0  0  3  0  0  0  0  0  0
    2.0690   -4.5260   -2.8870 C   0  0  0  0  0  0  0  0  0  0  0  0
    1.1740   -4.1610   -4.5110 Br  0  0  0  0  0  0  0  0  0  0  0  0
    2.9630   -3.5940   -2.3640 C   0  0  0  0  0  3  0  0  0  0  0  0
    3.6230   -3.8640   -1.1630 C   0  0  0  0  0  3  0  0  0  0  0  0
    4.3230   -7.7920    0.1180 C   0  0  0  0  0  2  0  0  0  0  0  0
    4.1630   -8.7750   -0.6550 N   0  0  0  0  0  1  0  0  0  0  0  0
    5.1710   -3.2760    3.9220 S   0  0  0  0  0  0  0  0  0  0  0  0
    3.4870   -2.9280    4.5210 C   0  0  0  0  0  2  0  0  0  0  0  0
    2.7470   -1.9140    3.6450 C   0  0  0  0  0  3  0  0  0  0  0  0
    1.2710   -1.6770    3.9830 C   0  0  0  0  0  3  0  0  0  0  0  0
   -0.8010   -0.2350    3.5950 C   0  0  0  0  0  1  0  0  0  0  0  0
    0.5230   -0.7350    3.0370 C   0  0  0  0  0  2  0  0  0  0  0  0
  1  7  1  0  0  0  0
  1 18  1  0  0  0  0
  2  1  2  0  0  0  0
  3  4  2  0  0  0  0
  3  2  1  0  0  0  0
  4  5  1  0  0  0  0
  5  6  2  0  0  0  0
  5  7  1  0  0  0  0
  7  8  1  0  0  0  0
  9  3  1  0  0  0  0
 10  9  1  0  0  0  0
 11 10  2  0  0  0  0
 12 14  2  0  0  0  0
 12 11  1  0  0  0  0
 13 12  1  0  0  0  0
 14 15  1  0  0  0  0
 15  9  2  0  0  0  0
 16  4  1  0  0  0  0
 17 16  1  0  0  0  0
 18 19  1  0  0  0  0
 20 21  2  0  0  0  0
 20 19  1  0  0  0  0
 23 22  1  0  0  0  0
 23 21  1  0  0  0  0
M  END
>  <minimizedAffinity>
26.3442211

$$$$

 OpenBabel09122223113D

 23 24  0  0  0  0  0  0  0  0999 V2000
   -0.7060   -1.5640    4.2820 C   0  0  0  0  0  0  0  0  0  0  0  0
   -0.2640   -2.7740    4.2640 N   0  0  0  0  0  0  0  0  0  0  0  0
    1.1040   -2.9410    4.3220 C   0  0  0  0  0  0  0  0  0  0  0  0
    1.9870   -1.9290    4.4040 C   0  0  0  0  0  0  0  0  0  0  0  0
    1.4440   -0.5570    4.4300 C   0  0  0  0  0  0  0  0  0  0  0  0
    2.1540    0.4390    4.4990 O   0  0  0  0  0  0  0  0  0  0  0  0
    0.0850   -0.4650    4.3670 N   0  0  0  0  0  0  0  0  0  0  0  0
   -0.3360    0.4520    4.3880 H   0  0  0  0  0  0  0  0  0  0  0  0
    1.5740   -4.3380    4.2920 C   0  0  0  0  0  0  0  0  0  0  0  0
    0.6780   -5.3890    4.5320 C   0  0  0  0  0  3  0  0  0  0  0  0
    1.1240   -6.7120    4.5110 C   0  0  0  0  0  3  0  0  0  0  0  0
    2.4640   -6.9870    4.2450 C   0  0  0  0  0  0  0  0  0  0  0  0
    3.0650   -8.7790    4.2130 Br  0  0  0  0  0  0  0  0  0  0  0  0
    3.3630   -5.9510    3.9980 C   0  0  0  0  0  3  0  0  0  0  0  0
    2.9180   -4.6270    4.0200 C   0  0  0  0  0  3  0  0  0  0  0  0
    3.4940   -2.1180    4.4740 C   0  0  0  0  0  2  0  0  0  0  0  0
    4.7440   -2.2760    4.5320 N   0  0  0  0  0  1  0  0  0  0  0  0
   -2.3890   -1.1610    4.2270 S   0  0  0  0  0  0  0  0  0  0  0  0
   -2.5020   -0.2610    2.6480 C   0  0  0  0  0  2  0  0  0  0  0  0
   -3.9480    0.0370    2.2410 C   0  0  0  0  0  2  0  0  0  0  0  0
   -4.1350    1.0370    1.0960 C   0  0  0  0  0  2  0  0  0  0  0  0
   -3.9960    3.5840    0.9810 C   0  0  0  0  0  1  0  0  0  0  0  0
   -4.7660    2.3750    1.4900 C   0  0  0  0  0  2  0  0  0  0  0  0
  1  7  1  0  0  0  0
  2  1  2  0  0  0  0
  2  3  1  0  0  0  0
  3  4  2  0  0  0  0
  4  5  1  0  0  0  0
  4 16  1  0  0  0  0
  5  6  2  0  0  0  0
  7  8  1  0  0  0  0
  7  5  1  0  0  0  0
  9  3  1  0  0  0  0
  9 10  1  0  0  0  0
 11 10  2  0  0  0  0
 12 11  1  0  0  0  0
 13 12  1  0  0  0  0
 14 15  1  0  0  0  0
 14 12  2  0  0  0  0
 15  9  2  0  0  0  0
 16 17  1  0  0  0  0
 18  1  1  0  0  0  0
 19 18  1  0  0  0  0
 20 19  1  0  0  0  0
 21 23  1  0  0  0  0
 21 20  1  0  0  0  0
 22 23  1  0  0  0  0
M  END
>  <minimizedAffinity>
26.5256557

$$$$

 OpenBabel09122223113D

 23 24  0  0  0  0  0  0  0  0999 V2000
    4.3540   -7.4980    1.6830 C   0  0  0  0  0  0  0  0  0  0  0  0
    3.5120   -7.6020    0.7130 N   0  0  0  0  0  0  0  0  0  0  0  0
    3.3550   -6.4980   -0.1000 C   0  0  0  0  0  0  0  0  0  0  0  0
    4.0260   -5.3430    0.0550 C   0  0  0  0  0  0  0  0  0  0  0  0
    4.9870   -5.2620    1.1730 C   0  0  0  0  0  0  0  0  0  0  0  0
    5.6500   -4.2600    1.4100 O   0  0  0  0  0  0  0  0  0  0  0  0
    5.0910   -6.3880    1.9360 N   0  0  0  0  0  0  0  0  0  0  0  0
    5.7390   -6.3860    2.7090 H   0  0  0  0  0  0  0  0  0  0  0  0
    2.3790   -6.6500   -1.1940 C   0  0  0  0  0  0  0  0  0  0  0  0
    2.2590   -5.6550   -2.1740 C   0  0  0  0  0  3  0  0  0  0  0  0
    1.3290   -5.7930   -3.2080 C   0  0  0  0  0  3  0  0  0  0  0  0
    0.5240   -6.9300   -3.2660 C   0  0  0  0  0  0  0  0  0  0  0  0
   -0.7300   -7.1190   -4.6680 Br  0  0  0  0  0  0  0  0  0  0  0  0
    0.6400   -7.9300   -2.3020 C   0  0  0  0  0  3  0  0  0  0  0  0
    1.5680   -7.7910   -1.2680 C   0  0  0  0  0  3  0  0  0  0  0  0
    3.8540   -4.1300   -0.8460 C   0  0  0  0  0  2  0  0  0  0  0  0
    3.7100   -3.1240   -1.5930 N   0  0  0  0  0  1  0  0  0  0  0  0
    4.6890   -8.7800    2.7960 S   0  0  0  0  0  0  0  0  0  0  0  0
    4.3620   -7.9740    4.3960 C   0  0  0  0  0  2  0  0  0  0  0  0
    2.9290   -7.4450    4.5080 C   0  0  0  0  0  2  0  0  0  0  0  0
    2.7390   -5.9470    4.2460 C   0  0  0  0  0  2  0  0  0  0  0  0
    3.6910   -3.5820    4.3770 C   0  0  0  0  0  1  0  0  0  0  0  0
    3.9600   -5.0710    4.5350 C   0  0  0  0  0  2  0  0  0  0  0  0
  1  7  1  0  0  0  0
  1 18  1  0  0  0  0
  2  1  2  0  0  0  0
  3  4  2  0  0  0  0
  3  2  1  0  0  0  0
  4  5  1  0  0  0  0
  5  6  2  0  0  0  0
  5  7  1  0  0  0  0
  7  8  1  0  0  0  0
  9  3  1  0  0  0  0
 10  9  2  0  0  0  0
 11 10  1  0  0  0  0
 12 11  2  0  0  0  0
 12 14  1  0  0  0  0
 13 12  1  0  0  0  0
 14 15  2  0  0  0  0
 15  9  1  0  0  0  0
 16  4  1  0  0  0  0
 17 16  1  0  0  0  0
 18 19  1  0  0  0  0
 19 20  1  0  0  0  0
 21 20  1  0  0  0  0
 21 23  1  0  0  0  0
 22 23  1  0  0  0  0
M  END
>  <minimizedAffinity>
27.2922516

$$$$

 OpenBabel09122223113D

 23 24  0  0  0  0  0  0  0  0999 V2000
    4.6060   -4.2800    2.1270 C   0  0  0  0  0  0  0  0  0  0  0  0
    3.9410   -4.1450    1.0310 N   0  0  0  0  0  0  0  0  0  0  0  0
    3.8160   -5.2630    0.2340 C   0  0  0  0  0  0  0  0  0  0  0  0
    4.3330   -6.4690    0.5330 C   0  0  0  0  0  0  0  0  0  0  0  0
    5.0820   -6.5880    1.8000 C   0  0  0  0  0  0  0  0  0  0  0  0
    5.5980   -7.6350    2.1720 O   0  0  0  0  0  0  0  0  0  0  0  0
    5.1680   -5.4450    2.5370 N   0  0  0  0  0  0  0  0  0  0  0  0
    5.6650   -5.4750    3.4150 H   0  0  0  0  0  0  0  0  0  0  0  0
    3.0550   -5.0700   -1.0150 C   0  0  0  0  0  0  0  0  0  0  0  0
    2.2040   -6.0800   -1.4840 C   0  0  0  0  0  3  0  0  0  0  0  0
    1.4880   -5.9010   -2.6710 C   0  0  0  0  0  3  0  0  0  0  0  0
    1.6180   -4.7110   -3.3850 C   0  0  0  0  0  0  0  0  0  0  0  0
    0.6460   -4.4690   -4.9880 Br  0  0  0  0  0  0  0  0  0  0  0  0
    2.4560   -3.6970   -2.9240 C   0  0  0  0  0  3  0  0  0  0  0  0
    3.1730   -3.8760   -1.7390 C   0  0  0  0  0  3  0  0  0  0  0  0
    4.1880   -7.7000   -0.3470 C   0  0  0  0  0  2  0  0  0  0  0  0
    4.0690   -8.7210   -1.0770 N   0  0  0  0  0  1  0  0  0  0  0  0
    4.8580   -2.9930    3.2550 S   0  0  0  0  0  0  0  0  0  0  0  0
    3.6050   -3.3630    4.5240 C   0  0  0  0  0  2  0  0  0  0  0  0
    2.6130   -4.4410    4.0760 C   0  0  0  0  0  3  0  0  0  0  0  0
    2.9470   -5.8790    4.4860 C   0  0  0  0  0  3  0  0  0  0  0  0
    2.3350   -8.3550    4.3660 C   0  0  0  0  0  1  0  0  0  0  0  0
    2.1440   -6.9680    3.7710 C   0  0  0  0  0  2  0  0  0  0  0  0
  1  7  1  0  0  0  0
  1 18  1  0  0  0  0
  2  1  2  0  0  0  0
  3  4  2  0  0  0  0
  3  2  1  0  0  0  0
  4  5  1  0  0  0  0
  5  6  2  0  0  0  0
  5  7  1  0  0  0  0
  7  8  1  0  0  0  0
  9  3  1  0  0  0  0
 10  9  1  0  0  0  0
 11 10  2  0  0  0  0
 12 14  2  0  0  0  0
 12 11  1  0  0  0  0
 13 12  1  0  0  0  0
 14 15  1  0  0  0  0
 15  9  2  0  0  0  0
 16  4  1  0  0  0  0
 17 16  1  0  0  0  0
 18 19  1  0  0  0  0
 20 21  2  0  0  0  0
 20 19  1  0  0  0  0
 23 22  1  0  0  0  0
 23 21  1  0  0  0  0
M  END
>  <minimizedAffinity>
28.6149292

$$$$
