
 OpenBabel09132204463D

 23 24  0  0  0  0  0  0  0  0999 V2000
    4.6060   -4.2800    2.1270 C   0  0  0  0  0  0  0  0  0  0  0  0
    3.9410   -4.1450    1.0310 N   0  0  0  0  0  0  0  0  0  0  0  0
    3.8160   -5.2630    0.2340 C   0  0  0  0  0  0  0  0  0  0  0  0
    4.3330   -6.4690    0.5330 C   0  0  0  0  0  0  0  0  0  0  0  0
    5.0820   -6.5880    1.8000 C   0  0  0  0  0  0  0  0  0  0  0  0
    5.5980   -7.6350    2.1720 O   0  0  0  0  0  0  0  0  0  0  0  0
    5.1680   -5.4450    2.5370 N   0  0  0  0  0  0  0  0  0  0  0  0
    5.6650   -5.4750    3.4150 H   0  0  0  0  0  0  0  0  0  0  0  0
    3.0550   -5.0700   -1.0150 C   0  0  0  0  0  0  0  0  0  0  0  0
    2.2040   -6.0800   -1.4840 C   0  0  0  0  0  3  0  0  0  0  0  0
    1.4880   -5.9010   -2.6710 C   0  0  0  0  0  3  0  0  0  0  0  0
    1.6180   -4.7110   -3.3850 C   0  0  0  0  0  0  0  0  0  0  0  0
    0.6460   -4.4690   -4.9880 Br  0  0  0  0  0  0  0  0  0  0  0  0
    2.4560   -3.6970   -2.9240 C   0  0  0  0  0  3  0  0  0  0  0  0
    3.1730   -3.8760   -1.7390 C   0  0  0  0  0  3  0  0  0  0  0  0
    4.1880   -7.7000   -0.3470 C   0  0  0  0  0  2  0  0  0  0  0  0
    4.0690   -8.7210   -1.0770 N   0  0  0  0  0  1  0  0  0  0  0  0
    4.8580   -2.9930    3.2550 S   0  0  0  0  0  0  0  0  0  0  0  0
    3.6050   -3.3630    4.5240 C   0  0  0  0  0  2  0  0  0  0  0  0
    2.6130   -4.4410    4.0760 C   0  0  0  0  0  3  0  0  0  0  0  0
    2.9470   -5.8790    4.4860 C   0  0  0  0  0  3  0  0  0  0  0  0
    2.3350   -8.3550    4.3660 C   0  0  0  0  0  1  0  0  0  0  0  0
    2.1440   -6.9680    3.7710 C   0  0  0  0  0  2  0  0  0  0  0  0
  1  7  1  0  0  0  0
  1 18  1  0  0  0  0
  2  1  2  0  0  0  0
  3  4  2  0  0  0  0
  3  2  1  0  0  0  0
  4  5  1  0  0  0  0
  5  6  2  0  0  0  0
  5  7  1  0  0  0  0
  7  8  1  0  0  0  0
  9  3  1  0  0  0  0
 10  9  1  0  0  0  0
 11 10  2  0  0  0  0
 12 14  2  0  0  0  0
 12 11  1  0  0  0  0
 13 12  1  0  0  0  0
 14 15  1  0  0  0  0
 15  9  2  0  0  0  0
 16  4  1  0  0  0  0
 17 16  1  0  0  0  0
 18 19  1  0  0  0  0
 20 21  2  0  0  0  0
 20 19  1  0  0  0  0
 23 22  1  0  0  0  0
 23 21  1  0  0  0  0
M  END
>  <minimizedAffinity>
28.6149292

$$$$
