REMARK  Name = 
REMARK  4 active torsions:
REMARK  status: ('A' for Active; 'I' for Inactive)
REMARK    1  A    between atoms: C_3  and  C_4
REMARK    2  A    between atoms: C_16  and  O_17
REMARK    3  A    between atoms: N_24  and  C_25
REMARK    4  A    between atoms: C_25  and  C_26
REMARK                            x       y       z     vdW  Elec       q    Type
REMARK                         _______ _______ _______ _____ _____    ______ ____
ROOT
ATOM      1  O   UNL     1       1.334  -0.603  -1.898  0.00  0.00    -0.267 OA
ATOM      2  C   UNL     1       2.487  -0.645  -1.484  0.00  0.00    +0.271 A 
ATOM      3  C   UNL     1       2.946  -1.874  -0.737  0.00  0.00    +0.170 A 
ATOM      4  C   UNL     1       4.272  -2.101  -0.875  0.00  0.00    +0.148 A 
ATOM      5  C   UNL     1       5.122  -1.048  -1.489  0.00  0.00    +0.060 A 
ATOM      6  C   UNL     1       6.433  -1.263  -1.904  0.00  0.00    +0.016 A 
ATOM      7  C   UNL     1       7.205  -0.171  -2.294  0.00  0.00    +0.021 A 
ATOM      8  C   UNL     1       6.649   1.099  -2.222  0.00  0.00    +0.113 A 
ATOM      9  N   UNL     1       5.388   1.351  -1.802  0.00  0.00    -0.237 NA
ATOM     10  C   UNL     1       4.641   0.281  -1.470  0.00  0.00    +0.147 A 
ATOM     11  N   UNL     1       3.284   0.427  -1.058  0.00  0.00    -0.292 N 
ENDROOT
BRANCH   3  12
ATOM     12  C   UNL     1       2.264  -1.669   0.614  0.00  0.00    +0.308 C 
ATOM     13  N   UNL     1       0.940  -1.550   0.570  0.00  0.00    -0.131 N 
ATOM     14  S   UNL     1       0.108  -0.323   1.253  0.00  0.00    +0.141 S 
ATOM     15  O   UNL     1      -1.035  -0.016   0.419  0.00  0.00    -0.129 OA
ATOM     16  O   UNL     1      -0.065  -0.525   2.675  0.00  0.00    -0.129 OA
ATOM     17  C   UNL     1       1.230   1.028   1.045  0.00  0.00    +0.175 A 
ATOM     18  C   UNL     1       0.833   2.639   0.373  0.00  0.00    +0.035 A 
ATOM     19  C   UNL     1       2.191   3.761  -0.003  0.00  0.00    +0.002 A 
ATOM     20  C   UNL     1       3.927   3.244   0.255  0.00  0.00    +0.004 A 
ATOM     21  C   UNL     1       4.281   1.632   0.978  0.00  0.00    +0.051 A 
ATOM     22  C   UNL     1       2.921   0.513   1.320  0.00  0.00    +0.147 A 
ATOM     23  N   UNL     1       3.073  -0.892   1.514  0.00  0.00    -0.200 N 
ATOM     24  H   UNL     1       0.459  -1.918  -0.239  0.00  0.00    +0.339 HD
ATOM     25  H   UNL     1       4.053  -1.165   1.598  0.00  0.00    +0.298 HD
ENDBRANCH   3  12
BRANCH   4  26
ATOM     26  O   UNL     1       4.961  -3.015  -0.104  0.00  0.00    -0.505 OA
ATOM     27  H   UNL     1       4.378  -3.765   0.113  0.00  0.00    +0.292 HD
ENDBRANCH   4  26
BRANCH  11  28
ATOM     28  C   UNL     1       2.659   1.761  -0.353  0.00  0.00    +0.130 C 
BRANCH  28  29
ATOM     29  C   UNL     1       2.560   2.559   1.706  0.00  0.00    +0.009 C 
ATOM     30  C   UNL     1       2.592   1.719   3.295  0.00  0.00    +0.005 C 
ATOM     31  C   UNL     1       1.895   2.484   4.428  0.00  0.00    +0.000 C 
ATOM     32  C   UNL     1       2.613   3.760   4.789  0.00  0.00    +0.000 C 
ATOM     33  C   UNL     1       2.712   4.657   3.582  0.00  0.00    +0.000 C 
ATOM     34  C   UNL     1       3.429   3.989   2.401  0.00  0.00    +0.005 C 
ENDBRANCH  28  29
ENDBRANCH  11  28
TORSDOF 4
